# generated using pymatgen
data_Cs(ZrS2)3
_symmetry_space_group_name_H-M   'P 1'
_cell_length_a   6.34551164
_cell_length_b   6.34551120
_cell_length_c   8.93032578
_cell_angle_alpha   96.78296222
_cell_angle_beta   96.78296392
_cell_angle_gamma   119.90224780
_symmetry_Int_Tables_number   1
_chemical_formula_structural   Cs(ZrS2)3
_chemical_formula_sum   'Cs1 Zr3 S6'
_cell_volume   302.92022334
_cell_formula_units_Z   1
loop_
 _symmetry_equiv_pos_site_id
 _symmetry_equiv_pos_as_xyz
  1  'x, y, z'
loop_
 _atom_site_type_symbol
 _atom_site_label
 _atom_site_symmetry_multiplicity
 _atom_site_fract_x
 _atom_site_fract_y
 _atom_site_fract_z
 _atom_site_occupancy
  Cs  Cs0  1  0.000000  0.000000  0.500000  1
  Zr  Zr1  1  0.832910  0.167090  0.000000  1
  Zr  Zr2  1  0.500000  0.500000  0.000000  1
  Zr  Zr3  1  0.167090  0.832910  0.000000  1
  S  S4  1  0.225315  0.225315  0.172839  1
  S  S5  1  0.891338  0.556564  0.173536  1
  S  S6  1  0.556564  0.891338  0.173536  1
  S  S7  1  0.443436  0.108662  0.826465  1
  S  S8  1  0.108662  0.443436  0.826465  1
  S  S9  1  0.774687  0.774687  0.827162  1
