# generated using pymatgen
data_YbMnNi(Sb6Os)2
_symmetry_space_group_name_H-M   'P 1'
_cell_length_a   8.07693947
_cell_length_b   8.06802649
_cell_length_c   8.12630472
_cell_angle_alpha   109.48861102
_cell_angle_beta   109.55294593
_cell_angle_gamma   109.44882549
_symmetry_Int_Tables_number   1
_chemical_formula_structural   YbMnNi(Sb6Os)2
_chemical_formula_sum   'Yb1 Mn1 Ni1 Sb12 Os2'
_cell_volume   407.26134877
_cell_formula_units_Z   1
loop_
 _symmetry_equiv_pos_site_id
 _symmetry_equiv_pos_as_xyz
  1  'x, y, z'
loop_
 _atom_site_type_symbol
 _atom_site_label
 _atom_site_symmetry_multiplicity
 _atom_site_fract_x
 _atom_site_fract_y
 _atom_site_fract_z
 _atom_site_occupancy
  Yb  Yb0  1  0.000000  0.000000  0.000000  1
  Mn  Mn1  1  0.500000  0.000000  0.000000  1
  Ni  Ni2  1  0.000000  0.000000  0.500000  1
  Sb  Sb3  1  0.845844  0.663522  0.503972  1
  Sb  Sb4  1  0.154156  0.336478  0.496028  1
  Sb  Sb5  1  0.161555  0.665878  0.821613  1
  Sb  Sb6  1  0.838445  0.334122  0.178387  1
  Sb  Sb7  1  0.659392  0.503125  0.842166  1
  Sb  Sb8  1  0.340608  0.496875  0.157834  1
  Sb  Sb9  1  0.661940  0.821424  0.156895  1
  Sb  Sb10  1  0.338060  0.178576  0.843105  1
  Sb  Sb11  1  0.503185  0.844336  0.666169  1
  Sb  Sb12  1  0.496815  0.155664  0.333831  1
  Sb  Sb13  1  0.181898  0.845008  0.341345  1
  Sb  Sb14  1  0.818102  0.154992  0.658655  1
  Os  Os15  1  0.500000  0.500000  0.500000  1
  Os  Os16  1  0.000000  0.500000  0.000000  1
