# generated using pymatgen
data_Er2Si(PRu2)6
_symmetry_space_group_name_H-M   'P 1'
_cell_length_a   9.42370600
_cell_length_b   9.42370568
_cell_length_c   3.95759100
_cell_angle_alpha   90.00000000
_cell_angle_beta   90.00000000
_cell_angle_gamma   119.99999411
_symmetry_Int_Tables_number   1
_chemical_formula_structural   Er2Si(PRu2)6
_chemical_formula_sum   'Er2 Si1 P6 Ru12'
_cell_volume   304.37221832
_cell_formula_units_Z   1
loop_
 _symmetry_equiv_pos_site_id
 _symmetry_equiv_pos_as_xyz
  1  'x, y, z'
loop_
 _atom_site_type_symbol
 _atom_site_label
 _atom_site_symmetry_multiplicity
 _atom_site_fract_x
 _atom_site_fract_y
 _atom_site_fract_z
 _atom_site_occupancy
  Er  Er0  1  0.666667  0.333333  0.500000  1
  Er  Er1  1  0.333333  0.666667  0.000000  1
  Si  Si2  1  0.000000  0.000000  0.000000  1
  P  P3  1  0.601829  0.719352  0.500000  1
  P  P4  1  0.280648  0.882477  0.500000  1
  P  P5  1  0.117523  0.398171  0.500000  1
  P  P6  1  0.886060  0.574749  0.000000  1
  P  P7  1  0.425251  0.311310  0.000000  1
  P  P8  1  0.688690  0.113940  0.000000  1
  Ru  Ru9  1  0.554541  0.950090  0.500000  1
  Ru  Ru10  1  0.395552  0.445459  0.500000  1
  Ru  Ru11  1  0.912740  0.120820  0.500000  1
  Ru  Ru12  1  0.208080  0.087260  0.500000  1
  Ru  Ru13  1  0.879180  0.791920  0.500000  1
  Ru  Ru14  1  0.720241  0.886906  0.000000  1
  Ru  Ru15  1  0.113094  0.833333  0.000000  1
  Ru  Ru16  1  0.166667  0.279759  0.000000  1
  Ru  Ru17  1  0.424993  0.068199  0.000000  1
  Ru  Ru18  1  0.931801  0.356795  0.000000  1
  Ru  Ru19  1  0.643205  0.575007  0.000000  1
  Ru  Ru20  1  0.049910  0.604448  0.500000  1
