# generated using pymatgen
data_Y4Er8Ni5Bi
_symmetry_space_group_name_H-M   'P 1'
_cell_length_a   8.34832461
_cell_length_b   8.36055171
_cell_length_c   8.34832526
_cell_angle_alpha   111.66610350
_cell_angle_beta   108.92409463
_cell_angle_gamma   107.78822434
_symmetry_Int_Tables_number   1
_chemical_formula_structural   Y4Er8Ni5Bi
_chemical_formula_sum   'Y4 Er8 Ni5 Bi1'
_cell_volume   448.33582393
_cell_formula_units_Z   1
loop_
 _symmetry_equiv_pos_site_id
 _symmetry_equiv_pos_as_xyz
  1  'x, y, z'
loop_
 _atom_site_type_symbol
 _atom_site_label
 _atom_site_symmetry_multiplicity
 _atom_site_fract_x
 _atom_site_fract_y
 _atom_site_fract_z
 _atom_site_occupancy
  Y  Y0  1  0.819639  0.705681  0.525466  1
  Y  Y1  1  0.180361  0.294319  0.474534  1
  Y  Y2  1  0.180216  0.705681  0.886042  1
  Y  Y3  1  0.819784  0.294319  0.113958  1
  Er  Er4  1  0.679729  0.370289  0.690561  1
  Er  Er5  1  0.320271  0.629711  0.309439  1
  Er  Er6  1  0.679575  0.988850  0.309275  1
  Er  Er7  1  0.320425  0.011150  0.690725  1
  Er  Er8  1  0.601305  0.794131  0.807200  1
  Er  Er9  1  0.398695  0.205869  0.192800  1
  Er  Er10  1  0.986932  0.794131  0.192827  1
  Er  Er11  1  0.013068  0.205869  0.807173  1
  Ni  Ni12  1  0.631050  0.000000  0.631050  1
  Ni  Ni13  1  0.368950  0.000000  0.368950  1
  Ni  Ni14  1  0.125457  0.626327  0.500869  1
  Ni  Ni15  1  0.874543  0.373673  0.499131  1
  Ni  Ni16  1  0.000000  0.000000  0.000000  1
  Bi  Bi17  1  0.500000  0.500000  0.000000  1
