# generated using pymatgen
data_Er2Zr3Si3Ge
_symmetry_space_group_name_H-M   'P 1'
_cell_length_a   7.34906718
_cell_length_b   7.34885669
_cell_length_c   13.47095302
_cell_angle_alpha   89.98288547
_cell_angle_beta   90.00437088
_cell_angle_gamma   90.08018899
_symmetry_Int_Tables_number   1
_chemical_formula_structural   Er2Zr3Si3Ge
_chemical_formula_sum   'Er8 Zr12 Si12 Ge4'
_cell_volume   727.52826636
_cell_formula_units_Z   4
loop_
 _symmetry_equiv_pos_site_id
 _symmetry_equiv_pos_as_xyz
  1  'x, y, z'
loop_
 _atom_site_type_symbol
 _atom_site_label
 _atom_site_symmetry_multiplicity
 _atom_site_fract_x
 _atom_site_fract_y
 _atom_site_fract_z
 _atom_site_occupancy
  Er  Er0  1  0.344498  0.000681  0.464314  1
  Er  Er1  1  0.498928  0.844054  0.714531  1
  Er  Er2  1  0.500080  0.153552  0.215409  1
  Er  Er3  1  0.847329  0.500287  0.285094  1
  Er  Er4  1  0.153814  0.502018  0.784335  1
  Er  Er5  1  0.656577  0.997024  0.965064  1
  Er  Er6  1  0.001687  0.346648  0.534572  1
  Er  Er7  1  0.997425  0.655748  0.035454  1
  Zr  Zr8  1  0.323344  0.323529  0.000127  1
  Zr  Zr9  1  0.174019  0.825722  0.250133  1
  Zr  Zr10  1  0.823410  0.174098  0.750362  1
  Zr  Zr11  1  0.674096  0.676601  0.500349  1
  Zr  Zr12  1  0.148039  0.004909  0.876064  1
  Zr  Zr13  1  0.493603  0.651686  0.126879  1
  Zr  Zr14  1  0.505612  0.352014  0.626464  1
  Zr  Zr15  1  0.652239  0.493979  0.873597  1
  Zr  Zr16  1  0.348521  0.506465  0.373779  1
  Zr  Zr17  1  0.852668  0.994601  0.375926  1
  Zr  Zr18  1  0.004978  0.147967  0.124578  1
  Zr  Zr19  1  0.994185  0.848442  0.624134  1
  Si  Si20  1  0.294002  0.637987  0.567658  1
  Si  Si21  1  0.793466  0.861864  0.182764  1
  Si  Si22  1  0.138109  0.206211  0.317767  1
  Si  Si23  1  0.861961  0.793895  0.817685  1
  Si  Si24  1  0.297600  0.954234  0.065246  1
  Si  Si25  1  0.549501  0.797466  0.314020  1
  Si  Si26  1  0.454472  0.202089  0.815870  1
  Si  Si27  1  0.797662  0.548364  0.686018  1
  Si  Si28  1  0.202515  0.451119  0.186022  1
  Si  Si29  1  0.702547  0.046281  0.565285  1
  Si  Si30  1  0.954793  0.297717  0.934745  1
  Si  Si31  1  0.049107  0.702771  0.436587  1
  Ge  Ge32  1  0.204911  0.137040  0.679267  1
  Ge  Ge33  1  0.363027  0.704574  0.929439  1
  Ge  Ge34  1  0.637030  0.295314  0.429334  1
  Ge  Ge35  1  0.704245  0.363052  0.071128  1
