# generated using pymatgen
data_Tb8Gd4InGaCo4
_symmetry_space_group_name_H-M   'P 1'
_cell_length_a   8.37845429
_cell_length_b   8.37845357
_cell_length_c   8.37845450
_cell_angle_alpha   112.24264730
_cell_angle_beta   109.36573897
_cell_angle_gamma   106.85035907
_symmetry_Int_Tables_number   1
_chemical_formula_structural   Tb8Gd4InGaCo4
_chemical_formula_sum   'Tb8 Gd4 In1 Ga1 Co4'
_cell_volume   451.75605631
_cell_formula_units_Z   1
loop_
 _symmetry_equiv_pos_site_id
 _symmetry_equiv_pos_as_xyz
  1  'x, y, z'
loop_
 _atom_site_type_symbol
 _atom_site_label
 _atom_site_symmetry_multiplicity
 _atom_site_fract_x
 _atom_site_fract_y
 _atom_site_fract_z
 _atom_site_occupancy
  Tb  Tb0  1  0.674500  0.860716  0.186216  1
  Tb  Tb1  1  0.325500  0.511717  0.186216  1
  Tb  Tb2  1  0.325500  0.139284  0.813784  1
  Tb  Tb3  1  0.674500  0.488283  0.813784  1
  Tb  Tb4  1  0.179632  0.218203  0.397835  1
  Tb  Tb5  1  0.820368  0.218203  0.038571  1
  Tb  Tb6  1  0.179632  0.781797  0.961429  1
  Tb  Tb7  1  0.820368  0.781797  0.602165  1
  Gd  Gd8  1  0.033379  0.733567  0.299811  1
  Gd  Gd9  1  0.966621  0.266433  0.700189  1
  Gd  Gd10  1  0.566244  0.266433  0.299811  1
  Gd  Gd11  1  0.433756  0.733567  0.700189  1
  In  In12  1  0.500000  0.000000  0.500000  1
  Ga  Ga13  1  0.000000  0.500000  0.500000  1
  Co  Co14  1  0.662057  0.500000  0.162057  1
  Co  Co15  1  0.337943  0.500000  0.837943  1
  Co  Co16  1  0.886765  0.886765  0.000000  1
  Co  Co17  1  0.113235  0.113235  0.000000  1
