# generated using pymatgen
data_YbHo3Sc6(Si5Ir2)4
_symmetry_space_group_name_H-M   'P 1'
_cell_length_a   12.49594425
_cell_length_b   12.49594456
_cell_length_c   4.14957900
_cell_angle_alpha   90.00000000
_cell_angle_beta   90.00000000
_cell_angle_gamma   89.98278734
_symmetry_Int_Tables_number   1
_chemical_formula_structural   YbHo3Sc6(Si5Ir2)4
_chemical_formula_sum   'Yb1 Ho3 Sc6 Si20 Ir8'
_cell_volume   647.95103267
_cell_formula_units_Z   1
loop_
 _symmetry_equiv_pos_site_id
 _symmetry_equiv_pos_as_xyz
  1  'x, y, z'
loop_
 _atom_site_type_symbol
 _atom_site_label
 _atom_site_symmetry_multiplicity
 _atom_site_fract_x
 _atom_site_fract_y
 _atom_site_fract_z
 _atom_site_occupancy
  Yb  Yb0  1  0.116015  0.616015  0.500000  1
  Ho  Ho1  1  0.883279  0.383279  0.500000  1
  Ho  Ho2  1  0.615994  0.884125  0.500000  1
  Ho  Ho3  1  0.384125  0.115994  0.500000  1
  Sc  Sc4  1  0.673361  0.173361  0.500000  1
  Sc  Sc5  1  0.327011  0.827011  0.500000  1
  Sc  Sc6  1  0.174764  0.326042  0.500000  1
  Sc  Sc7  1  0.826042  0.674764  0.500000  1
  Sc  Sc8  1  0.999983  0.000093  0.000000  1
  Sc  Sc9  1  0.500093  0.499983  0.000000  1
  Si  Si10  1  0.567375  0.067375  0.000000  1
  Si  Si11  1  0.432619  0.932619  0.000000  1
  Si  Si12  1  0.067661  0.432261  0.000000  1
  Si  Si13  1  0.932261  0.567661  0.000000  1
  Si  Si14  1  0.199333  0.165580  0.000000  1
  Si  Si15  1  0.799701  0.834492  0.000000  1
  Si  Si16  1  0.165823  0.800508  0.000000  1
  Si  Si17  1  0.699343  0.333911  0.000000  1
  Si  Si18  1  0.833911  0.199343  0.000000  1
  Si  Si19  1  0.300508  0.665823  0.000000  1
  Si  Si20  1  0.665580  0.699333  0.000000  1
  Si  Si21  1  0.334492  0.299701  0.000000  1
  Si  Si22  1  0.008001  0.150636  0.500000  1
  Si  Si23  1  0.993114  0.849222  0.500000  1
  Si  Si24  1  0.151315  0.991986  0.500000  1
  Si  Si25  1  0.507323  0.349173  0.500000  1
  Si  Si26  1  0.849173  0.007323  0.500000  1
  Si  Si27  1  0.491986  0.651315  0.500000  1
  Si  Si28  1  0.650636  0.508001  0.500000  1
  Si  Si29  1  0.349222  0.493114  0.500000  1
  Ir  Ir30  1  0.019624  0.244336  0.000000  1
  Ir  Ir31  1  0.978661  0.756591  0.000000  1
  Ir  Ir32  1  0.244704  0.980085  0.000000  1
  Ir  Ir33  1  0.520528  0.255427  0.000000  1
  Ir  Ir34  1  0.755427  0.020528  0.000000  1
  Ir  Ir35  1  0.480085  0.744704  0.000000  1
  Ir  Ir36  1  0.744336  0.519624  0.000000  1
  Ir  Ir37  1  0.256591  0.478661  0.000000  1
