# generated using pymatgen
data_DyEr2Lu2CoSb2
_symmetry_space_group_name_H-M   'P 1'
_cell_length_a   7.72875100
_cell_length_b   8.73581500
_cell_length_c   12.05740800
_cell_angle_alpha   90.00000000
_cell_angle_beta   90.00000000
_cell_angle_gamma   90.00000000
_symmetry_Int_Tables_number   1
_chemical_formula_structural   DyEr2Lu2CoSb2
_chemical_formula_sum   'Dy4 Er8 Lu8 Co4 Sb8'
_cell_volume   814.07927943
_cell_formula_units_Z   4
loop_
 _symmetry_equiv_pos_site_id
 _symmetry_equiv_pos_as_xyz
  1  'x, y, z'
loop_
 _atom_site_type_symbol
 _atom_site_label
 _atom_site_symmetry_multiplicity
 _atom_site_fract_x
 _atom_site_fract_y
 _atom_site_fract_z
 _atom_site_occupancy
  Dy  Dy0  1  0.623504  0.750000  0.308341  1
  Dy  Dy1  1  0.876496  0.750000  0.808341  1
  Dy  Dy2  1  0.376496  0.250000  0.691659  1
  Dy  Dy3  1  0.123504  0.250000  0.191659  1
  Er  Er4  1  0.153730  0.750000  0.203809  1
  Er  Er5  1  0.346270  0.750000  0.703809  1
  Er  Er6  1  0.846270  0.250000  0.796191  1
  Er  Er7  1  0.653730  0.250000  0.296191  1
  Er  Er8  1  0.450196  0.750000  0.997590  1
  Er  Er9  1  0.049804  0.750000  0.497590  1
  Er  Er10  1  0.549804  0.250000  0.002410  1
  Er  Er11  1  0.950196  0.250000  0.502410  1
  Lu  Lu12  1  0.824675  0.535796  0.065169  1
  Lu  Lu13  1  0.675325  0.964204  0.565169  1
  Lu  Lu14  1  0.175325  0.035796  0.934831  1
  Lu  Lu15  1  0.324675  0.464204  0.434831  1
  Lu  Lu16  1  0.175325  0.464204  0.934831  1
  Lu  Lu17  1  0.324675  0.035796  0.434831  1
  Lu  Lu18  1  0.824675  0.964204  0.065169  1
  Lu  Lu19  1  0.675325  0.535796  0.565169  1
  Co  Co20  1  0.435295  0.750000  0.492099  1
  Co  Co21  1  0.064705  0.750000  0.992099  1
  Co  Co22  1  0.564705  0.250000  0.507901  1
  Co  Co23  1  0.935295  0.250000  0.007901  1
  Sb  Sb24  1  0.931293  0.507658  0.328141  1
  Sb  Sb25  1  0.568707  0.992342  0.828141  1
  Sb  Sb26  1  0.068707  0.007658  0.671859  1
  Sb  Sb27  1  0.431293  0.492342  0.171859  1
  Sb  Sb28  1  0.068707  0.492342  0.671859  1
  Sb  Sb29  1  0.431293  0.007658  0.171859  1
  Sb  Sb30  1  0.931293  0.992342  0.328141  1
  Sb  Sb31  1  0.568707  0.507658  0.828141  1
