# generated using pymatgen
data_Pr3Nd7Si5Os
_symmetry_space_group_name_H-M   'P 1'
_cell_length_a   7.67687968
_cell_length_b   7.67129326
_cell_length_c   9.09878273
_cell_angle_alpha   114.89132239
_cell_angle_beta   114.89037277
_cell_angle_gamma   90.14140117
_symmetry_Int_Tables_number   1
_chemical_formula_structural   Pr3Nd7Si5Os
_chemical_formula_sum   'Pr3 Nd7 Si5 Os1'
_cell_volume   430.28506156
_cell_formula_units_Z   1
loop_
 _symmetry_equiv_pos_site_id
 _symmetry_equiv_pos_as_xyz
  1  'x, y, z'
loop_
 _atom_site_type_symbol
 _atom_site_label
 _atom_site_symmetry_multiplicity
 _atom_site_fract_x
 _atom_site_fract_y
 _atom_site_fract_z
 _atom_site_occupancy
  Pr  Pr0  1  0.693772  0.550186  0.712148  1
  Pr  Pr1  1  0.162435  0.694083  0.712500  1
  Pr  Pr2  1  0.549734  0.019085  0.711577  1
  Nd  Nd3  1  0.469151  0.469993  0.937656  1
  Nd  Nd4  1  0.030557  0.031406  0.063650  1
  Nd  Nd5  1  0.947715  0.805060  0.286498  1
  Nd  Nd6  1  0.338666  0.481541  0.285873  1
  Nd  Nd7  1  0.804800  0.337668  0.285944  1
  Nd  Nd8  1  0.481308  0.948896  0.287166  1
  Nd  Nd9  1  0.018294  0.161778  0.713970  1
  Si  Si10  1  0.248962  0.248929  0.498849  1
  Si  Si11  1  0.616251  0.885510  0.001811  1
  Si  Si12  1  0.385402  0.116235  0.001334  1
  Si  Si13  1  0.885510  0.384498  0.000719  1
  Si  Si14  1  0.116929  0.615697  0.001853  1
  Os  Os15  1  0.750515  0.749434  0.498451  1
