# generated using pymatgen
data_Zr18TiFe2Re6Mo
_symmetry_space_group_name_H-M   'P 1'
_cell_length_a   8.70632900
_cell_length_b   8.70632917
_cell_length_c   8.50022600
_cell_angle_alpha   90.00000000
_cell_angle_beta   90.00000000
_cell_angle_gamma   120.00000314
_symmetry_Int_Tables_number   1
_chemical_formula_structural   Zr18TiFe2Re6Mo
_chemical_formula_sum   'Zr18 Ti1 Fe2 Re6 Mo1'
_cell_volume   557.99620898
_cell_formula_units_Z   1
loop_
 _symmetry_equiv_pos_site_id
 _symmetry_equiv_pos_as_xyz
  1  'x, y, z'
loop_
 _atom_site_type_symbol
 _atom_site_label
 _atom_site_symmetry_multiplicity
 _atom_site_fract_x
 _atom_site_fract_y
 _atom_site_fract_z
 _atom_site_occupancy
  Zr  Zr0  1  0.200027  0.799973  0.442692  1
  Zr  Zr1  1  0.200027  0.400055  0.442692  1
  Zr  Zr2  1  0.599945  0.799973  0.442692  1
  Zr  Zr3  1  0.799973  0.200027  0.557308  1
  Zr  Zr4  1  0.799973  0.599945  0.557308  1
  Zr  Zr5  1  0.400055  0.200027  0.557308  1
  Zr  Zr6  1  0.798884  0.201116  0.941103  1
  Zr  Zr7  1  0.798884  0.597767  0.941103  1
  Zr  Zr8  1  0.402233  0.201116  0.941103  1
  Zr  Zr9  1  0.201116  0.798884  0.058897  1
  Zr  Zr10  1  0.201116  0.402233  0.058897  1
  Zr  Zr11  1  0.597767  0.798884  0.058897  1
  Zr  Zr12  1  0.541585  0.458415  0.249466  1
  Zr  Zr13  1  0.541585  0.083170  0.249466  1
  Zr  Zr14  1  0.916830  0.458415  0.249466  1
  Zr  Zr15  1  0.458415  0.541585  0.750534  1
  Zr  Zr16  1  0.458415  0.916830  0.750534  1
  Zr  Zr17  1  0.083170  0.541585  0.750534  1
  Ti  Ti18  1  0.000000  0.000000  0.500000  1
  Fe  Fe19  1  0.333333  0.666667  0.249626  1
  Fe  Fe20  1  0.666667  0.333333  0.750374  1
  Re  Re21  1  0.889642  0.110358  0.250480  1
  Re  Re22  1  0.889642  0.779285  0.250480  1
  Re  Re23  1  0.220715  0.110358  0.250480  1
  Re  Re24  1  0.110358  0.889642  0.749520  1
  Re  Re25  1  0.110358  0.220715  0.749520  1
  Re  Re26  1  0.779285  0.889642  0.749520  1
  Mo  Mo27  1  0.000000  0.000000  0.000000  1
