# generated using pymatgen
data_La3Ce2Tm15Pt16
_symmetry_space_group_name_H-M   'P 1'
_cell_length_a   7.48379122
_cell_length_b   7.56109529
_cell_length_c   14.64445600
_cell_angle_alpha   90.03439522
_cell_angle_beta   90.09921394
_cell_angle_gamma   89.97156954
_symmetry_Int_Tables_number   1
_chemical_formula_structural   La3Ce2Tm15Pt16
_chemical_formula_sum   'La3 Ce2 Tm15 Pt16'
_cell_volume   828.66469345
_cell_formula_units_Z   1
loop_
 _symmetry_equiv_pos_site_id
 _symmetry_equiv_pos_as_xyz
  1  'x, y, z'
loop_
 _atom_site_type_symbol
 _atom_site_label
 _atom_site_symmetry_multiplicity
 _atom_site_fract_x
 _atom_site_fract_y
 _atom_site_fract_z
 _atom_site_occupancy
  La  La0  1  0.999062  0.173201  0.404984  1
  La  La1  1  0.499249  0.326222  0.408766  1
  La  La2  1  0.999650  0.175897  0.089386  1
  Ce  Ce3  1  0.499459  0.680415  0.907662  1
  Ce  Ce4  1  0.001910  0.814914  0.595634  1
  Tm  Tm5  1  0.659675  0.163828  0.625749  1
  Tm  Tm6  1  0.161272  0.337228  0.875786  1
  Tm  Tm7  1  0.342286  0.835549  0.122343  1
  Tm  Tm8  1  0.843028  0.664685  0.374779  1
  Tm  Tm9  1  0.350090  0.830190  0.377981  1
  Tm  Tm10  1  0.844280  0.667545  0.118480  1
  Tm  Tm11  1  0.654711  0.168628  0.878682  1
  Tm  Tm12  1  0.157240  0.332818  0.624013  1
  Tm  Tm13  1  0.500764  0.680239  0.599825  1
  Tm  Tm14  1  0.001527  0.820249  0.900657  1
  Tm  Tm15  1  0.497705  0.324615  0.095087  1
  Tm  Tm16  1  0.819098  0.505268  0.751233  1
  Tm  Tm17  1  0.320745  0.993488  0.751841  1
  Tm  Tm18  1  0.179944  0.493752  0.246654  1
  Tm  Tm19  1  0.678132  0.007592  0.246774  1
  Pt  Pt20  1  0.679558  0.952824  0.462840  1
  Pt  Pt21  1  0.189065  0.539290  0.039654  1
  Pt  Pt22  1  0.315522  0.031849  0.954638  1
  Pt  Pt23  1  0.812192  0.471730  0.546804  1
  Pt  Pt24  1  0.321263  0.026253  0.548280  1
  Pt  Pt25  1  0.819649  0.471553  0.953923  1
  Pt  Pt26  1  0.673577  0.963979  0.041078  1
  Pt  Pt27  1  0.178594  0.545049  0.462117  1
  Pt  Pt28  1  0.455081  0.380796  0.748976  1
  Pt  Pt29  1  0.954740  0.119805  0.753001  1
  Pt  Pt30  1  0.545114  0.624124  0.246117  1
  Pt  Pt31  1  0.047376  0.872785  0.249740  1
  Pt  Pt32  1  0.684422  0.856947  0.753413  1
  Pt  Pt33  1  0.185923  0.642674  0.750289  1
  Pt  Pt34  1  0.318088  0.141820  0.247024  1
  Pt  Pt35  1  0.810007  0.362200  0.245789  1
