# generated using pymatgen
data_TbPr6Dy9(CdIr)4
_symmetry_space_group_name_H-M   'P 1'
_cell_length_a   9.78673038
_cell_length_b   9.78673025
_cell_length_c   9.78673110
_cell_angle_alpha   59.98634894
_cell_angle_beta   59.98634672
_cell_angle_gamma   59.98634716
_symmetry_Int_Tables_number   1
_chemical_formula_structural   TbPr6Dy9(CdIr)4
_chemical_formula_sum   'Tb1 Pr6 Dy9 Cd4 Ir4'
_cell_volume   662.61832005
_cell_formula_units_Z   1
loop_
 _symmetry_equiv_pos_site_id
 _symmetry_equiv_pos_as_xyz
  1  'x, y, z'
loop_
 _atom_site_type_symbol
 _atom_site_label
 _atom_site_symmetry_multiplicity
 _atom_site_fract_x
 _atom_site_fract_y
 _atom_site_fract_z
 _atom_site_occupancy
  Tb  Tb0  1  0.347041  0.347041  0.347041  1
  Pr  Pr1  1  0.940901  0.559031  0.559031  1
  Pr  Pr2  1  0.558423  0.941374  0.941374  1
  Pr  Pr3  1  0.559031  0.940901  0.559031  1
  Pr  Pr4  1  0.941374  0.558423  0.941374  1
  Pr  Pr5  1  0.559031  0.559031  0.940901  1
  Pr  Pr6  1  0.941374  0.941374  0.558423  1
  Dy  Dy7  1  0.347391  0.347391  0.958487  1
  Dy  Dy8  1  0.347391  0.958487  0.347391  1
  Dy  Dy9  1  0.958487  0.347391  0.347391  1
  Dy  Dy10  1  0.812459  0.187138  0.187138  1
  Dy  Dy11  1  0.186475  0.812836  0.812836  1
  Dy  Dy12  1  0.187138  0.812459  0.187138  1
  Dy  Dy13  1  0.812836  0.186475  0.812836  1
  Dy  Dy14  1  0.187138  0.187138  0.812459  1
  Dy  Dy15  1  0.812836  0.812836  0.186475  1
  Cd  Cd16  1  0.579066  0.579066  0.579066  1
  Cd  Cd17  1  0.579300  0.579300  0.262303  1
  Cd  Cd18  1  0.579300  0.262303  0.579300  1
  Cd  Cd19  1  0.262303  0.579300  0.579300  1
  Ir  Ir20  1  0.141357  0.141357  0.141357  1
  Ir  Ir21  1  0.141450  0.141450  0.576443  1
  Ir  Ir22  1  0.141450  0.576443  0.141450  1
  Ir  Ir23  1  0.576443  0.141450  0.141450  1
