# generated using pymatgen
data_Zr3Al2CuC
_symmetry_space_group_name_H-M   'P 1'
_cell_length_a   8.66497211
_cell_length_b   8.66497282
_cell_length_c   8.66497300
_cell_angle_alpha   60.00000313
_cell_angle_beta   60.00000041
_cell_angle_gamma   60.00000299
_symmetry_Int_Tables_number   1
_chemical_formula_structural   Zr3Al2CuC
_chemical_formula_sum   'Zr12 Al8 Cu4 C4'
_cell_volume   460.03048396
_cell_formula_units_Z   4
loop_
 _symmetry_equiv_pos_site_id
 _symmetry_equiv_pos_as_xyz
  1  'x, y, z'
loop_
 _atom_site_type_symbol
 _atom_site_label
 _atom_site_symmetry_multiplicity
 _atom_site_fract_x
 _atom_site_fract_y
 _atom_site_fract_z
 _atom_site_occupancy
  Zr  Zr0  1  0.561308  0.938692  0.561308  1
  Zr  Zr1  1  0.311308  0.688692  0.688692  1
  Zr  Zr2  1  0.688692  0.311308  0.311308  1
  Zr  Zr3  1  0.311308  0.688692  0.311308  1
  Zr  Zr4  1  0.688692  0.688692  0.311308  1
  Zr  Zr5  1  0.311308  0.311308  0.688692  1
  Zr  Zr6  1  0.561308  0.561308  0.938692  1
  Zr  Zr7  1  0.938692  0.561308  0.561308  1
  Zr  Zr8  1  0.561308  0.938692  0.938692  1
  Zr  Zr9  1  0.938692  0.938692  0.561308  1
  Zr  Zr10  1  0.688692  0.311308  0.688692  1
  Zr  Zr11  1  0.938692  0.561308  0.938692  1
  Al  Al12  1  0.919582  0.919582  0.919582  1
  Al  Al13  1  0.008747  0.330418  0.330418  1
  Al  Al14  1  0.330418  0.008747  0.330418  1
  Al  Al15  1  0.330418  0.330418  0.008747  1
  Al  Al16  1  0.919582  0.241253  0.919582  1
  Al  Al17  1  0.919582  0.919582  0.241253  1
  Al  Al18  1  0.241253  0.919582  0.919582  1
  Al  Al19  1  0.330418  0.330418  0.330418  1
  Cu  Cu20  1  0.125000  0.125000  0.125000  1
  Cu  Cu21  1  0.625000  0.125000  0.125000  1
  Cu  Cu22  1  0.125000  0.625000  0.125000  1
  Cu  Cu23  1  0.125000  0.125000  0.625000  1
  C  C24  1  0.625000  0.625000  0.625000  1
  C  C25  1  0.125000  0.625000  0.625000  1
  C  C26  1  0.625000  0.125000  0.625000  1
  C  C27  1  0.625000  0.625000  0.125000  1
