# generated using pymatgen
data_TaZnCu(Ni10B3)2
_symmetry_space_group_name_H-M   'P 1'
_cell_length_a   7.41660582
_cell_length_b   7.41660543
_cell_length_c   7.41660500
_cell_angle_alpha   59.99999745
_cell_angle_beta   59.99999920
_cell_angle_gamma   60.00000286
_symmetry_Int_Tables_number   1
_chemical_formula_structural   TaZnCu(Ni10B3)2
_chemical_formula_sum   'Ta1 Zn1 Cu1 Ni20 B6'
_cell_volume   288.46991230
_cell_formula_units_Z   1
loop_
 _symmetry_equiv_pos_site_id
 _symmetry_equiv_pos_as_xyz
  1  'x, y, z'
loop_
 _atom_site_type_symbol
 _atom_site_label
 _atom_site_symmetry_multiplicity
 _atom_site_fract_x
 _atom_site_fract_y
 _atom_site_fract_z
 _atom_site_occupancy
  Ta  Ta0  1  0.250000  0.250000  0.250000  1
  Zn  Zn1  1  0.750000  0.750000  0.750000  1
  Cu  Cu2  1  0.000000  0.000000  0.000000  1
  Ni  Ni3  1  0.617100  0.617100  0.148700  1
  Ni  Ni4  1  0.617100  0.148700  0.617100  1
  Ni  Ni5  1  0.148700  0.617100  0.617100  1
  Ni  Ni6  1  0.617100  0.617100  0.617100  1
  Ni  Ni7  1  0.384668  0.384668  0.845998  1
  Ni  Ni8  1  0.384668  0.845998  0.384668  1
  Ni  Ni9  1  0.845998  0.384668  0.384668  1
  Ni  Ni10  1  0.384668  0.384668  0.384668  1
  Ni  Ni11  1  0.001634  0.001634  0.338006  1
  Ni  Ni12  1  0.658725  0.001634  0.338006  1
  Ni  Ni13  1  0.001634  0.658725  0.338006  1
  Ni  Ni14  1  0.658725  0.338006  0.001634  1
  Ni  Ni15  1  0.001634  0.338006  0.001634  1
  Ni  Ni16  1  0.001634  0.338006  0.658725  1
  Ni  Ni17  1  0.338006  0.658725  0.001634  1
  Ni  Ni18  1  0.338006  0.001634  0.658725  1
  Ni  Ni19  1  0.338006  0.001634  0.001634  1
  Ni  Ni20  1  0.001634  0.001634  0.658725  1
  Ni  Ni21  1  0.001634  0.658725  0.001634  1
  Ni  Ni22  1  0.658725  0.001634  0.001634  1
  B  B23  1  0.728801  0.728801  0.271199  1
  B  B24  1  0.271199  0.728801  0.271199  1
  B  B25  1  0.728801  0.271199  0.271199  1
  B  B26  1  0.271199  0.271199  0.728801  1
  B  B27  1  0.728801  0.271199  0.728801  1
  B  B28  1  0.271199  0.728801  0.728801  1
