# generated using pymatgen
data_Sc4Zn3Pt
_symmetry_space_group_name_H-M   'P 1'
_cell_length_a   5.77014157
_cell_length_b   5.77014219
_cell_length_c   5.77014152
_cell_angle_alpha   109.77869839
_cell_angle_beta   109.77869887
_cell_angle_gamma   108.85799891
_symmetry_Int_Tables_number   1
_chemical_formula_structural   Sc4Zn3Pt
_chemical_formula_sum   'Sc4 Zn3 Pt1'
_cell_volume   147.87688588
_cell_formula_units_Z   1
loop_
 _symmetry_equiv_pos_site_id
 _symmetry_equiv_pos_as_xyz
  1  'x, y, z'
loop_
 _atom_site_type_symbol
 _atom_site_label
 _atom_site_symmetry_multiplicity
 _atom_site_fract_x
 _atom_site_fract_y
 _atom_site_fract_z
 _atom_site_occupancy
  Sc  Sc0  1  0.751179  0.248820  0.000000  1
  Sc  Sc1  1  0.248820  0.751179  0.000000  1
  Sc  Sc2  1  0.248821  0.248821  0.497643  1
  Sc  Sc3  1  0.751179  0.751179  0.502358  1
  Zn  Zn4  1  0.254481  0.254481  0.000000  1
  Zn  Zn5  1  0.745520  0.745520  0.000000  1
  Zn  Zn6  1  0.750001  0.250001  0.500001  1
  Pt  Pt7  1  0.250001  0.750001  0.500001  1
