# generated using pymatgen
data_Tb6C2SBr5
_symmetry_space_group_name_H-M   'P 1'
_cell_length_a   3.83553749
_cell_length_b   8.80288005
_cell_length_c   10.48716400
_cell_angle_alpha   86.61287667
_cell_angle_beta   79.45688346
_cell_angle_gamma   77.19854575
_symmetry_Int_Tables_number   1
_chemical_formula_structural   Tb6C2SBr5
_chemical_formula_sum   'Tb6 C2 S1 Br5'
_cell_volume   339.39223990
_cell_formula_units_Z   1
loop_
 _symmetry_equiv_pos_site_id
 _symmetry_equiv_pos_as_xyz
  1  'x, y, z'
loop_
 _atom_site_type_symbol
 _atom_site_label
 _atom_site_symmetry_multiplicity
 _atom_site_fract_x
 _atom_site_fract_y
 _atom_site_fract_z
 _atom_site_occupancy
  Tb  Tb0  1  0.582826  0.067615  0.771738  1
  Tb  Tb1  1  0.969080  0.396828  0.667838  1
  Tb  Tb2  1  0.692377  0.159646  0.457204  1
  Tb  Tb3  1  0.036235  0.600781  0.330648  1
  Tb  Tb4  1  0.312968  0.837997  0.541262  1
  Tb  Tb5  1  0.422587  0.930032  0.226709  1
  C  C6  1  0.128588  0.120378  0.623321  1
  C  C7  1  0.876720  0.877162  0.375167  1
  S  S8  1  0.502626  0.498830  0.499264  1
  Br  Br9  1  0.757065  0.737788  0.752908  1
  Br  Br10  1  0.375596  0.373590  0.878828  1
  Br  Br11  1  0.247934  0.259973  0.245664  1
  Br  Br12  1  0.629708  0.624149  0.119607  1
  Br  Br13  1  0.002912  0.998818  0.999154  1
