# generated using pymatgen
data_Hf6TaNb3Ga5Si
_symmetry_space_group_name_H-M   'P 1'
_cell_length_a   7.93286901
_cell_length_b   7.92281976
_cell_length_c   5.43462501
_cell_angle_alpha   89.99329097
_cell_angle_beta   90.00617307
_cell_angle_gamma   120.04238958
_symmetry_Int_Tables_number   1
_chemical_formula_structural   Hf6TaNb3Ga5Si
_chemical_formula_sum   'Hf6 Ta1 Nb3 Ga5 Si1'
_cell_volume   295.68180797
_cell_formula_units_Z   1
loop_
 _symmetry_equiv_pos_site_id
 _symmetry_equiv_pos_as_xyz
  1  'x, y, z'
loop_
 _atom_site_type_symbol
 _atom_site_label
 _atom_site_symmetry_multiplicity
 _atom_site_fract_x
 _atom_site_fract_y
 _atom_site_fract_z
 _atom_site_occupancy
  Hf  Hf0  1  0.751188  0.753729  0.249944  1
  Hf  Hf1  1  0.748965  0.000121  0.750050  1
  Hf  Hf2  1  0.997216  0.246167  0.249922  1
  Hf  Hf3  1  0.247132  0.248118  0.750092  1
  Hf  Hf4  1  0.251481  0.000071  0.249935  1
  Hf  Hf5  1  0.998789  0.751715  0.750057  1
  Ta  Ta6  1  0.666017  0.329547  0.000665  1
  Nb  Nb7  1  0.666032  0.329543  0.499360  1
  Nb  Nb8  1  0.336438  0.670420  0.499295  1
  Nb  Nb9  1  0.336492  0.670438  0.000755  1
  Ga  Ga10  1  0.603171  0.601391  0.750188  1
  Ga  Ga11  1  0.001611  0.398520  0.750202  1
  Ga  Ga12  1  0.999592  0.603378  0.249837  1
  Ga  Ga13  1  0.396375  0.396483  0.249842  1
  Ga  Ga14  1  0.394709  0.000122  0.750180  1
  Si  Si15  1  0.604790  0.000234  0.249675  1
