# generated using pymatgen
data_CsYbAsO4
_symmetry_space_group_name_H-M   'P 1'
_cell_length_a   5.94345674
_cell_length_b   6.16477100
_cell_length_c   8.73756049
_cell_angle_alpha   90.00000000
_cell_angle_beta   90.96032424
_cell_angle_gamma   90.00000000
_symmetry_Int_Tables_number   1
_chemical_formula_structural   CsYbAsO4
_chemical_formula_sum   'Cs2 Yb2 As2 O8'
_cell_volume   320.09968392
_cell_formula_units_Z   2
loop_
 _symmetry_equiv_pos_site_id
 _symmetry_equiv_pos_as_xyz
  1  'x, y, z'
loop_
 _atom_site_type_symbol
 _atom_site_label
 _atom_site_symmetry_multiplicity
 _atom_site_fract_x
 _atom_site_fract_y
 _atom_site_fract_z
 _atom_site_occupancy
  Cs  Cs0  1  0.265854  0.749999  0.518798  1
  Cs  Cs1  1  0.734146  0.250000  0.481203  1
  Yb  Yb2  1  0.651732  0.250000  0.981563  1
  Yb  Yb3  1  0.348268  0.749999  0.018438  1
  As  As4  1  0.780107  0.749999  0.220692  1
  As  As5  1  0.219892  0.250000  0.779307  1
  O  O6  1  0.053143  0.749999  0.162781  1
  O  O7  1  0.628163  0.533227  0.143200  1
  O  O8  1  0.628163  0.966774  0.143200  1
  O  O9  1  0.235193  0.250000  0.585014  1
  O  O10  1  0.764806  0.749999  0.414987  1
  O  O11  1  0.371837  0.033226  0.856801  1
  O  O12  1  0.371837  0.466774  0.856801  1
  O  O13  1  0.946858  0.250000  0.837219  1
