# generated using pymatgen
data_Eu3Th3(TiSb5)2
_symmetry_space_group_name_H-M   'P 1'
_cell_length_a   9.58894217
_cell_length_b   9.55765049
_cell_length_c   6.31469100
_cell_angle_alpha   90.00000000
_cell_angle_beta   90.00000000
_cell_angle_gamma   120.46132627
_symmetry_Int_Tables_number   1
_chemical_formula_structural   Eu3Th3(TiSb5)2
_chemical_formula_sum   'Eu3 Th3 Ti2 Sb10'
_cell_volume   498.84643974
_cell_formula_units_Z   1
loop_
 _symmetry_equiv_pos_site_id
 _symmetry_equiv_pos_as_xyz
  1  'x, y, z'
loop_
 _atom_site_type_symbol
 _atom_site_label
 _atom_site_symmetry_multiplicity
 _atom_site_fract_x
 _atom_site_fract_y
 _atom_site_fract_z
 _atom_site_occupancy
  Eu  Eu0  1  0.003215  0.381318  0.250000  1
  Eu  Eu1  1  0.382942  0.386316  0.750000  1
  Eu  Eu2  1  0.611624  0.609264  0.250000  1
  Th  Th3  1  0.624599  0.997523  0.750000  1
  Th  Th4  1  0.383437  0.007056  0.250000  1
  Th  Th5  1  0.995550  0.615355  0.750000  1
  Ti  Ti6  1  0.999573  0.001584  0.495140  1
  Ti  Ti7  1  0.999573  0.001584  0.004860  1
  Sb  Sb8  1  0.252475  0.997957  0.750000  1
  Sb  Sb9  1  0.742949  0.995423  0.250000  1
  Sb  Sb10  1  0.001084  0.252598  0.750000  1
  Sb  Sb11  1  0.000707  0.746468  0.250000  1
  Sb  Sb12  1  0.752987  0.749406  0.750000  1
  Sb  Sb13  1  0.250119  0.249805  0.250000  1
  Sb  Sb14  1  0.333313  0.676563  0.501083  1
  Sb  Sb15  1  0.666270  0.327608  0.504423  1
  Sb  Sb16  1  0.666270  0.327608  0.995577  1
  Sb  Sb17  1  0.333313  0.676563  0.998917  1
