# generated using pymatgen
data_HfZr(NbBr9)2
_symmetry_space_group_name_H-M   'P 1'
_cell_length_a   12.92048400
_cell_length_b   7.52275930
_cell_length_c   10.10254400
_cell_angle_alpha   74.88345451
_cell_angle_beta   90.00000000
_cell_angle_gamma   90.00000000
_symmetry_Int_Tables_number   1
_chemical_formula_structural   HfZr(NbBr9)2
_chemical_formula_sum   'Hf1 Zr1 Nb2 Br18'
_cell_volume   947.96610285
_cell_formula_units_Z   1
loop_
 _symmetry_equiv_pos_site_id
 _symmetry_equiv_pos_as_xyz
  1  'x, y, z'
loop_
 _atom_site_type_symbol
 _atom_site_label
 _atom_site_symmetry_multiplicity
 _atom_site_fract_x
 _atom_site_fract_y
 _atom_site_fract_z
 _atom_site_occupancy
  Hf  Hf0  1  0.250000  0.755032  0.471544  1
  Zr  Zr1  1  0.750000  0.243981  0.531495  1
  Nb  Nb2  1  0.250000  0.645339  0.854831  1
  Nb  Nb3  1  0.750000  0.354701  0.144684  1
  Br  Br4  1  0.614478  0.437283  0.320689  1
  Br  Br5  1  0.115046  0.563086  0.677646  1
  Br  Br6  1  0.384954  0.563086  0.677646  1
  Br  Br7  1  0.885522  0.437283  0.320689  1
  Br  Br8  1  0.750000  0.676945  0.011698  1
  Br  Br9  1  0.250000  0.323080  0.987049  1
  Br  Br10  1  0.750000  0.515425  0.633336  1
  Br  Br11  1  0.250000  0.488865  0.367799  1
  Br  Br12  1  0.750000  0.032080  0.335416  1
  Br  Br13  1  0.250000  0.967344  0.662894  1
  Br  Br14  1  0.892018  0.249005  0.024484  1
  Br  Br15  1  0.392291  0.751728  0.973649  1
  Br  Br16  1  0.107709  0.751728  0.973649  1
  Br  Br17  1  0.607982  0.249005  0.024484  1
  Br  Br18  1  0.900120  0.060693  0.655019  1
  Br  Br19  1  0.398231  0.936809  0.348139  1
  Br  Br20  1  0.101769  0.936809  0.348139  1
  Br  Br21  1  0.599880  0.060693  0.655019  1
