# generated using pymatgen
data_Ce3DyZn2SiRh10
_symmetry_space_group_name_H-M   'P 1'
_cell_length_a   7.18760241
_cell_length_b   7.24638653
_cell_length_c   7.24758468
_cell_angle_alpha   107.62997625
_cell_angle_beta   110.57907026
_cell_angle_gamma   110.57243036
_symmetry_Int_Tables_number   1
_chemical_formula_structural   Ce3DyZn2SiRh10
_chemical_formula_sum   'Ce3 Dy1 Zn2 Si1 Rh10'
_cell_volume   289.07158905
_cell_formula_units_Z   1
loop_
 _symmetry_equiv_pos_site_id
 _symmetry_equiv_pos_as_xyz
  1  'x, y, z'
loop_
 _atom_site_type_symbol
 _atom_site_label
 _atom_site_symmetry_multiplicity
 _atom_site_fract_x
 _atom_site_fract_y
 _atom_site_fract_z
 _atom_site_occupancy
  Ce  Ce0  1  0.023331  0.511666  0.011666  1
  Ce  Ce1  1  0.476997  0.971618  0.969252  1
  Ce  Ce2  1  0.476997  0.505379  0.507744  1
  Dy  Dy3  1  0.020895  0.010447  0.510447  1
  Zn  Zn4  1  0.749851  0.247744  0.497476  1
  Zn  Zn5  1  0.749851  0.502108  0.252375  1
  Si  Si6  1  0.003306  0.001653  0.001653  1
  Rh  Rh7  1  0.521828  0.260913  0.760913  1
  Rh  Rh8  1  0.237173  0.496080  0.747330  1
  Rh  Rh9  1  0.237173  0.741093  0.489843  1
  Rh  Rh10  1  0.507636  0.753818  0.253818  1
  Rh  Rh11  1  0.735257  0.721263  0.013940  1
  Rh  Rh12  1  0.296714  0.015375  0.284154  1
  Rh  Rh13  1  0.965509  0.258674  0.259287  1
  Rh  Rh14  1  0.296714  0.281339  0.012560  1
  Rh  Rh15  1  0.735257  0.013993  0.721316  1
  Rh  Rh16  1  0.965509  0.706835  0.706223  1
