# generated using pymatgen
data_Y3Lu3Al17Si7Os8
_symmetry_space_group_name_H-M   'P 1'
_cell_length_a   8.68720732
_cell_length_b   8.67644987
_cell_length_c   9.46883400
_cell_angle_alpha   90.00000000
_cell_angle_beta   90.00000000
_cell_angle_gamma   120.08761359
_symmetry_Int_Tables_number   1
_chemical_formula_structural   Y3Lu3Al17Si7Os8
_chemical_formula_sum   'Y3 Lu3 Al17 Si7 Os8'
_cell_volume   617.54027581
_cell_formula_units_Z   1
loop_
 _symmetry_equiv_pos_site_id
 _symmetry_equiv_pos_as_xyz
  1  'x, y, z'
loop_
 _atom_site_type_symbol
 _atom_site_label
 _atom_site_symmetry_multiplicity
 _atom_site_fract_x
 _atom_site_fract_y
 _atom_site_fract_z
 _atom_site_occupancy
  Y  Y0  1  0.807813  0.615799  0.750000  1
  Y  Y1  1  0.386406  0.190623  0.750000  1
  Y  Y2  1  0.803309  0.191280  0.750000  1
  Lu  Lu3  1  0.194269  0.391056  0.250000  1
  Lu  Lu4  1  0.607862  0.805468  0.250000  1
  Lu  Lu5  1  0.197441  0.803378  0.250000  1
  Al  Al6  1  0.164787  0.330478  0.576590  1
  Al  Al7  1  0.834430  0.671489  0.419325  1
  Al  Al8  1  0.670551  0.834590  0.576027  1
  Al  Al9  1  0.834430  0.671489  0.080675  1
  Al  Al10  1  0.329455  0.165799  0.420609  1
  Al  Al11  1  0.164787  0.330478  0.923410  1
  Al  Al12  1  0.163973  0.833874  0.574863  1
  Al  Al13  1  0.329455  0.165799  0.079391  1
  Al  Al14  1  0.835713  0.163956  0.420063  1
  Al  Al15  1  0.670551  0.834590  0.923973  1
  Al  Al16  1  0.835713  0.163956  0.079937  1
  Al  Al17  1  0.163973  0.833874  0.925137  1
  Al  Al18  1  0.126060  0.565964  0.750000  1
  Al  Al19  1  0.564090  0.435428  0.250000  1
  Al  Al20  1  0.438698  0.566644  0.750000  1
  Al  Al21  1  0.999643  0.998966  0.250000  1
  Al  Al22  1  0.999847  0.001227  0.750000  1
  Si  Si23  1  0.333392  0.664682  0.042559  1
  Si  Si24  1  0.666453  0.335859  0.960940  1
  Si  Si25  1  0.666453  0.335859  0.539060  1
  Si  Si26  1  0.333392  0.664682  0.457441  1
  Si  Si27  1  0.564409  0.123372  0.250000  1
  Si  Si28  1  0.435964  0.872647  0.750000  1
  Si  Si29  1  0.875450  0.434905  0.250000  1
  Os  Os30  1  0.500349  0.999819  0.002976  1
  Os  Os31  1  0.999538  0.499877  0.008479  1
  Os  Os32  1  0.500349  0.999819  0.497024  1
  Os  Os33  1  0.500070  0.500717  0.002088  1
  Os  Os34  1  0.999538  0.499877  0.491521  1
  Os  Os35  1  0.500070  0.500717  0.497912  1
  Os  Os36  1  0.000658  0.000485  0.000170  1
  Os  Os37  1  0.000658  0.000485  0.499830  1
