# generated using pymatgen
data_NdY3Zr4F28
_symmetry_space_group_name_H-M   'P 1'
_cell_length_a   5.79929300
_cell_length_b   9.17950837
_cell_length_c   12.33170169
_cell_angle_alpha   62.36420130
_cell_angle_beta   89.98222443
_cell_angle_gamma   90.01885182
_symmetry_Int_Tables_number   1
_chemical_formula_structural   NdY3Zr4F28
_chemical_formula_sum   'Nd1 Y3 Zr4 F28'
_cell_volume   581.57929287
_cell_formula_units_Z   1
loop_
 _symmetry_equiv_pos_site_id
 _symmetry_equiv_pos_as_xyz
  1  'x, y, z'
loop_
 _atom_site_type_symbol
 _atom_site_label
 _atom_site_symmetry_multiplicity
 _atom_site_fract_x
 _atom_site_fract_y
 _atom_site_fract_z
 _atom_site_occupancy
  Nd  Nd0  1  0.756500  0.815972  0.766634  1
  Y  Y1  1  0.743894  0.816937  0.266284  1
  Y  Y2  1  0.243825  0.184840  0.233788  1
  Y  Y3  1  0.257056  0.188345  0.733295  1
  Zr  Zr4  1  0.743825  0.277324  0.453051  1
  Zr  Zr5  1  0.244593  0.725522  0.048873  1
  Zr  Zr6  1  0.254923  0.725455  0.541266  1
  Zr  Zr7  1  0.755387  0.270640  0.956629  1
  F  F8  1  0.461810  0.709374  0.925373  1
  F  F9  1  0.966136  0.289095  0.576809  1
  F  F10  1  0.532505  0.287056  0.078319  1
  F  F11  1  0.031958  0.710615  0.419377  1
  F  F12  1  0.455832  0.281409  0.548954  1
  F  F13  1  0.956101  0.716558  0.956501  1
  F  F14  1  0.546139  0.719293  0.448455  1
  F  F15  1  0.043774  0.278589  0.051225  1
  F  F16  1  0.769404  0.519436  0.860207  1
  F  F17  1  0.267667  0.475190  0.639656  1
  F  F18  1  0.234712  0.474805  0.143362  1
  F  F19  1  0.732876  0.526695  0.356901  1
  F  F20  1  0.759236  0.021624  0.058893  1
  F  F21  1  0.259041  0.975029  0.440692  1
  F  F22  1  0.240464  0.974170  0.943277  1
  F  F23  1  0.739611  0.027980  0.553969  1
  F  F24  1  0.986070  0.731873  0.644977  1
  F  F25  1  0.486383  0.265857  0.851266  1
  F  F26  1  0.010520  0.265485  0.348743  1
  F  F27  1  0.512764  0.735074  0.152575  1
  F  F28  1  0.033040  0.747080  0.174499  1
  F  F29  1  0.531193  0.254320  0.327667  1
  F  F30  1  0.966957  0.251212  0.829408  1
  F  F31  1  0.459462  0.743759  0.669839  1
  F  F32  1  0.433116  0.975575  0.235721  1
  F  F33  1  0.933607  0.025438  0.264389  1
  F  F34  1  0.568355  0.034920  0.765476  1
  F  F35  1  0.081265  0.977453  0.733646  1
