# generated using pymatgen
data_Nd5Ho3(Sc3Sn4)4
_symmetry_space_group_name_H-M   'P 1'
_cell_length_a   7.77172534
_cell_length_b   7.99590745
_cell_length_c   14.95495972
_cell_angle_alpha   90.01842947
_cell_angle_beta   89.71428407
_cell_angle_gamma   90.10450119
_symmetry_Int_Tables_number   1
_chemical_formula_structural   Nd5Ho3(Sc3Sn4)4
_chemical_formula_sum   'Nd5 Ho3 Sc12 Sn16'
_cell_volume   929.31790913
_cell_formula_units_Z   1
loop_
 _symmetry_equiv_pos_site_id
 _symmetry_equiv_pos_as_xyz
  1  'x, y, z'
loop_
 _atom_site_type_symbol
 _atom_site_label
 _atom_site_symmetry_multiplicity
 _atom_site_fract_x
 _atom_site_fract_y
 _atom_site_fract_z
 _atom_site_occupancy
  Nd  Nd0  1  0.994292  0.173590  0.096018  1
  Nd  Nd1  1  0.006455  0.825944  0.903487  1
  Nd  Nd2  1  0.505149  0.673032  0.905672  1
  Nd  Nd3  1  0.005566  0.824841  0.592200  1
  Nd  Nd4  1  0.494725  0.325591  0.096027  1
  Ho  Ho5  1  0.992318  0.178013  0.405909  1
  Ho  Ho6  1  0.489772  0.324128  0.405274  1
  Ho  Ho7  1  0.508778  0.675643  0.593202  1
  Sc  Sc8  1  0.170186  0.496019  0.747952  1
  Sc  Sc9  1  0.830309  0.504083  0.252215  1
  Sc  Sc10  1  0.331040  0.995637  0.251776  1
  Sc  Sc11  1  0.669715  0.005455  0.748326  1
  Sc  Sc12  1  0.340684  0.162832  0.626216  1
  Sc  Sc13  1  0.659371  0.837410  0.373480  1
  Sc  Sc14  1  0.159915  0.659900  0.374539  1
  Sc  Sc15  1  0.662191  0.839162  0.129513  1
  Sc  Sc16  1  0.841525  0.338753  0.624881  1
  Sc  Sc17  1  0.339196  0.161259  0.871444  1
  Sc  Sc18  1  0.837638  0.338108  0.872215  1
  Sc  Sc19  1  0.161708  0.661764  0.129124  1
  Sn  Sn20  1  0.032341  0.130340  0.748299  1
  Sn  Sn21  1  0.969060  0.872387  0.252863  1
  Sn  Sn22  1  0.467579  0.627111  0.251382  1
  Sn  Sn23  1  0.532729  0.372605  0.748456  1
  Sn  Sn24  1  0.313134  0.852732  0.746961  1
  Sn  Sn25  1  0.689572  0.147553  0.254249  1
  Sn  Sn26  1  0.188767  0.352684  0.253812  1
  Sn  Sn27  1  0.808213  0.644536  0.747652  1
  Sn  Sn28  1  0.186504  0.455276  0.541582  1
  Sn  Sn29  1  0.812939  0.540172  0.456629  1
  Sn  Sn30  1  0.320585  0.959184  0.455843  1
  Sn  Sn31  1  0.825261  0.545110  0.044107  1
  Sn  Sn32  1  0.677542  0.045342  0.541163  1
  Sn  Sn33  1  0.174577  0.454843  0.956922  1
  Sn  Sn34  1  0.676001  0.043749  0.956992  1
  Sn  Sn35  1  0.324660  0.955212  0.043620  1
