# generated using pymatgen
data_ErTh5(CdHg2)6
_symmetry_space_group_name_H-M   'P 1'
_cell_length_a   5.15491700
_cell_length_b   7.42009600
_cell_length_c   15.68326300
_cell_angle_alpha   90.00000000
_cell_angle_beta   90.00014449
_cell_angle_gamma   90.00000000
_symmetry_Int_Tables_number   1
_chemical_formula_structural   ErTh5(CdHg2)6
_chemical_formula_sum   'Er1 Th5 Cd6 Hg12'
_cell_volume   599.88448059
_cell_formula_units_Z   1
loop_
 _symmetry_equiv_pos_site_id
 _symmetry_equiv_pos_as_xyz
  1  'x, y, z'
loop_
 _atom_site_type_symbol
 _atom_site_label
 _atom_site_symmetry_multiplicity
 _atom_site_fract_x
 _atom_site_fract_y
 _atom_site_fract_z
 _atom_site_occupancy
  Er  Er0  1  0.500087  0.500000  0.833353  1
  Th  Th1  1  0.000010  0.000000  0.997907  1
  Th  Th2  1  0.499929  0.500000  0.164680  1
  Th  Th3  1  0.999933  0.000000  0.333329  1
  Th  Th4  1  0.500001  0.500000  0.501953  1
  Th  Th5  1  0.000066  0.000000  0.668755  1
  Cd  Cd6  1  0.999993  0.500000  0.999025  1
  Cd  Cd7  1  0.499919  0.000000  0.165640  1
  Cd  Cd8  1  0.999930  0.500000  0.333300  1
  Cd  Cd9  1  0.499996  0.000000  0.501032  1
  Cd  Cd10  1  0.000060  0.500000  0.667681  1
  Cd  Cd11  1  0.500077  0.000000  0.833311  1
  Hg  Hg12  1  0.499994  0.259282  0.995306  1
  Hg  Hg13  1  0.499994  0.740717  0.995306  1
  Hg  Hg14  1  0.999921  0.244010  0.165995  1
  Hg  Hg15  1  0.999921  0.755991  0.165995  1
  Hg  Hg16  1  0.499935  0.256264  0.333316  1
  Hg  Hg17  1  0.499935  0.743737  0.333316  1
  Hg  Hg18  1  0.999997  0.244101  0.500670  1
  Hg  Hg19  1  0.999997  0.755900  0.500670  1
  Hg  Hg20  1  0.500063  0.259383  0.671398  1
  Hg  Hg21  1  0.500063  0.740618  0.671398  1
  Hg  Hg22  1  0.000089  0.255304  0.833332  1
  Hg  Hg23  1  0.000089  0.744697  0.833332  1
