# generated using pymatgen
data_Tm3Be2Co7
_symmetry_space_group_name_H-M   'P 1'
_cell_length_a   4.93542342
_cell_length_b   4.93542478
_cell_length_c   8.17472412
_cell_angle_alpha   107.57001669
_cell_angle_beta   72.42997875
_cell_angle_gamma   120.00001328
_symmetry_Int_Tables_number   1
_chemical_formula_structural   Tm3Be2Co7
_chemical_formula_sum   'Tm3 Be2 Co7'
_cell_volume   161.63043519
_cell_formula_units_Z   1
loop_
 _symmetry_equiv_pos_site_id
 _symmetry_equiv_pos_as_xyz
  1  'x, y, z'
loop_
 _atom_site_type_symbol
 _atom_site_label
 _atom_site_symmetry_multiplicity
 _atom_site_fract_x
 _atom_site_fract_y
 _atom_site_fract_z
 _atom_site_occupancy
  Tm  Tm0  1  0.000000  0.000000  0.000000  1
  Tm  Tm1  1  0.859950  0.140049  0.420150  1
  Tm  Tm2  1  0.140049  0.859951  0.579851  1
  Be  Be3  1  0.334237  0.665763  0.997289  1
  Be  Be4  1  0.665763  0.334237  0.002711  1
  Co  Co5  1  0.923929  0.578538  0.233146  1
  Co  Co6  1  0.421463  0.076073  0.233146  1
  Co  Co7  1  0.421463  0.578537  0.233146  1
  Co  Co8  1  0.500000  0.500000  0.500000  1
  Co  Co9  1  0.578537  0.421463  0.766855  1
  Co  Co10  1  0.578537  0.923927  0.766855  1
  Co  Co11  1  0.076071  0.421462  0.766855  1
