# generated using pymatgen
data_TbErZn2(SiIr2)2
_symmetry_space_group_name_H-M   'P 1'
_cell_length_a   4.05209600
_cell_length_b   4.05209600
_cell_length_c   10.54713200
_cell_angle_alpha   90.00000000
_cell_angle_beta   90.00000000
_cell_angle_gamma   90.00000000
_symmetry_Int_Tables_number   1
_chemical_formula_structural   TbErZn2(SiIr2)2
_chemical_formula_sum   'Tb1 Er1 Zn2 Si2 Ir4'
_cell_volume   173.17844395
_cell_formula_units_Z   1
loop_
 _symmetry_equiv_pos_site_id
 _symmetry_equiv_pos_as_xyz
  1  'x, y, z'
loop_
 _atom_site_type_symbol
 _atom_site_label
 _atom_site_symmetry_multiplicity
 _atom_site_fract_x
 _atom_site_fract_y
 _atom_site_fract_z
 _atom_site_occupancy
  Tb  Tb0  1  0.500000  0.000000  0.753359  1
  Er  Er1  1  0.000000  0.500000  0.246320  1
  Zn  Zn2  1  0.000000  0.000000  0.499613  1
  Zn  Zn3  1  0.500000  0.500000  0.499613  1
  Si  Si4  1  0.000000  0.500000  0.877610  1
  Si  Si5  1  0.500000  0.000000  0.123006  1
  Ir  Ir6  1  0.000000  0.000000  0.000538  1
  Ir  Ir7  1  0.500000  0.500000  0.000538  1
  Ir  Ir8  1  0.000000  0.500000  0.655863  1
  Ir  Ir9  1  0.500000  0.000000  0.343540  1
