# generated using pymatgen
data_CeAlSiIrRu
_symmetry_space_group_name_H-M   'P 1'
_cell_length_a   4.20975400
_cell_length_b   4.20975400
_cell_length_c   10.03053300
_cell_angle_alpha   90.00000000
_cell_angle_beta   90.00000000
_cell_angle_gamma   90.00000000
_symmetry_Int_Tables_number   1
_chemical_formula_structural   CeAlSiIrRu
_chemical_formula_sum   'Ce2 Al2 Si2 Ir2 Ru2'
_cell_volume   177.76139411
_cell_formula_units_Z   2
loop_
 _symmetry_equiv_pos_site_id
 _symmetry_equiv_pos_as_xyz
  1  'x, y, z'
loop_
 _atom_site_type_symbol
 _atom_site_label
 _atom_site_symmetry_multiplicity
 _atom_site_fract_x
 _atom_site_fract_y
 _atom_site_fract_z
 _atom_site_occupancy
  Ce  Ce0  1  0.000000  0.500000  0.739098  1
  Ce  Ce1  1  0.500000  0.000000  0.260902  1
  Al  Al2  1  0.000000  0.000000  0.000000  1
  Al  Al3  1  0.500000  0.500000  0.000000  1
  Si  Si4  1  0.000000  0.500000  0.385028  1
  Si  Si5  1  0.500000  0.000000  0.614972  1
  Ir  Ir6  1  0.500000  0.000000  0.856276  1
  Ir  Ir7  1  0.000000  0.500000  0.143724  1
  Ru  Ru8  1  0.000000  0.000000  0.500000  1
  Ru  Ru9  1  0.500000  0.500000  0.500000  1
