# generated using pymatgen
data_CaY7(B6Ru)4
_symmetry_space_group_name_H-M   'P 1'
_cell_length_a   3.66364000
_cell_length_b   9.16266582
_cell_length_c   11.55245705
_cell_angle_alpha   89.88261014
_cell_angle_beta   90.00000000
_cell_angle_gamma   90.00000000
_symmetry_Int_Tables_number   1
_chemical_formula_structural   CaY7(B6Ru)4
_chemical_formula_sum   'Ca1 Y7 B24 Ru4'
_cell_volume   387.80025494
_cell_formula_units_Z   1
loop_
 _symmetry_equiv_pos_site_id
 _symmetry_equiv_pos_as_xyz
  1  'x, y, z'
loop_
 _atom_site_type_symbol
 _atom_site_label
 _atom_site_symmetry_multiplicity
 _atom_site_fract_x
 _atom_site_fract_y
 _atom_site_fract_z
 _atom_site_occupancy
  Ca  Ca0  1  0.000000  0.323327  0.413647  1
  Y  Y1  1  0.000000  0.675409  0.585082  1
  Y  Y2  1  0.000000  0.823109  0.086642  1
  Y  Y3  1  0.000000  0.177330  0.914366  1
  Y  Y4  1  0.000000  0.943860  0.371486  1
  Y  Y5  1  0.000000  0.057978  0.627799  1
  Y  Y6  1  0.000000  0.442922  0.129298  1
  Y  Y7  1  0.000000  0.556264  0.872449  1
  B  B8  1  0.500000  0.554063  0.432415  1
  B  B9  1  0.500000  0.446247  0.567746  1
  B  B10  1  0.500000  0.053096  0.066747  1
  B  B11  1  0.500000  0.946116  0.932383  1
  B  B12  1  0.500000  0.747524  0.419272  1
  B  B13  1  0.500000  0.252960  0.581111  1
  B  B14  1  0.500000  0.246945  0.080421  1
  B  B15  1  0.500000  0.752500  0.919612  1
  B  B16  1  0.500000  0.791101  0.266503  1
  B  B17  1  0.500000  0.210021  0.733745  1
  B  B18  1  0.500000  0.289313  0.233022  1
  B  B19  1  0.500000  0.709794  0.766630  1
  B  B20  1  0.500000  0.632314  0.186279  1
  B  B21  1  0.500000  0.368198  0.814694  1
  B  B22  1  0.500000  0.131401  0.313394  1
  B  B23  1  0.500000  0.868248  0.685679  1
  B  B24  1  0.500000  0.983594  0.211954  1
  B  B25  1  0.500000  0.016310  0.787273  1
  B  B26  1  0.500000  0.484377  0.287705  1
  B  B27  1  0.500000  0.516248  0.712703  1
  B  B28  1  0.500000  0.609572  0.030596  1
  B  B29  1  0.500000  0.390547  0.970047  1
  B  B30  1  0.500000  0.105797  0.470504  1
  B  B31  1  0.500000  0.892856  0.529717  1
  Ru  Ru32  1  0.000000  0.639893  0.320447  1
  Ru  Ru33  1  0.000000  0.362190  0.680400  1
  Ru  Ru34  1  0.000000  0.136201  0.177017  1
  Ru  Ru35  1  0.000000  0.862376  0.821219  1
