# generated using pymatgen
data_Pu3Al3CuSi2
_symmetry_space_group_name_H-M   'P 1'
_cell_length_a   6.81488200
_cell_length_b   6.81488206
_cell_length_c   4.29103900
_cell_angle_alpha   90.00000000
_cell_angle_beta   90.00000000
_cell_angle_gamma   119.99999973
_symmetry_Int_Tables_number   1
_chemical_formula_structural   Pu3Al3CuSi2
_chemical_formula_sum   'Pu3 Al3 Cu1 Si2'
_cell_volume   172.58767529
_cell_formula_units_Z   1
loop_
 _symmetry_equiv_pos_site_id
 _symmetry_equiv_pos_as_xyz
  1  'x, y, z'
loop_
 _atom_site_type_symbol
 _atom_site_label
 _atom_site_symmetry_multiplicity
 _atom_site_fract_x
 _atom_site_fract_y
 _atom_site_fract_z
 _atom_site_occupancy
  Pu  Pu0  1  0.418866  0.000000  0.000000  1
  Pu  Pu1  1  0.000000  0.418867  0.000000  1
  Pu  Pu2  1  0.581134  0.581133  0.000000  1
  Al  Al3  1  0.762561  0.000000  0.500000  1
  Al  Al4  1  0.237438  0.237439  0.500000  1
  Al  Al5  1  0.000000  0.762561  0.500000  1
  Cu  Cu6  1  0.000000  0.000000  0.000000  1
  Si  Si7  1  0.666667  0.333333  0.500000  1
  Si  Si8  1  0.333333  0.666667  0.500000  1
