# generated using pymatgen
data_La4TbHoIn10
_symmetry_space_group_name_H-M   'P 1'
_cell_length_a   6.63927600
_cell_length_b   6.63927858
_cell_length_c   10.56775700
_cell_angle_alpha   90.00000000
_cell_angle_beta   90.00000000
_cell_angle_gamma   102.43108088
_symmetry_Int_Tables_number   1
_chemical_formula_structural   La4TbHoIn10
_chemical_formula_sum   'La4 Tb1 Ho1 In10'
_cell_volume   454.90575332
_cell_formula_units_Z   1
loop_
 _symmetry_equiv_pos_site_id
 _symmetry_equiv_pos_as_xyz
  1  'x, y, z'
loop_
 _atom_site_type_symbol
 _atom_site_label
 _atom_site_symmetry_multiplicity
 _atom_site_fract_x
 _atom_site_fract_y
 _atom_site_fract_z
 _atom_site_occupancy
  La  La0  1  0.204173  0.794284  0.500517  1
  La  La1  1  0.204173  0.794284  0.999483  1
  La  La2  1  0.794284  0.204173  0.500517  1
  La  La3  1  0.794284  0.204173  0.999483  1
  Tb  Tb4  1  0.631979  0.631979  0.250000  1
  Ho  Ho5  1  0.365961  0.365961  0.750000  1
  In  In6  1  0.010036  0.010036  0.250000  1
  In  In7  1  0.990358  0.990358  0.750000  1
  In  In8  1  0.311976  0.311976  0.047697  1
  In  In9  1  0.687502  0.687502  0.947202  1
  In  In10  1  0.311976  0.311976  0.452303  1
  In  In11  1  0.687502  0.687502  0.552798  1
  In  In12  1  0.495451  0.071712  0.250000  1
  In  In13  1  0.934837  0.503793  0.750000  1
  In  In14  1  0.503793  0.934837  0.750000  1
  In  In15  1  0.071712  0.495451  0.250000  1
