# generated using pymatgen
data_Sc9VTc3
_symmetry_space_group_name_H-M   'P 1'
_cell_length_a   8.70262400
_cell_length_b   8.70262396
_cell_length_c   8.07614400
_cell_angle_alpha   90.00000000
_cell_angle_beta   90.00000000
_cell_angle_gamma   119.99999253
_symmetry_Int_Tables_number   1
_chemical_formula_structural   Sc9VTc3
_chemical_formula_sum   'Sc18 V2 Tc6'
_cell_volume   529.70632257
_cell_formula_units_Z   2
loop_
 _symmetry_equiv_pos_site_id
 _symmetry_equiv_pos_as_xyz
  1  'x, y, z'
loop_
 _atom_site_type_symbol
 _atom_site_label
 _atom_site_symmetry_multiplicity
 _atom_site_fract_x
 _atom_site_fract_y
 _atom_site_fract_z
 _atom_site_occupancy
  Sc  Sc0  1  0.401021  0.200511  0.055458  1
  Sc  Sc1  1  0.799489  0.200511  0.055458  1
  Sc  Sc2  1  0.799488  0.598978  0.055458  1
  Sc  Sc3  1  0.094820  0.547410  0.250000  1
  Sc  Sc4  1  0.452590  0.547410  0.250000  1
  Sc  Sc5  1  0.452590  0.905181  0.250000  1
  Sc  Sc6  1  0.401021  0.200511  0.444542  1
  Sc  Sc7  1  0.799489  0.200511  0.444542  1
  Sc  Sc8  1  0.799488  0.598978  0.444542  1
  Sc  Sc9  1  0.200511  0.401022  0.555459  1
  Sc  Sc10  1  0.200510  0.799489  0.555459  1
  Sc  Sc11  1  0.598979  0.799489  0.555459  1
  Sc  Sc12  1  0.547409  0.094819  0.750001  1
  Sc  Sc13  1  0.547410  0.452590  0.750001  1
  Sc  Sc14  1  0.905181  0.452590  0.750001  1
  Sc  Sc15  1  0.200511  0.401022  0.944541  1
  Sc  Sc16  1  0.200510  0.799489  0.944541  1
  Sc  Sc17  1  0.598979  0.799489  0.944541  1
  V  V18  1  0.000000  0.000000  0.000000  1
  V  V19  1  0.000000  0.000000  0.500000  1
  Tc  Tc20  1  0.109554  0.219108  0.250000  1
  Tc  Tc21  1  0.109553  0.890446  0.250000  1
  Tc  Tc22  1  0.780893  0.890446  0.250000  1
  Tc  Tc23  1  0.219108  0.109554  0.750001  1
  Tc  Tc24  1  0.890446  0.109554  0.750001  1
  Tc  Tc25  1  0.890445  0.780892  0.750001  1
