# generated using pymatgen
data_Ho10Sn6As
_symmetry_space_group_name_H-M   'P 1'
_cell_length_a   6.53576200
_cell_length_b   9.06078105
_cell_length_c   9.06082500
_cell_angle_alpha   119.99984281
_cell_angle_beta   89.99979607
_cell_angle_gamma   90.00042140
_symmetry_Int_Tables_number   1
_chemical_formula_structural   Ho10Sn6As
_chemical_formula_sum   'Ho10 Sn6 As1'
_cell_volume   464.68743269
_cell_formula_units_Z   1
loop_
 _symmetry_equiv_pos_site_id
 _symmetry_equiv_pos_as_xyz
  1  'x, y, z'
loop_
 _atom_site_type_symbol
 _atom_site_label
 _atom_site_symmetry_multiplicity
 _atom_site_fract_x
 _atom_site_fract_y
 _atom_site_fract_z
 _atom_site_occupancy
  Ho  Ho0  1  0.500002  0.333333  0.666668  1
  Ho  Ho1  1  0.500002  0.666665  0.333332  1
  Ho  Ho2  1  0.000001  0.666664  0.333329  1
  Ho  Ho3  1  0.000001  0.333335  0.666671  1
  Ho  Ho4  1  0.750595  0.250997  0.000000  1
  Ho  Ho5  1  0.750589  0.749001  0.748999  1
  Ho  Ho6  1  0.750589  0.000002  0.251001  1
  Ho  Ho7  1  0.249403  0.749001  0.000000  1
  Ho  Ho8  1  0.249412  0.250999  0.251002  1
  Ho  Ho9  1  0.249412  0.999998  0.748998  1
  Sn  Sn10  1  0.748369  0.607566  0.000000  1
  Sn  Sn11  1  0.748364  0.392444  0.392441  1
  Sn  Sn12  1  0.748364  0.000004  0.607559  1
  Sn  Sn13  1  0.251634  0.392436  0.000000  1
  Sn  Sn14  1  0.251633  0.607558  0.607558  1
  Sn  Sn15  1  0.251633  0.000001  0.392442  1
  As  As16  1  0.500000  0.999999  0.000000  1
