# generated using pymatgen
data_Cs17Lu5O16
_symmetry_space_group_name_H-M   'P 1'
_cell_length_a   20.79236954
_cell_length_b   20.79237007
_cell_length_c   7.64819938
_cell_angle_alpha   84.81621744
_cell_angle_beta   84.81620985
_cell_angle_gamma   158.90472641
_symmetry_Int_Tables_number   1
_chemical_formula_structural   Cs17Lu5O16
_chemical_formula_sum   'Cs17 Lu5 O16'
_cell_volume   1035.00739115
_cell_formula_units_Z   1
loop_
 _symmetry_equiv_pos_site_id
 _symmetry_equiv_pos_as_xyz
  1  'x, y, z'
loop_
 _atom_site_type_symbol
 _atom_site_label
 _atom_site_symmetry_multiplicity
 _atom_site_fract_x
 _atom_site_fract_y
 _atom_site_fract_z
 _atom_site_occupancy
  Cs  Cs0  1  0.388117  0.666127  0.059827  1
  Cs  Cs1  1  0.476281  0.568263  0.080381  1
  Cs  Cs2  1  0.317470  0.781171  0.069755  1
  Cs  Cs3  1  0.085281  0.913751  0.196976  1
  Cs  Cs4  1  0.169265  0.827366  0.470167  1
  Cs  Cs5  1  0.333505  0.605964  0.588111  1
  Cs  Cs6  1  0.224684  0.678452  0.610841  1
  Cs  Cs7  1  0.425596  0.516954  0.606788  1
  Cs  Cs8  1  0.666127  0.388117  0.059827  1
  Cs  Cs9  1  0.568263  0.476281  0.080381  1
  Cs  Cs10  1  0.781171  0.317470  0.069755  1
  Cs  Cs11  1  0.913751  0.085281  0.196976  1
  Cs  Cs12  1  0.827366  0.169265  0.470167  1
  Cs  Cs13  1  0.605964  0.333505  0.588111  1
  Cs  Cs14  1  0.678452  0.224684  0.610841  1
  Cs  Cs15  1  0.516954  0.425596  0.606788  1
  Cs  Cs16  1  0.995002  0.995002  0.481550  1
  Lu  Lu17  1  0.997160  0.997160  0.986915  1
  Lu  Lu18  1  0.084736  0.906895  0.692520  1
  Lu  Lu19  1  0.177130  0.821990  0.982976  1
  Lu  Lu20  1  0.906895  0.084736  0.692520  1
  Lu  Lu21  1  0.821990  0.177130  0.982976  1
  O  O22  1  0.078065  0.448893  0.000327  1
  O  O23  1  0.161084  0.344903  0.411406  1
  O  O24  1  0.448893  0.078065  0.000327  1
  O  O25  1  0.255076  0.255076  0.015551  1
  O  O26  1  0.553795  0.922117  0.260710  1
  O  O27  1  0.209642  0.784561  0.784842  1
  O  O28  1  0.039848  0.953510  0.829649  1
  O  O29  1  0.128629  0.870499  0.868306  1
  O  O30  1  0.344903  0.161084  0.411406  1
  O  O31  1  0.646692  0.830271  0.663521  1
  O  O32  1  0.922117  0.553795  0.260710  1
  O  O33  1  0.739254  0.739254  0.268275  1
  O  O34  1  0.784561  0.209642  0.784842  1
  O  O35  1  0.953510  0.039848  0.829649  1
  O  O36  1  0.870499  0.128629  0.868306  1
  O  O37  1  0.830271  0.646692  0.663521  1
