# generated using pymatgen
data_Er4Pa(MnB3)2
_symmetry_space_group_name_H-M   'P 1'
_cell_length_a   5.40588913
_cell_length_b   5.40588869
_cell_length_c   7.96231375
_cell_angle_alpha   70.15558834
_cell_angle_beta   70.15559203
_cell_angle_gamma   59.99997787
_symmetry_Int_Tables_number   1
_chemical_formula_structural   Er4Pa(MnB3)2
_chemical_formula_sum   'Er4 Pa1 Mn2 B6'
_cell_volume   185.38684907
_cell_formula_units_Z   1
loop_
 _symmetry_equiv_pos_site_id
 _symmetry_equiv_pos_as_xyz
  1  'x, y, z'
loop_
 _atom_site_type_symbol
 _atom_site_label
 _atom_site_symmetry_multiplicity
 _atom_site_fract_x
 _atom_site_fract_y
 _atom_site_fract_z
 _atom_site_occupancy
  Er  Er0  1  0.252576  0.252576  0.242273  1
  Er  Er1  1  0.747424  0.747424  0.757727  1
  Er  Er2  1  0.414426  0.414426  0.756720  1
  Er  Er3  1  0.585574  0.585574  0.243280  1
  Pa  Pa4  1  0.000000  0.000000  0.000000  1
  Mn  Mn5  1  0.108059  0.108059  0.675824  1
  Mn  Mn6  1  0.891941  0.891941  0.324176  1
  B  B7  1  0.166892  0.833108  0.500000  1
  B  B8  1  0.833108  0.500000  0.500000  1
  B  B9  1  0.500000  0.166892  0.500000  1
  B  B10  1  0.166892  0.500000  0.500000  1
  B  B11  1  0.500000  0.833108  0.500000  1
  B  B12  1  0.833108  0.166892  0.500000  1
