# generated using pymatgen
data_Dy4Zr4Pt3Rh
_symmetry_space_group_name_H-M   'P 1'
_cell_length_a   4.70513300
_cell_length_b   7.13361476
_cell_length_c   8.21325129
_cell_angle_alpha   90.13124041
_cell_angle_beta   90.00000000
_cell_angle_gamma   90.00000000
_symmetry_Int_Tables_number   1
_chemical_formula_structural   Dy4Zr4Pt3Rh
_chemical_formula_sum   'Dy4 Zr4 Pt3 Rh1'
_cell_volume   275.67382223
_cell_formula_units_Z   1
loop_
 _symmetry_equiv_pos_site_id
 _symmetry_equiv_pos_as_xyz
  1  'x, y, z'
loop_
 _atom_site_type_symbol
 _atom_site_label
 _atom_site_symmetry_multiplicity
 _atom_site_fract_x
 _atom_site_fract_y
 _atom_site_fract_z
 _atom_site_occupancy
  Dy  Dy0  1  0.250000  0.484155  0.179100  1
  Dy  Dy1  1  0.750000  0.517895  0.822435  1
  Dy  Dy2  1  0.750000  0.015705  0.676877  1
  Dy  Dy3  1  0.250000  0.980889  0.325098  1
  Zr  Zr4  1  0.250000  0.852443  0.919644  1
  Zr  Zr5  1  0.750000  0.147580  0.080473  1
  Zr  Zr6  1  0.750000  0.645790  0.420468  1
  Zr  Zr7  1  0.250000  0.359143  0.581685  1
  Pt  Pt8  1  0.750000  0.269374  0.407622  1
  Pt  Pt9  1  0.750000  0.771883  0.093033  1
  Pt  Pt10  1  0.250000  0.227988  0.906771  1
  Rh  Rh11  1  0.250000  0.727154  0.586795  1
