# generated using pymatgen
data_Y3Mg2InGa2Ag
_symmetry_space_group_name_H-M   'P 1'
_cell_length_a   7.31702155
_cell_length_b   7.33638940
_cell_length_c   4.43477200
_cell_angle_alpha   90.00000000
_cell_angle_beta   90.00000000
_cell_angle_gamma   120.08759327
_symmetry_Int_Tables_number   1
_chemical_formula_structural   Y3Mg2InGa2Ag
_chemical_formula_sum   'Y3 Mg2 In1 Ga2 Ag1'
_cell_volume   205.98454260
_cell_formula_units_Z   1
loop_
 _symmetry_equiv_pos_site_id
 _symmetry_equiv_pos_as_xyz
  1  'x, y, z'
loop_
 _atom_site_type_symbol
 _atom_site_label
 _atom_site_symmetry_multiplicity
 _atom_site_fract_x
 _atom_site_fract_y
 _atom_site_fract_z
 _atom_site_occupancy
  Y  Y0  1  0.000000  0.574697  0.500000  1
  Y  Y1  1  0.422776  0.422425  0.500000  1
  Y  Y2  1  0.577224  0.999649  0.500000  1
  Mg  Mg3  1  0.756261  0.755878  0.000000  1
  Mg  Mg4  1  0.243739  0.999618  0.000000  1
  In  In5  1  0.000000  0.249225  0.000000  1
  Ga  Ga6  1  0.336184  0.670336  0.000000  1
  Ga  Ga7  1  0.663816  0.334151  0.000000  1
  Ag  Ag8  1  0.000000  0.994021  0.500000  1
