# generated using pymatgen
data_Ca6Re2HN6
_symmetry_space_group_name_H-M   'P 1'
_cell_length_a   6.14023109
_cell_length_b   6.14023103
_cell_length_c   6.14023141
_cell_angle_alpha   95.54436911
_cell_angle_beta   95.54437048
_cell_angle_gamma   95.54437242
_symmetry_Int_Tables_number   1
_chemical_formula_structural   Ca6Re2HN6
_chemical_formula_sum   'Ca6 Re2 H1 N6'
_cell_volume   228.02527892
_cell_formula_units_Z   1
loop_
 _symmetry_equiv_pos_site_id
 _symmetry_equiv_pos_as_xyz
  1  'x, y, z'
loop_
 _atom_site_type_symbol
 _atom_site_label
 _atom_site_symmetry_multiplicity
 _atom_site_fract_x
 _atom_site_fract_y
 _atom_site_fract_z
 _atom_site_occupancy
  Ca  Ca0  1  0.628935  0.115498  0.789721  1
  Ca  Ca1  1  0.115498  0.789721  0.628935  1
  Ca  Ca2  1  0.789721  0.628935  0.115498  1
  Ca  Ca3  1  0.371065  0.884502  0.210279  1
  Ca  Ca4  1  0.884502  0.210279  0.371065  1
  Ca  Ca5  1  0.210279  0.371065  0.884502  1
  Re  Re6  1  0.625605  0.625605  0.625605  1
  Re  Re7  1  0.374395  0.374395  0.374395  1
  H  H8  1  0.000000  0.000000  0.000000  1
  N  N9  1  0.734633  0.864022  0.472205  1
  N  N10  1  0.864022  0.472205  0.734633  1
  N  N11  1  0.472205  0.734633  0.864022  1
  N  N12  1  0.265367  0.135978  0.527795  1
  N  N13  1  0.135978  0.527795  0.265367  1
  N  N14  1  0.527795  0.265367  0.135978  1
