# generated using pymatgen
data_Sr6Gd3Y(GeO4)6
_symmetry_space_group_name_H-M   'P 1'
_cell_length_a   11.52921087
_cell_length_b   11.52931081
_cell_length_c   11.54056069
_cell_angle_alpha   109.47154689
_cell_angle_beta   109.47106822
_cell_angle_gamma   109.43132558
_symmetry_Int_Tables_number   1
_chemical_formula_structural   Sr6Gd3Y(GeO4)6
_chemical_formula_sum   'Sr12 Gd6 Y2 Ge12 O48'
_cell_volume   1181.46431737
_cell_formula_units_Z   2
loop_
 _symmetry_equiv_pos_site_id
 _symmetry_equiv_pos_as_xyz
  1  'x, y, z'
loop_
 _atom_site_type_symbol
 _atom_site_label
 _atom_site_symmetry_multiplicity
 _atom_site_fract_x
 _atom_site_fract_y
 _atom_site_fract_z
 _atom_site_occupancy
  Sr  Sr0  1  0.749607  0.124827  0.374422  1
  Sr  Sr1  1  0.249610  0.374461  0.124792  1
  Sr  Sr2  1  0.124817  0.249597  0.374423  1
  Sr  Sr3  1  0.375182  0.750330  0.124791  1
  Sr  Sr4  1  0.750390  0.625539  0.875208  1
  Sr  Sr5  1  0.124968  0.374969  0.749937  1
  Sr  Sr6  1  0.625399  0.875400  0.750799  1
  Sr  Sr7  1  0.250393  0.875173  0.625578  1
  Sr  Sr8  1  0.875032  0.625031  0.250063  1
  Sr  Sr9  1  0.624818  0.249670  0.875209  1
  Sr  Sr10  1  0.875183  0.750403  0.625577  1
  Sr  Sr11  1  0.374601  0.124600  0.249201  1
  Gd  Gd12  1  0.000000  0.500000  0.000000  1
  Gd  Gd13  1  0.500000  0.500000  0.000000  1
  Gd  Gd14  1  0.000000  0.500000  0.500000  1
  Gd  Gd15  1  0.500000  0.000000  0.500000  1
  Gd  Gd16  1  0.500000  0.500000  0.500000  1
  Gd  Gd17  1  0.000000  0.000000  0.500000  1
  Y  Y18  1  0.000000  0.000000  0.000000  1
  Y  Y19  1  0.500000  0.000000  0.000000  1
  Ge  Ge20  1  0.124416  0.875382  0.249188  1
  Ge  Ge21  1  0.875584  0.124618  0.750812  1
  Ge  Ge22  1  0.249961  0.625062  0.374898  1
  Ge  Ge23  1  0.375063  0.250164  0.625101  1
  Ge  Ge24  1  0.750011  0.875867  0.124144  1
  Ge  Ge25  1  0.125866  0.751729  0.875863  1
  Ge  Ge26  1  0.375229  0.626199  0.750814  1
  Ge  Ge27  1  0.624937  0.749836  0.374899  1
  Ge  Ge28  1  0.874134  0.248271  0.124137  1
  Ge  Ge29  1  0.249989  0.124133  0.875856  1
  Ge  Ge30  1  0.750039  0.374938  0.625102  1
  Ge  Ge31  1  0.624771  0.373801  0.249186  1
  O  O32  1  0.410173  0.803101  0.790434  1
  O  O33  1  0.878886  0.391072  0.090976  1
  O  O34  1  0.108463  0.987066  0.699383  1
  O  O35  1  0.513075  0.621517  0.712450  1
  O  O36  1  0.699375  0.090933  0.712450  1
  O  O37  1  0.621192  0.712427  0.513290  1
  O  O38  1  0.621181  0.408847  0.107862  1
  O  O39  1  0.712467  0.513464  0.621300  1
  O  O40  1  0.800334  0.512400  0.391612  1
  O  O41  1  0.988143  0.790636  0.880576  1
  O  O42  1  0.790405  0.880292  0.987408  1
  O  O43  1  0.712089  0.699899  0.090977  1
  O  O44  1  0.408833  0.107835  0.621300  1
  O  O45  1  0.392098  0.800864  0.513291  1
  O  O46  1  0.090921  0.712321  0.699387  1
  O  O47  1  0.107825  0.621216  0.408903  1
  O  O48  1  0.513219  0.392112  0.800948  1
  O  O49  1  0.091278  0.879212  0.391614  1
  O  O50  1  0.986679  0.699014  0.107861  1
  O  O51  1  0.199666  0.487600  0.608388  1
  O  O52  1  0.696998  0.107112  0.987404  1
  O  O53  1  0.787728  0.408836  0.800947  1
  O  O54  1  0.392432  0.089940  0.880575  1
  O  O55  1  0.880261  0.987335  0.790434  1
  O  O56  1  0.589827  0.196899  0.209566  1
  O  O57  1  0.121114  0.608928  0.909024  1
  O  O58  1  0.891537  0.012934  0.300617  1
  O  O59  1  0.486925  0.378483  0.287550  1
  O  O60  1  0.300625  0.909067  0.287550  1
  O  O61  1  0.378808  0.287573  0.486710  1
  O  O62  1  0.378819  0.591153  0.892138  1
  O  O63  1  0.287533  0.486536  0.378700  1
  O  O64  1  0.119739  0.012665  0.209566  1
  O  O65  1  0.607568  0.910060  0.119425  1
  O  O66  1  0.212272  0.591164  0.199053  1
  O  O67  1  0.198921  0.212312  0.591097  1
  O  O68  1  0.303002  0.892888  0.012596  1
  O  O69  1  0.013321  0.300986  0.892139  1
  O  O70  1  0.908722  0.120788  0.608386  1
  O  O71  1  0.486781  0.607888  0.199052  1
  O  O72  1  0.892175  0.378784  0.591097  1
  O  O73  1  0.909079  0.287679  0.300613  1
  O  O74  1  0.607902  0.199136  0.486709  1
  O  O75  1  0.591167  0.892165  0.378700  1
  O  O76  1  0.287911  0.300101  0.909023  1
  O  O77  1  0.209595  0.119708  0.012592  1
  O  O78  1  0.011857  0.209364  0.119424  1
  O  O79  1  0.801079  0.787688  0.408903  1
