# generated using pymatgen
data_Dy3(Er3Ru2)7
_symmetry_space_group_name_H-M   'P 1'
_cell_length_a   11.21929715
_cell_length_b   8.30779524
_cell_length_c   11.15821709
_cell_angle_alpha   56.48815058
_cell_angle_beta   90.01183233
_cell_angle_gamma   89.99481140
_symmetry_Int_Tables_number   1
_chemical_formula_structural   Dy3(Er3Ru2)7
_chemical_formula_sum   'Dy3 Er21 Ru14'
_cell_volume   867.14824007
_cell_formula_units_Z   1
loop_
 _symmetry_equiv_pos_site_id
 _symmetry_equiv_pos_as_xyz
  1  'x, y, z'
loop_
 _atom_site_type_symbol
 _atom_site_label
 _atom_site_symmetry_multiplicity
 _atom_site_fract_x
 _atom_site_fract_y
 _atom_site_fract_z
 _atom_site_occupancy
  Dy  Dy0  1  0.705448  0.241081  0.531652  1
  Dy  Dy1  1  0.205542  0.758664  0.968191  1
  Dy  Dy2  1  0.844509  0.507390  0.655533  1
  Er  Er3  1  0.345154  0.492863  0.844885  1
  Er  Er4  1  0.154990  0.492760  0.345244  1
  Er  Er5  1  0.654901  0.507181  0.154649  1
  Er  Er6  1  0.006962  0.852299  0.361616  1
  Er  Er7  1  0.506747  0.148109  0.138117  1
  Er  Er8  1  0.993673  0.148027  0.637939  1
  Er  Er9  1  0.493437  0.851784  0.861898  1
  Er  Er10  1  0.793926  0.241377  0.031690  1
  Er  Er11  1  0.294017  0.758350  0.468714  1
  Er  Er12  1  0.930878  0.777046  0.090323  1
  Er  Er13  1  0.430789  0.222847  0.409749  1
  Er  Er14  1  0.068849  0.223019  0.910043  1
  Er  Er15  1  0.568399  0.776855  0.590156  1
  Er  Er16  1  0.301881  0.242657  0.674795  1
  Er  Er17  1  0.801832  0.757541  0.825429  1
  Er  Er18  1  0.698133  0.758234  0.324615  1
  Er  Er19  1  0.198303  0.241941  0.175147  1
  Er  Er20  1  0.925533  0.279640  0.293389  1
  Er  Er21  1  0.425474  0.720450  0.206615  1
  Er  Er22  1  0.075015  0.720563  0.706282  1
  Er  Er23  1  0.574309  0.279356  0.793964  1
  Ru  Ru24  1  0.499646  0.500566  0.499945  1
  Ru  Ru25  1  0.999555  0.499347  0.000057  1
  Ru  Ru26  1  0.647943  0.923625  0.033810  1
  Ru  Ru27  1  0.147926  0.076312  0.466157  1
  Ru  Ru28  1  0.352214  0.076820  0.966460  1
  Ru  Ru29  1  0.852368  0.923735  0.533483  1
  Ru  Ru30  1  0.398483  0.484710  0.103399  1
  Ru  Ru31  1  0.898651  0.515702  0.395922  1
  Ru  Ru32  1  0.601724  0.514926  0.896877  1
  Ru  Ru33  1  0.102384  0.484948  0.603045  1
  Ru  Ru34  1  0.820675  0.097853  0.849559  1
  Ru  Ru35  1  0.320772  0.901328  0.650776  1
  Ru  Ru36  1  0.179496  0.901529  0.151277  1
  Ru  Ru37  1  0.679460  0.098561  0.348600  1
