# generated using pymatgen
data_Hf6Ti4Al12Fe4Pd3
_symmetry_space_group_name_H-M   'P 1'
_cell_length_a   8.65766267
_cell_length_b   8.65766255
_cell_length_c   8.66187551
_cell_angle_alpha   60.01608545
_cell_angle_beta   60.01609017
_cell_angle_gamma   60.00000124
_symmetry_Int_Tables_number   1
_chemical_formula_structural   Hf6Ti4Al12Fe4Pd3
_chemical_formula_sum   'Hf6 Ti4 Al12 Fe4 Pd3'
_cell_volume   459.20205366
_cell_formula_units_Z   1
loop_
 _symmetry_equiv_pos_site_id
 _symmetry_equiv_pos_as_xyz
  1  'x, y, z'
loop_
 _atom_site_type_symbol
 _atom_site_label
 _atom_site_symmetry_multiplicity
 _atom_site_fract_x
 _atom_site_fract_y
 _atom_site_fract_z
 _atom_site_occupancy
  Hf  Hf0  1  0.691627  0.691627  0.312692  1
  Hf  Hf1  1  0.304054  0.691627  0.312692  1
  Hf  Hf2  1  0.691627  0.304054  0.312692  1
  Hf  Hf3  1  0.310149  0.310149  0.685351  1
  Hf  Hf4  1  0.694350  0.310149  0.685351  1
  Hf  Hf5  1  0.310149  0.694350  0.685351  1
  Ti  Ti6  1  0.881356  0.881356  0.355932  1
  Ti  Ti7  1  0.890890  0.349881  0.868340  1
  Ti  Ti8  1  0.349881  0.890890  0.868340  1
  Ti  Ti9  1  0.890890  0.890890  0.868340  1
  Al  Al10  1  0.119265  0.119265  0.642205  1
  Al  Al11  1  0.112324  0.648322  0.127031  1
  Al  Al12  1  0.648322  0.112324  0.127031  1
  Al  Al13  1  0.112324  0.112324  0.127031  1
  Al  Al14  1  0.663760  0.663760  0.008723  1
  Al  Al15  1  0.669003  0.002505  0.659492  1
  Al  Al16  1  0.002505  0.669003  0.659492  1
  Al  Al17  1  0.669003  0.669003  0.659492  1
  Al  Al18  1  0.336079  0.336079  0.991761  1
  Al  Al19  1  0.330003  0.997985  0.342008  1
  Al  Al20  1  0.997985  0.330003  0.342008  1
  Al  Al21  1  0.330003  0.330003  0.342008  1
  Fe  Fe22  1  0.001494  0.001494  0.995517  1
  Fe  Fe23  1  0.996651  0.996651  0.507017  1
  Fe  Fe24  1  0.499681  0.996651  0.507017  1
  Fe  Fe25  1  0.996651  0.499681  0.507017  1
  Pd  Pd26  1  0.499486  0.499486  0.000025  1
  Pd  Pd27  1  0.001002  0.499486  0.000025  1
  Pd  Pd28  1  0.499486  0.001002  0.000025  1
