# generated using pymatgen
data_Sc(TaSe2)3
_symmetry_space_group_name_H-M   'P 1'
_cell_length_a   6.03115400
_cell_length_b   6.03115437
_cell_length_c   13.70703800
_cell_angle_alpha   90.00000000
_cell_angle_beta   90.00000000
_cell_angle_gamma   119.99999800
_symmetry_Int_Tables_number   1
_chemical_formula_structural   Sc(TaSe2)3
_chemical_formula_sum   'Sc2 Ta6 Se12'
_cell_volume   431.79252465
_cell_formula_units_Z   2
loop_
 _symmetry_equiv_pos_site_id
 _symmetry_equiv_pos_as_xyz
  1  'x, y, z'
loop_
 _atom_site_type_symbol
 _atom_site_label
 _atom_site_symmetry_multiplicity
 _atom_site_fract_x
 _atom_site_fract_y
 _atom_site_fract_z
 _atom_site_occupancy
  Sc  Sc0  1  0.666667  0.333333  0.750000  1
  Sc  Sc1  1  0.333333  0.666667  0.250000  1
  Ta  Ta2  1  0.000000  0.000000  0.000000  1
  Ta  Ta3  1  0.666667  0.333333  0.998646  1
  Ta  Ta4  1  0.333333  0.666667  0.498646  1
  Ta  Ta5  1  0.000000  0.000000  0.500000  1
  Ta  Ta6  1  0.333333  0.666667  0.001354  1
  Ta  Ta7  1  0.666667  0.333333  0.501354  1
  Se  Se8  1  0.672542  0.665353  0.122814  1
  Se  Se9  1  0.327458  0.334647  0.622814  1
  Se  Se10  1  0.665353  0.672542  0.877186  1
  Se  Se11  1  0.327458  0.992811  0.877186  1
  Se  Se12  1  0.007189  0.672542  0.622814  1
  Se  Se13  1  0.007189  0.334647  0.877186  1
  Se  Se14  1  0.992811  0.665353  0.377186  1
  Se  Se15  1  0.334647  0.327458  0.377186  1
  Se  Se16  1  0.672542  0.007189  0.377186  1
  Se  Se17  1  0.992811  0.327458  0.122814  1
  Se  Se18  1  0.665353  0.992811  0.622814  1
  Se  Se19  1  0.334647  0.007189  0.122814  1
