# generated using pymatgen
data_Y2Ho5CoSn23Ru5
_symmetry_space_group_name_H-M   'P 1'
_cell_length_a   9.81711241
_cell_length_b   9.81711079
_cell_length_c   10.05740502
_cell_angle_alpha   90.03301558
_cell_angle_beta   89.96698591
_cell_angle_gamma   119.99700942
_symmetry_Int_Tables_number   1
_chemical_formula_structural   Y2Ho5CoSn23Ru5
_chemical_formula_sum   'Y2 Ho5 Co1 Sn23 Ru5'
_cell_volume   839.45422266
_cell_formula_units_Z   1
loop_
 _symmetry_equiv_pos_site_id
 _symmetry_equiv_pos_as_xyz
  1  'x, y, z'
loop_
 _atom_site_type_symbol
 _atom_site_label
 _atom_site_symmetry_multiplicity
 _atom_site_fract_x
 _atom_site_fract_y
 _atom_site_fract_z
 _atom_site_occupancy
  Y  Y0  1  0.003998  0.996002  0.995315  1
  Y  Y1  1  0.515828  0.484172  0.696689  1
  Ho  Ho2  1  0.516244  0.032084  0.696053  1
  Ho  Ho3  1  0.967916  0.483756  0.696053  1
  Ho  Ho4  1  0.032834  0.517182  0.304459  1
  Ho  Ho5  1  0.482818  0.967166  0.304459  1
  Ho  Ho6  1  0.483033  0.516967  0.303606  1
  Co  Co7  1  0.828939  0.171061  0.200519  1
  Sn  Sn8  1  0.667587  0.332413  0.181054  1
  Sn  Sn9  1  0.666851  0.333149  0.874060  1
  Sn  Sn10  1  0.332905  0.667095  0.126812  1
  Sn  Sn11  1  0.349252  0.349298  0.000243  1
  Sn  Sn12  1  0.999020  0.648270  0.000233  1
  Sn  Sn13  1  0.654579  0.002375  0.004261  1
  Sn  Sn14  1  0.650702  0.650748  0.000243  1
  Sn  Sn15  1  0.333140  0.666860  0.820920  1
  Sn  Sn16  1  0.439313  0.219544  0.461599  1
  Sn  Sn17  1  0.220005  0.779995  0.539039  1
  Sn  Sn18  1  0.218887  0.439270  0.538365  1
  Sn  Sn19  1  0.560730  0.781113  0.538365  1
  Sn  Sn20  1  0.119029  0.880971  0.273280  1
  Sn  Sn21  1  0.780456  0.560687  0.461599  1
  Sn  Sn22  1  0.782266  0.217734  0.456426  1
  Sn  Sn23  1  0.351730  0.000980  0.000233  1
  Sn  Sn24  1  0.111330  0.233990  0.271846  1
  Sn  Sn25  1  0.766010  0.888670  0.271846  1
  Sn  Sn26  1  0.236192  0.118108  0.724963  1
  Sn  Sn27  1  0.881892  0.763808  0.724963  1
  Sn  Sn28  1  0.881337  0.118663  0.726780  1
  Sn  Sn29  1  0.000334  0.999666  0.498847  1
  Sn  Sn30  1  0.997625  0.345421  0.004261  1
  Ru  Ru31  1  0.169487  0.830513  0.799784  1
  Ru  Ru32  1  0.168107  0.339095  0.799259  1
  Ru  Ru33  1  0.660905  0.831893  0.799259  1
  Ru  Ru34  1  0.338882  0.170160  0.202153  1
  Ru  Ru35  1  0.829840  0.661118  0.202153  1
