# generated using pymatgen
data_TbCo3Ni2P3
_symmetry_space_group_name_H-M   'P 1'
_cell_length_a   3.68011800
_cell_length_b   10.25965700
_cell_length_c   11.82588100
_cell_angle_alpha   90.00000000
_cell_angle_beta   90.00000000
_cell_angle_gamma   90.00000000
_symmetry_Int_Tables_number   1
_chemical_formula_structural   TbCo3Ni2P3
_chemical_formula_sum   'Tb4 Co12 Ni8 P12'
_cell_volume   446.50681352
_cell_formula_units_Z   4
loop_
 _symmetry_equiv_pos_site_id
 _symmetry_equiv_pos_as_xyz
  1  'x, y, z'
loop_
 _atom_site_type_symbol
 _atom_site_label
 _atom_site_symmetry_multiplicity
 _atom_site_fract_x
 _atom_site_fract_y
 _atom_site_fract_z
 _atom_site_occupancy
  Tb  Tb0  1  0.250000  0.581567  0.703202  1
  Tb  Tb1  1  0.250000  0.918433  0.203202  1
  Tb  Tb2  1  0.750000  0.418433  0.296798  1
  Tb  Tb3  1  0.750000  0.081567  0.796798  1
  Co  Co4  1  0.250000  0.221835  0.175908  1
  Co  Co5  1  0.250000  0.278165  0.675908  1
  Co  Co6  1  0.750000  0.778165  0.824092  1
  Co  Co7  1  0.750000  0.721835  0.324092  1
  Co  Co8  1  0.250000  0.880836  0.697539  1
  Co  Co9  1  0.250000  0.619164  0.197539  1
  Co  Co10  1  0.750000  0.119164  0.302461  1
  Co  Co11  1  0.750000  0.380836  0.802461  1
  Co  Co12  1  0.250000  0.467288  0.932787  1
  Co  Co13  1  0.250000  0.032712  0.432787  1
  Co  Co14  1  0.750000  0.532712  0.067213  1
  Co  Co15  1  0.750000  0.967288  0.567213  1
  Ni  Ni16  1  0.250000  0.712519  0.990086  1
  Ni  Ni17  1  0.250000  0.787481  0.490086  1
  Ni  Ni18  1  0.750000  0.287481  0.009914  1
  Ni  Ni19  1  0.750000  0.212519  0.509914  1
  Ni  Ni20  1  0.250000  0.408240  0.485355  1
  Ni  Ni21  1  0.250000  0.091760  0.985355  1
  Ni  Ni22  1  0.750000  0.591760  0.514645  1
  Ni  Ni23  1  0.750000  0.908240  0.014645  1
  P  P24  1  0.250000  0.420294  0.112518  1
  P  P25  1  0.250000  0.079706  0.612518  1
  P  P26  1  0.750000  0.579706  0.887482  1
  P  P27  1  0.750000  0.920294  0.387482  1
  P  P28  1  0.250000  0.272566  0.865352  1
  P  P29  1  0.250000  0.227434  0.365352  1
  P  P30  1  0.750000  0.727434  0.134648  1
  P  P31  1  0.750000  0.772566  0.634648  1
  P  P32  1  0.250000  0.605955  0.387903  1
  P  P33  1  0.250000  0.894045  0.887903  1
  P  P34  1  0.750000  0.394045  0.612097  1
  P  P35  1  0.750000  0.105955  0.112097  1
