# generated using pymatgen
data_Th5Sn3Bi
_symmetry_space_group_name_H-M   'P 1'
_cell_length_a   9.74251900
_cell_length_b   9.73949862
_cell_length_c   6.58362800
_cell_angle_alpha   90.00000000
_cell_angle_beta   90.00000000
_cell_angle_gamma   120.01024892
_symmetry_Int_Tables_number   1
_chemical_formula_structural   Th5Sn3Bi
_chemical_formula_sum   'Th10 Sn6 Bi2'
_cell_volume   540.95223073
_cell_formula_units_Z   2
loop_
 _symmetry_equiv_pos_site_id
 _symmetry_equiv_pos_as_xyz
  1  'x, y, z'
loop_
 _atom_site_type_symbol
 _atom_site_label
 _atom_site_symmetry_multiplicity
 _atom_site_fract_x
 _atom_site_fract_y
 _atom_site_fract_z
 _atom_site_occupancy
  Th  Th0  1  0.003942  0.720630  0.750000  1
  Th  Th1  1  0.283311  0.279370  0.750000  1
  Th  Th2  1  0.333729  0.669538  0.497316  1
  Th  Th3  1  0.664192  0.330462  0.497316  1
  Th  Th4  1  0.718220  0.718534  0.250000  1
  Th  Th5  1  0.716070  0.000000  0.750000  1
  Th  Th6  1  0.999686  0.281466  0.250000  1
  Th  Th7  1  0.283058  0.000000  0.250000  1
  Th  Th8  1  0.333729  0.669538  0.002684  1
  Th  Th9  1  0.664192  0.330462  0.002684  1
  Sn  Sn10  1  0.380488  0.000000  0.750000  1
  Sn  Sn11  1  0.619553  0.000000  0.250000  1
  Sn  Sn12  1  0.380380  0.379957  0.250000  1
  Sn  Sn13  1  0.999826  0.000000  0.999937  1
  Sn  Sn14  1  0.000423  0.620043  0.250000  1
  Sn  Sn15  1  0.999826  0.000000  0.500063  1
  Bi  Bi16  1  0.619483  0.619590  0.750000  1
  Bi  Bi17  1  0.999893  0.380410  0.750000  1
