# generated using pymatgen
data_Y4VTc3B16
_symmetry_space_group_name_H-M   'P 1'
_cell_length_a   3.57856800
_cell_length_b   5.97905671
_cell_length_c   11.56277324
_cell_angle_alpha   89.87206794
_cell_angle_beta   90.00000000
_cell_angle_gamma   90.00000000
_symmetry_Int_Tables_number   1
_chemical_formula_structural   Y4VTc3B16
_chemical_formula_sum   'Y4 V1 Tc3 B16'
_cell_volume   247.40181005
_cell_formula_units_Z   1
loop_
 _symmetry_equiv_pos_site_id
 _symmetry_equiv_pos_as_xyz
  1  'x, y, z'
loop_
 _atom_site_type_symbol
 _atom_site_label
 _atom_site_symmetry_multiplicity
 _atom_site_fract_x
 _atom_site_fract_y
 _atom_site_fract_z
 _atom_site_occupancy
  Y  Y0  1  0.000000  0.625789  0.350038  1
  Y  Y1  1  0.000000  0.374521  0.650106  1
  Y  Y2  1  0.000000  0.126701  0.150450  1
  Y  Y3  1  0.000000  0.873212  0.848549  1
  V  V4  1  0.000000  0.872507  0.582136  1
  Tc  Tc5  1  0.000000  0.633480  0.087055  1
  Tc  Tc6  1  0.000000  0.366716  0.914051  1
  Tc  Tc7  1  0.000000  0.126835  0.416612  1
  B  B8  1  0.500000  0.785180  0.185619  1
  B  B9  1  0.500000  0.214841  0.814702  1
  B  B10  1  0.500000  0.285417  0.315617  1
  B  B11  1  0.500000  0.714338  0.684865  1
  B  B12  1  0.500000  0.863999  0.031330  1
  B  B13  1  0.500000  0.136073  0.968643  1
  B  B14  1  0.500000  0.364401  0.467811  1
  B  B15  1  0.500000  0.635189  0.532292  1
  B  B16  1  0.500000  0.886160  0.453047  1
  B  B17  1  0.500000  0.114248  0.547129  1
  B  B18  1  0.500000  0.386599  0.047101  1
  B  B19  1  0.500000  0.613739  0.952812  1
  B  B20  1  0.500000  0.976713  0.307941  1
  B  B21  1  0.500000  0.023380  0.692205  1
  B  B22  1  0.500000  0.475638  0.192178  1
  B  B23  1  0.500000  0.524325  0.807710  1
