# generated using pymatgen
data_TbLu2Fe(Co4P3)2
_symmetry_space_group_name_H-M   'P 1'
_cell_length_a   3.66952800
_cell_length_b   10.47457000
_cell_length_c   12.11645200
_cell_angle_alpha   90.00000000
_cell_angle_beta   90.00000000
_cell_angle_gamma   90.00000000
_symmetry_Int_Tables_number   1
_chemical_formula_structural   TbLu2Fe(Co4P3)2
_chemical_formula_sum   'Tb2 Lu4 Fe2 Co16 P12'
_cell_volume   465.71676867
_cell_formula_units_Z   2
loop_
 _symmetry_equiv_pos_site_id
 _symmetry_equiv_pos_as_xyz
  1  'x, y, z'
loop_
 _atom_site_type_symbol
 _atom_site_label
 _atom_site_symmetry_multiplicity
 _atom_site_fract_x
 _atom_site_fract_y
 _atom_site_fract_z
 _atom_site_occupancy
  Tb  Tb0  1  0.000000  0.500000  0.523164  1
  Tb  Tb1  1  0.500000  0.000000  0.476836  1
  Lu  Lu2  1  0.500000  0.818616  0.204914  1
  Lu  Lu3  1  0.500000  0.181384  0.204914  1
  Lu  Lu4  1  0.000000  0.681384  0.795086  1
  Lu  Lu5  1  0.000000  0.318616  0.795086  1
  Fe  Fe6  1  0.500000  0.500000  0.157726  1
  Fe  Fe7  1  0.000000  0.000000  0.842274  1
  Co  Co8  1  0.500000  0.500000  0.704574  1
  Co  Co9  1  0.000000  0.000000  0.295426  1
  Co  Co10  1  0.000000  0.500000  0.986928  1
  Co  Co11  1  0.500000  0.000000  0.013072  1
  Co  Co12  1  0.500000  0.332641  0.994547  1
  Co  Co13  1  0.500000  0.667359  0.994547  1
  Co  Co14  1  0.000000  0.167359  0.005453  1
  Co  Co15  1  0.000000  0.832641  0.005453  1
  Co  Co16  1  0.500000  0.296501  0.430246  1
  Co  Co17  1  0.500000  0.703499  0.430246  1
  Co  Co18  1  0.000000  0.203499  0.569754  1
  Co  Co19  1  0.000000  0.796501  0.569754  1
  Co  Co20  1  0.500000  0.877885  0.709858  1
  Co  Co21  1  0.500000  0.122115  0.709858  1
  Co  Co22  1  0.000000  0.622115  0.290142  1
  Co  Co23  1  0.000000  0.377885  0.290142  1
  P  P24  1  0.500000  0.500000  0.882563  1
  P  P25  1  0.000000  0.000000  0.117437  1
  P  P26  1  0.500000  0.500000  0.343333  1
  P  P27  1  0.000000  0.000000  0.656667  1
  P  P28  1  0.500000  0.310722  0.617729  1
  P  P29  1  0.500000  0.689278  0.617729  1
  P  P30  1  0.000000  0.189278  0.382271  1
  P  P31  1  0.000000  0.810722  0.382271  1
  P  P32  1  0.500000  0.846129  0.891601  1
  P  P33  1  0.500000  0.153871  0.891601  1
  P  P34  1  0.000000  0.653871  0.108399  1
  P  P35  1  0.000000  0.346129  0.108399  1
