# generated using pymatgen
data_Yb2TmTh5(Pt2Pb)4
_symmetry_space_group_name_H-M   'P 1'
_cell_length_a   8.08237244
_cell_length_b   8.08709264
_cell_length_c   7.34989000
_cell_angle_alpha   90.00000000
_cell_angle_beta   90.00000000
_cell_angle_gamma   90.10479956
_symmetry_Int_Tables_number   1
_chemical_formula_structural   Yb2TmTh5(Pt2Pb)4
_chemical_formula_sum   'Yb2 Tm1 Th5 Pt8 Pb4'
_cell_volume   480.40928182
_cell_formula_units_Z   1
loop_
 _symmetry_equiv_pos_site_id
 _symmetry_equiv_pos_as_xyz
  1  'x, y, z'
loop_
 _atom_site_type_symbol
 _atom_site_label
 _atom_site_symmetry_multiplicity
 _atom_site_fract_x
 _atom_site_fract_y
 _atom_site_fract_z
 _atom_site_occupancy
  Yb  Yb0  1  0.663723  0.663925  0.500000  1
  Yb  Yb1  1  0.160170  0.838714  0.000000  1
  Tm  Tm2  1  0.840956  0.157057  0.000000  1
  Th  Th3  1  0.676344  0.676784  0.000000  1
  Th  Th4  1  0.341213  0.341278  0.500000  1
  Th  Th5  1  0.824278  0.173634  0.500000  1
  Th  Th6  1  0.324855  0.325761  0.000000  1
  Th  Th7  1  0.173211  0.825150  0.500000  1
  Pt  Pt8  1  0.872457  0.876537  0.738013  1
  Pt  Pt9  1  0.129560  0.131669  0.737361  1
  Pt  Pt10  1  0.630303  0.366778  0.769429  1
  Pt  Pt11  1  0.630303  0.366778  0.230571  1
  Pt  Pt12  1  0.370786  0.624978  0.235557  1
  Pt  Pt13  1  0.129560  0.131669  0.262639  1
  Pt  Pt14  1  0.872457  0.876537  0.261987  1
  Pt  Pt15  1  0.370786  0.624978  0.764443  1
  Pb  Pb16  1  0.499821  0.993732  0.752361  1
  Pb  Pb17  1  0.499821  0.993732  0.247639  1
  Pb  Pb18  1  0.994700  0.505153  0.751116  1
  Pb  Pb19  1  0.994700  0.505153  0.248884  1
