# generated using pymatgen
data_Ac5AsPdO12
_symmetry_space_group_name_H-M   'P 1'
_cell_length_a   7.29486134
_cell_length_b   7.29485937
_cell_length_c   7.82871700
_cell_angle_alpha   74.46782970
_cell_angle_beta   74.46783400
_cell_angle_gamma   50.30855432
_symmetry_Int_Tables_number   1
_chemical_formula_structural   Ac5AsPdO12
_chemical_formula_sum   'Ac5 As1 Pd1 O12'
_cell_volume   306.22629250
_cell_formula_units_Z   1
loop_
 _symmetry_equiv_pos_site_id
 _symmetry_equiv_pos_as_xyz
  1  'x, y, z'
loop_
 _atom_site_type_symbol
 _atom_site_label
 _atom_site_symmetry_multiplicity
 _atom_site_fract_x
 _atom_site_fract_y
 _atom_site_fract_z
 _atom_site_occupancy
  Ac  Ac0  1  0.316297  0.303199  0.355172  1
  Ac  Ac1  1  0.696801  0.683703  0.644828  1
  Ac  Ac2  1  0.699075  0.691255  0.162360  1
  Ac  Ac3  1  0.308745  0.300925  0.837640  1
  Ac  Ac4  1  0.005849  0.994151  0.500000  1
  As  As5  1  0.233792  0.766208  0.000000  1
  Pd  Pd6  1  0.748972  0.251028  0.000000  1
  O  O7  1  0.100207  0.594484  0.576803  1
  O  O8  1  0.010588  0.987835  0.164116  1
  O  O9  1  0.405516  0.899793  0.423197  1
  O  O10  1  0.481254  0.521514  0.161649  1
  O  O11  1  0.107723  0.603010  0.071978  1
  O  O12  1  0.911019  0.397983  0.419404  1
  O  O13  1  0.012165  0.989412  0.835884  1
  O  O14  1  0.602017  0.088980  0.580596  1
  O  O15  1  0.478486  0.518746  0.838351  1
  O  O16  1  0.581628  0.097122  0.076766  1
  O  O17  1  0.396990  0.892277  0.928022  1
  O  O18  1  0.902878  0.418372  0.923234  1
