# generated using pymatgen
data_Y6Er10InNi4Ag3
_symmetry_space_group_name_H-M   'P 1'
_cell_length_a   9.42587338
_cell_length_b   9.43620642
_cell_length_c   9.43620600
_cell_angle_alpha   59.99999445
_cell_angle_beta   59.96372443
_cell_angle_gamma   59.96373350
_symmetry_Int_Tables_number   1
_chemical_formula_structural   Y6Er10InNi4Ag3
_chemical_formula_sum   'Y6 Er10 In1 Ni4 Ag3'
_cell_volume   593.14806454
_cell_formula_units_Z   1
loop_
 _symmetry_equiv_pos_site_id
 _symmetry_equiv_pos_as_xyz
  1  'x, y, z'
loop_
 _atom_site_type_symbol
 _atom_site_label
 _atom_site_symmetry_multiplicity
 _atom_site_fract_x
 _atom_site_fract_y
 _atom_site_fract_z
 _atom_site_occupancy
  Y  Y0  1  0.184089  0.813244  0.813244  1
  Y  Y1  1  0.813408  0.186441  0.186441  1
  Y  Y2  1  0.813408  0.186441  0.813709  1
  Y  Y3  1  0.184089  0.813244  0.189426  1
  Y  Y4  1  0.813408  0.813709  0.186441  1
  Y  Y5  1  0.184089  0.189426  0.813244  1
  Er  Er6  1  0.599523  0.597801  0.597801  1
  Er  Er7  1  0.599523  0.597801  0.204878  1
  Er  Er8  1  0.599523  0.204878  0.597801  1
  Er  Er9  1  0.198777  0.600407  0.600407  1
  Er  Er10  1  0.061133  0.438368  0.438368  1
  Er  Er11  1  0.437711  0.061759  0.061759  1
  Er  Er12  1  0.437711  0.061759  0.438769  1
  Er  Er13  1  0.061133  0.438368  0.062132  1
  Er  Er14  1  0.437711  0.438769  0.061759  1
  Er  Er15  1  0.061133  0.062132  0.438368  1
  In  In16  1  0.516278  0.827907  0.827907  1
  Ni  Ni17  1  0.389884  0.393856  0.393856  1
  Ni  Ni18  1  0.389884  0.393856  0.822404  1
  Ni  Ni19  1  0.389884  0.822404  0.393856  1
  Ni  Ni20  1  0.824809  0.391729  0.391729  1
  Ag  Ag21  1  0.834297  0.831787  0.831787  1
  Ag  Ag22  1  0.834297  0.831787  0.502128  1
  Ag  Ag23  1  0.834297  0.502128  0.831787  1
