# generated using pymatgen
data_Dy7Hf(Nb3Si4)4
_symmetry_space_group_name_H-M   'P 1'
_cell_length_a   7.04210097
_cell_length_b   7.03842472
_cell_length_c   13.01967924
_cell_angle_alpha   90.14460529
_cell_angle_beta   90.02309040
_cell_angle_gamma   89.93814797
_symmetry_Int_Tables_number   1
_chemical_formula_structural   Dy7Hf(Nb3Si4)4
_chemical_formula_sum   'Dy7 Hf1 Nb12 Si16'
_cell_volume   645.32179304
_cell_formula_units_Z   1
loop_
 _symmetry_equiv_pos_site_id
 _symmetry_equiv_pos_as_xyz
  1  'x, y, z'
loop_
 _atom_site_type_symbol
 _atom_site_label
 _atom_site_symmetry_multiplicity
 _atom_site_fract_x
 _atom_site_fract_y
 _atom_site_fract_z
 _atom_site_occupancy
  Dy  Dy0  1  0.001303  0.660586  0.717986  1
  Dy  Dy1  1  0.159126  0.497992  0.467592  1
  Dy  Dy2  1  0.501856  0.840899  0.033834  1
  Dy  Dy3  1  0.840358  0.501873  0.969366  1
  Dy  Dy4  1  0.498643  0.159608  0.530797  1
  Dy  Dy5  1  0.339992  0.999108  0.782528  1
  Dy  Dy6  1  0.661188  0.002631  0.280832  1
  Hf  Hf7  1  0.006963  0.344763  0.216898  1
  Nb  Nb8  1  0.169554  0.172408  0.001537  1
  Nb  Nb9  1  0.829755  0.828452  0.498231  1
  Nb  Nb10  1  0.327613  0.666456  0.249689  1
  Nb  Nb11  1  0.670561  0.329613  0.750090  1
  Nb  Nb12  1  0.150432  0.993257  0.373899  1
  Nb  Nb13  1  0.845550  0.009509  0.877106  1
  Nb  Nb14  1  0.506873  0.653489  0.625608  1
  Nb  Nb15  1  0.345897  0.493491  0.875195  1
  Nb  Nb16  1  0.492612  0.345217  0.127304  1
  Nb  Nb17  1  0.655017  0.503228  0.372324  1
  Nb  Nb18  1  0.992012  0.155025  0.623619  1
  Nb  Nb19  1  0.005145  0.846300  0.125543  1
  Si  Si20  1  0.291396  0.046074  0.186837  1
  Si  Si21  1  0.705554  0.956046  0.686245  1
  Si  Si22  1  0.455312  0.792866  0.435425  1
  Si  Si23  1  0.203864  0.543034  0.065295  1
  Si  Si24  1  0.544584  0.206062  0.937814  1
  Si  Si25  1  0.794548  0.455802  0.562606  1
  Si  Si26  1  0.044035  0.295243  0.813537  1
  Si  Si27  1  0.955815  0.699508  0.312113  1
  Si  Si28  1  0.362661  0.294101  0.316771  1
  Si  Si29  1  0.632434  0.705158  0.817691  1
  Si  Si30  1  0.204207  0.867959  0.566553  1
  Si  Si31  1  0.131913  0.796221  0.933658  1
  Si  Si32  1  0.799422  0.137097  0.072172  1
  Si  Si33  1  0.867874  0.205934  0.429082  1
  Si  Si34  1  0.295870  0.367429  0.682702  1
  Si  Si35  1  0.710060  0.627560  0.181521  1
