# generated using pymatgen
data_Ta2Mn3Fe
_symmetry_space_group_name_H-M   'P 1'
_cell_length_a   4.76407600
_cell_length_b   4.76407614
_cell_length_c   7.95379200
_cell_angle_alpha   90.00000000
_cell_angle_beta   90.00000000
_cell_angle_gamma   119.99999905
_symmetry_Int_Tables_number   1
_chemical_formula_structural   Ta2Mn3Fe
_chemical_formula_sum   'Ta4 Mn6 Fe2'
_cell_volume   156.33716779
_cell_formula_units_Z   2
loop_
 _symmetry_equiv_pos_site_id
 _symmetry_equiv_pos_as_xyz
  1  'x, y, z'
loop_
 _atom_site_type_symbol
 _atom_site_label
 _atom_site_symmetry_multiplicity
 _atom_site_fract_x
 _atom_site_fract_y
 _atom_site_fract_z
 _atom_site_occupancy
  Ta  Ta0  1  0.666666  0.333334  0.065202  1
  Ta  Ta1  1  0.666666  0.333334  0.434799  1
  Ta  Ta2  1  0.333333  0.666666  0.565202  1
  Ta  Ta3  1  0.333333  0.666666  0.934799  1
  Mn  Mn4  1  0.172571  0.345143  0.250000  1
  Mn  Mn5  1  0.172571  0.827428  0.250000  1
  Mn  Mn6  1  0.654856  0.827428  0.250000  1
  Mn  Mn7  1  0.345142  0.172570  0.750000  1
  Mn  Mn8  1  0.827429  0.172570  0.750000  1
  Mn  Mn9  1  0.827428  0.654857  0.750000  1
  Fe  Fe10  1  0.000000  0.000000  0.000000  1
  Fe  Fe11  1  0.000000  0.000000  0.500000  1
