# generated using pymatgen
data_Ho3Er3TcRu
_symmetry_space_group_name_H-M   'P 1'
_cell_length_a   6.25500207
_cell_length_b   7.34338200
_cell_length_c   9.07087110
_cell_angle_alpha   90.00000000
_cell_angle_beta   90.01727879
_cell_angle_gamma   90.00000000
_symmetry_Int_Tables_number   1
_chemical_formula_structural   Ho3Er3TcRu
_chemical_formula_sum   'Ho6 Er6 Tc2 Ru2'
_cell_volume   416.65112076
_cell_formula_units_Z   2
loop_
 _symmetry_equiv_pos_site_id
 _symmetry_equiv_pos_as_xyz
  1  'x, y, z'
loop_
 _atom_site_type_symbol
 _atom_site_label
 _atom_site_symmetry_multiplicity
 _atom_site_fract_x
 _atom_site_fract_y
 _atom_site_fract_z
 _atom_site_occupancy
  Ho  Ho0  1  0.333991  0.676351  0.063211  1
  Ho  Ho1  1  0.166009  0.176351  0.436789  1
  Ho  Ho2  1  0.874096  0.539278  0.250025  1
  Ho  Ho3  1  0.625904  0.039278  0.249975  1
  Ho  Ho4  1  0.131392  0.457491  0.749986  1
  Ho  Ho5  1  0.368608  0.957491  0.750014  1
  Er  Er6  1  0.664460  0.324088  0.562540  1
  Er  Er7  1  0.835540  0.824088  0.937460  1
  Er  Er8  1  0.664552  0.324018  0.937480  1
  Er  Er9  1  0.835448  0.824018  0.562520  1
  Er  Er10  1  0.334021  0.676291  0.436782  1
  Er  Er11  1  0.165979  0.176291  0.063218  1
  Tc  Tc12  1  0.038612  0.885908  0.250021  1
  Tc  Tc13  1  0.461388  0.385908  0.249979  1
  Ru  Ru14  1  0.960444  0.116576  0.750093  1
  Ru  Ru15  1  0.539556  0.616576  0.749907  1
