# generated using pymatgen
data_CeMnPt3Au
_symmetry_space_group_name_H-M   'P 1'
_cell_length_a   5.46911343
_cell_length_b   5.26317131
_cell_length_c   5.46911300
_cell_angle_alpha   58.69695608
_cell_angle_beta   59.99999654
_cell_angle_gamma   58.69694626
_symmetry_Int_Tables_number   1
_chemical_formula_structural   CeMnPt3Au
_chemical_formula_sum   'Ce1 Mn1 Pt3 Au1'
_cell_volume   109.07513462
_cell_formula_units_Z   1
loop_
 _symmetry_equiv_pos_site_id
 _symmetry_equiv_pos_as_xyz
  1  'x, y, z'
loop_
 _atom_site_type_symbol
 _atom_site_label
 _atom_site_symmetry_multiplicity
 _atom_site_fract_x
 _atom_site_fract_y
 _atom_site_fract_z
 _atom_site_occupancy
  Ce  Ce0  1  0.504035  0.487895  0.504035  1
  Mn  Mn1  1  0.122443  0.632673  0.122443  1
  Pt  Pt2  1  0.123184  0.128519  0.625114  1
  Pt  Pt3  1  0.625114  0.128519  0.123184  1
  Pt  Pt4  1  0.123184  0.128519  0.123184  1
  Au  Au5  1  0.752042  0.743875  0.752042  1
