# generated using pymatgen
data_Sr8Li4Nd3EuO16
_symmetry_space_group_name_H-M   'P 1'
_cell_length_a   11.68940852
_cell_length_b   3.54071500
_cell_length_c   11.80979821
_cell_angle_alpha   90.00000000
_cell_angle_beta   90.11925666
_cell_angle_gamma   90.00000000
_symmetry_Int_Tables_number   1
_chemical_formula_structural   Sr8Li4Nd3EuO16
_chemical_formula_sum   'Sr8 Li4 Nd3 Eu1 O16'
_cell_volume   488.79307408
_cell_formula_units_Z   1
loop_
 _symmetry_equiv_pos_site_id
 _symmetry_equiv_pos_as_xyz
  1  'x, y, z'
loop_
 _atom_site_type_symbol
 _atom_site_label
 _atom_site_symmetry_multiplicity
 _atom_site_fract_x
 _atom_site_fract_y
 _atom_site_fract_z
 _atom_site_occupancy
  Sr  Sr0  1  0.635794  0.499999  0.069397  1
  Sr  Sr1  1  0.098670  0.000000  0.110954  1
  Sr  Sr2  1  0.598849  0.000000  0.388268  1
  Sr  Sr3  1  0.136426  0.499999  0.427853  1
  Sr  Sr4  1  0.862784  0.000000  0.572588  1
  Sr  Sr5  1  0.402353  0.499999  0.613899  1
  Sr  Sr6  1  0.900310  0.499999  0.887505  1
  Sr  Sr7  1  0.365831  0.000000  0.926677  1
  Li  Li8  1  0.846369  0.000000  0.089646  1
  Li  Li9  1  0.347399  0.000000  0.410529  1
  Li  Li10  1  0.652203  0.499999  0.592094  1
  Li  Li11  1  0.152810  0.499999  0.909824  1
  Nd  Nd12  1  0.359832  0.499999  0.204911  1
  Nd  Nd13  1  0.859442  0.499999  0.294860  1
  Nd  Nd14  1  0.140099  0.000000  0.705007  1
  Eu  Eu15  1  0.641993  0.000000  0.794306  1
  O  O16  1  0.242724  0.499999  0.043787  1
  O  O17  1  0.938772  0.499999  0.107800  1
  O  O18  1  0.475542  0.000000  0.126780  1
  O  O19  1  0.740613  0.000000  0.218440  1
  O  O20  1  0.240709  0.000000  0.281685  1
  O  O21  1  0.975668  0.000000  0.372802  1
  O  O22  1  0.440181  0.499999  0.392298  1
  O  O23  1  0.742150  0.499999  0.456671  1
  O  O24  1  0.257879  0.000000  0.544617  1
  O  O25  1  0.561242  0.000000  0.610996  1
  O  O26  1  0.023496  0.499999  0.627683  1
  O  O27  1  0.758352  0.499999  0.719391  1
  O  O28  1  0.259583  0.499999  0.781919  1
  O  O29  1  0.526542  0.499999  0.870502  1
  O  O30  1  0.059706  0.000000  0.891394  1
  O  O31  1  0.755667  0.000000  0.954906  1
