# generated using pymatgen
data_KSr(PPd3)4
_symmetry_space_group_name_H-M   'P 1'
_cell_length_a   8.57214201
_cell_length_b   8.57826400
_cell_length_c   8.57794801
_cell_angle_alpha   90.00000000
_cell_angle_beta   90.07840295
_cell_angle_gamma   90.00000000
_symmetry_Int_Tables_number   1
_chemical_formula_structural   KSr(PPd3)4
_chemical_formula_sum   'K2 Sr2 P8 Pd24'
_cell_volume   630.77107182
_cell_formula_units_Z   2
loop_
 _symmetry_equiv_pos_site_id
 _symmetry_equiv_pos_as_xyz
  1  'x, y, z'
loop_
 _atom_site_type_symbol
 _atom_site_label
 _atom_site_symmetry_multiplicity
 _atom_site_fract_x
 _atom_site_fract_y
 _atom_site_fract_z
 _atom_site_occupancy
  K  K0  1  0.500000  0.500000  0.000000  1
  K  K1  1  0.500000  0.000000  0.500000  1
  Sr  Sr2  1  0.000000  0.500000  0.500000  1
  Sr  Sr3  1  0.000000  0.000000  0.000000  1
  P  P4  1  0.806792  0.307683  0.192532  1
  P  P5  1  0.193208  0.807683  0.307468  1
  P  P6  1  0.691667  0.692631  0.692373  1
  P  P7  1  0.308333  0.192631  0.807627  1
  P  P8  1  0.193208  0.692317  0.807468  1
  P  P9  1  0.806792  0.192317  0.692532  1
  P  P10  1  0.308333  0.307369  0.307627  1
  P  P11  1  0.691667  0.807369  0.192373  1
  Pd  Pd12  1  0.421102  0.848847  0.161536  1
  Pd  Pd13  1  0.578898  0.348847  0.338464  1
  Pd  Pd14  1  0.078498  0.152340  0.662281  1
  Pd  Pd15  1  0.921502  0.652340  0.837719  1
  Pd  Pd16  1  0.161013  0.420979  0.846975  1
  Pd  Pd17  1  0.337002  0.578200  0.349349  1
  Pd  Pd18  1  0.662998  0.078200  0.150651  1
  Pd  Pd19  1  0.838987  0.920979  0.653025  1
  Pd  Pd20  1  0.849543  0.162882  0.421460  1
  Pd  Pd21  1  0.346761  0.338865  0.578674  1
  Pd  Pd22  1  0.150457  0.662882  0.078540  1
  Pd  Pd23  1  0.653239  0.838865  0.921326  1
  Pd  Pd24  1  0.578898  0.151153  0.838464  1
  Pd  Pd25  1  0.421102  0.651153  0.661536  1
  Pd  Pd26  1  0.921502  0.847660  0.337719  1
  Pd  Pd27  1  0.078498  0.347660  0.162281  1
  Pd  Pd28  1  0.838987  0.579021  0.153025  1
  Pd  Pd29  1  0.662998  0.421800  0.650651  1
  Pd  Pd30  1  0.337002  0.921800  0.849349  1
  Pd  Pd31  1  0.161013  0.079021  0.346975  1
  Pd  Pd32  1  0.150457  0.837118  0.578540  1
  Pd  Pd33  1  0.653239  0.661135  0.421326  1
  Pd  Pd34  1  0.849543  0.337118  0.921460  1
  Pd  Pd35  1  0.346761  0.161135  0.078674  1
