# generated using pymatgen
data_Ta4Ga3BW
_symmetry_space_group_name_H-M   'P 1'
_cell_length_a   7.74321500
_cell_length_b   7.74321534
_cell_length_c   5.29996000
_cell_angle_alpha   90.00000000
_cell_angle_beta   90.00000000
_cell_angle_gamma   120.00000282
_symmetry_Int_Tables_number   1
_chemical_formula_structural   Ta4Ga3BW
_chemical_formula_sum   'Ta8 Ga6 B2 W2'
_cell_volume   275.19837591
_cell_formula_units_Z   2
loop_
 _symmetry_equiv_pos_site_id
 _symmetry_equiv_pos_as_xyz
  1  'x, y, z'
loop_
 _atom_site_type_symbol
 _atom_site_label
 _atom_site_symmetry_multiplicity
 _atom_site_fract_x
 _atom_site_fract_y
 _atom_site_fract_z
 _atom_site_occupancy
  Ta  Ta0  1  0.243278  0.000000  0.253236  1
  Ta  Ta1  1  0.756722  0.000000  0.746764  1
  Ta  Ta2  1  0.000000  0.243278  0.253236  1
  Ta  Ta3  1  0.000000  0.756722  0.746764  1
  Ta  Ta4  1  0.756722  0.756722  0.253236  1
  Ta  Ta5  1  0.243278  0.243278  0.746764  1
  Ta  Ta6  1  0.666667  0.333333  0.500000  1
  Ta  Ta7  1  0.333333  0.666667  0.500000  1
  Ga  Ga8  1  0.597307  0.000000  0.243542  1
  Ga  Ga9  1  0.402693  0.000000  0.756458  1
  Ga  Ga10  1  0.000000  0.597307  0.243542  1
  Ga  Ga11  1  0.000000  0.402693  0.756458  1
  Ga  Ga12  1  0.402693  0.402693  0.243542  1
  Ga  Ga13  1  0.597307  0.597307  0.756458  1
  B  B14  1  0.000000  0.000000  0.000000  1
  B  B15  1  0.000000  0.000000  0.500000  1
  W  W16  1  0.333333  0.666667  0.000000  1
  W  W17  1  0.666667  0.333333  0.000000  1
