# generated using pymatgen
data_Gd4Al17Pd7
_symmetry_space_group_name_H-M   'P 1'
_cell_length_a   7.61475600
_cell_length_b   7.61475585
_cell_length_c   9.48022900
_cell_angle_alpha   90.00000000
_cell_angle_beta   90.00000000
_cell_angle_gamma   118.73986446
_symmetry_Int_Tables_number   1
_chemical_formula_structural   Gd4Al17Pd7
_chemical_formula_sum   'Gd4 Al17 Pd7'
_cell_volume   481.98908454
_cell_formula_units_Z   1
loop_
 _symmetry_equiv_pos_site_id
 _symmetry_equiv_pos_as_xyz
  1  'x, y, z'
loop_
 _atom_site_type_symbol
 _atom_site_label
 _atom_site_symmetry_multiplicity
 _atom_site_fract_x
 _atom_site_fract_y
 _atom_site_fract_z
 _atom_site_occupancy
  Gd  Gd0  1  0.991384  0.674703  0.250000  1
  Gd  Gd1  1  0.006797  0.325613  0.750000  1
  Gd  Gd2  1  0.674703  0.991384  0.250000  1
  Gd  Gd3  1  0.325613  0.006797  0.750000  1
  Al  Al4  1  0.861000  0.861000  0.750000  1
  Al  Al5  1  0.004927  0.329099  0.083469  1
  Al  Al6  1  0.999220  0.661481  0.921767  1
  Al  Al7  1  0.999220  0.661481  0.578233  1
  Al  Al8  1  0.329099  0.004927  0.416531  1
  Al  Al9  1  0.004927  0.329099  0.416531  1
  Al  Al10  1  0.661481  0.999220  0.578233  1
  Al  Al11  1  0.661481  0.999220  0.921767  1
  Al  Al12  1  0.329099  0.004927  0.083469  1
  Al  Al13  1  0.330548  0.330548  0.540580  1
  Al  Al14  1  0.665837  0.665837  0.447505  1
  Al  Al15  1  0.665837  0.665837  0.052495  1
  Al  Al16  1  0.330548  0.330548  0.959420  1
  Al  Al17  1  0.341673  0.549840  0.250000  1
  Al  Al18  1  0.655947  0.448312  0.750000  1
  Al  Al19  1  0.549840  0.341673  0.250000  1
  Al  Al20  1  0.448312  0.655947  0.750000  1
  Pd  Pd21  1  0.167636  0.167636  0.250000  1
  Pd  Pd22  1  0.676620  0.328196  0.999577  1
  Pd  Pd23  1  0.328196  0.676620  0.999577  1
  Pd  Pd24  1  0.328196  0.676620  0.500423  1
  Pd  Pd25  1  0.676620  0.328196  0.500423  1
  Pd  Pd26  1  0.992623  0.992623  0.988755  1
  Pd  Pd27  1  0.992623  0.992623  0.511245  1
