# generated using pymatgen
data_Tb3Er5(AlIr)2
_symmetry_space_group_name_H-M   'P 1'
_cell_length_a   9.50636474
_cell_length_b   9.50636559
_cell_length_c   9.50636500
_cell_angle_alpha   59.99999856
_cell_angle_beta   59.99999562
_cell_angle_gamma   60.00000002
_symmetry_Int_Tables_number   1
_chemical_formula_structural   Tb3Er5(AlIr)2
_chemical_formula_sum   'Tb6 Er10 Al4 Ir4'
_cell_volume   607.47506130
_cell_formula_units_Z   2
loop_
 _symmetry_equiv_pos_site_id
 _symmetry_equiv_pos_as_xyz
  1  'x, y, z'
loop_
 _atom_site_type_symbol
 _atom_site_label
 _atom_site_symmetry_multiplicity
 _atom_site_fract_x
 _atom_site_fract_y
 _atom_site_fract_z
 _atom_site_occupancy
  Tb  Tb0  1  0.188814  0.811186  0.811186  1
  Tb  Tb1  1  0.811186  0.188814  0.188814  1
  Tb  Tb2  1  0.811186  0.188814  0.811186  1
  Tb  Tb3  1  0.188814  0.811186  0.188814  1
  Tb  Tb4  1  0.811186  0.811186  0.188814  1
  Tb  Tb5  1  0.188814  0.188814  0.811186  1
  Er  Er6  1  0.601318  0.601318  0.601318  1
  Er  Er7  1  0.601318  0.601318  0.196048  1
  Er  Er8  1  0.601318  0.196048  0.601318  1
  Er  Er9  1  0.196048  0.601318  0.601318  1
  Er  Er10  1  0.056313  0.443687  0.443687  1
  Er  Er11  1  0.443687  0.056313  0.056313  1
  Er  Er12  1  0.443687  0.056313  0.443687  1
  Er  Er13  1  0.056313  0.443687  0.056313  1
  Er  Er14  1  0.443687  0.443687  0.056313  1
  Er  Er15  1  0.056313  0.056313  0.443687  1
  Al  Al16  1  0.827012  0.827012  0.827012  1
  Al  Al17  1  0.827012  0.827012  0.518964  1
  Al  Al18  1  0.827012  0.518964  0.827012  1
  Al  Al19  1  0.518964  0.827012  0.827012  1
  Ir  Ir20  1  0.391298  0.391298  0.391298  1
  Ir  Ir21  1  0.391298  0.391298  0.826106  1
  Ir  Ir22  1  0.391298  0.826106  0.391298  1
  Ir  Ir23  1  0.826106  0.391298  0.391298  1
