# generated using pymatgen
data_Ca6RhO8
_symmetry_space_group_name_H-M   'P 1'
_cell_length_a   6.72153160
_cell_length_b   6.72153204
_cell_length_c   6.72153200
_cell_angle_alpha   60.00000020
_cell_angle_beta   59.99999802
_cell_angle_gamma   60.00000086
_symmetry_Int_Tables_number   1
_chemical_formula_structural   Ca6RhO8
_chemical_formula_sum   'Ca6 Rh1 O8'
_cell_volume   214.72854801
_cell_formula_units_Z   1
loop_
 _symmetry_equiv_pos_site_id
 _symmetry_equiv_pos_as_xyz
  1  'x, y, z'
loop_
 _atom_site_type_symbol
 _atom_site_label
 _atom_site_symmetry_multiplicity
 _atom_site_fract_x
 _atom_site_fract_y
 _atom_site_fract_z
 _atom_site_occupancy
  Ca  Ca0  1  0.500000  0.000000  0.000000  1
  Ca  Ca1  1  0.500000  0.000000  0.500000  1
  Ca  Ca2  1  0.000000  0.000000  0.500000  1
  Ca  Ca3  1  0.500000  0.500000  0.000000  1
  Ca  Ca4  1  0.000000  0.500000  0.000000  1
  Ca  Ca5  1  0.000000  0.500000  0.500000  1
  Rh  Rh6  1  0.000000  0.000000  0.000000  1
  O  O7  1  0.779601  0.220399  0.220399  1
  O  O8  1  0.250000  0.250000  0.250000  1
  O  O9  1  0.220399  0.779601  0.220399  1
  O  O10  1  0.220399  0.220399  0.779601  1
  O  O11  1  0.779601  0.220399  0.779601  1
  O  O12  1  0.779601  0.779601  0.220399  1
  O  O13  1  0.750000  0.750000  0.750000  1
  O  O14  1  0.220399  0.779601  0.779601  1
