# generated using pymatgen
data_Zn5Fe6SnRh12
_symmetry_space_group_name_H-M   'P 1'
_cell_length_a   4.29989400
_cell_length_b   6.06764400
_cell_length_c   12.89401600
_cell_angle_alpha   90.00005499
_cell_angle_beta   89.99951574
_cell_angle_gamma   89.99996779
_symmetry_Int_Tables_number   1
_chemical_formula_structural   Zn5Fe6SnRh12
_chemical_formula_sum   'Zn5 Fe6 Sn1 Rh12'
_cell_volume   336.40779187
_cell_formula_units_Z   1
loop_
 _symmetry_equiv_pos_site_id
 _symmetry_equiv_pos_as_xyz
  1  'x, y, z'
loop_
 _atom_site_type_symbol
 _atom_site_label
 _atom_site_symmetry_multiplicity
 _atom_site_fract_x
 _atom_site_fract_y
 _atom_site_fract_z
 _atom_site_occupancy
  Zn  Zn0  1  0.499702  0.500000  0.168853  1
  Zn  Zn1  1  0.999707  0.000000  0.334343  1
  Zn  Zn2  1  0.500000  0.500000  0.500000  1
  Zn  Zn3  1  0.000294  0.000000  0.665657  1
  Zn  Zn4  1  0.500298  0.500000  0.831146  1
  Fe  Fe5  1  0.999997  0.500000  0.999996  1
  Fe  Fe6  1  0.499763  0.999999  0.172782  1
  Fe  Fe7  1  0.999726  0.500000  0.337359  1
  Fe  Fe8  1  0.500000  0.999997  0.500000  1
  Fe  Fe9  1  0.000278  0.500000  0.662645  1
  Fe  Fe10  1  0.500237  0.000001  0.827221  1
  Sn  Sn11  1  0.999995  0.999998  0.999999  1
  Rh  Rh12  1  0.500001  0.257699  0.999999  1
  Rh  Rh13  1  0.499999  0.742302  0.000000  1
  Rh  Rh14  1  0.999724  0.254281  0.169273  1
  Rh  Rh15  1  0.999724  0.745719  0.169272  1
  Rh  Rh16  1  0.499733  0.250164  0.333909  1
  Rh  Rh17  1  0.499732  0.749837  0.333908  1
  Rh  Rh18  1  0.000002  0.249784  0.500000  1
  Rh  Rh19  1  0.000000  0.750215  0.500000  1
  Rh  Rh20  1  0.500268  0.250164  0.666091  1
  Rh  Rh21  1  0.500269  0.749837  0.666091  1
  Rh  Rh22  1  0.000276  0.254287  0.830728  1
  Rh  Rh23  1  0.000274  0.745714  0.830727  1
