# generated using pymatgen
data_Er3Al3Cu2Ni
_symmetry_space_group_name_H-M   'P 1'
_cell_length_a   7.00341200
_cell_length_b   7.00341226
_cell_length_c   3.91976500
_cell_angle_alpha   90.00000000
_cell_angle_beta   90.00000000
_cell_angle_gamma   119.99999879
_symmetry_Int_Tables_number   1
_chemical_formula_structural   Er3Al3Cu2Ni
_chemical_formula_sum   'Er3 Al3 Cu2 Ni1'
_cell_volume   166.49838891
_cell_formula_units_Z   1
loop_
 _symmetry_equiv_pos_site_id
 _symmetry_equiv_pos_as_xyz
  1  'x, y, z'
loop_
 _atom_site_type_symbol
 _atom_site_label
 _atom_site_symmetry_multiplicity
 _atom_site_fract_x
 _atom_site_fract_y
 _atom_site_fract_z
 _atom_site_occupancy
  Er  Er0  1  0.411418  0.000000  0.500000  1
  Er  Er1  1  0.000000  0.411418  0.500000  1
  Er  Er2  1  0.588582  0.588582  0.500000  1
  Al  Al3  1  0.766735  0.000000  0.000000  1
  Al  Al4  1  0.000000  0.766735  0.000000  1
  Al  Al5  1  0.233265  0.233265  0.000000  1
  Cu  Cu6  1  0.333333  0.666667  0.000000  1
  Cu  Cu7  1  0.666667  0.333333  0.000000  1
  Ni  Ni8  1  0.000000  0.000000  0.500000  1
