# generated using pymatgen
data_Nd3DyZn2Ir3
_symmetry_space_group_name_H-M   'P 1'
_cell_length_a   7.49854800
_cell_length_b   7.50777127
_cell_length_c   4.09285600
_cell_angle_alpha   90.00000000
_cell_angle_beta   90.00000000
_cell_angle_gamma   119.95936996
_symmetry_Int_Tables_number   1
_chemical_formula_structural   Nd3DyZn2Ir3
_chemical_formula_sum   'Nd3 Dy1 Zn2 Ir3'
_cell_volume   199.62869470
_cell_formula_units_Z   1
loop_
 _symmetry_equiv_pos_site_id
 _symmetry_equiv_pos_as_xyz
  1  'x, y, z'
loop_
 _atom_site_type_symbol
 _atom_site_label
 _atom_site_symmetry_multiplicity
 _atom_site_fract_x
 _atom_site_fract_y
 _atom_site_fract_z
 _atom_site_occupancy
  Nd  Nd0  1  0.385779  0.000000  0.499999  1
  Nd  Nd1  1  0.020816  0.443304  0.499999  1
  Nd  Nd2  1  0.577511  0.556695  0.499999  1
  Dy  Dy3  1  0.761984  0.000000  0.000000  1
  Zn  Zn4  1  0.243153  0.249991  0.000000  1
  Zn  Zn5  1  0.993162  0.750009  0.000000  1
  Ir  Ir6  1  0.668095  0.326977  0.000000  1
  Ir  Ir7  1  0.341117  0.673023  0.000000  1
  Ir  Ir8  1  0.008383  0.000000  0.499999  1
