# generated using pymatgen
data_P2AuI9
_symmetry_space_group_name_H-M   'P 1'
_cell_length_a   6.55121800
_cell_length_b   9.36657531
_cell_length_c   19.84357938
_cell_angle_alpha   89.95296383
_cell_angle_beta   90.00000000
_cell_angle_gamma   90.00000000
_symmetry_Int_Tables_number   1
_chemical_formula_structural   P2AuI9
_chemical_formula_sum   'P4 Au2 I18'
_cell_volume   1217.65076868
_cell_formula_units_Z   2
loop_
 _symmetry_equiv_pos_site_id
 _symmetry_equiv_pos_as_xyz
  1  'x, y, z'
loop_
 _atom_site_type_symbol
 _atom_site_label
 _atom_site_symmetry_multiplicity
 _atom_site_fract_x
 _atom_site_fract_y
 _atom_site_fract_z
 _atom_site_occupancy
  P  P0  1  0.033863  0.749990  0.639247  1
  P  P1  1  0.033863  0.250010  0.860753  1
  P  P2  1  0.946042  0.225392  0.365609  1
  P  P3  1  0.946042  0.774608  0.134391  1
  Au  Au4  1  0.743745  0.971300  0.128076  1
  Au  Au5  1  0.743745  0.028700  0.371924  1
  I  I6  1  0.164595  0.772140  0.235444  1
  I  I7  1  0.164595  0.227860  0.264556  1
  I  I8  1  0.816749  0.250871  0.758762  1
  I  I9  1  0.816749  0.749129  0.741238  1
  I  I10  1  0.245919  0.470950  0.866055  1
  I  I11  1  0.245919  0.529050  0.633945  1
  I  I12  1  0.248510  0.030458  0.864654  1
  I  I13  1  0.248510  0.969542  0.635346  1
  I  I14  1  0.763078  0.544510  0.133480  1
  I  I15  1  0.763078  0.455490  0.366520  1
  I  I16  1  0.511104  0.804599  0.384876  1
  I  I17  1  0.511104  0.195401  0.115124  1
  I  I18  1  0.530976  0.249821  0.617963  1
  I  I19  1  0.530976  0.750179  0.882037  1
  I  I20  1  0.812822  0.757262  0.539435  1
  I  I21  1  0.812822  0.242738  0.960565  1
  I  I22  1  0.182595  0.237850  0.461533  1
  I  I23  1  0.182595  0.762150  0.038467  1
