# generated using pymatgen
data_Dy3InF10
_symmetry_space_group_name_H-M   'P 1'
_cell_length_a   8.29610193
_cell_length_b   8.29610225
_cell_length_c   8.29610200
_cell_angle_alpha   60.00000100
_cell_angle_beta   59.99999971
_cell_angle_gamma   59.99999649
_symmetry_Int_Tables_number   1
_chemical_formula_structural   Dy3InF10
_chemical_formula_sum   'Dy6 In2 F20'
_cell_volume   403.74508774
_cell_formula_units_Z   2
loop_
 _symmetry_equiv_pos_site_id
 _symmetry_equiv_pos_as_xyz
  1  'x, y, z'
loop_
 _atom_site_type_symbol
 _atom_site_label
 _atom_site_symmetry_multiplicity
 _atom_site_fract_x
 _atom_site_fract_y
 _atom_site_fract_z
 _atom_site_occupancy
  Dy  Dy0  1  0.759304  0.240696  0.240696  1
  Dy  Dy1  1  0.240696  0.759304  0.759304  1
  Dy  Dy2  1  0.240696  0.759304  0.240696  1
  Dy  Dy3  1  0.759304  0.240696  0.759304  1
  Dy  Dy4  1  0.240696  0.240696  0.759304  1
  Dy  Dy5  1  0.759304  0.759304  0.240696  1
  In  In6  1  0.250000  0.250000  0.250000  1
  In  In7  1  0.750000  0.750000  0.750000  1
  F  F8  1  0.828409  0.500000  0.500000  1
  F  F9  1  0.171591  0.500000  0.500000  1
  F  F10  1  0.500000  0.828409  0.171591  1
  F  F11  1  0.500000  0.171591  0.828409  1
  F  F12  1  0.500000  0.828409  0.500000  1
  F  F13  1  0.171591  0.500000  0.828409  1
  F  F14  1  0.500000  0.171591  0.500000  1
  F  F15  1  0.828409  0.500000  0.171591  1
  F  F16  1  0.500000  0.500000  0.828409  1
  F  F17  1  0.500000  0.500000  0.171591  1
  F  F18  1  0.171591  0.828409  0.500000  1
  F  F19  1  0.828409  0.171591  0.500000  1
  F  F20  1  0.110165  0.110165  0.110165  1
  F  F21  1  0.889835  0.889835  0.889835  1
  F  F22  1  0.110165  0.110165  0.669505  1
  F  F23  1  0.110165  0.669505  0.110165  1
  F  F24  1  0.889835  0.889835  0.330495  1
  F  F25  1  0.889835  0.330495  0.889835  1
  F  F26  1  0.669505  0.110165  0.110165  1
  F  F27  1  0.330495  0.889835  0.889835  1
