# generated using pymatgen
data_Zr4Sc2Ta3NbGa12Ir7
_symmetry_space_group_name_H-M   'P 1'
_cell_length_a   8.85973284
_cell_length_b   8.85973243
_cell_length_c   8.86306700
_cell_angle_alpha   60.01243411
_cell_angle_beta   60.01243563
_cell_angle_gamma   59.99999614
_symmetry_Int_Tables_number   1
_chemical_formula_structural   Zr4Sc2Ta3NbGa12Ir7
_chemical_formula_sum   'Zr4 Sc2 Ta3 Nb1 Ga12 Ir7'
_cell_volume   492.03030841
_cell_formula_units_Z   1
loop_
 _symmetry_equiv_pos_site_id
 _symmetry_equiv_pos_as_xyz
  1  'x, y, z'
loop_
 _atom_site_type_symbol
 _atom_site_label
 _atom_site_symmetry_multiplicity
 _atom_site_fract_x
 _atom_site_fract_y
 _atom_site_fract_z
 _atom_site_occupancy
  Zr  Zr0  1  0.696010  0.696010  0.304329  1
  Zr  Zr1  1  0.306623  0.692081  0.306946  1
  Zr  Zr2  1  0.692081  0.306623  0.306946  1
  Zr  Zr3  1  0.305088  0.305088  0.692855  1
  Sc  Sc4  1  0.694326  0.306972  0.692834  1
  Sc  Sc5  1  0.306972  0.694326  0.692834  1
  Ta  Ta6  1  0.877821  0.367490  0.877519  1
  Ta  Ta7  1  0.367490  0.877821  0.877519  1
  Ta  Ta8  1  0.878063  0.878063  0.878304  1
  Nb  Nb9  1  0.877124  0.877124  0.369080  1
  Ga  Ga10  1  0.121174  0.121174  0.635370  1
  Ga  Ga11  1  0.121903  0.634671  0.122139  1
  Ga  Ga12  1  0.634671  0.121903  0.122139  1
  Ga  Ga13  1  0.121754  0.121754  0.122743  1
  Ga  Ga14  1  0.654808  0.654808  0.036753  1
  Ga  Ga15  1  0.653827  0.040300  0.653877  1
  Ga  Ga16  1  0.040300  0.653827  0.653877  1
  Ga  Ga17  1  0.651538  0.651538  0.652361  1
  Ga  Ga18  1  0.344454  0.344454  0.966943  1
  Ga  Ga19  1  0.343635  0.968322  0.344328  1
  Ga  Ga20  1  0.968322  0.343635  0.344328  1
  Ga  Ga21  1  0.342685  0.342685  0.342829  1
  Ir  Ir22  1  0.000533  0.000533  0.000057  1
  Ir  Ir23  1  0.995707  0.995707  0.506513  1
  Ir  Ir24  1  0.501871  0.996275  0.505916  1
  Ir  Ir25  1  0.996275  0.501871  0.505916  1
  Ir  Ir26  1  0.504571  0.504571  0.995797  1
  Ir  Ir27  1  0.995044  0.505327  0.994473  1
  Ir  Ir28  1  0.505327  0.995044  0.994473  1
