# generated using pymatgen
data_Nd3AlGaRh2
_symmetry_space_group_name_H-M   'P 1'
_cell_length_a   5.72880100
_cell_length_b   8.17277700
_cell_length_c   13.70106100
_cell_angle_alpha   90.00000000
_cell_angle_beta   90.00000000
_cell_angle_gamma   90.00000000
_symmetry_Int_Tables_number   1
_chemical_formula_structural   Nd3AlGaRh2
_chemical_formula_sum   'Nd12 Al4 Ga4 Rh8'
_cell_volume   641.48659504
_cell_formula_units_Z   4
loop_
 _symmetry_equiv_pos_site_id
 _symmetry_equiv_pos_as_xyz
  1  'x, y, z'
loop_
 _atom_site_type_symbol
 _atom_site_label
 _atom_site_symmetry_multiplicity
 _atom_site_fract_x
 _atom_site_fract_y
 _atom_site_fract_z
 _atom_site_occupancy
  Nd  Nd0  1  0.633204  0.254926  0.250000  1
  Nd  Nd1  1  0.366796  0.745074  0.750000  1
  Nd  Nd2  1  0.366796  0.754926  0.250000  1
  Nd  Nd3  1  0.633204  0.245074  0.750000  1
  Nd  Nd4  1  0.142792  0.397124  0.098782  1
  Nd  Nd5  1  0.857208  0.602876  0.901218  1
  Nd  Nd6  1  0.857208  0.602876  0.598782  1
  Nd  Nd7  1  0.857208  0.897124  0.401218  1
  Nd  Nd8  1  0.142792  0.397124  0.401218  1
  Nd  Nd9  1  0.142792  0.102876  0.598782  1
  Nd  Nd10  1  0.142792  0.102876  0.901218  1
  Nd  Nd11  1  0.857208  0.897124  0.098782  1
  Al  Al12  1  0.622240  0.250000  0.000000  1
  Al  Al13  1  0.377760  0.750000  0.000000  1
  Al  Al14  1  0.377760  0.750000  0.500000  1
  Al  Al15  1  0.622240  0.250000  0.500000  1
  Ga  Ga16  1  0.137655  0.107360  0.250000  1
  Ga  Ga17  1  0.862345  0.892640  0.750000  1
  Ga  Ga18  1  0.862345  0.607360  0.250000  1
  Ga  Ga19  1  0.137655  0.392640  0.750000  1
  Rh  Rh20  1  0.361884  0.031375  0.090484  1
  Rh  Rh21  1  0.638116  0.968625  0.909516  1
  Rh  Rh22  1  0.638116  0.968625  0.590484  1
  Rh  Rh23  1  0.638116  0.531375  0.409516  1
  Rh  Rh24  1  0.361884  0.031375  0.409516  1
  Rh  Rh25  1  0.361884  0.468625  0.590484  1
  Rh  Rh26  1  0.361884  0.468625  0.909516  1
  Rh  Rh27  1  0.638116  0.531375  0.090484  1
