# generated using pymatgen
data_Rb2Co3Br8
_symmetry_space_group_name_H-M   'P 1'
_cell_length_a   10.44771052
_cell_length_b   10.44771054
_cell_length_c   7.28065657
_cell_angle_alpha   83.95499033
_cell_angle_beta   83.95498425
_cell_angle_gamma   142.33702349
_symmetry_Int_Tables_number   1
_chemical_formula_structural   Rb2Co3Br8
_chemical_formula_sum   'Rb2 Co3 Br8'
_cell_volume   459.01492351
_cell_formula_units_Z   1
loop_
 _symmetry_equiv_pos_site_id
 _symmetry_equiv_pos_as_xyz
  1  'x, y, z'
loop_
 _atom_site_type_symbol
 _atom_site_label
 _atom_site_symmetry_multiplicity
 _atom_site_fract_x
 _atom_site_fract_y
 _atom_site_fract_z
 _atom_site_occupancy
  Rb  Rb0  1  0.643846  0.908967  0.534805  1
  Rb  Rb1  1  0.908967  0.643846  0.534805  1
  Co  Co2  1  0.004454  0.004454  0.023743  1
  Co  Co3  1  0.929276  0.318613  0.917418  1
  Co  Co4  1  0.318613  0.929276  0.917418  1
  Br  Br5  1  0.673942  0.673942  0.268350  1
  Br  Br6  1  0.996277  0.996277  0.702628  1
  Br  Br7  1  0.540307  0.945210  0.033771  1
  Br  Br8  1  0.945210  0.540307  0.033771  1
  Br  Br9  1  0.076289  0.455504  0.576105  1
  Br  Br10  1  0.455504  0.076289  0.576105  1
  Br  Br11  1  0.307410  0.114291  0.072717  1
  Br  Br12  1  0.114291  0.307410  0.072717  1
