# generated using pymatgen
data_Ho6TlNiRu
_symmetry_space_group_name_H-M   'P 1'
_cell_length_a   8.40323967
_cell_length_b   8.40324083
_cell_length_c   8.40324000
_cell_angle_alpha   113.12306061
_cell_angle_beta   110.11323079
_cell_angle_gamma   105.27285463
_symmetry_Int_Tables_number   1
_chemical_formula_structural   Ho6TlNiRu
_chemical_formula_sum   'Ho12 Tl2 Ni2 Ru2'
_cell_volume   454.63018733
_cell_formula_units_Z   2
loop_
 _symmetry_equiv_pos_site_id
 _symmetry_equiv_pos_as_xyz
  1  'x, y, z'
loop_
 _atom_site_type_symbol
 _atom_site_label
 _atom_site_symmetry_multiplicity
 _atom_site_fract_x
 _atom_site_fract_y
 _atom_site_fract_z
 _atom_site_occupancy
  Ho  Ho0  1  0.440633  0.240079  0.200555  1
  Ho  Ho1  1  0.559367  0.759921  0.799445  1
  Ho  Ho2  1  0.039524  0.240079  0.799445  1
  Ho  Ho3  1  0.960476  0.759921  0.200555  1
  Ho  Ho4  1  0.184580  0.283430  0.468011  1
  Ho  Ho5  1  0.815420  0.716570  0.531989  1
  Ho  Ho6  1  0.184580  0.716570  0.901150  1
  Ho  Ho7  1  0.815420  0.283430  0.098850  1
  Ho  Ho8  1  0.326417  0.639546  0.313129  1
  Ho  Ho9  1  0.673583  0.360454  0.686871  1
  Ho  Ho10  1  0.326417  0.013287  0.686871  1
  Ho  Ho11  1  0.673583  0.986713  0.313129  1
  Tl  Tl12  1  0.500000  0.500000  0.000000  1
  Tl  Tl13  1  0.000000  0.000000  0.000000  1
  Ni  Ni14  1  0.116453  0.616453  0.500000  1
  Ni  Ni15  1  0.883547  0.383547  0.500000  1
  Ru  Ru16  1  0.333568  0.000000  0.333568  1
  Ru  Ru17  1  0.666432  0.000000  0.666432  1
