# generated using pymatgen
data_TbBiPb2F14
_symmetry_space_group_name_H-M   'P 1'
_cell_length_a   5.72799463
_cell_length_b   9.30710750
_cell_length_c   12.47371900
_cell_angle_alpha   61.87392574
_cell_angle_beta   90.04325196
_cell_angle_gamma   89.86116726
_symmetry_Int_Tables_number   1
_chemical_formula_structural   TbBiPb2F14
_chemical_formula_sum   'Tb2 Bi2 Pb4 F28'
_cell_volume   586.45739979
_cell_formula_units_Z   2
loop_
 _symmetry_equiv_pos_site_id
 _symmetry_equiv_pos_as_xyz
  1  'x, y, z'
loop_
 _atom_site_type_symbol
 _atom_site_label
 _atom_site_symmetry_multiplicity
 _atom_site_fract_x
 _atom_site_fract_y
 _atom_site_fract_z
 _atom_site_occupancy
  Tb  Tb0  1  0.756989  0.186073  0.236565  1
  Tb  Tb1  1  0.243011  0.813927  0.763435  1
  Bi  Bi2  1  0.259274  0.821480  0.262330  1
  Bi  Bi3  1  0.740726  0.178520  0.737670  1
  Pb  Pb4  1  0.755964  0.723118  0.041001  1
  Pb  Pb5  1  0.244036  0.276882  0.958999  1
  Pb  Pb6  1  0.255645  0.271271  0.457022  1
  Pb  Pb7  1  0.744355  0.728729  0.542978  1
  F  F8  1  0.944674  0.709971  0.409635  1
  F  F9  1  0.055326  0.290029  0.590365  1
  F  F10  1  0.448637  0.292279  0.092553  1
  F  F11  1  0.551363  0.707721  0.907447  1
  F  F12  1  0.457370  0.726998  0.136234  1
  F  F13  1  0.542630  0.273002  0.863766  1
  F  F14  1  0.960221  0.268489  0.357286  1
  F  F15  1  0.039779  0.731511  0.642714  1
  F  F16  1  0.949192  0.741883  0.176762  1
  F  F17  1  0.050808  0.258117  0.823238  1
  F  F18  1  0.454859  0.251725  0.321957  1
  F  F19  1  0.545141  0.748275  0.678043  1
  F  F20  1  0.775773  0.469198  0.142425  1
  F  F21  1  0.224227  0.530802  0.857575  1
  F  F22  1  0.274007  0.522706  0.356441  1
  F  F23  1  0.725993  0.477294  0.643559  1
  F  F24  1  0.932751  0.277301  0.049908  1
  F  F25  1  0.067249  0.722699  0.950092  1
  F  F26  1  0.428603  0.723903  0.455920  1
  F  F27  1  0.571397  0.276097  0.544080  1
  F  F28  1  0.739110  0.983613  0.441858  1
  F  F29  1  0.260890  0.016387  0.558142  1
  F  F30  1  0.238233  0.019804  0.055838  1
  F  F31  1  0.761767  0.980196  0.944162  1
  F  F32  1  0.587455  0.973758  0.232392  1
  F  F33  1  0.412545  0.026242  0.767608  1
  F  F34  1  0.084821  0.034709  0.266986  1
  F  F35  1  0.915179  0.965291  0.733014  1
