# generated using pymatgen
data_CeNd5(Ir7Rh2)2
_symmetry_space_group_name_H-M   'P 1'
_cell_length_a   5.36672000
_cell_length_b   5.36671220
_cell_length_c   17.60545500
_cell_angle_alpha   89.99994662
_cell_angle_beta   90.00004270
_cell_angle_gamma   120.00002344
_symmetry_Int_Tables_number   1
_chemical_formula_structural   CeNd5(Ir7Rh2)2
_chemical_formula_sum   'Ce1 Nd5 Ir14 Rh4'
_cell_volume   439.13193939
_cell_formula_units_Z   1
loop_
 _symmetry_equiv_pos_site_id
 _symmetry_equiv_pos_as_xyz
  1  'x, y, z'
loop_
 _atom_site_type_symbol
 _atom_site_label
 _atom_site_symmetry_multiplicity
 _atom_site_fract_x
 _atom_site_fract_y
 _atom_site_fract_z
 _atom_site_occupancy
  Ce  Ce0  1  0.333355  0.666654  0.542252  1
  Nd  Nd1  1  0.333330  0.666672  0.959531  1
  Nd  Nd2  1  0.666660  0.333336  0.040801  1
  Nd  Nd3  1  0.666674  0.333312  0.459494  1
  Nd  Nd4  1  0.333320  0.666678  0.750922  1
  Nd  Nd5  1  0.666675  0.333318  0.249942  1
  Ir  Ir6  1  0.167269  0.832723  0.373503  1
  Ir  Ir7  1  0.167284  0.334547  0.373505  1
  Ir  Ir8  1  0.665453  0.832714  0.373505  1
  Ir  Ir9  1  0.832598  0.167404  0.625957  1
  Ir  Ir10  1  0.832607  0.665211  0.625956  1
  Ir  Ir11  1  0.334796  0.167400  0.625957  1
  Ir  Ir12  1  0.832948  0.167057  0.872403  1
  Ir  Ir13  1  0.832954  0.665911  0.872404  1
  Ir  Ir14  1  0.334097  0.167053  0.872402  1
  Ir  Ir15  1  0.166877  0.833122  0.127413  1
  Ir  Ir16  1  0.166873  0.333758  0.127410  1
  Ir  Ir17  1  0.666241  0.833127  0.127411  1
  Ir  Ir18  1  0.000008  0.999993  0.499626  1
  Ir  Ir19  1  0.999999  0.000005  0.999897  1
  Rh  Rh20  1  0.333348  0.666651  0.250416  1
  Rh  Rh21  1  0.666658  0.333345  0.749453  1
  Rh  Rh22  1  0.999982  0.000008  0.250345  1
  Rh  Rh23  1  0.999992  0.000001  0.749495  1
