# generated using pymatgen
data_Nd3Ag5Pd
_symmetry_space_group_name_H-M   'P 1'
_cell_length_a   7.82342200
_cell_length_b   7.82342183
_cell_length_c   3.96379800
_cell_angle_alpha   90.00000000
_cell_angle_beta   90.00000000
_cell_angle_gamma   120.00000072
_symmetry_Int_Tables_number   1
_chemical_formula_structural   Nd3Ag5Pd
_chemical_formula_sum   'Nd3 Ag5 Pd1'
_cell_volume   210.10464178
_cell_formula_units_Z   1
loop_
 _symmetry_equiv_pos_site_id
 _symmetry_equiv_pos_as_xyz
  1  'x, y, z'
loop_
 _atom_site_type_symbol
 _atom_site_label
 _atom_site_symmetry_multiplicity
 _atom_site_fract_x
 _atom_site_fract_y
 _atom_site_fract_z
 _atom_site_occupancy
  Nd  Nd0  1  0.590879  0.983379  0.000000  1
  Nd  Nd1  1  0.016621  0.607499  0.000000  1
  Nd  Nd2  1  0.392501  0.409121  0.000000  1
  Ag  Ag3  1  0.264287  0.002060  0.500000  1
  Ag  Ag4  1  0.997940  0.262227  0.500000  1
  Ag  Ag5  1  0.737773  0.735713  0.500000  1
  Ag  Ag6  1  0.666667  0.333333  0.500000  1
  Ag  Ag7  1  0.000000  0.000000  0.000000  1
  Pd  Pd8  1  0.333333  0.666667  0.500000  1
