# generated using pymatgen
data_Dy2Y3Ho3(CdIr)2
_symmetry_space_group_name_H-M   'P 1'
_cell_length_a   9.64095753
_cell_length_b   9.64095674
_cell_length_c   9.64095700
_cell_angle_alpha   59.99999568
_cell_angle_beta   59.99999838
_cell_angle_gamma   60.00000018
_symmetry_Int_Tables_number   1
_chemical_formula_structural   Dy2Y3Ho3(CdIr)2
_chemical_formula_sum   'Dy4 Y6 Ho6 Cd4 Ir4'
_cell_volume   633.64415463
_cell_formula_units_Z   2
loop_
 _symmetry_equiv_pos_site_id
 _symmetry_equiv_pos_as_xyz
  1  'x, y, z'
loop_
 _atom_site_type_symbol
 _atom_site_label
 _atom_site_symmetry_multiplicity
 _atom_site_fract_x
 _atom_site_fract_y
 _atom_site_fract_z
 _atom_site_occupancy
  Dy  Dy0  1  0.348732  0.348732  0.348732  1
  Dy  Dy1  1  0.348732  0.348732  0.953805  1
  Dy  Dy2  1  0.348732  0.953805  0.348732  1
  Dy  Dy3  1  0.953805  0.348732  0.348732  1
  Y  Y4  1  0.938855  0.561145  0.561145  1
  Y  Y5  1  0.561145  0.938855  0.938855  1
  Y  Y6  1  0.561145  0.938855  0.561145  1
  Y  Y7  1  0.938855  0.561145  0.938855  1
  Y  Y8  1  0.561145  0.561145  0.938855  1
  Y  Y9  1  0.938855  0.938855  0.561145  1
  Ho  Ho10  1  0.810695  0.189305  0.189305  1
  Ho  Ho11  1  0.189305  0.810695  0.810695  1
  Ho  Ho12  1  0.189305  0.810695  0.189305  1
  Ho  Ho13  1  0.810695  0.189305  0.810695  1
  Ho  Ho14  1  0.189305  0.189305  0.810695  1
  Ho  Ho15  1  0.810695  0.810695  0.189305  1
  Cd  Cd16  1  0.581011  0.581011  0.581011  1
  Cd  Cd17  1  0.581011  0.581011  0.256968  1
  Cd  Cd18  1  0.581011  0.256968  0.581011  1
  Cd  Cd19  1  0.256968  0.581011  0.581011  1
  Ir  Ir20  1  0.141435  0.141435  0.141435  1
  Ir  Ir21  1  0.141435  0.141435  0.575695  1
  Ir  Ir22  1  0.141435  0.575695  0.141435  1
  Ir  Ir23  1  0.575695  0.141435  0.141435  1
