# generated using pymatgen
data_Tb2Lu2Ni13C4
_symmetry_space_group_name_H-M   'P 1'
_cell_length_a   8.35623391
_cell_length_b   8.35623413
_cell_length_c   3.84814900
_cell_angle_alpha   90.00000000
_cell_angle_beta   90.00000000
_cell_angle_gamma   91.03025354
_symmetry_Int_Tables_number   1
_chemical_formula_structural   Tb2Lu2Ni13C4
_chemical_formula_sum   'Tb2 Lu2 Ni13 C4'
_cell_volume   268.65990357
_cell_formula_units_Z   1
loop_
 _symmetry_equiv_pos_site_id
 _symmetry_equiv_pos_as_xyz
  1  'x, y, z'
loop_
 _atom_site_type_symbol
 _atom_site_label
 _atom_site_symmetry_multiplicity
 _atom_site_fract_x
 _atom_site_fract_y
 _atom_site_fract_z
 _atom_site_occupancy
  Tb  Tb0  1  0.847730  0.847730  0.000000  1
  Tb  Tb1  1  0.152270  0.152270  0.000000  1
  Lu  Lu2  1  0.313021  0.686979  0.000000  1
  Lu  Lu3  1  0.686979  0.313021  0.000000  1
  Ni  Ni4  1  0.500000  0.500000  0.500000  1
  Ni  Ni5  1  0.714897  0.071705  0.500000  1
  Ni  Ni6  1  0.285103  0.928295  0.500000  1
  Ni  Ni7  1  0.928295  0.285103  0.500000  1
  Ni  Ni8  1  0.071705  0.714897  0.500000  1
  Ni  Ni9  1  0.500000  0.000000  0.000000  1
  Ni  Ni10  1  0.000000  0.500000  0.000000  1
  Ni  Ni11  1  0.571555  0.790216  0.500000  1
  Ni  Ni12  1  0.428445  0.209784  0.500000  1
  Ni  Ni13  1  0.209784  0.428445  0.500000  1
  Ni  Ni14  1  0.790216  0.571555  0.500000  1
  Ni  Ni15  1  0.621459  0.621459  0.000000  1
  Ni  Ni16  1  0.378541  0.378541  0.000000  1
  C  C17  1  0.500000  0.000000  0.500000  1
  C  C18  1  0.000000  0.500000  0.500000  1
  C  C19  1  0.942979  0.057021  0.500000  1
  C  C20  1  0.057021  0.942979  0.500000  1
