# generated using pymatgen
data_Ho3(ThFe)2
_symmetry_space_group_name_H-M   'P 1'
_cell_length_a   6.29288579
_cell_length_b   6.95228402
_cell_length_c   8.73314769
_cell_angle_alpha   95.03283604
_cell_angle_beta   111.11784841
_cell_angle_gamma   90.00000408
_symmetry_Int_Tables_number   1
_chemical_formula_structural   Ho3(ThFe)2
_chemical_formula_sum   'Ho6 Th4 Fe4'
_cell_volume   354.83541457
_cell_formula_units_Z   2
loop_
 _symmetry_equiv_pos_site_id
 _symmetry_equiv_pos_as_xyz
  1  'x, y, z'
loop_
 _atom_site_type_symbol
 _atom_site_label
 _atom_site_symmetry_multiplicity
 _atom_site_fract_x
 _atom_site_fract_y
 _atom_site_fract_z
 _atom_site_occupancy
  Ho  Ho0  1  0.213655  0.179587  0.574730  1
  Ho  Ho1  1  0.638926  0.320413  0.425270  1
  Ho  Ho2  1  0.786345  0.820413  0.425270  1
  Ho  Ho3  1  0.361074  0.679587  0.574730  1
  Ho  Ho4  1  0.426196  0.250000  0.000000  1
  Ho  Ho5  1  0.573804  0.750000  0.000000  1
  Th  Th6  1  0.796332  0.096408  0.805593  1
  Th  Th7  1  0.990739  0.403592  0.194407  1
  Th  Th8  1  0.203668  0.903592  0.194407  1
  Th  Th9  1  0.009261  0.596408  0.805593  1
  Fe  Fe10  1  0.632354  0.411997  0.782336  1
  Fe  Fe11  1  0.850017  0.088003  0.217664  1
  Fe  Fe12  1  0.367646  0.588003  0.217664  1
  Fe  Fe13  1  0.149983  0.911997  0.782336  1
