# generated using pymatgen
data_Er6Cu2Si5Ge
_symmetry_space_group_name_H-M   'P 1'
_cell_length_a   5.58525752
_cell_length_b   5.58525781
_cell_length_c   13.56676360
_cell_angle_alpha   70.94990710
_cell_angle_beta   70.94990516
_cell_angle_gamma   44.13601105
_symmetry_Int_Tables_number   1
_chemical_formula_structural   Er6Cu2Si5Ge
_chemical_formula_sum   'Er6 Cu2 Si5 Ge1'
_cell_volume   275.82932281
_cell_formula_units_Z   1
loop_
 _symmetry_equiv_pos_site_id
 _symmetry_equiv_pos_as_xyz
  1  'x, y, z'
loop_
 _atom_site_type_symbol
 _atom_site_label
 _atom_site_symmetry_multiplicity
 _atom_site_fract_x
 _atom_site_fract_y
 _atom_site_fract_z
 _atom_site_occupancy
  Er  Er0  1  0.743508  0.743508  0.776218  1
  Er  Er1  1  0.395161  0.395161  0.926036  1
  Er  Er2  1  0.603974  0.603974  0.077894  1
  Er  Er3  1  0.468464  0.468464  0.379080  1
  Er  Er4  1  0.254457  0.254457  0.224470  1
  Er  Er5  1  0.533097  0.533097  0.617667  1
  Cu  Cu6  1  0.756052  0.756052  0.397647  1
  Cu  Cu7  1  0.247388  0.247388  0.597776  1
  Si  Si8  1  0.131247  0.131247  0.454224  1
  Si  Si9  1  0.869480  0.869480  0.544549  1
  Si  Si10  1  0.960828  0.960828  0.232041  1
  Si  Si11  1  0.887132  0.887132  0.076700  1
  Si  Si12  1  0.114532  0.114532  0.927398  1
  Ge  Ge13  1  0.034682  0.034682  0.768300  1
