# generated using pymatgen
data_Tm6ZnSi5Rh12
_symmetry_space_group_name_H-M   'P 1'
_cell_length_a   5.53809400
_cell_length_b   5.53809342
_cell_length_c   15.12312000
_cell_angle_alpha   90.00000000
_cell_angle_beta   90.00000000
_cell_angle_gamma   119.99999152
_symmetry_Int_Tables_number   1
_chemical_formula_structural   Tm6ZnSi5Rh12
_chemical_formula_sum   'Tm6 Zn1 Si5 Rh12'
_cell_volume   401.69152352
_cell_formula_units_Z   1
loop_
 _symmetry_equiv_pos_site_id
 _symmetry_equiv_pos_as_xyz
  1  'x, y, z'
loop_
 _atom_site_type_symbol
 _atom_site_label
 _atom_site_symmetry_multiplicity
 _atom_site_fract_x
 _atom_site_fract_y
 _atom_site_fract_z
 _atom_site_occupancy
  Tm  Tm0  1  0.333333  0.666667  0.538057  1
  Tm  Tm1  1  0.666667  0.333333  0.461943  1
  Tm  Tm2  1  0.666667  0.333333  0.037152  1
  Tm  Tm3  1  0.333333  0.666667  0.962848  1
  Tm  Tm4  1  0.333333  0.666667  0.750449  1
  Tm  Tm5  1  0.666667  0.333333  0.249551  1
  Zn  Zn6  1  0.000000  0.000000  0.000000  1
  Si  Si7  1  0.000000  0.000000  0.252036  1
  Si  Si8  1  0.000000  0.000000  0.747964  1
  Si  Si9  1  0.333333  0.666667  0.252250  1
  Si  Si10  1  0.666667  0.333333  0.747750  1
  Si  Si11  1  0.000000  0.000000  0.500000  1
  Rh  Rh12  1  0.167896  0.335792  0.134820  1
  Rh  Rh13  1  0.832104  0.664208  0.865180  1
  Rh  Rh14  1  0.664208  0.832104  0.134820  1
  Rh  Rh15  1  0.832990  0.665980  0.628498  1
  Rh  Rh16  1  0.335792  0.167896  0.865180  1
  Rh  Rh17  1  0.167010  0.334020  0.371502  1
  Rh  Rh18  1  0.167896  0.832104  0.134820  1
  Rh  Rh19  1  0.334020  0.167010  0.628498  1
  Rh  Rh20  1  0.832104  0.167896  0.865180  1
  Rh  Rh21  1  0.665980  0.832990  0.371502  1
  Rh  Rh22  1  0.832990  0.167010  0.628498  1
  Rh  Rh23  1  0.167010  0.832990  0.371502  1
