# generated using pymatgen
data_Dy2ErSc3FeSb2
_symmetry_space_group_name_H-M   'P 1'
_cell_length_a   7.83391700
_cell_length_b   7.83156166
_cell_length_c   4.13143300
_cell_angle_alpha   90.00000000
_cell_angle_beta   90.00000000
_cell_angle_gamma   120.00995343
_symmetry_Int_Tables_number   1
_chemical_formula_structural   Dy2ErSc3FeSb2
_chemical_formula_sum   'Dy2 Er1 Sc3 Fe1 Sb2'
_cell_volume   219.49019090
_cell_formula_units_Z   1
loop_
 _symmetry_equiv_pos_site_id
 _symmetry_equiv_pos_as_xyz
  1  'x, y, z'
loop_
 _atom_site_type_symbol
 _atom_site_label
 _atom_site_symmetry_multiplicity
 _atom_site_fract_x
 _atom_site_fract_y
 _atom_site_fract_z
 _atom_site_occupancy
  Dy  Dy0  1  0.393222  0.392709  0.500000  1
  Dy  Dy1  1  0.000513  0.607291  0.500000  1
  Er  Er2  1  0.608224  0.000000  0.500000  1
  Sc  Sc3  1  0.225426  0.000000  0.000000  1
  Sc  Sc4  1  0.773767  0.774281  0.000000  1
  Sc  Sc5  1  0.999486  0.225719  0.000000  1
  Fe  Fe6  1  0.998110  0.000000  0.500000  1
  Sb  Sb7  1  0.334704  0.668157  0.000000  1
  Sb  Sb8  1  0.666548  0.331843  0.000000  1
