# generated using pymatgen
data_SrSmIn2Pt3
_symmetry_space_group_name_H-M   'P 1'
_cell_length_a   4.42487600
_cell_length_b   8.10455200
_cell_length_c   9.18251100
_cell_angle_alpha   90.00000000
_cell_angle_beta   90.00000000
_cell_angle_gamma   90.00000000
_symmetry_Int_Tables_number   1
_chemical_formula_structural   SrSmIn2Pt3
_chemical_formula_sum   'Sr2 Sm2 In4 Pt6'
_cell_volume   329.29988207
_cell_formula_units_Z   2
loop_
 _symmetry_equiv_pos_site_id
 _symmetry_equiv_pos_as_xyz
  1  'x, y, z'
loop_
 _atom_site_type_symbol
 _atom_site_label
 _atom_site_symmetry_multiplicity
 _atom_site_fract_x
 _atom_site_fract_y
 _atom_site_fract_z
 _atom_site_occupancy
  Sr  Sr0  1  0.000000  0.000000  0.278946  1
  Sr  Sr1  1  0.500001  0.500000  0.721055  1
  Sm  Sm2  1  0.000000  0.500000  0.349885  1
  Sm  Sm3  1  0.500001  0.000000  0.650116  1
  In  In4  1  0.500001  0.304837  0.111534  1
  In  In5  1  0.500001  0.695164  0.111534  1
  In  In6  1  0.000000  0.195163  0.888466  1
  In  In7  1  0.000000  0.804836  0.888466  1
  Pt  Pt8  1  0.000000  0.500000  0.022657  1
  Pt  Pt9  1  0.500001  0.261644  0.409048  1
  Pt  Pt10  1  0.500001  0.738356  0.409048  1
  Pt  Pt11  1  0.000000  0.238356  0.590953  1
  Pt  Pt12  1  0.000000  0.761644  0.590953  1
  Pt  Pt13  1  0.500001  0.000000  0.977344  1
