# generated using pymatgen
data_Tb9Th(Ir2Ru)2
_symmetry_space_group_name_H-M   'P 1'
_cell_length_a   10.96583715
_cell_length_b   10.90899700
_cell_length_c   6.46534722
_cell_angle_alpha   90.00000000
_cell_angle_beta   89.40557624
_cell_angle_gamma   90.00000000
_symmetry_Int_Tables_number   1
_chemical_formula_structural   Tb9Th(Ir2Ru)2
_chemical_formula_sum   'Tb18 Th2 Ir8 Ru4'
_cell_volume   773.38384279
_cell_formula_units_Z   2
loop_
 _symmetry_equiv_pos_site_id
 _symmetry_equiv_pos_as_xyz
  1  'x, y, z'
loop_
 _atom_site_type_symbol
 _atom_site_label
 _atom_site_symmetry_multiplicity
 _atom_site_fract_x
 _atom_site_fract_y
 _atom_site_fract_z
 _atom_site_occupancy
  Tb  Tb0  1  0.707089  0.088133  0.881102  1
  Tb  Tb1  1  0.707089  0.911867  0.381102  1
  Tb  Tb2  1  0.592509  0.791775  0.880928  1
  Tb  Tb3  1  0.592509  0.208225  0.380928  1
  Tb  Tb4  1  0.415971  0.787608  0.378413  1
  Tb  Tb5  1  0.415971  0.212392  0.878413  1
  Tb  Tb6  1  0.205043  0.413721  0.620603  1
  Tb  Tb7  1  0.205043  0.586279  0.120603  1
  Tb  Tb8  1  0.793655  0.413569  0.119210  1
  Tb  Tb9  1  0.793655  0.586431  0.619210  1
  Tb  Tb10  1  0.912898  0.705929  0.118259  1
  Tb  Tb11  1  0.912898  0.294071  0.618259  1
  Tb  Tb12  1  0.084874  0.704977  0.618479  1
  Tb  Tb13  1  0.084874  0.295023  0.118479  1
  Tb  Tb14  1  0.996849  0.998761  0.501198  1
  Tb  Tb15  1  0.996849  0.001239  0.001198  1
  Tb  Tb16  1  0.500934  0.500886  0.004921  1
  Tb  Tb17  1  0.500934  0.499114  0.504921  1
  Th  Th18  1  0.294415  0.090085  0.378579  1
  Th  Th19  1  0.294415  0.909915  0.878579  1
  Ir  Ir20  1  0.846058  0.153037  0.250426  1
  Ir  Ir21  1  0.846058  0.846963  0.750426  1
  Ir  Ir22  1  0.156631  0.148421  0.745806  1
  Ir  Ir23  1  0.156631  0.851579  0.245806  1
  Ir  Ir24  1  0.652982  0.347508  0.750432  1
  Ir  Ir25  1  0.652982  0.652492  0.250432  1
  Ir  Ir26  1  0.347900  0.345964  0.254228  1
  Ir  Ir27  1  0.347900  0.654036  0.754228  1
  Ru  Ru28  1  0.492909  0.000891  0.122356  1
  Ru  Ru29  1  0.492909  0.999109  0.622356  1
  Ru  Ru30  1  0.999283  0.499299  0.875061  1
  Ru  Ru31  1  0.999283  0.500701  0.375061  1
