# generated using pymatgen
data_Dy3Y3Ho6Co5Bi
_symmetry_space_group_name_H-M   'P 1'
_cell_length_a   8.32170128
_cell_length_b   8.32238170
_cell_length_c   8.30749883
_cell_angle_alpha   110.77104898
_cell_angle_beta   110.72109393
_cell_angle_gamma   107.03039614
_symmetry_Int_Tables_number   1
_chemical_formula_structural   Dy3Y3Ho6Co5Bi
_chemical_formula_sum   'Dy3 Y3 Ho6 Co5 Bi1'
_cell_volume   441.84620333
_cell_formula_units_Z   1
loop_
 _symmetry_equiv_pos_site_id
 _symmetry_equiv_pos_as_xyz
  1  'x, y, z'
loop_
 _atom_site_type_symbol
 _atom_site_label
 _atom_site_symmetry_multiplicity
 _atom_site_fract_x
 _atom_site_fract_y
 _atom_site_fract_z
 _atom_site_occupancy
  Dy  Dy0  1  0.401057  0.206164  0.194247  1
  Dy  Dy1  1  0.987862  0.793276  0.193955  1
  Dy  Dy2  1  0.011428  0.205721  0.806751  1
  Y  Y3  1  0.815102  0.710371  0.525814  1
  Y  Y4  1  0.184639  0.289693  0.474075  1
  Y  Y5  1  0.184668  0.709699  0.894110  1
  Ho  Ho6  1  0.816532  0.289829  0.106627  1
  Ho  Ho7  1  0.688483  0.378320  0.690614  1
  Ho  Ho8  1  0.311672  0.621577  0.310307  1
  Ho  Ho9  1  0.688450  0.998518  0.309636  1
  Ho  Ho10  1  0.312852  0.002015  0.690797  1
  Ho  Ho11  1  0.600917  0.795165  0.806776  1
  Co  Co12  1  0.623211  0.999655  0.623327  1
  Co  Co13  1  0.376906  0.000466  0.377071  1
  Co  Co14  1  0.110090  0.610784  0.497760  1
  Co  Co15  1  0.886776  0.387729  0.497463  1
  Co  Co16  1  0.999603  0.000684  0.001009  1
  Bi  Bi17  1  0.499754  0.500333  0.999661  1
