# generated using pymatgen
data_La2Si7Rh12
_symmetry_space_group_name_H-M   'P 1'
_cell_length_a   9.83337800
_cell_length_b   9.83337787
_cell_length_c   3.90399700
_cell_angle_alpha   90.00000000
_cell_angle_beta   90.00000000
_cell_angle_gamma   120.00000045
_symmetry_Int_Tables_number   1
_chemical_formula_structural   La2Si7Rh12
_chemical_formula_sum   'La2 Si7 Rh12'
_cell_volume   326.92306893
_cell_formula_units_Z   1
loop_
 _symmetry_equiv_pos_site_id
 _symmetry_equiv_pos_as_xyz
  1  'x, y, z'
loop_
 _atom_site_type_symbol
 _atom_site_label
 _atom_site_symmetry_multiplicity
 _atom_site_fract_x
 _atom_site_fract_y
 _atom_site_fract_z
 _atom_site_occupancy
  La  La0  1  0.000000  0.000000  0.750095  1
  La  La1  1  0.333333  0.666667  0.251640  1
  Si  Si2  1  0.666667  0.333333  0.522443  1
  Si  Si3  1  0.061407  0.622735  0.752059  1
  Si  Si4  1  0.377265  0.438672  0.752059  1
  Si  Si5  1  0.561328  0.938593  0.752059  1
  Si  Si6  1  0.272037  0.043455  0.249625  1
  Si  Si7  1  0.956545  0.228582  0.249625  1
  Si  Si8  1  0.771418  0.727963  0.249625  1
  Rh  Rh9  1  0.808694  0.595019  0.745517  1
  Rh  Rh10  1  0.404981  0.213675  0.745517  1
  Rh  Rh11  1  0.786325  0.191306  0.745517  1
  Rh  Rh12  1  0.526668  0.075254  0.256761  1
  Rh  Rh13  1  0.924746  0.451414  0.256761  1
  Rh  Rh14  1  0.548586  0.473332  0.256761  1
  Rh  Rh15  1  0.108792  0.395263  0.752590  1
  Rh  Rh16  1  0.604737  0.713529  0.752590  1
  Rh  Rh17  1  0.286471  0.891208  0.752590  1
  Rh  Rh18  1  0.224774  0.272373  0.248700  1
  Rh  Rh19  1  0.727627  0.952401  0.248700  1
  Rh  Rh20  1  0.047599  0.775226  0.248700  1
