# generated using pymatgen
data_Zr14Pd19Au
_symmetry_space_group_name_H-M   'P 1'
_cell_length_a   8.21153023
_cell_length_b   8.21152990
_cell_length_c   9.73071922
_cell_angle_alpha   89.98561889
_cell_angle_beta   89.98561987
_cell_angle_gamma   107.23452260
_symmetry_Int_Tables_number   1
_chemical_formula_structural   Zr14Pd19Au
_chemical_formula_sum   'Zr14 Pd19 Au1'
_cell_volume   626.67436386
_cell_formula_units_Z   1
loop_
 _symmetry_equiv_pos_site_id
 _symmetry_equiv_pos_as_xyz
  1  'x, y, z'
loop_
 _atom_site_type_symbol
 _atom_site_label
 _atom_site_symmetry_multiplicity
 _atom_site_fract_x
 _atom_site_fract_y
 _atom_site_fract_z
 _atom_site_occupancy
  Zr  Zr0  1  0.194357  0.808586  0.998443  1
  Zr  Zr1  1  0.690960  0.308937  0.500051  1
  Zr  Zr2  1  0.313813  0.313813  0.685729  1
  Zr  Zr3  1  0.681914  0.681914  0.318136  1
  Zr  Zr4  1  0.808586  0.194357  0.998443  1
  Zr  Zr5  1  0.001672  0.500898  0.749785  1
  Zr  Zr6  1  0.998818  0.498817  0.250102  1
  Zr  Zr7  1  0.814356  0.814356  0.811268  1
  Zr  Zr8  1  0.499717  0.499717  0.999685  1
  Zr  Zr9  1  0.498817  0.998818  0.250102  1
  Zr  Zr10  1  0.308937  0.690960  0.500051  1
  Zr  Zr11  1  0.500898  0.001672  0.749785  1
  Zr  Zr12  1  0.188166  0.188166  0.186200  1
  Zr  Zr13  1  0.000200  0.000200  0.500472  1
  Pd  Pd14  1  0.644219  0.351251  0.207824  1
  Pd  Pd15  1  0.062882  0.354580  0.497371  1
  Pd  Pd16  1  0.648604  0.355782  0.791965  1
  Pd  Pd17  1  0.851019  0.145541  0.293474  1
  Pd  Pd18  1  0.145541  0.851019  0.293474  1
  Pd  Pd19  1  0.604215  0.604215  0.604853  1
  Pd  Pd20  1  0.438195  0.145641  0.997770  1
  Pd  Pd21  1  0.355782  0.648604  0.791965  1
  Pd  Pd22  1  0.149053  0.855555  0.706971  1
  Pd  Pd23  1  0.145641  0.438195  0.997770  1
  Pd  Pd24  1  0.561157  0.854572  0.001606  1
  Pd  Pd25  1  0.937158  0.645396  0.502921  1
  Pd  Pd26  1  0.645396  0.937158  0.502921  1
  Pd  Pd27  1  0.104415  0.104415  0.895645  1
  Pd  Pd28  1  0.395194  0.395194  0.395602  1
  Pd  Pd29  1  0.854572  0.561157  0.001606  1
  Pd  Pd30  1  0.354580  0.062882  0.497371  1
  Pd  Pd31  1  0.855555  0.149053  0.706971  1
  Pd  Pd32  1  0.351251  0.644219  0.207824  1
  Au  Au33  1  0.894358  0.894358  0.105844  1
