# generated using pymatgen
data_CeNd(Be12Cu)2
_symmetry_space_group_name_H-M   'P 1'
_cell_length_a   7.34252734
_cell_length_b   7.38448517
_cell_length_c   7.32184943
_cell_angle_alpha   59.90198217
_cell_angle_beta   59.74918778
_cell_angle_gamma   59.62458355
_symmetry_Int_Tables_number   1
_chemical_formula_structural   CeNd(Be12Cu)2
_chemical_formula_sum   'Ce1 Nd1 Be24 Cu2'
_cell_volume   279.17672154
_cell_formula_units_Z   1
loop_
 _symmetry_equiv_pos_site_id
 _symmetry_equiv_pos_as_xyz
  1  'x, y, z'
loop_
 _atom_site_type_symbol
 _atom_site_label
 _atom_site_symmetry_multiplicity
 _atom_site_fract_x
 _atom_site_fract_y
 _atom_site_fract_z
 _atom_site_occupancy
  Ce  Ce0  1  0.002126  0.997888  0.002111  1
  Nd  Nd1  1  0.497735  0.502275  0.497737  1
  Be  Be2  1  0.313927  0.542263  0.183865  1
  Be  Be3  1  0.183857  0.959936  0.313934  1
  Be  Be4  1  0.038686  0.687681  0.459805  1
  Be  Be5  1  0.459785  0.813817  0.038695  1
  Be  Be6  1  0.682217  0.028026  0.819265  1
  Be  Be7  1  0.819259  0.470492  0.682217  1
  Be  Be8  1  0.960472  0.548128  0.306810  1
  Be  Be9  1  0.541629  0.953213  0.191855  1
  Be  Be10  1  0.191856  0.313297  0.541625  1
  Be  Be11  1  0.306831  0.184577  0.960507  1
  Be  Be12  1  0.461827  0.034550  0.687985  1
  Be  Be13  1  0.036177  0.463315  0.814158  1
  Be  Be14  1  0.814163  0.686362  0.036158  1
  Be  Be15  1  0.687981  0.815637  0.461843  1
  Be  Be16  1  0.315668  0.958308  0.541365  1
  Be  Be17  1  0.182608  0.543699  0.960648  1
  Be  Be18  1  0.541365  0.184684  0.315662  1
  Be  Be19  1  0.960643  0.313052  0.182603  1
  Be  Be20  1  0.688620  0.462938  0.037010  1
  Be  Be21  1  0.813573  0.035155  0.460824  1
  Be  Be22  1  0.037024  0.811413  0.688627  1
  Be  Be23  1  0.460820  0.690438  0.813575  1
  Be  Be24  1  0.250109  0.249902  0.250100  1
  Be  Be25  1  0.750048  0.749946  0.750056  1
  Cu  Cu26  1  0.551460  0.307420  0.949527  1
  Cu  Cu27  1  0.949534  0.191588  0.551435  1
