# generated using pymatgen
data_Ho12Tm8CoBi8Rh3
_symmetry_space_group_name_H-M   'P 1'
_cell_length_a   7.92197970
_cell_length_b   8.96056300
_cell_length_c   12.39233344
_cell_angle_alpha   90.00000000
_cell_angle_beta   89.82011593
_cell_angle_gamma   90.00000000
_symmetry_Int_Tables_number   1
_chemical_formula_structural   Ho12Tm8CoBi8Rh3
_chemical_formula_sum   'Ho12 Tm8 Co1 Bi8 Rh3'
_cell_volume   879.67038831
_cell_formula_units_Z   1
loop_
 _symmetry_equiv_pos_site_id
 _symmetry_equiv_pos_as_xyz
  1  'x, y, z'
loop_
 _atom_site_type_symbol
 _atom_site_label
 _atom_site_symmetry_multiplicity
 _atom_site_fract_x
 _atom_site_fract_y
 _atom_site_fract_z
 _atom_site_occupancy
  Ho  Ho0  1  0.346459  0.750000  0.699774  1
  Ho  Ho1  1  0.657049  0.250000  0.293306  1
  Ho  Ho2  1  0.843132  0.250000  0.793345  1
  Ho  Ho3  1  0.156819  0.750000  0.206384  1
  Ho  Ho4  1  0.879393  0.750000  0.806700  1
  Ho  Ho5  1  0.121625  0.250000  0.192857  1
  Ho  Ho6  1  0.378526  0.250000  0.693034  1
  Ho  Ho7  1  0.615290  0.750000  0.312579  1
  Ho  Ho8  1  0.052584  0.750000  0.498676  1
  Ho  Ho9  1  0.949341  0.250000  0.501587  1
  Ho  Ho10  1  0.547874  0.250000  0.000849  1
  Ho  Ho11  1  0.450046  0.750000  0.997918  1
  Tm  Tm12  1  0.674601  0.546112  0.563737  1
  Tm  Tm13  1  0.326412  0.465485  0.436974  1
  Tm  Tm14  1  0.175643  0.456650  0.934620  1
  Tm  Tm15  1  0.326412  0.034515  0.436974  1
  Tm  Tm16  1  0.823597  0.542321  0.065269  1
  Tm  Tm17  1  0.674601  0.953888  0.563737  1
  Tm  Tm18  1  0.823597  0.957679  0.065269  1
  Tm  Tm19  1  0.175643  0.043350  0.934620  1
  Co  Co20  1  0.432641  0.750000  0.491981  1
  Bi  Bi21  1  0.570055  0.509769  0.826265  1
  Bi  Bi22  1  0.430109  0.491050  0.173647  1
  Bi  Bi23  1  0.070931  0.490465  0.672615  1
  Bi  Bi24  1  0.430109  0.008950  0.173647  1
  Bi  Bi25  1  0.929376  0.509956  0.327554  1
  Bi  Bi26  1  0.570055  0.990231  0.826265  1
  Bi  Bi27  1  0.929376  0.990044  0.327554  1
  Bi  Bi28  1  0.070931  0.009535  0.672615  1
  Rh  Rh29  1  0.070176  0.750000  0.990679  1
  Rh  Rh30  1  0.927998  0.250000  0.010021  1
  Rh  Rh31  1  0.569600  0.250000  0.508949  1
