# generated using pymatgen
data_Lu3Sc7(GaSb2)2
_symmetry_space_group_name_H-M   'P 1'
_cell_length_a   8.41226563
_cell_length_b   8.41226623
_cell_length_c   6.04672100
_cell_angle_alpha   90.00000000
_cell_angle_beta   90.00000000
_cell_angle_gamma   119.79443398
_symmetry_Int_Tables_number   1
_chemical_formula_structural   Lu3Sc7(GaSb2)2
_chemical_formula_sum   'Lu3 Sc7 Ga2 Sb4'
_cell_volume   371.34059824
_cell_formula_units_Z   1
loop_
 _symmetry_equiv_pos_site_id
 _symmetry_equiv_pos_as_xyz
  1  'x, y, z'
loop_
 _atom_site_type_symbol
 _atom_site_label
 _atom_site_symmetry_multiplicity
 _atom_site_fract_x
 _atom_site_fract_y
 _atom_site_fract_z
 _atom_site_occupancy
  Lu  Lu0  1  0.235670  0.235670  0.250000  1
  Lu  Lu1  1  0.765264  0.013997  0.250000  1
  Lu  Lu2  1  0.013997  0.765264  0.250000  1
  Sc  Sc3  1  0.667885  0.325628  0.003596  1
  Sc  Sc4  1  0.325628  0.667885  0.003596  1
  Sc  Sc5  1  0.325628  0.667885  0.496404  1
  Sc  Sc6  1  0.667885  0.325628  0.496404  1
  Sc  Sc7  1  0.760021  0.760021  0.750000  1
  Sc  Sc8  1  0.238728  0.997869  0.750000  1
  Sc  Sc9  1  0.997869  0.238728  0.750000  1
  Ga  Ga10  1  0.399528  0.001964  0.250000  1
  Ga  Ga11  1  0.001964  0.399528  0.250000  1
  Sb  Sb12  1  0.392159  0.392159  0.750000  1
  Sb  Sb13  1  0.602980  0.995547  0.750000  1
  Sb  Sb14  1  0.995547  0.602980  0.750000  1
  Sb  Sb15  1  0.609250  0.609250  0.250000  1
