# generated using pymatgen
data_Ho10Ga3SnBiIr
_symmetry_space_group_name_H-M   'P 1'
_cell_length_a   8.65199568
_cell_length_b   8.65199483
_cell_length_c   8.75468983
_cell_angle_alpha   125.41807622
_cell_angle_beta   125.41808164
_cell_angle_gamma   80.28598328
_symmetry_Int_Tables_number   1
_chemical_formula_structural   Ho10Ga3SnBiIr
_chemical_formula_sum   'Ho10 Ga3 Sn1 Bi1 Ir1'
_cell_volume   421.23351113
_cell_formula_units_Z   1
loop_
 _symmetry_equiv_pos_site_id
 _symmetry_equiv_pos_as_xyz
  1  'x, y, z'
loop_
 _atom_site_type_symbol
 _atom_site_label
 _atom_site_symmetry_multiplicity
 _atom_site_fract_x
 _atom_site_fract_y
 _atom_site_fract_z
 _atom_site_occupancy
  Ho  Ho0  1  0.997705  0.998678  0.005218  1
  Ho  Ho1  1  0.501322  0.502295  0.994782  1
  Ho  Ho2  1  0.013273  0.504848  0.801652  1
  Ho  Ho3  1  0.716461  0.197787  0.198319  1
  Ho  Ho4  1  0.518985  0.704935  0.504718  1
  Ho  Ho5  1  0.190545  0.035198  0.495613  1
  Ho  Ho6  1  0.995152  0.486727  0.198348  1
  Ho  Ho7  1  0.302213  0.783539  0.801681  1
  Ho  Ho8  1  0.464802  0.309455  0.504387  1
  Ho  Ho9  1  0.795065  0.981015  0.495282  1
  Ga  Ga10  1  0.360890  0.857496  0.218395  1
  Ga  Ga11  1  0.642504  0.139110  0.781605  1
  Ga  Ga12  1  0.864708  0.635292  0.500000  1
  Sn  Sn13  1  0.755475  0.744525  0.000000  1
  Bi  Bi14  1  0.255201  0.244799  0.000000  1
  Ir  Ir15  1  0.125702  0.374298  0.500000  1
