# generated using pymatgen
data_Y4TmLu3(WO6)4
_symmetry_space_group_name_H-M   'P 1'
_cell_length_a   5.37873108
_cell_length_b   7.66695018
_cell_length_c   11.35297624
_cell_angle_alpha   75.59750674
_cell_angle_beta   90.00784552
_cell_angle_gamma   90.01932721
_symmetry_Int_Tables_number   1
_chemical_formula_structural   Y4TmLu3(WO6)4
_chemical_formula_sum   'Y4 Tm1 Lu3 W4 O24'
_cell_volume   453.46548574
_cell_formula_units_Z   1
loop_
 _symmetry_equiv_pos_site_id
 _symmetry_equiv_pos_as_xyz
  1  'x, y, z'
loop_
 _atom_site_type_symbol
 _atom_site_label
 _atom_site_symmetry_multiplicity
 _atom_site_fract_x
 _atom_site_fract_y
 _atom_site_fract_z
 _atom_site_occupancy
  Y  Y0  1  0.256744  0.000233  0.749657  1
  Y  Y1  1  0.743368  0.000275  0.250463  1
  Y  Y2  1  0.315986  0.499871  0.749922  1
  Y  Y3  1  0.684166  0.499673  0.250333  1
  Tm  Tm4  1  0.182288  0.793526  0.078925  1
  Lu  Lu5  1  0.182386  0.206984  0.420592  1
  Lu  Lu6  1  0.817333  0.207277  0.920484  1
  Lu  Lu7  1  0.817511  0.793043  0.579309  1
  W  W8  1  0.743656  0.723843  0.885741  1
  W  W9  1  0.256687  0.723938  0.386472  1
  W  W10  1  0.743541  0.275946  0.613847  1
  W  W11  1  0.256492  0.275893  0.113825  1
  O  O12  1  0.540537  0.158123  0.066543  1
  O  O13  1  0.047831  0.059466  0.102347  1
  O  O14  1  0.018777  0.713072  0.770132  1
  O  O15  1  0.458935  0.158662  0.566487  1
  O  O16  1  0.356147  0.488042  0.386633  1
  O  O17  1  0.950435  0.058031  0.602245  1
  O  O18  1  0.545713  0.791988  0.724988  1
  O  O19  1  0.455678  0.791900  0.226233  1
  O  O20  1  0.145593  0.635551  0.549961  1
  O  O21  1  0.049754  0.942034  0.397767  1
  O  O22  1  0.460589  0.842292  0.932336  1
  O  O23  1  0.454260  0.207494  0.274815  1
  O  O24  1  0.854421  0.364276  0.450281  1
  O  O25  1  0.643361  0.487825  0.886249  1
  O  O26  1  0.357562  0.511142  0.113496  1
  O  O27  1  0.950368  0.942152  0.897404  1
  O  O28  1  0.541002  0.841581  0.433947  1
  O  O29  1  0.981884  0.287284  0.230037  1
  O  O30  1  0.545597  0.207802  0.774638  1
  O  O31  1  0.852235  0.634711  0.049570  1
  O  O32  1  0.018336  0.286933  0.729773  1
  O  O33  1  0.145758  0.364520  0.950184  1
  O  O34  1  0.981288  0.712849  0.270958  1
  O  O35  1  0.643782  0.511766  0.613405  1
