# generated using pymatgen
data_Hf2FeCoSiAs
_symmetry_space_group_name_H-M   'P 1'
_cell_length_a   3.87318700
_cell_length_b   6.39196012
_cell_length_c   7.16968578
_cell_angle_alpha   89.16273160
_cell_angle_beta   90.00000000
_cell_angle_gamma   90.00000000
_symmetry_Int_Tables_number   1
_chemical_formula_structural   Hf2FeCoSiAs
_chemical_formula_sum   'Hf4 Fe2 Co2 Si2 As2'
_cell_volume   177.48280065
_cell_formula_units_Z   2
loop_
 _symmetry_equiv_pos_site_id
 _symmetry_equiv_pos_as_xyz
  1  'x, y, z'
loop_
 _atom_site_type_symbol
 _atom_site_label
 _atom_site_symmetry_multiplicity
 _atom_site_fract_x
 _atom_site_fract_y
 _atom_site_fract_z
 _atom_site_occupancy
  Hf  Hf0  1  0.250000  0.516848  0.195012  1
  Hf  Hf1  1  0.750000  0.483152  0.804988  1
  Hf  Hf2  1  0.250000  0.009683  0.312188  1
  Hf  Hf3  1  0.750000  0.990317  0.687812  1
  Fe  Fe4  1  0.250000  0.651597  0.558215  1
  Fe  Fe5  1  0.750000  0.348403  0.441785  1
  Co  Co6  1  0.250000  0.147349  0.926830  1
  Co  Co7  1  0.750000  0.852651  0.073170  1
  Si  Si8  1  0.750000  0.715788  0.393263  1
  Si  Si9  1  0.250000  0.284212  0.606737  1
  As  As10  1  0.750000  0.228291  0.115398  1
  As  As11  1  0.250000  0.771709  0.884602  1
