# generated using pymatgen
data_Gd3Y2IrPt2
_symmetry_space_group_name_H-M   'P 1'
_cell_length_a   11.25960300
_cell_length_b   11.25960300
_cell_length_c   6.49993900
_cell_angle_alpha   90.00000000
_cell_angle_beta   90.00000000
_cell_angle_gamma   90.00000000
_symmetry_Int_Tables_number   1
_chemical_formula_structural   Gd3Y2IrPt2
_chemical_formula_sum   'Gd12 Y8 Ir4 Pt8'
_cell_volume   824.05355467
_cell_formula_units_Z   4
loop_
 _symmetry_equiv_pos_site_id
 _symmetry_equiv_pos_as_xyz
  1  'x, y, z'
loop_
 _atom_site_type_symbol
 _atom_site_label
 _atom_site_symmetry_multiplicity
 _atom_site_fract_x
 _atom_site_fract_y
 _atom_site_fract_z
 _atom_site_occupancy
  Gd  Gd0  1  0.204402  0.410321  0.625268  1
  Gd  Gd1  1  0.204402  0.589679  0.125268  1
  Gd  Gd2  1  0.795598  0.410321  0.125268  1
  Gd  Gd3  1  0.795598  0.589679  0.625268  1
  Gd  Gd4  1  0.910321  0.704402  0.125268  1
  Gd  Gd5  1  0.910321  0.295598  0.625268  1
  Gd  Gd6  1  0.089679  0.704402  0.625268  1
  Gd  Gd7  1  0.089679  0.295598  0.125268  1
  Gd  Gd8  1  0.000000  0.000000  0.498518  1
  Gd  Gd9  1  0.000000  0.000000  0.998518  1
  Gd  Gd10  1  0.500000  0.500000  0.998518  1
  Gd  Gd11  1  0.500000  0.500000  0.498518  1
  Y  Y12  1  0.297467  0.088295  0.375116  1
  Y  Y13  1  0.297467  0.911705  0.875116  1
  Y  Y14  1  0.702533  0.088295  0.875116  1
  Y  Y15  1  0.702533  0.911705  0.375116  1
  Y  Y16  1  0.588295  0.797467  0.875116  1
  Y  Y17  1  0.588295  0.202533  0.375116  1
  Y  Y18  1  0.411705  0.797467  0.375116  1
  Y  Y19  1  0.411705  0.202533  0.875116  1
  Ir  Ir20  1  0.500000  0.000000  0.119628  1
  Ir  Ir21  1  0.500000  0.000000  0.619628  1
  Ir  Ir22  1  0.000000  0.500000  0.883067  1
  Ir  Ir23  1  0.000000  0.500000  0.383067  1
  Pt  Pt24  1  0.844152  0.151902  0.249683  1
  Pt  Pt25  1  0.844152  0.848098  0.749683  1
  Pt  Pt26  1  0.155848  0.151902  0.749683  1
  Pt  Pt27  1  0.155848  0.848098  0.249683  1
  Pt  Pt28  1  0.651902  0.344152  0.749683  1
  Pt  Pt29  1  0.651902  0.655848  0.249683  1
  Pt  Pt30  1  0.348098  0.344152  0.249683  1
  Pt  Pt31  1  0.348098  0.655848  0.749683  1
