# generated using pymatgen
data_Pa10SnSb7
_symmetry_space_group_name_H-M   'P 1'
_cell_length_a   9.26962800
_cell_length_b   9.26962735
_cell_length_c   6.26850100
_cell_angle_alpha   90.00000000
_cell_angle_beta   90.00000000
_cell_angle_gamma   120.00000947
_symmetry_Int_Tables_number   1
_chemical_formula_structural   Pa10SnSb7
_chemical_formula_sum   'Pa10 Sn1 Sb7'
_cell_volume   466.46479334
_cell_formula_units_Z   1
loop_
 _symmetry_equiv_pos_site_id
 _symmetry_equiv_pos_as_xyz
  1  'x, y, z'
loop_
 _atom_site_type_symbol
 _atom_site_label
 _atom_site_symmetry_multiplicity
 _atom_site_fract_x
 _atom_site_fract_y
 _atom_site_fract_z
 _atom_site_occupancy
  Pa  Pa0  1  0.333333  0.666667  0.000000  1
  Pa  Pa1  1  0.666667  0.333333  0.000000  1
  Pa  Pa2  1  0.666667  0.333333  0.500000  1
  Pa  Pa3  1  0.333333  0.666667  0.500000  1
  Pa  Pa4  1  0.288529  0.000000  0.249970  1
  Pa  Pa5  1  0.711471  0.000000  0.750030  1
  Pa  Pa6  1  0.000000  0.288529  0.249970  1
  Pa  Pa7  1  0.000000  0.711471  0.750030  1
  Pa  Pa8  1  0.711471  0.711471  0.249970  1
  Pa  Pa9  1  0.288529  0.288529  0.750030  1
  Sn  Sn10  1  0.000000  0.000000  0.000000  1
  Sb  Sb11  1  0.000000  0.000000  0.500000  1
  Sb  Sb12  1  0.623473  0.000000  0.249881  1
  Sb  Sb13  1  0.376527  0.000000  0.750119  1
  Sb  Sb14  1  0.000000  0.623473  0.249881  1
  Sb  Sb15  1  0.000000  0.376527  0.750119  1
  Sb  Sb16  1  0.376527  0.376527  0.249881  1
  Sb  Sb17  1  0.623473  0.623473  0.750119  1
