# generated using pymatgen
data_LaLu(FeB)8
_symmetry_space_group_name_H-M   'P 1'
_cell_length_a   7.00031700
_cell_length_b   7.00031700
_cell_length_c   3.82141200
_cell_angle_alpha   90.00000000
_cell_angle_beta   90.00000000
_cell_angle_gamma   90.00000000
_symmetry_Int_Tables_number   1
_chemical_formula_structural   LaLu(FeB)8
_chemical_formula_sum   'La1 Lu1 Fe8 B8'
_cell_volume   187.26614781
_cell_formula_units_Z   1
loop_
 _symmetry_equiv_pos_site_id
 _symmetry_equiv_pos_as_xyz
  1  'x, y, z'
loop_
 _atom_site_type_symbol
 _atom_site_label
 _atom_site_symmetry_multiplicity
 _atom_site_fract_x
 _atom_site_fract_y
 _atom_site_fract_z
 _atom_site_occupancy
  La  La0  1  0.500000  0.500000  0.500000  1
  Lu  Lu1  1  0.000000  0.000000  0.000000  1
  Fe  Fe2  1  0.128634  0.383489  0.891040  1
  Fe  Fe3  1  0.871366  0.616511  0.891040  1
  Fe  Fe4  1  0.887674  0.365411  0.391646  1
  Fe  Fe5  1  0.112326  0.634589  0.391646  1
  Fe  Fe6  1  0.365411  0.112326  0.608354  1
  Fe  Fe7  1  0.634589  0.887674  0.608354  1
  Fe  Fe8  1  0.616511  0.128634  0.108960  1
  Fe  Fe9  1  0.383489  0.871366  0.108960  1
  B  B10  1  0.669681  0.806711  0.104751  1
  B  B11  1  0.330319  0.193289  0.104751  1
  B  B12  1  0.293262  0.837181  0.608690  1
  B  B13  1  0.706738  0.162819  0.608690  1
  B  B14  1  0.837181  0.706738  0.391310  1
  B  B15  1  0.162819  0.293262  0.391310  1
  B  B16  1  0.193289  0.669681  0.895249  1
  B  B17  1  0.806711  0.330319  0.895249  1
