# generated using pymatgen
data_Li2Er5Tm(Co4P3)4
_symmetry_space_group_name_H-M   'P 1'
_cell_length_a   3.69257900
_cell_length_b   10.53700301
_cell_length_c   12.13093801
_cell_angle_alpha   89.99430898
_cell_angle_beta   90.00000000
_cell_angle_gamma   90.00000000
_symmetry_Int_Tables_number   1
_chemical_formula_structural   Li2Er5Tm(Co4P3)4
_chemical_formula_sum   'Li2 Er5 Tm1 Co16 P12'
_cell_volume   471.99922030
_cell_formula_units_Z   1
loop_
 _symmetry_equiv_pos_site_id
 _symmetry_equiv_pos_as_xyz
  1  'x, y, z'
loop_
 _atom_site_type_symbol
 _atom_site_label
 _atom_site_symmetry_multiplicity
 _atom_site_fract_x
 _atom_site_fract_y
 _atom_site_fract_z
 _atom_site_occupancy
  Li  Li0  1  0.500000  0.500112  0.153357  1
  Li  Li1  1  0.000000  0.000364  0.846521  1
  Er  Er2  1  0.000000  0.499992  0.523177  1
  Er  Er3  1  0.500000  0.000054  0.477095  1
  Er  Er4  1  0.500000  0.820159  0.205989  1
  Er  Er5  1  0.500000  0.179702  0.206113  1
  Er  Er6  1  0.000000  0.679555  0.793888  1
  Tm  Tm7  1  0.000000  0.320181  0.793862  1
  Co  Co8  1  0.500000  0.499635  0.704603  1
  Co  Co9  1  0.000000  0.000040  0.295463  1
  Co  Co10  1  0.000000  0.499751  0.987323  1
  Co  Co11  1  0.500000  0.000175  0.012270  1
  Co  Co12  1  0.500000  0.332818  0.996929  1
  Co  Co13  1  0.500000  0.667009  0.996884  1
  Co  Co14  1  0.000000  0.167397  0.002723  1
  Co  Co15  1  0.000000  0.832810  0.002854  1
  Co  Co16  1  0.500000  0.296609  0.431472  1
  Co  Co17  1  0.500000  0.703336  0.431247  1
  Co  Co18  1  0.000000  0.203497  0.569103  1
  Co  Co19  1  0.000000  0.796603  0.568824  1
  Co  Co20  1  0.500000  0.878190  0.706600  1
  Co  Co21  1  0.500000  0.122222  0.706874  1
  Co  Co22  1  0.000000  0.621842  0.293347  1
  Co  Co23  1  0.000000  0.378080  0.293493  1
  P  P24  1  0.500000  0.499613  0.884776  1
  P  P25  1  0.000000  0.000064  0.114897  1
  P  P26  1  0.500000  0.499939  0.346912  1
  P  P27  1  0.000000  0.000013  0.653232  1
  P  P28  1  0.500000  0.310674  0.616687  1
  P  P29  1  0.500000  0.689324  0.616290  1
  P  P30  1  0.000000  0.189397  0.383923  1
  P  P31  1  0.000000  0.810614  0.383741  1
  P  P32  1  0.500000  0.842675  0.892551  1
  P  P33  1  0.500000  0.157712  0.892356  1
  P  P34  1  0.000000  0.657178  0.107196  1
  P  P35  1  0.000000  0.342662  0.107427  1
