# generated using pymatgen
data_Gd2Ho(CdIn)3
_symmetry_space_group_name_H-M   'P 1'
_cell_length_a   7.53282600
_cell_length_b   7.53282644
_cell_length_c   4.65857400
_cell_angle_alpha   90.00000000
_cell_angle_beta   90.00000000
_cell_angle_gamma   119.93670287
_symmetry_Int_Tables_number   1
_chemical_formula_structural   Gd2Ho(CdIn)3
_chemical_formula_sum   'Gd2 Ho1 Cd3 In3'
_cell_volume   229.07419948
_cell_formula_units_Z   1
loop_
 _symmetry_equiv_pos_site_id
 _symmetry_equiv_pos_as_xyz
  1  'x, y, z'
loop_
 _atom_site_type_symbol
 _atom_site_label
 _atom_site_symmetry_multiplicity
 _atom_site_fract_x
 _atom_site_fract_y
 _atom_site_fract_z
 _atom_site_occupancy
  Gd  Gd0  1  0.434047  0.999989  0.500000  1
  Gd  Gd1  1  0.999989  0.434046  0.500000  1
  Ho  Ho2  1  0.566012  0.566012  0.500000  1
  Cd  Cd3  1  0.754863  0.999856  0.000000  1
  Cd  Cd4  1  0.245729  0.245729  0.000000  1
  Cd  Cd5  1  0.999856  0.754863  0.000000  1
  In  In6  1  0.666353  0.333660  0.000000  1
  In  In7  1  0.333661  0.666354  0.000000  1
  In  In8  1  0.999491  0.999491  0.500000  1
