# generated using pymatgen
data_Li4Nd3Tm(Si2Sn)2
_symmetry_space_group_name_H-M   'P 1'
_cell_length_a   9.69197838
_cell_length_b   9.69197885
_cell_length_c   6.84986600
_cell_angle_alpha   90.00000000
_cell_angle_beta   90.00000000
_cell_angle_gamma   153.24767441
_symmetry_Int_Tables_number   1
_chemical_formula_structural   Li4Nd3Tm(Si2Sn)2
_chemical_formula_sum   'Li4 Nd3 Tm1 Si4 Sn2'
_cell_volume   289.63393837
_cell_formula_units_Z   1
loop_
 _symmetry_equiv_pos_site_id
 _symmetry_equiv_pos_as_xyz
  1  'x, y, z'
loop_
 _atom_site_type_symbol
 _atom_site_label
 _atom_site_symmetry_multiplicity
 _atom_site_fract_x
 _atom_site_fract_y
 _atom_site_fract_z
 _atom_site_occupancy
  Li  Li0  1  0.184792  0.815208  0.056101  1
  Li  Li1  1  0.184792  0.815208  0.443899  1
  Li  Li2  1  0.816191  0.183809  0.946552  1
  Li  Li3  1  0.816191  0.183809  0.553448  1
  Nd  Nd4  1  0.649969  0.350031  0.750000  1
  Nd  Nd5  1  0.548087  0.451913  0.250000  1
  Nd  Nd6  1  0.450143  0.549857  0.750000  1
  Tm  Tm7  1  0.351674  0.648326  0.250000  1
  Si  Si8  1  0.056636  0.943364  0.926204  1
  Si  Si9  1  0.941063  0.058937  0.075393  1
  Si  Si10  1  0.941063  0.058937  0.424607  1
  Si  Si11  1  0.056636  0.943364  0.573796  1
  Sn  Sn12  1  0.721826  0.278174  0.250000  1
  Sn  Sn13  1  0.280938  0.719062  0.750000  1
