# generated using pymatgen
data_Pr2FeSbO7
_symmetry_space_group_name_H-M   'P 1'
_cell_length_a   7.49525117
_cell_length_b   7.49525024
_cell_length_c   7.49525051
_cell_angle_alpha   120.20406845
_cell_angle_beta   119.54960731
_cell_angle_gamma   90.21438578
_symmetry_Int_Tables_number   1
_chemical_formula_structural   Pr2FeSbO7
_chemical_formula_sum   'Pr4 Fe2 Sb2 O14'
_cell_volume   298.28423102
_cell_formula_units_Z   2
loop_
 _symmetry_equiv_pos_site_id
 _symmetry_equiv_pos_as_xyz
  1  'x, y, z'
loop_
 _atom_site_type_symbol
 _atom_site_label
 _atom_site_symmetry_multiplicity
 _atom_site_fract_x
 _atom_site_fract_y
 _atom_site_fract_z
 _atom_site_occupancy
  Pr  Pr0  1  0.000000  0.000000  0.500000  1
  Pr  Pr1  1  0.000000  0.500000  0.000000  1
  Pr  Pr2  1  0.000000  0.000000  0.000000  1
  Pr  Pr3  1  0.500000  0.000000  0.500000  1
  Fe  Fe4  1  0.500000  0.500000  0.500000  1
  Fe  Fe5  1  0.500000  0.000000  0.000000  1
  Sb  Sb6  1  0.500000  0.500000  0.000000  1
  Sb  Sb7  1  0.000000  0.500000  0.500000  1
  O  O8  1  0.123873  0.873873  0.250000  1
  O  O9  1  0.876127  0.126127  0.750000  1
  O  O10  1  0.825394  0.575394  0.250000  1
  O  O11  1  0.416579  0.166579  0.250000  1
  O  O12  1  0.834624  0.176729  0.261279  1
  O  O13  1  0.415450  0.573344  0.238721  1
  O  O14  1  0.834624  0.573344  0.657895  1
  O  O15  1  0.415450  0.176729  0.842105  1
  O  O16  1  0.174606  0.424606  0.750000  1
  O  O17  1  0.583421  0.833421  0.750000  1
  O  O18  1  0.165376  0.823271  0.738721  1
  O  O19  1  0.584550  0.426656  0.761279  1
  O  O20  1  0.165376  0.426656  0.342105  1
  O  O21  1  0.584550  0.823271  0.157895  1
