# generated using pymatgen
data_Tb3Dy(WO6)2
_symmetry_space_group_name_H-M   'P 1'
_cell_length_a   5.41675400
_cell_length_b   7.73363716
_cell_length_c   11.51109280
_cell_angle_alpha   75.58010034
_cell_angle_beta   90.00000000
_cell_angle_gamma   90.00000000
_symmetry_Int_Tables_number   1
_chemical_formula_structural   Tb3Dy(WO6)2
_chemical_formula_sum   'Tb6 Dy2 W4 O24'
_cell_volume   467.02229988
_cell_formula_units_Z   2
loop_
 _symmetry_equiv_pos_site_id
 _symmetry_equiv_pos_as_xyz
  1  'x, y, z'
loop_
 _atom_site_type_symbol
 _atom_site_label
 _atom_site_symmetry_multiplicity
 _atom_site_fract_x
 _atom_site_fract_y
 _atom_site_fract_z
 _atom_site_occupancy
  Tb  Tb0  1  0.738723  0.000301  0.750110  1
  Tb  Tb1  1  0.261277  0.000301  0.250110  1
  Tb  Tb2  1  0.186220  0.795338  0.577465  1
  Tb  Tb3  1  0.813780  0.795338  0.077465  1
  Tb  Tb4  1  0.683331  0.499628  0.750264  1
  Tb  Tb5  1  0.316669  0.499628  0.250264  1
  Dy  Dy6  1  0.186529  0.205184  0.922214  1
  Dy  Dy7  1  0.813471  0.205184  0.422214  1
  W  W8  1  0.254504  0.722966  0.885491  1
  W  W9  1  0.745496  0.722966  0.385491  1
  W  W10  1  0.254180  0.276808  0.614454  1
  W  W11  1  0.745820  0.276808  0.114454  1
  O  O12  1  0.043887  0.939651  0.895328  1
  O  O13  1  0.529239  0.848670  0.930741  1
  O  O14  1  0.956113  0.939651  0.395328  1
  O  O15  1  0.458518  0.788334  0.728529  1
  O  O16  1  0.470761  0.848670  0.430741  1
  O  O17  1  0.981959  0.709659  0.772462  1
  O  O18  1  0.541482  0.788334  0.228529  1
  O  O19  1  0.849438  0.635272  0.547615  1
  O  O20  1  0.361210  0.490238  0.886452  1
  O  O21  1  0.018041  0.709659  0.272462  1
  O  O22  1  0.362209  0.508999  0.613222  1
  O  O23  1  0.850674  0.364246  0.952357  1
  O  O24  1  0.150562  0.635272  0.047615  1
  O  O25  1  0.638790  0.490238  0.386452  1
  O  O26  1  0.982866  0.290497  0.728293  1
  O  O27  1  0.637791  0.508999  0.113222  1
  O  O28  1  0.149326  0.364246  0.452357  1
  O  O29  1  0.457616  0.210903  0.771854  1
  O  O30  1  0.017134  0.290497  0.228293  1
  O  O31  1  0.529392  0.151725  0.568877  1
  O  O32  1  0.542384  0.210903  0.271854  1
  O  O33  1  0.041910  0.061579  0.604273  1
  O  O34  1  0.470608  0.151725  0.068877  1
  O  O35  1  0.958090  0.061579  0.104273  1
