# generated using pymatgen
data_K3Si2Pt7
_symmetry_space_group_name_H-M   'P 1'
_cell_length_a   8.81166692
_cell_length_b   8.81166706
_cell_length_c   8.81166748
_cell_angle_alpha   38.32398544
_cell_angle_beta   38.32398428
_cell_angle_gamma   38.32398325
_symmetry_Int_Tables_number   1
_chemical_formula_structural   K3Si2Pt7
_chemical_formula_sum   'K3 Si2 Pt7'
_cell_volume   236.30474987
_cell_formula_units_Z   1
loop_
 _symmetry_equiv_pos_site_id
 _symmetry_equiv_pos_as_xyz
  1  'x, y, z'
loop_
 _atom_site_type_symbol
 _atom_site_label
 _atom_site_symmetry_multiplicity
 _atom_site_fract_x
 _atom_site_fract_y
 _atom_site_fract_z
 _atom_site_occupancy
  K  K0  1  0.358017  0.358017  0.358017  1
  K  K1  1  0.500000  0.500000  0.500000  1
  K  K2  1  0.641982  0.641982  0.641982  1
  Si  Si3  1  0.168598  0.168598  0.168598  1
  Si  Si4  1  0.831402  0.831402  0.831402  1
  Pt  Pt5  1  0.000000  0.000000  0.000000  1
  Pt  Pt6  1  0.577550  0.067599  0.067600  1
  Pt  Pt7  1  0.067599  0.577550  0.067600  1
  Pt  Pt8  1  0.932401  0.932401  0.422449  1
  Pt  Pt9  1  0.067599  0.067599  0.577551  1
  Pt  Pt10  1  0.932401  0.422450  0.932400  1
  Pt  Pt11  1  0.422450  0.932401  0.932400  1
