# generated using pymatgen
data_DyTh3(Sn5Rh3)2
_symmetry_space_group_name_H-M   'P 1'
_cell_length_a   13.56275374
_cell_length_b   13.56275410
_cell_length_c   7.33017031
_cell_angle_alpha   89.91047056
_cell_angle_beta   90.08952857
_cell_angle_gamma   160.86352457
_symmetry_Int_Tables_number   1
_chemical_formula_structural   DyTh3(Sn5Rh3)2
_chemical_formula_sum   'Dy1 Th3 Sn10 Rh6'
_cell_volume   442.02205428
_cell_formula_units_Z   1
loop_
 _symmetry_equiv_pos_site_id
 _symmetry_equiv_pos_as_xyz
  1  'x, y, z'
loop_
 _atom_site_type_symbol
 _atom_site_label
 _atom_site_symmetry_multiplicity
 _atom_site_fract_x
 _atom_site_fract_y
 _atom_site_fract_z
 _atom_site_occupancy
  Dy  Dy0  1  0.525671  0.474329  0.236626  1
  Th  Th1  1  0.171495  0.828505  0.757662  1
  Th  Th2  1  0.828053  0.171947  0.257731  1
  Th  Th3  1  0.475034  0.524966  0.734938  1
  Sn  Sn4  1  0.877976  0.122024  0.731524  1
  Sn  Sn5  1  0.120237  0.879763  0.234501  1
  Sn  Sn6  1  0.704770  0.295230  0.052320  1
  Sn  Sn7  1  0.294917  0.705083  0.551457  1
  Sn  Sn8  1  0.596015  0.403985  0.608363  1
  Sn  Sn9  1  0.404492  0.595508  0.113023  1
  Sn  Sn10  1  0.953542  0.046458  0.391611  1
  Sn  Sn11  1  0.048575  0.951425  0.902728  1
  Sn  Sn12  1  0.290253  0.709747  0.976012  1
  Sn  Sn13  1  0.709239  0.290761  0.475104  1
  Rh  Rh14  1  0.050355  0.949645  0.517977  1
  Rh  Rh15  1  0.948956  0.051044  0.012645  1
  Rh  Rh16  1  0.776077  0.223923  0.767255  1
  Rh  Rh17  1  0.223087  0.776913  0.267365  1
  Rh  Rh18  1  0.395476  0.604524  0.485786  1
  Rh  Rh19  1  0.605779  0.394221  0.981369  1
