# generated using pymatgen
data_SmDy4(FeB3)2
_symmetry_space_group_name_H-M   'P 1'
_cell_length_a   5.40992723
_cell_length_b   5.40992704
_cell_length_c   8.25226215
_cell_angle_alpha   70.86564446
_cell_angle_beta   70.86564150
_cell_angle_gamma   59.99998612
_symmetry_Int_Tables_number   1
_chemical_formula_structural   SmDy4(FeB3)2
_chemical_formula_sum   'Sm1 Dy4 Fe2 B6'
_cell_volume   193.60284560
_cell_formula_units_Z   1
loop_
 _symmetry_equiv_pos_site_id
 _symmetry_equiv_pos_as_xyz
  1  'x, y, z'
loop_
 _atom_site_type_symbol
 _atom_site_label
 _atom_site_symmetry_multiplicity
 _atom_site_fract_x
 _atom_site_fract_y
 _atom_site_fract_z
 _atom_site_occupancy
  Sm  Sm0  1  0.000000  0.000000  0.000000  1
  Dy  Dy1  1  0.251150  0.251150  0.246550  1
  Dy  Dy2  1  0.748850  0.748850  0.753450  1
  Dy  Dy3  1  0.416475  0.416475  0.750574  1
  Dy  Dy4  1  0.583525  0.583525  0.249426  1
  Fe  Fe5  1  0.116816  0.116816  0.649553  1
  Fe  Fe6  1  0.883184  0.883184  0.350447  1
  B  B7  1  0.167763  0.832237  0.500000  1
  B  B8  1  0.832237  0.500000  0.500000  1
  B  B9  1  0.500000  0.167763  0.500000  1
  B  B10  1  0.167763  0.500000  0.500000  1
  B  B11  1  0.500000  0.832237  0.500000  1
  B  B12  1  0.832237  0.167763  0.500000  1
