# generated using pymatgen
data_LiAc2CrO6
_symmetry_space_group_name_H-M   'P 1'
_cell_length_a   5.53294703
_cell_length_b   5.60937665
_cell_length_c   5.53058370
_cell_angle_alpha   60.21888760
_cell_angle_beta   61.53598576
_cell_angle_gamma   60.23647545
_symmetry_Int_Tables_number   1
_chemical_formula_structural   LiAc2CrO6
_chemical_formula_sum   'Li1 Ac2 Cr1 O6'
_cell_volume   123.15087622
_cell_formula_units_Z   1
loop_
 _symmetry_equiv_pos_site_id
 _symmetry_equiv_pos_as_xyz
  1  'x, y, z'
loop_
 _atom_site_type_symbol
 _atom_site_label
 _atom_site_symmetry_multiplicity
 _atom_site_fract_x
 _atom_site_fract_y
 _atom_site_fract_z
 _atom_site_occupancy
  Li  Li0  1  0.301101  0.299649  0.301472  1
  Ac  Ac1  1  0.049578  0.050734  0.051890  1
  Ac  Ac2  1  0.551527  0.548476  0.549024  1
  Cr  Cr3  1  0.799960  0.800051  0.799742  1
  O  O4  1  0.030235  0.599754  0.522905  1
  O  O5  1  0.520639  0.037824  0.607035  1
  O  O6  1  0.600846  0.521889  0.042887  1
  O  O7  1  0.078524  0.564866  0.992418  1
  O  O8  1  0.569195  0.999251  0.077686  1
  O  O9  1  0.999196  0.078305  0.554939  1
