# generated using pymatgen
data_Sr5SnPt2
_symmetry_space_group_name_H-M   'P 1'
_cell_length_a   8.30144620
_cell_length_b   8.30144649
_cell_length_c   9.68405387
_cell_angle_alpha   115.37964897
_cell_angle_beta   115.37964575
_cell_angle_gamma   89.99999911
_symmetry_Int_Tables_number   1
_chemical_formula_structural   Sr5SnPt2
_chemical_formula_sum   'Sr10 Sn2 Pt4'
_cell_volume   530.78953639
_cell_formula_units_Z   2
loop_
 _symmetry_equiv_pos_site_id
 _symmetry_equiv_pos_as_xyz
  1  'x, y, z'
loop_
 _atom_site_type_symbol
 _atom_site_label
 _atom_site_symmetry_multiplicity
 _atom_site_fract_x
 _atom_site_fract_y
 _atom_site_fract_z
 _atom_site_occupancy
  Sr  Sr0  1  0.000000  0.000000  0.000000  1
  Sr  Sr1  1  0.500000  0.500000  0.000000  1
  Sr  Sr2  1  0.461794  0.305665  0.267459  1
  Sr  Sr3  1  0.961794  0.461794  0.267459  1
  Sr  Sr4  1  0.305665  0.805665  0.267459  1
  Sr  Sr5  1  0.805665  0.961794  0.267459  1
  Sr  Sr6  1  0.194335  0.038206  0.732541  1
  Sr  Sr7  1  0.694335  0.194335  0.732541  1
  Sr  Sr8  1  0.038206  0.538206  0.732541  1
  Sr  Sr9  1  0.538206  0.694335  0.732541  1
  Sn  Sn10  1  0.250000  0.250000  0.500000  1
  Sn  Sn11  1  0.750000  0.750000  0.500000  1
  Pt  Pt12  1  0.621225  0.121225  0.000000  1
  Pt  Pt13  1  0.121225  0.378777  0.000000  1
  Pt  Pt14  1  0.878777  0.621225  0.000000  1
  Pt  Pt15  1  0.378777  0.878777  0.000000  1
