# generated using pymatgen
data_NaTm6P12Rh17
_symmetry_space_group_name_H-M   'P 1'
_cell_length_a   3.91834800
_cell_length_b   11.22247300
_cell_length_c   12.76357400
_cell_angle_alpha   90.00000000
_cell_angle_beta   90.00000000
_cell_angle_gamma   90.00000000
_symmetry_Int_Tables_number   1
_chemical_formula_structural   NaTm6P12Rh17
_chemical_formula_sum   'Na1 Tm6 P12 Rh17'
_cell_volume   561.25971862
_cell_formula_units_Z   1
loop_
 _symmetry_equiv_pos_site_id
 _symmetry_equiv_pos_as_xyz
  1  'x, y, z'
loop_
 _atom_site_type_symbol
 _atom_site_label
 _atom_site_symmetry_multiplicity
 _atom_site_fract_x
 _atom_site_fract_y
 _atom_site_fract_z
 _atom_site_occupancy
  Na  Na0  1  0.500000  0.500000  0.155279  1
  Tm  Tm1  1  0.000000  0.500000  0.519656  1
  Tm  Tm2  1  0.500000  0.000000  0.478105  1
  Tm  Tm3  1  0.500000  0.815921  0.206208  1
  Tm  Tm4  1  0.500000  0.184079  0.206208  1
  Tm  Tm5  1  0.000000  0.683881  0.794685  1
  Tm  Tm6  1  0.000000  0.316119  0.794685  1
  P  P7  1  0.500000  0.500000  0.879317  1
  P  P8  1  0.000000  0.000000  0.121882  1
  P  P9  1  0.500000  0.500000  0.357274  1
  P  P10  1  0.000000  0.000000  0.646845  1
  P  P11  1  0.500000  0.314901  0.620266  1
  P  P12  1  0.500000  0.685099  0.620266  1
  P  P13  1  0.000000  0.185438  0.382805  1
  P  P14  1  0.000000  0.814562  0.382805  1
  P  P15  1  0.500000  0.848144  0.890221  1
  P  P16  1  0.500000  0.151856  0.890221  1
  P  P17  1  0.000000  0.662615  0.106743  1
  P  P18  1  0.000000  0.337385  0.106743  1
  Rh  Rh19  1  0.000000  0.000000  0.829070  1
  Rh  Rh20  1  0.500000  0.500000  0.701407  1
  Rh  Rh21  1  0.000000  0.000000  0.299591  1
  Rh  Rh22  1  0.000000  0.500000  0.980013  1
  Rh  Rh23  1  0.500000  0.000000  0.020854  1
  Rh  Rh24  1  0.500000  0.329159  0.989263  1
  Rh  Rh25  1  0.500000  0.670841  0.989263  1
  Rh  Rh26  1  0.000000  0.163778  0.004684  1
  Rh  Rh27  1  0.000000  0.836222  0.004684  1
  Rh  Rh28  1  0.500000  0.289797  0.435050  1
  Rh  Rh29  1  0.500000  0.710203  0.435050  1
  Rh  Rh30  1  0.000000  0.203040  0.571935  1
  Rh  Rh31  1  0.000000  0.796960  0.571935  1
  Rh  Rh32  1  0.500000  0.873990  0.710547  1
  Rh  Rh33  1  0.500000  0.126010  0.710547  1
  Rh  Rh34  1  0.000000  0.628769  0.292946  1
  Rh  Rh35  1  0.000000  0.371231  0.292946  1
