# generated using pymatgen
data_CeY3AgIr
_symmetry_space_group_name_H-M   'P 1'
_cell_length_a   9.60302646
_cell_length_b   9.60302614
_cell_length_c   9.60302700
_cell_angle_alpha   60.00000047
_cell_angle_beta   60.00000158
_cell_angle_gamma   59.99999994
_symmetry_Int_Tables_number   1
_chemical_formula_structural   CeY3AgIr
_chemical_formula_sum   'Ce4 Y12 Ag4 Ir4'
_cell_volume   626.19471084
_cell_formula_units_Z   4
loop_
 _symmetry_equiv_pos_site_id
 _symmetry_equiv_pos_as_xyz
  1  'x, y, z'
loop_
 _atom_site_type_symbol
 _atom_site_label
 _atom_site_symmetry_multiplicity
 _atom_site_fract_x
 _atom_site_fract_y
 _atom_site_fract_z
 _atom_site_occupancy
  Ce  Ce0  1  0.350626  0.350626  0.350626  1
  Ce  Ce1  1  0.350626  0.350626  0.948122  1
  Ce  Ce2  1  0.350626  0.948122  0.350626  1
  Ce  Ce3  1  0.948122  0.350626  0.350626  1
  Y  Y4  1  0.810107  0.189893  0.189893  1
  Y  Y5  1  0.189893  0.810107  0.810107  1
  Y  Y6  1  0.189893  0.810107  0.189893  1
  Y  Y7  1  0.810107  0.189893  0.810107  1
  Y  Y8  1  0.189893  0.189893  0.810107  1
  Y  Y9  1  0.810107  0.810107  0.189893  1
  Y  Y10  1  0.937503  0.562497  0.562497  1
  Y  Y11  1  0.562497  0.937503  0.937503  1
  Y  Y12  1  0.562497  0.937503  0.562497  1
  Y  Y13  1  0.937503  0.562497  0.937503  1
  Y  Y14  1  0.562497  0.562497  0.937503  1
  Y  Y15  1  0.937503  0.937503  0.562497  1
  Ag  Ag16  1  0.582330  0.582330  0.582330  1
  Ag  Ag17  1  0.582330  0.582330  0.253010  1
  Ag  Ag18  1  0.582330  0.253010  0.582330  1
  Ag  Ag19  1  0.253010  0.582330  0.582330  1
  Ir  Ir20  1  0.144066  0.144066  0.144066  1
  Ir  Ir21  1  0.144066  0.144066  0.567803  1
  Ir  Ir22  1  0.144066  0.567803  0.144066  1
  Ir  Ir23  1  0.567803  0.144066  0.144066  1
