# generated using pymatgen
data_Dy8Ho2Ir5Pt
_symmetry_space_group_name_H-M   'P 1'
_cell_length_a   10.94028881
_cell_length_b   10.94198700
_cell_length_c   6.34370502
_cell_angle_alpha   90.00000000
_cell_angle_beta   89.96315966
_cell_angle_gamma   90.00000000
_symmetry_Int_Tables_number   1
_chemical_formula_structural   Dy8Ho2Ir5Pt
_chemical_formula_sum   'Dy16 Ho4 Ir10 Pt2'
_cell_volume   759.39524219
_cell_formula_units_Z   2
loop_
 _symmetry_equiv_pos_site_id
 _symmetry_equiv_pos_as_xyz
  1  'x, y, z'
loop_
 _atom_site_type_symbol
 _atom_site_label
 _atom_site_symmetry_multiplicity
 _atom_site_fract_x
 _atom_site_fract_y
 _atom_site_fract_z
 _atom_site_occupancy
  Dy  Dy0  1  0.291241  0.088321  0.376248  1
  Dy  Dy1  1  0.291241  0.911679  0.876248  1
  Dy  Dy2  1  0.705355  0.090095  0.874164  1
  Dy  Dy3  1  0.705355  0.909905  0.374164  1
  Dy  Dy4  1  0.584592  0.790843  0.878615  1
  Dy  Dy5  1  0.584592  0.209157  0.378615  1
  Dy  Dy6  1  0.410770  0.791311  0.377721  1
  Dy  Dy7  1  0.410770  0.208689  0.877721  1
  Dy  Dy8  1  0.208986  0.411477  0.622061  1
  Dy  Dy9  1  0.208986  0.588523  0.122061  1
  Dy  Dy10  1  0.790749  0.414602  0.122420  1
  Dy  Dy11  1  0.790749  0.585398  0.622420  1
  Dy  Dy12  1  0.913396  0.707122  0.126565  1
  Dy  Dy13  1  0.913396  0.292878  0.626565  1
  Dy  Dy14  1  0.091633  0.706806  0.622292  1
  Dy  Dy15  1  0.091633  0.293194  0.122292  1
  Ho  Ho16  1  0.003065  0.999587  0.499975  1
  Ho  Ho17  1  0.003065  0.000413  0.999975  1
  Ho  Ho18  1  0.499794  0.499583  0.999853  1
  Ho  Ho19  1  0.499794  0.500417  0.499853  1
  Ir  Ir20  1  0.152756  0.153616  0.750061  1
  Ir  Ir21  1  0.152756  0.846384  0.250061  1
  Ir  Ir22  1  0.654699  0.346077  0.749548  1
  Ir  Ir23  1  0.654699  0.653923  0.249548  1
  Ir  Ir24  1  0.346836  0.346417  0.250405  1
  Ir  Ir25  1  0.346836  0.653583  0.750405  1
  Ir  Ir26  1  0.500698  0.999808  0.123541  1
  Ir  Ir27  1  0.500698  0.000192  0.623541  1
  Ir  Ir28  1  0.999553  0.500203  0.876768  1
  Ir  Ir29  1  0.999553  0.499797  0.376768  1
  Pt  Pt30  1  0.845879  0.153161  0.249762  1
  Pt  Pt31  1  0.845879  0.846839  0.749762  1
