# generated using pymatgen
data_Ho4Er12Cd4Ni3Ru
_symmetry_space_group_name_H-M   'P 1'
_cell_length_a   9.51081714
_cell_length_b   9.50758711
_cell_length_c   9.50632513
_cell_angle_alpha   59.64589144
_cell_angle_beta   59.64546440
_cell_angle_gamma   59.66034833
_symmetry_Int_Tables_number   1
_chemical_formula_structural   Ho4Er12Cd4Ni3Ru
_chemical_formula_sum   'Ho4 Er12 Cd4 Ni3 Ru1'
_cell_volume   603.00908130
_cell_formula_units_Z   1
loop_
 _symmetry_equiv_pos_site_id
 _symmetry_equiv_pos_as_xyz
  1  'x, y, z'
loop_
 _atom_site_type_symbol
 _atom_site_label
 _atom_site_symmetry_multiplicity
 _atom_site_fract_x
 _atom_site_fract_y
 _atom_site_fract_z
 _atom_site_occupancy
  Ho  Ho0  1  0.565819  0.935610  0.565847  1
  Ho  Ho1  1  0.937829  0.559762  0.937748  1
  Ho  Ho2  1  0.565777  0.565845  0.935617  1
  Ho  Ho3  1  0.937770  0.937692  0.559801  1
  Er  Er4  1  0.347044  0.347353  0.347590  1
  Er  Er5  1  0.350999  0.350577  0.954160  1
  Er  Er6  1  0.350890  0.954220  0.350641  1
  Er  Er7  1  0.953870  0.350922  0.351110  1
  Er  Er8  1  0.810872  0.187872  0.187852  1
  Er  Er9  1  0.186818  0.811771  0.811612  1
  Er  Er10  1  0.187876  0.810879  0.187823  1
  Er  Er11  1  0.811807  0.186717  0.811657  1
  Er  Er12  1  0.187910  0.187914  0.810768  1
  Er  Er13  1  0.811747  0.811712  0.186659  1
  Er  Er14  1  0.935878  0.565518  0.565532  1
  Er  Er15  1  0.559487  0.937986  0.937975  1
  Cd  Cd16  1  0.580572  0.580299  0.580250  1
  Cd  Cd17  1  0.580061  0.580331  0.255663  1
  Cd  Cd18  1  0.580125  0.255613  0.580290  1
  Cd  Cd19  1  0.255484  0.580184  0.580106  1
  Ni  Ni20  1  0.141595  0.141726  0.574821  1
  Ni  Ni21  1  0.141611  0.574750  0.141739  1
  Ni  Ni22  1  0.574882  0.141611  0.141621  1
  Ru  Ru23  1  0.143277  0.143134  0.143119  1
