# generated using pymatgen
data_La8SmLuIr6
_symmetry_space_group_name_H-M   'P 1'
_cell_length_a   11.36414500
_cell_length_b   11.36414500
_cell_length_c   6.53992100
_cell_angle_alpha   90.00000000
_cell_angle_beta   90.00000000
_cell_angle_gamma   90.00000000
_symmetry_Int_Tables_number   1
_chemical_formula_structural   La8SmLuIr6
_chemical_formula_sum   'La16 Sm2 Lu2 Ir12'
_cell_volume   844.59019458
_cell_formula_units_Z   2
loop_
 _symmetry_equiv_pos_site_id
 _symmetry_equiv_pos_as_xyz
  1  'x, y, z'
loop_
 _atom_site_type_symbol
 _atom_site_label
 _atom_site_symmetry_multiplicity
 _atom_site_fract_x
 _atom_site_fract_y
 _atom_site_fract_z
 _atom_site_occupancy
  La  La0  1  0.285929  0.087931  0.389698  1
  La  La1  1  0.285929  0.912069  0.889698  1
  La  La2  1  0.714071  0.087931  0.889698  1
  La  La3  1  0.714071  0.912069  0.389698  1
  La  La4  1  0.588119  0.788726  0.888919  1
  La  La5  1  0.588119  0.211274  0.388919  1
  La  La6  1  0.411881  0.788726  0.388919  1
  La  La7  1  0.411881  0.211274  0.888919  1
  La  La8  1  0.211274  0.411881  0.611081  1
  La  La9  1  0.211274  0.588119  0.111081  1
  La  La10  1  0.788726  0.411881  0.111081  1
  La  La11  1  0.788726  0.588119  0.611081  1
  La  La12  1  0.912069  0.714071  0.110302  1
  La  La13  1  0.912069  0.285929  0.610302  1
  La  La14  1  0.087931  0.714071  0.610302  1
  La  La15  1  0.087931  0.285929  0.110302  1
  Sm  Sm16  1  0.500000  0.500000  0.000000  1
  Sm  Sm17  1  0.500000  0.500000  0.500000  1
  Lu  Lu18  1  0.000000  0.000000  0.500000  1
  Lu  Lu19  1  0.000000  0.000000  0.000000  1
  Ir  Ir20  1  0.854333  0.145667  0.250000  1
  Ir  Ir21  1  0.854333  0.854333  0.750000  1
  Ir  Ir22  1  0.145667  0.145667  0.750000  1
  Ir  Ir23  1  0.145667  0.854333  0.250000  1
  Ir  Ir24  1  0.651906  0.348094  0.750000  1
  Ir  Ir25  1  0.651906  0.651906  0.250000  1
  Ir  Ir26  1  0.348094  0.348094  0.250000  1
  Ir  Ir27  1  0.348094  0.651906  0.750000  1
  Ir  Ir28  1  0.500000  0.000000  0.122583  1
  Ir  Ir29  1  0.500000  0.000000  0.622583  1
  Ir  Ir30  1  0.000000  0.500000  0.877417  1
  Ir  Ir31  1  0.000000  0.500000  0.377417  1
