# generated using pymatgen
data_HoLu19Pt12
_symmetry_space_group_name_H-M   'P 1'
_cell_length_a   10.77869518
_cell_length_b   10.77976115
_cell_length_c   6.38357507
_cell_angle_alpha   89.96539331
_cell_angle_beta   90.00259470
_cell_angle_gamma   89.98809043
_symmetry_Int_Tables_number   1
_chemical_formula_structural   HoLu19Pt12
_chemical_formula_sum   'Ho1 Lu19 Pt12'
_cell_volume   741.71866821
_cell_formula_units_Z   1
loop_
 _symmetry_equiv_pos_site_id
 _symmetry_equiv_pos_as_xyz
  1  'x, y, z'
loop_
 _atom_site_type_symbol
 _atom_site_label
 _atom_site_symmetry_multiplicity
 _atom_site_fract_x
 _atom_site_fract_y
 _atom_site_fract_z
 _atom_site_occupancy
  Ho  Ho0  1  0.087449  0.290955  0.123712  1
  Lu  Lu1  1  0.292580  0.086505  0.377407  1
  Lu  Lu2  1  0.292064  0.912815  0.877397  1
  Lu  Lu3  1  0.707927  0.087191  0.876855  1
  Lu  Lu4  1  0.707883  0.912728  0.377247  1
  Lu  Lu5  1  0.587185  0.791987  0.877360  1
  Lu  Lu6  1  0.587195  0.208011  0.377171  1
  Lu  Lu7  1  0.412865  0.792000  0.377176  1
  Lu  Lu8  1  0.412893  0.207946  0.877021  1
  Lu  Lu9  1  0.208229  0.413243  0.622780  1
  Lu  Lu10  1  0.207989  0.587921  0.122882  1
  Lu  Lu11  1  0.791507  0.413121  0.122905  1
  Lu  Lu12  1  0.791781  0.587285  0.622956  1
  Lu  Lu13  1  0.912660  0.707960  0.123085  1
  Lu  Lu14  1  0.912184  0.292177  0.622877  1
  Lu  Lu15  1  0.087421  0.708184  0.622964  1
  Lu  Lu16  1  0.999771  0.999780  0.499968  1
  Lu  Lu17  1  0.999628  0.999209  0.999503  1
  Lu  Lu18  1  0.499968  0.500067  0.999688  1
  Lu  Lu19  1  0.500252  0.500089  0.500106  1
  Pt  Pt20  1  0.844692  0.153240  0.250576  1
  Pt  Pt21  1  0.845810  0.845839  0.750029  1
  Pt  Pt22  1  0.154640  0.152913  0.747246  1
  Pt  Pt23  1  0.153999  0.846092  0.250022  1
  Pt  Pt24  1  0.654011  0.345938  0.750080  1
  Pt  Pt25  1  0.653993  0.654119  0.249847  1
  Pt  Pt26  1  0.347905  0.346196  0.250974  1
  Pt  Pt27  1  0.346046  0.654282  0.750125  1
  Pt  Pt28  1  0.500250  0.999930  0.118898  1
  Pt  Pt29  1  0.500098  0.999840  0.618966  1
  Pt  Pt30  1  0.999492  0.501328  0.880313  1
  Pt  Pt31  1  0.999634  0.501110  0.381864  1
