# generated using pymatgen
data_Li2Tc2(OF2)3
_symmetry_space_group_name_H-M   'P 1'
_cell_length_a   5.52597500
_cell_length_b   5.52597462
_cell_length_c   20.92986000
_cell_angle_alpha   90.00000000
_cell_angle_beta   90.00000000
_cell_angle_gamma   120.00000828
_symmetry_Int_Tables_number   1
_chemical_formula_structural   Li2Tc2(OF2)3
_chemical_formula_sum   'Li6 Tc6 O9 F18'
_cell_volume   553.49629780
_cell_formula_units_Z   3
loop_
 _symmetry_equiv_pos_site_id
 _symmetry_equiv_pos_as_xyz
  1  'x, y, z'
loop_
 _atom_site_type_symbol
 _atom_site_label
 _atom_site_symmetry_multiplicity
 _atom_site_fract_x
 _atom_site_fract_y
 _atom_site_fract_z
 _atom_site_occupancy
  Li  Li0  1  0.436851  0.445179  0.143340  1
  Li  Li1  1  0.991673  0.554821  0.523326  1
  Li  Li2  1  0.445179  0.436851  0.856660  1
  Li  Li3  1  0.554821  0.991673  0.476674  1
  Li  Li4  1  0.563149  0.008327  0.189993  1
  Li  Li5  1  0.008327  0.563149  0.810007  1
  Tc  Tc6  1  0.773404  0.106016  0.043725  1
  Tc  Tc7  1  0.667388  0.893984  0.622942  1
  Tc  Tc8  1  0.226596  0.332612  0.289609  1
  Tc  Tc9  1  0.893984  0.667388  0.377058  1
  Tc  Tc10  1  0.332612  0.226596  0.710391  1
  Tc  Tc11  1  0.106016  0.773404  0.956275  1
  O  O12  1  0.090300  0.000000  0.333333  1
  O  O13  1  0.909700  0.909700  0.000000  1
  O  O14  1  0.505141  0.578459  0.673693  1
  O  O15  1  0.578459  0.505141  0.326307  1
  O  O16  1  0.421541  0.926682  0.007027  1
  O  O17  1  0.000000  0.090300  0.666667  1
  O  O18  1  0.926682  0.421541  0.992973  1
  O  O19  1  0.073318  0.494859  0.340360  1
  O  O20  1  0.494859  0.073318  0.659640  1
  F  F21  1  0.359101  0.703883  0.559145  1
  F  F22  1  0.159931  0.877027  0.759739  1
  F  F23  1  0.282905  0.122973  0.906928  1
  F  F24  1  0.825153  0.634846  0.885019  1
  F  F25  1  0.655218  0.296117  0.107522  1
  F  F26  1  0.634846  0.825153  0.114981  1
  F  F27  1  0.190306  0.365154  0.781648  1
  F  F28  1  0.174847  0.809694  0.448314  1
  F  F29  1  0.640899  0.344782  0.774188  1
  F  F30  1  0.717095  0.840069  0.426406  1
  F  F31  1  0.365154  0.190306  0.218352  1
  F  F32  1  0.122973  0.282905  0.093072  1
  F  F33  1  0.877027  0.159931  0.240261  1
  F  F34  1  0.344782  0.640899  0.225812  1
  F  F35  1  0.296117  0.655218  0.892478  1
  F  F36  1  0.703883  0.359101  0.440855  1
  F  F37  1  0.809694  0.174847  0.551686  1
  F  F38  1  0.840069  0.717095  0.573594  1
