# generated using pymatgen
data_TbTmCuSi2Ru
_symmetry_space_group_name_H-M   'P 1'
_cell_length_a   4.20729000
_cell_length_b   6.94403077
_cell_length_c   7.33156385
_cell_angle_alpha   91.68144682
_cell_angle_beta   90.00000000
_cell_angle_gamma   90.00000000
_symmetry_Int_Tables_number   1
_chemical_formula_structural   TbTmCuSi2Ru
_chemical_formula_sum   'Tb2 Tm2 Cu2 Si4 Ru2'
_cell_volume   214.10344947
_cell_formula_units_Z   2
loop_
 _symmetry_equiv_pos_site_id
 _symmetry_equiv_pos_as_xyz
  1  'x, y, z'
loop_
 _atom_site_type_symbol
 _atom_site_label
 _atom_site_symmetry_multiplicity
 _atom_site_fract_x
 _atom_site_fract_y
 _atom_site_fract_z
 _atom_site_occupancy
  Tb  Tb0  1  0.250000  0.994457  0.796716  1
  Tb  Tb1  1  0.750000  0.005543  0.203284  1
  Tm  Tm2  1  0.250000  0.492912  0.689841  1
  Tm  Tm3  1  0.750000  0.507088  0.310159  1
  Cu  Cu4  1  0.750000  0.830998  0.573003  1
  Cu  Cu5  1  0.250000  0.169002  0.426997  1
  Si  Si6  1  0.250000  0.300241  0.091393  1
  Si  Si7  1  0.750000  0.699759  0.908607  1
  Si  Si8  1  0.250000  0.791212  0.390433  1
  Si  Si9  1  0.750000  0.208788  0.609567  1
  Ru  Ru10  1  0.750000  0.348094  0.933900  1
  Ru  Ru11  1  0.250000  0.651906  0.066100  1
