# generated using pymatgen
data_Dy8Tm2Sn5Bi
_symmetry_space_group_name_H-M   'P 1'
_cell_length_a   8.98975300
_cell_length_b   8.98568763
_cell_length_c   6.50153910
_cell_angle_alpha   89.98249148
_cell_angle_beta   90.00000000
_cell_angle_gamma   120.01496362
_symmetry_Int_Tables_number   1
_chemical_formula_structural   Dy8Tm2Sn5Bi
_chemical_formula_sum   'Dy8 Tm2 Sn5 Bi1'
_cell_volume   454.75800831
_cell_formula_units_Z   1
loop_
 _symmetry_equiv_pos_site_id
 _symmetry_equiv_pos_as_xyz
  1  'x, y, z'
loop_
 _atom_site_type_symbol
 _atom_site_label
 _atom_site_symmetry_multiplicity
 _atom_site_fract_x
 _atom_site_fract_y
 _atom_site_fract_z
 _atom_site_occupancy
  Dy  Dy0  1  0.994779  0.757409  0.749987  1
  Dy  Dy1  1  0.000365  0.239401  0.249958  1
  Dy  Dy2  1  0.760964  0.760599  0.250042  1
  Dy  Dy3  1  0.764344  0.000000  0.750000  1
  Dy  Dy4  1  0.237370  0.242591  0.750013  1
  Dy  Dy5  1  0.238020  0.000000  0.250000  1
  Dy  Dy6  1  0.669707  0.337121  0.498348  1
  Dy  Dy7  1  0.332586  0.662879  0.001652  1
  Tm  Tm8  1  0.332534  0.662689  0.498212  1
  Tm  Tm9  1  0.669845  0.337311  0.001788  1
  Sn  Sn10  1  0.395661  0.394426  0.249993  1
  Sn  Sn11  1  0.001234  0.605574  0.250007  1
  Sn  Sn12  1  0.999663  0.395921  0.750015  1
  Sn  Sn13  1  0.603740  0.604079  0.749985  1
  Sn  Sn14  1  0.604993  0.000000  0.250000  1
  Bi  Bi15  1  0.394195  0.000000  0.750000  1
