# generated using pymatgen
data_Yb2Lu2Al13Si5Ir6
_symmetry_space_group_name_H-M   'P 1'
_cell_length_a   7.48292367
_cell_length_b   7.45118367
_cell_length_c   9.34696529
_cell_angle_alpha   89.97669396
_cell_angle_beta   90.04980759
_cell_angle_gamma   119.93943544
_symmetry_Int_Tables_number   1
_chemical_formula_structural   Yb2Lu2Al13Si5Ir6
_chemical_formula_sum   'Yb2 Lu2 Al13 Si5 Ir6'
_cell_volume   451.60880789
_cell_formula_units_Z   1
loop_
 _symmetry_equiv_pos_site_id
 _symmetry_equiv_pos_as_xyz
  1  'x, y, z'
loop_
 _atom_site_type_symbol
 _atom_site_label
 _atom_site_symmetry_multiplicity
 _atom_site_fract_x
 _atom_site_fract_y
 _atom_site_fract_z
 _atom_site_occupancy
  Yb  Yb0  1  0.674948  0.007411  0.252278  1
  Yb  Yb1  1  0.319943  0.991520  0.745511  1
  Lu  Lu2  1  0.000368  0.662673  0.253056  1
  Lu  Lu3  1  0.005372  0.341122  0.749490  1
  Al  Al4  1  0.129322  0.126958  0.250260  1
  Al  Al5  1  0.871367  0.873147  0.750769  1
  Al  Al6  1  0.665221  0.997255  0.578552  1
  Al  Al7  1  0.662127  0.998131  0.923487  1
  Al  Al8  1  0.338891  0.002507  0.071891  1
  Al  Al9  1  0.336505  0.334768  0.559457  1
  Al  Al10  1  0.664635  0.669199  0.439096  1
  Al  Al11  1  0.664218  0.669116  0.059686  1
  Al  Al12  1  0.336272  0.331672  0.940398  1
  Al  Al13  1  0.336875  0.546529  0.250180  1
  Al  Al14  1  0.661297  0.449981  0.750666  1
  Al  Al15  1  0.547417  0.344984  0.250003  1
  Al  Al16  1  0.452216  0.656740  0.749473  1
  Si  Si17  1  0.000684  0.326584  0.068308  1
  Si  Si18  1  0.998419  0.671848  0.932559  1
  Si  Si19  1  0.991699  0.665873  0.572053  1
  Si  Si20  1  0.339573  0.005490  0.422542  1
  Si  Si21  1  0.002195  0.327510  0.429593  1
  Ir  Ir22  1  0.689940  0.338582  0.003172  1
  Ir  Ir23  1  0.309551  0.660732  0.998970  1
  Ir  Ir24  1  0.309780  0.670195  0.499626  1
  Ir  Ir25  1  0.683420  0.332002  0.497900  1
  Ir  Ir26  1  0.000855  0.999502  0.001150  1
  Ir  Ir27  1  0.006890  0.997974  0.499875  1
