# generated using pymatgen
data_Sm5(In2Ir)2
_symmetry_space_group_name_H-M   'P 1'
_cell_length_a   3.74799000
_cell_length_b   8.21269400
_cell_length_c   18.43491300
_cell_angle_alpha   90.00000000
_cell_angle_beta   90.00000000
_cell_angle_gamma   90.00000000
_symmetry_Int_Tables_number   1
_chemical_formula_structural   Sm5(In2Ir)2
_chemical_formula_sum   'Sm10 In8 Ir4'
_cell_volume   567.44680809
_cell_formula_units_Z   2
loop_
 _symmetry_equiv_pos_site_id
 _symmetry_equiv_pos_as_xyz
  1  'x, y, z'
loop_
 _atom_site_type_symbol
 _atom_site_label
 _atom_site_symmetry_multiplicity
 _atom_site_fract_x
 _atom_site_fract_y
 _atom_site_fract_z
 _atom_site_occupancy
  Sm  Sm0  1  0.000000  0.115377  0.410168  1
  Sm  Sm1  1  0.000000  0.884623  0.589832  1
  Sm  Sm2  1  0.000000  0.384623  0.910168  1
  Sm  Sm3  1  0.000000  0.615377  0.089832  1
  Sm  Sm4  1  0.000000  0.244195  0.220537  1
  Sm  Sm5  1  0.000000  0.755805  0.779463  1
  Sm  Sm6  1  0.000000  0.255805  0.720537  1
  Sm  Sm7  1  0.000000  0.744195  0.279463  1
  Sm  Sm8  1  0.000000  0.000000  0.000000  1
  Sm  Sm9  1  0.000000  0.500000  0.500000  1
  In  In10  1  0.500000  0.428979  0.349629  1
  In  In11  1  0.500000  0.571021  0.650371  1
  In  In12  1  0.500000  0.071021  0.849629  1
  In  In13  1  0.500000  0.928979  0.150371  1
  In  In14  1  0.500000  0.292885  0.068188  1
  In  In15  1  0.500000  0.707115  0.931812  1
  In  In16  1  0.500000  0.207115  0.568188  1
  In  In17  1  0.500000  0.792885  0.431812  1
  Ir  Ir18  1  0.500000  0.016306  0.303457  1
  Ir  Ir19  1  0.500000  0.983694  0.696543  1
  Ir  Ir20  1  0.500000  0.483694  0.803457  1
  Ir  Ir21  1  0.500000  0.516306  0.196543  1
