# generated using pymatgen
data_Ti7Nb5Al8(PtN)4
_symmetry_space_group_name_H-M   'P 1'
_cell_length_a   8.26051020
_cell_length_b   8.25729896
_cell_length_c   8.26050168
_cell_angle_alpha   60.02026753
_cell_angle_beta   59.92974642
_cell_angle_gamma   59.99609642
_symmetry_Int_Tables_number   1
_chemical_formula_structural   Ti7Nb5Al8(PtN)4
_chemical_formula_sum   'Ti7 Nb5 Al8 Pt4 N4'
_cell_volume   398.25276011
_cell_formula_units_Z   1
loop_
 _symmetry_equiv_pos_site_id
 _symmetry_equiv_pos_as_xyz
  1  'x, y, z'
loop_
 _atom_site_type_symbol
 _atom_site_label
 _atom_site_symmetry_multiplicity
 _atom_site_fract_x
 _atom_site_fract_y
 _atom_site_fract_z
 _atom_site_occupancy
  Ti  Ti0  1  0.432448  0.067197  0.430861  1
  Ti  Ti1  1  0.179710  0.820072  0.181393  1
  Ti  Ti2  1  0.180118  0.820158  0.817578  1
  Ti  Ti3  1  0.818890  0.180168  0.181963  1
  Ti  Ti4  1  0.819461  0.179931  0.818694  1
  Ti  Ti5  1  0.433633  0.430442  0.066698  1
  Ti  Ti6  1  0.180266  0.180445  0.819093  1
  Nb  Nb7  1  0.817717  0.819402  0.181324  1
  Nb  Nb8  1  0.066201  0.430617  0.431897  1
  Nb  Nb9  1  0.434405  0.067805  0.067737  1
  Nb  Nb10  1  0.067888  0.071221  0.431764  1
  Nb  Nb11  1  0.067990  0.431141  0.070861  1
  Al  Al12  1  0.416686  0.752972  0.415907  1
  Al  Al13  1  0.835190  0.834449  0.496375  1
  Al  Al14  1  0.494623  0.835709  0.835196  1
  Al  Al15  1  0.834820  0.835472  0.833973  1
  Al  Al16  1  0.749124  0.417341  0.416970  1
  Al  Al17  1  0.415274  0.414388  0.415302  1
  Al  Al18  1  0.416354  0.415984  0.752233  1
  Al  Al19  1  0.836013  0.493953  0.834534  1
  Pt  Pt20  1  0.622907  0.125210  0.623435  1
  Pt  Pt21  1  0.622146  0.622036  0.124296  1
  Pt  Pt22  1  0.126520  0.624388  0.624418  1
  Pt  Pt23  1  0.620946  0.625774  0.630283  1
  N  N24  1  0.134883  0.630102  0.118198  1
  N  N25  1  0.128517  0.119866  0.634124  1
  N  N26  1  0.625144  0.133259  0.125425  1
  N  N27  1  0.122125  0.120498  0.119466  1
