# generated using pymatgen
data_La4Al3PtI2
_symmetry_space_group_name_H-M   'P 1'
_cell_length_a   4.44902100
_cell_length_b   4.44902157
_cell_length_c   17.47590300
_cell_angle_alpha   90.00000000
_cell_angle_beta   90.00000000
_cell_angle_gamma   120.00001807
_symmetry_Int_Tables_number   1
_chemical_formula_structural   La4Al3PtI2
_chemical_formula_sum   'La4 Al3 Pt1 I2'
_cell_volume   299.57056955
_cell_formula_units_Z   1
loop_
 _symmetry_equiv_pos_site_id
 _symmetry_equiv_pos_as_xyz
  1  'x, y, z'
loop_
 _atom_site_type_symbol
 _atom_site_label
 _atom_site_symmetry_multiplicity
 _atom_site_fract_x
 _atom_site_fract_y
 _atom_site_fract_z
 _atom_site_occupancy
  La  La0  1  0.000000  0.000000  0.396005  1
  La  La1  1  0.000000  0.000000  0.879704  1
  La  La2  1  0.000000  0.000000  0.606503  1
  La  La3  1  0.000000  0.000000  0.119818  1
  Al  Al4  1  0.333333  0.666667  0.993511  1
  Al  Al5  1  0.333333  0.666667  0.503247  1
  Al  Al6  1  0.666667  0.333333  0.006063  1
  Pt  Pt7  1  0.666667  0.333333  0.496628  1
  I  I8  1  0.333333  0.666667  0.249265  1
  I  I9  1  0.666667  0.333333  0.749256  1
