# generated using pymatgen
data_HoTm11Tc4
_symmetry_space_group_name_H-M   'P 1'
_cell_length_a   6.15373600
_cell_length_b   7.38943960
_cell_length_c   9.00464900
_cell_angle_alpha   90.00000000
_cell_angle_beta   90.00000000
_cell_angle_gamma   90.05653251
_symmetry_Int_Tables_number   1
_chemical_formula_structural   HoTm11Tc4
_chemical_formula_sum   'Ho1 Tm11 Tc4'
_cell_volume   409.46514729
_cell_formula_units_Z   1
loop_
 _symmetry_equiv_pos_site_id
 _symmetry_equiv_pos_as_xyz
  1  'x, y, z'
loop_
 _atom_site_type_symbol
 _atom_site_label
 _atom_site_symmetry_multiplicity
 _atom_site_fract_x
 _atom_site_fract_y
 _atom_site_fract_z
 _atom_site_occupancy
  Ho  Ho0  1  0.624560  0.039855  0.250000  1
  Tm  Tm1  1  0.125849  0.459338  0.750000  1
  Tm  Tm2  1  0.656758  0.325836  0.937254  1
  Tm  Tm3  1  0.375302  0.960673  0.750000  1
  Tm  Tm4  1  0.874804  0.539703  0.250000  1
  Tm  Tm5  1  0.155749  0.175478  0.438194  1
  Tm  Tm6  1  0.843975  0.823706  0.562765  1
  Tm  Tm7  1  0.155749  0.175478  0.061806  1
  Tm  Tm8  1  0.843975  0.823706  0.937235  1
  Tm  Tm9  1  0.656758  0.325836  0.562746  1
  Tm  Tm10  1  0.342797  0.675171  0.061989  1
  Tm  Tm11  1  0.342797  0.675171  0.438011  1
  Tc  Tc12  1  0.543056  0.616571  0.750000  1
  Tc  Tc13  1  0.956600  0.115770  0.750000  1
  Tc  Tc14  1  0.044842  0.883451  0.250000  1
  Tc  Tc15  1  0.456431  0.384262  0.250000  1
