# generated using pymatgen
data_Er3Tm9InCo5
_symmetry_space_group_name_H-M   'P 1'
_cell_length_a   8.16334779
_cell_length_b   8.16334788
_cell_length_c   8.16237356
_cell_angle_alpha   111.05652932
_cell_angle_beta   110.83891994
_cell_angle_gamma   106.56210521
_symmetry_Int_Tables_number   1
_chemical_formula_structural   Er3Tm9InCo5
_chemical_formula_sum   'Er3 Tm9 In1 Co5'
_cell_volume   417.89350594
_cell_formula_units_Z   1
loop_
 _symmetry_equiv_pos_site_id
 _symmetry_equiv_pos_as_xyz
  1  'x, y, z'
loop_
 _atom_site_type_symbol
 _atom_site_label
 _atom_site_symmetry_multiplicity
 _atom_site_fract_x
 _atom_site_fract_y
 _atom_site_fract_z
 _atom_site_occupancy
  Er  Er0  1  0.287797  0.185619  0.473416  1
  Er  Er1  1  0.712484  0.814496  0.526980  1
  Er  Er2  1  0.287519  0.814239  0.101757  1
  Tm  Tm3  1  0.712569  0.185612  0.898181  1
  Tm  Tm4  1  0.619214  0.313930  0.304963  1
  Tm  Tm5  1  0.380938  0.686235  0.694884  1
  Tm  Tm6  1  0.008651  0.313947  0.694884  1
  Tm  Tm7  1  0.991033  0.685748  0.304963  1
  Tm  Tm8  1  0.212813  0.405252  0.191955  1
  Tm  Tm9  1  0.786737  0.594256  0.807801  1
  Tm  Tm10  1  0.213546  0.021064  0.807801  1
  Tm  Tm11  1  0.786702  0.979142  0.191955  1
  In  In12  1  0.500024  0.500009  0.000033  1
  Co  Co13  1  0.999767  0.376744  0.376511  1
  Co  Co14  1  0.000017  0.623181  0.623197  1
  Co  Co15  1  0.387354  0.887395  0.500489  1
  Co  Co16  1  0.613094  0.113135  0.500489  1
  Co  Co17  1  0.999742  0.999996  0.999738  1
