# generated using pymatgen
data_Cs3Zr7SiCl20
_symmetry_space_group_name_H-M   'P 1'
_cell_length_a   14.03645375
_cell_length_b   14.03645436
_cell_length_c   14.03645500
_cell_angle_alpha   55.84815361
_cell_angle_beta   55.84814702
_cell_angle_gamma   55.84815021
_symmetry_Int_Tables_number   1
_chemical_formula_structural   Cs3Zr7SiCl20
_chemical_formula_sum   'Cs6 Zr14 Si2 Cl40'
_cell_volume   1767.27753412
_cell_formula_units_Z   2
loop_
 _symmetry_equiv_pos_site_id
 _symmetry_equiv_pos_as_xyz
  1  'x, y, z'
loop_
 _atom_site_type_symbol
 _atom_site_label
 _atom_site_symmetry_multiplicity
 _atom_site_fract_x
 _atom_site_fract_y
 _atom_site_fract_z
 _atom_site_occupancy
  Cs  Cs0  1  0.500000  0.000000  0.500000  1
  Cs  Cs1  1  0.000000  0.500000  0.500000  1
  Cs  Cs2  1  0.500000  0.000000  0.000000  1
  Cs  Cs3  1  0.500000  0.500000  0.000000  1
  Cs  Cs4  1  0.000000  0.000000  0.500000  1
  Cs  Cs5  1  0.000000  0.500000  0.000000  1
  Zr  Zr6  1  0.315666  0.446614  0.617439  1
  Zr  Zr7  1  0.382561  0.684334  0.553386  1
  Zr  Zr8  1  0.553386  0.382561  0.684334  1
  Zr  Zr9  1  0.946614  0.815666  0.117439  1
  Zr  Zr10  1  0.250000  0.250000  0.250000  1
  Zr  Zr11  1  0.617439  0.315666  0.446614  1
  Zr  Zr12  1  0.184334  0.882561  0.053386  1
  Zr  Zr13  1  0.053386  0.184334  0.882561  1
  Zr  Zr14  1  0.882561  0.053386  0.184334  1
  Zr  Zr15  1  0.684334  0.553386  0.382561  1
  Zr  Zr16  1  0.815666  0.117439  0.946614  1
  Zr  Zr17  1  0.446614  0.617439  0.315666  1
  Zr  Zr18  1  0.117439  0.946614  0.815666  1
  Zr  Zr19  1  0.750000  0.750000  0.750000  1
  Si  Si20  1  0.000000  0.000000  0.000000  1
  Si  Si21  1  0.500000  0.500000  0.500000  1
  Cl  Cl22  1  0.857759  0.322695  0.821364  1
  Cl  Cl23  1  0.677305  0.178636  0.142241  1
  Cl  Cl24  1  0.431081  0.571043  0.751784  1
  Cl  Cl25  1  0.819819  0.819819  0.819819  1
  Cl  Cl26  1  0.428957  0.248216  0.568919  1
  Cl  Cl27  1  0.571043  0.751784  0.431081  1
  Cl  Cl28  1  0.568919  0.428957  0.248216  1
  Cl  Cl29  1  0.321364  0.822695  0.357759  1
  Cl  Cl30  1  0.251784  0.071043  0.931081  1
  Cl  Cl31  1  0.890233  0.609767  0.250000  1
  Cl  Cl32  1  0.751784  0.431081  0.571043  1
  Cl  Cl33  1  0.250000  0.432194  0.067806  1
  Cl  Cl34  1  0.432194  0.067806  0.250000  1
  Cl  Cl35  1  0.180181  0.180181  0.180181  1
  Cl  Cl36  1  0.142241  0.677305  0.178636  1
  Cl  Cl37  1  0.609767  0.250000  0.890233  1
  Cl  Cl38  1  0.932194  0.750000  0.567806  1
  Cl  Cl39  1  0.178636  0.142241  0.677305  1
  Cl  Cl40  1  0.642241  0.678636  0.177305  1
  Cl  Cl41  1  0.678636  0.177305  0.642241  1
  Cl  Cl42  1  0.068919  0.748216  0.928957  1
  Cl  Cl43  1  0.750000  0.567806  0.932194  1
  Cl  Cl44  1  0.067806  0.250000  0.432194  1
  Cl  Cl45  1  0.177305  0.642241  0.678636  1
  Cl  Cl46  1  0.567806  0.932194  0.750000  1
  Cl  Cl47  1  0.748216  0.928957  0.068919  1
  Cl  Cl48  1  0.931081  0.251784  0.071043  1
  Cl  Cl49  1  0.822695  0.357759  0.321364  1
  Cl  Cl50  1  0.319819  0.319819  0.319819  1
  Cl  Cl51  1  0.250000  0.890233  0.609767  1
  Cl  Cl52  1  0.680181  0.680181  0.680181  1
  Cl  Cl53  1  0.248216  0.568919  0.428957  1
  Cl  Cl54  1  0.109767  0.390233  0.750000  1
  Cl  Cl55  1  0.071043  0.931081  0.251784  1
  Cl  Cl56  1  0.928957  0.068919  0.748216  1
  Cl  Cl57  1  0.390233  0.750000  0.109767  1
  Cl  Cl58  1  0.750000  0.109767  0.390233  1
  Cl  Cl59  1  0.322695  0.821364  0.857759  1
  Cl  Cl60  1  0.357759  0.321364  0.822695  1
  Cl  Cl61  1  0.821364  0.857759  0.322695  1
