# generated using pymatgen
data_Nd3TiFeC6
_symmetry_space_group_name_H-M   'P 1'
_cell_length_a   8.37127100
_cell_length_b   8.37127081
_cell_length_c   5.20651800
_cell_angle_alpha   90.00000000
_cell_angle_beta   90.00000000
_cell_angle_gamma   119.99998888
_symmetry_Int_Tables_number   1
_chemical_formula_structural   Nd3TiFeC6
_chemical_formula_sum   'Nd6 Ti2 Fe2 C12'
_cell_volume   315.98091164
_cell_formula_units_Z   2
loop_
 _symmetry_equiv_pos_site_id
 _symmetry_equiv_pos_as_xyz
  1  'x, y, z'
loop_
 _atom_site_type_symbol
 _atom_site_label
 _atom_site_symmetry_multiplicity
 _atom_site_fract_x
 _atom_site_fract_y
 _atom_site_fract_z
 _atom_site_occupancy
  Nd  Nd0  1  0.614507  0.677427  0.750000  1
  Nd  Nd1  1  0.937080  0.614507  0.250000  1
  Nd  Nd2  1  0.677427  0.062920  0.250000  1
  Nd  Nd3  1  0.322573  0.937080  0.750000  1
  Nd  Nd4  1  0.062920  0.385493  0.750000  1
  Nd  Nd5  1  0.385493  0.322573  0.250000  1
  Ti  Ti6  1  0.000000  0.000000  0.500000  1
  Ti  Ti7  1  0.000000  0.000000  0.000000  1
  Fe  Fe8  1  0.666667  0.333333  0.750000  1
  Fe  Fe9  1  0.333333  0.666667  0.250000  1
  C  C10  1  0.954099  0.757767  0.750000  1
  C  C11  1  0.196332  0.954099  0.250000  1
  C  C12  1  0.757767  0.803668  0.250000  1
  C  C13  1  0.242233  0.196332  0.750000  1
  C  C14  1  0.803668  0.045901  0.750000  1
  C  C15  1  0.045901  0.242233  0.250000  1
  C  C16  1  0.859077  0.569767  0.750000  1
  C  C17  1  0.289309  0.859077  0.250000  1
  C  C18  1  0.569767  0.710691  0.250000  1
  C  C19  1  0.430233  0.289309  0.750000  1
  C  C20  1  0.140923  0.430233  0.250000  1
  C  C21  1  0.710691  0.140923  0.750000  1
