# generated using pymatgen
data_Tb3Dy5(Sc3Pt4)4
_symmetry_space_group_name_H-M   'P 1'
_cell_length_a   7.39295900
_cell_length_b   7.37222300
_cell_length_c   13.84390900
_cell_angle_alpha   90.00125859
_cell_angle_beta   90.00156496
_cell_angle_gamma   90.00102444
_symmetry_Int_Tables_number   1
_chemical_formula_structural   Tb3Dy5(Sc3Pt4)4
_chemical_formula_sum   'Tb3 Dy5 Sc12 Pt16'
_cell_volume   754.52823666
_cell_formula_units_Z   1
loop_
 _symmetry_equiv_pos_site_id
 _symmetry_equiv_pos_as_xyz
  1  'x, y, z'
loop_
 _atom_site_type_symbol
 _atom_site_label
 _atom_site_symmetry_multiplicity
 _atom_site_fract_x
 _atom_site_fract_y
 _atom_site_fract_z
 _atom_site_occupancy
  Tb  Tb0  1  0.008302  0.176011  0.095410  1
  Tb  Tb1  1  0.991651  0.824047  0.904577  1
  Tb  Tb2  1  0.491705  0.675777  0.904658  1
  Dy  Dy3  1  0.991395  0.823994  0.595399  1
  Dy  Dy4  1  0.508435  0.323906  0.095588  1
  Dy  Dy5  1  0.008597  0.176040  0.404585  1
  Dy  Dy6  1  0.508550  0.323983  0.404615  1
  Dy  Dy7  1  0.491431  0.676022  0.595404  1
  Sc  Sc8  1  0.164780  0.499016  0.749810  1
  Sc  Sc9  1  0.835025  0.500768  0.250113  1
  Sc  Sc10  1  0.335257  0.999232  0.250112  1
  Sc  Sc11  1  0.664739  0.000934  0.749803  1
  Sc  Sc12  1  0.332885  0.165270  0.623851  1
  Sc  Sc13  1  0.667127  0.834701  0.376148  1
  Sc  Sc14  1  0.167202  0.665291  0.376149  1
  Sc  Sc15  1  0.667082  0.834763  0.124053  1
  Sc  Sc16  1  0.832864  0.334661  0.623830  1
  Sc  Sc17  1  0.333100  0.165395  0.876014  1
  Sc  Sc18  1  0.832847  0.334667  0.875936  1
  Sc  Sc19  1  0.167322  0.665151  0.124034  1
  Pt  Pt20  1  0.030698  0.125965  0.749855  1
  Pt  Pt21  1  0.969267  0.874098  0.250151  1
  Pt  Pt22  1  0.469393  0.625747  0.250015  1
  Pt  Pt23  1  0.530699  0.374049  0.749827  1
  Pt  Pt24  1  0.294272  0.856597  0.749633  1
  Pt  Pt25  1  0.705452  0.143633  0.250163  1
  Pt  Pt26  1  0.205969  0.356560  0.250241  1
  Pt  Pt27  1  0.794261  0.643404  0.749612  1
  Pt  Pt28  1  0.173022  0.457981  0.543218  1
  Pt  Pt29  1  0.826982  0.542013  0.456798  1
  Pt  Pt30  1  0.326993  0.958036  0.456786  1
  Pt  Pt31  1  0.826851  0.542054  0.043339  1
  Pt  Pt32  1  0.673023  0.042026  0.543213  1
  Pt  Pt33  1  0.172816  0.457515  0.956850  1
  Pt  Pt34  1  0.672622  0.042682  0.956858  1
  Pt  Pt35  1  0.327385  0.958011  0.043353  1
