# generated using pymatgen
data_Ho6Co17Si12W
_symmetry_space_group_name_H-M   'P 1'
_cell_length_a   3.78282500
_cell_length_b   10.73531000
_cell_length_c   12.39254300
_cell_angle_alpha   90.00000000
_cell_angle_beta   90.00000000
_cell_angle_gamma   90.00000000
_symmetry_Int_Tables_number   1
_chemical_formula_structural   Ho6Co17Si12W
_chemical_formula_sum   'Ho6 Co17 Si12 W1'
_cell_volume   503.25868096
_cell_formula_units_Z   1
loop_
 _symmetry_equiv_pos_site_id
 _symmetry_equiv_pos_as_xyz
  1  'x, y, z'
loop_
 _atom_site_type_symbol
 _atom_site_label
 _atom_site_symmetry_multiplicity
 _atom_site_fract_x
 _atom_site_fract_y
 _atom_site_fract_z
 _atom_site_occupancy
  Ho  Ho0  1  0.000000  0.500000  0.527244  1
  Ho  Ho1  1  0.500000  0.000000  0.473628  1
  Ho  Ho2  1  0.500000  0.820282  0.207097  1
  Ho  Ho3  1  0.500000  0.179718  0.207097  1
  Ho  Ho4  1  0.000000  0.681791  0.797440  1
  Ho  Ho5  1  0.000000  0.318209  0.797440  1
  Co  Co6  1  0.000000  0.500000  0.984077  1
  Co  Co7  1  0.500000  0.000000  0.016764  1
  Co  Co8  1  0.500000  0.300373  0.432020  1
  Co  Co9  1  0.500000  0.699627  0.432020  1
  Co  Co10  1  0.000000  0.197588  0.571630  1
  Co  Co11  1  0.000000  0.802412  0.571630  1
  Co  Co12  1  0.500000  0.883841  0.707319  1
  Co  Co13  1  0.500000  0.116159  0.707319  1
  Co  Co14  1  0.000000  0.619284  0.292612  1
  Co  Co15  1  0.000000  0.380716  0.292612  1
  Co  Co16  1  0.500000  0.327135  0.992427  1
  Co  Co17  1  0.500000  0.672865  0.992427  1
  Co  Co18  1  0.000000  0.164667  0.002458  1
  Co  Co19  1  0.000000  0.835333  0.002458  1
  Co  Co20  1  0.000000  0.000000  0.845899  1
  Co  Co21  1  0.500000  0.500000  0.696786  1
  Co  Co22  1  0.000000  0.000000  0.302742  1
  Si  Si23  1  0.500000  0.303445  0.615810  1
  Si  Si24  1  0.500000  0.696555  0.615810  1
  Si  Si25  1  0.000000  0.196286  0.387293  1
  Si  Si26  1  0.000000  0.803714  0.387293  1
  Si  Si27  1  0.500000  0.500000  0.883953  1
  Si  Si28  1  0.000000  0.000000  0.116496  1
  Si  Si29  1  0.500000  0.855104  0.890738  1
  Si  Si30  1  0.500000  0.144896  0.890738  1
  Si  Si31  1  0.000000  0.658533  0.103159  1
  Si  Si32  1  0.000000  0.341467  0.103159  1
  Si  Si33  1  0.500000  0.500000  0.346032  1
  Si  Si34  1  0.000000  0.000000  0.660851  1
  W  W35  1  0.500000  0.500000  0.145516  1
