# generated using pymatgen
data_Y11(Fe2C3)6
_symmetry_space_group_name_H-M   'P 1'
_cell_length_a   8.81131141
_cell_length_b   8.81131128
_cell_length_c   8.81131100
_cell_angle_alpha   109.47122228
_cell_angle_beta   109.47122198
_cell_angle_gamma   109.47121309
_symmetry_Int_Tables_number   1
_chemical_formula_structural   Y11(Fe2C3)6
_chemical_formula_sum   'Y11 Fe12 C18'
_cell_volume   526.62292205
_cell_formula_units_Z   1
loop_
 _symmetry_equiv_pos_site_id
 _symmetry_equiv_pos_as_xyz
  1  'x, y, z'
loop_
 _atom_site_type_symbol
 _atom_site_label
 _atom_site_symmetry_multiplicity
 _atom_site_fract_x
 _atom_site_fract_y
 _atom_site_fract_z
 _atom_site_occupancy
  Y  Y0  1  0.250000  0.750000  0.500000  1
  Y  Y1  1  0.750000  0.250000  0.500000  1
  Y  Y2  1  0.750000  0.500000  0.250000  1
  Y  Y3  1  0.250000  0.500000  0.750000  1
  Y  Y4  1  0.500000  0.250000  0.750000  1
  Y  Y5  1  0.500000  0.750000  0.250000  1
  Y  Y6  1  0.409090  0.409090  0.409090  1
  Y  Y7  1  0.590910  0.000000  0.000000  1
  Y  Y8  1  0.000000  0.590910  0.000000  1
  Y  Y9  1  0.000000  0.000000  0.590910  1
  Y  Y10  1  0.000000  0.000000  0.000000  1
  Fe  Fe11  1  0.838071  0.641214  0.641214  1
  Fe  Fe12  1  0.161929  0.803144  0.803144  1
  Fe  Fe13  1  0.000000  0.358786  0.196856  1
  Fe  Fe14  1  0.641214  0.641214  0.838071  1
  Fe  Fe15  1  0.000000  0.196856  0.358786  1
  Fe  Fe16  1  0.803144  0.803144  0.161929  1
  Fe  Fe17  1  0.358786  0.196856  0.000000  1
  Fe  Fe18  1  0.196856  0.358786  0.000000  1
  Fe  Fe19  1  0.641214  0.838071  0.641214  1
  Fe  Fe20  1  0.196856  0.000000  0.358786  1
  Fe  Fe21  1  0.358786  0.000000  0.196856  1
  Fe  Fe22  1  0.803144  0.161929  0.803144  1
  C  C23  1  0.569200  0.569200  0.000000  1
  C  C24  1  0.430800  0.430800  0.000000  1
  C  C25  1  0.569200  0.000000  0.569200  1
  C  C26  1  0.430800  0.000000  0.430800  1
  C  C27  1  0.000000  0.569200  0.569200  1
  C  C28  1  0.000000  0.430800  0.430800  1
  C  C29  1  0.492018  0.702065  0.702065  1
  C  C30  1  0.507982  0.210048  0.210048  1
  C  C31  1  0.000000  0.297935  0.789952  1
  C  C32  1  0.702065  0.702065  0.492018  1
  C  C33  1  0.000000  0.789952  0.297935  1
  C  C34  1  0.210048  0.210048  0.507982  1
  C  C35  1  0.297935  0.789952  0.000000  1
  C  C36  1  0.789952  0.297935  0.000000  1
  C  C37  1  0.702065  0.492018  0.702065  1
  C  C38  1  0.789952  0.000000  0.297935  1
  C  C39  1  0.297935  0.000000  0.789952  1
  C  C40  1  0.210048  0.507982  0.210048  1
