# generated using pymatgen
data_BaV2Os2O11
_symmetry_space_group_name_H-M   'P 1'
_cell_length_a   5.54078183
_cell_length_b   5.54081704
_cell_length_c   9.92309829
_cell_angle_alpha   106.21301382
_cell_angle_beta   106.21362574
_cell_angle_gamma   60.01890238
_symmetry_Int_Tables_number   1
_chemical_formula_structural   BaV2Os2O11
_chemical_formula_sum   'Ba1 V2 Os2 O11'
_cell_volume   249.78559865
_cell_formula_units_Z   1
loop_
 _symmetry_equiv_pos_site_id
 _symmetry_equiv_pos_as_xyz
  1  'x, y, z'
loop_
 _atom_site_type_symbol
 _atom_site_label
 _atom_site_symmetry_multiplicity
 _atom_site_fract_x
 _atom_site_fract_y
 _atom_site_fract_z
 _atom_site_occupancy
  Ba  Ba0  1  0.000000  0.000000  0.000000  1
  V  V1  1  0.401147  0.401137  0.203407  1
  V  V2  1  0.598853  0.598863  0.796593  1
  Os  Os3  1  0.132364  0.132371  0.397005  1
  Os  Os4  1  0.867637  0.867630  0.602996  1
  O  O5  1  0.341342  0.341343  0.024024  1
  O  O6  1  0.769831  0.244726  0.259381  1
  O  O7  1  0.244712  0.769839  0.259378  1
  O  O8  1  0.244808  0.244809  0.259381  1
  O  O9  1  0.500000  0.000000  0.500000  1
  O  O10  1  0.000000  0.500000  0.500000  1
  O  O11  1  0.000000  0.000000  0.500001  1
  O  O12  1  0.755289  0.230161  0.740622  1
  O  O13  1  0.755193  0.755192  0.740619  1
  O  O14  1  0.230169  0.755275  0.740619  1
  O  O15  1  0.658658  0.658657  0.975976  1
