# generated using pymatgen
data_ErCoSbH
_symmetry_space_group_name_H-M   'P 1'
_cell_length_a   4.29502700
_cell_length_b   6.96851800
_cell_length_c   8.05830800
_cell_angle_alpha   90.00000000
_cell_angle_beta   90.00000000
_cell_angle_gamma   90.00000000
_symmetry_Int_Tables_number   1
_chemical_formula_structural   ErCoSbH
_chemical_formula_sum   'Er4 Co4 Sb4 H4'
_cell_volume   241.18494054
_cell_formula_units_Z   4
loop_
 _symmetry_equiv_pos_site_id
 _symmetry_equiv_pos_as_xyz
  1  'x, y, z'
loop_
 _atom_site_type_symbol
 _atom_site_label
 _atom_site_symmetry_multiplicity
 _atom_site_fract_x
 _atom_site_fract_y
 _atom_site_fract_z
 _atom_site_occupancy
  Er  Er0  1  0.750000  0.013200  0.688865  1
  Er  Er1  1  0.250000  0.986800  0.311135  1
  Er  Er2  1  0.250000  0.486800  0.188865  1
  Er  Er3  1  0.750000  0.513200  0.811135  1
  Co  Co4  1  0.750000  0.781854  0.094261  1
  Co  Co5  1  0.250000  0.218146  0.905739  1
  Co  Co6  1  0.250000  0.718146  0.594261  1
  Co  Co7  1  0.750000  0.281854  0.405739  1
  Sb  Sb8  1  0.750000  0.665190  0.417619  1
  Sb  Sb9  1  0.250000  0.334810  0.582381  1
  Sb  Sb10  1  0.250000  0.834810  0.917619  1
  Sb  Sb11  1  0.750000  0.165190  0.082381  1
  H  H12  1  0.250000  0.443431  0.920862  1
  H  H13  1  0.750000  0.556569  0.079138  1
  H  H14  1  0.750000  0.056569  0.420862  1
  H  H15  1  0.250000  0.943431  0.579138  1
