# generated using pymatgen
data_NdSm3B4Br5
_symmetry_space_group_name_H-M   'P 1'
_cell_length_a   9.22655215
_cell_length_b   9.22655391
_cell_length_c   19.04339811
_cell_angle_alpha   75.39989119
_cell_angle_beta   75.39988871
_cell_angle_gamma   26.73847021
_symmetry_Int_Tables_number   1
_chemical_formula_structural   NdSm3B4Br5
_chemical_formula_sum   'Nd2 Sm6 B8 Br10'
_cell_volume   704.47939263
_cell_formula_units_Z   2
loop_
 _symmetry_equiv_pos_site_id
 _symmetry_equiv_pos_as_xyz
  1  'x, y, z'
loop_
 _atom_site_type_symbol
 _atom_site_label
 _atom_site_symmetry_multiplicity
 _atom_site_fract_x
 _atom_site_fract_y
 _atom_site_fract_z
 _atom_site_occupancy
  Nd  Nd0  1  0.609316  0.609316  0.722348  1
  Nd  Nd1  1  0.390684  0.390684  0.277652  1
  Sm  Sm2  1  0.974565  0.974565  0.628224  1
  Sm  Sm3  1  0.025435  0.025435  0.371776  1
  Sm  Sm4  1  0.331314  0.331314  0.791343  1
  Sm  Sm5  1  0.668686  0.668686  0.208657  1
  Sm  Sm6  1  0.967267  0.967267  0.885902  1
  Sm  Sm7  1  0.032733  0.032733  0.114098  1
  B  B8  1  0.155099  0.783989  0.757418  1
  B  B9  1  0.216011  0.844901  0.242582  1
  B  B10  1  0.844901  0.216011  0.242582  1
  B  B11  1  0.783989  0.155099  0.757418  1
  B  B12  1  0.468902  0.468902  0.808581  1
  B  B13  1  0.531098  0.531098  0.191419  1
  B  B14  1  0.468950  0.468950  0.706537  1
  B  B15  1  0.531050  0.531050  0.293463  1
  Br  Br16  1  0.144020  0.144020  0.601908  1
  Br  Br17  1  0.855980  0.855980  0.398092  1
  Br  Br18  1  0.144495  0.144495  0.828656  1
  Br  Br19  1  0.855505  0.855505  0.171344  1
  Br  Br20  1  0.796185  0.796185  0.909415  1
  Br  Br21  1  0.203815  0.203815  0.090585  1
  Br  Br22  1  0.797074  0.797074  0.686297  1
  Br  Br23  1  0.202926  0.202926  0.313703  1
  Br  Br24  1  0.500000  0.500000  0.500000  1
  Br  Br25  1  0.500000  0.500000  0.000000  1
