# generated using pymatgen
data_YHo2Lu(MoN3)4
_symmetry_space_group_name_H-M   'P 1'
_cell_length_a   7.30544326
_cell_length_b   7.30544300
_cell_length_c   6.24500524
_cell_angle_alpha   73.47872230
_cell_angle_beta   73.47872141
_cell_angle_gamma   81.23520797
_symmetry_Int_Tables_number   1
_chemical_formula_structural   YHo2Lu(MoN3)4
_chemical_formula_sum   'Y1 Ho2 Lu1 Mo4 N12'
_cell_volume   305.41178402
_cell_formula_units_Z   1
loop_
 _symmetry_equiv_pos_site_id
 _symmetry_equiv_pos_as_xyz
  1  'x, y, z'
loop_
 _atom_site_type_symbol
 _atom_site_label
 _atom_site_symmetry_multiplicity
 _atom_site_fract_x
 _atom_site_fract_y
 _atom_site_fract_z
 _atom_site_occupancy
  Y  Y0  1  0.292835  0.707165  0.750000  1
  Ho  Ho1  1  0.708173  0.291827  0.250000  1
  Ho  Ho2  1  0.086028  0.913972  0.250000  1
  Lu  Lu3  1  0.912284  0.087716  0.750000  1
  Mo  Mo4  1  0.801165  0.618252  0.772169  1
  Mo  Mo5  1  0.198715  0.379825  0.230210  1
  Mo  Mo6  1  0.620175  0.801285  0.269790  1
  Mo  Mo7  1  0.381748  0.198835  0.727831  1
  N  N8  1  0.215476  0.002298  0.845320  1
  N  N9  1  0.369401  0.346876  0.430591  1
  N  N10  1  0.634670  0.654044  0.566590  1
  N  N11  1  0.627494  0.110306  0.664673  1
  N  N12  1  0.997702  0.784524  0.654680  1
  N  N13  1  0.782175  0.001861  0.147574  1
  N  N14  1  0.109896  0.624848  0.163887  1
  N  N15  1  0.889694  0.372506  0.835327  1
  N  N16  1  0.998139  0.217825  0.352426  1
  N  N17  1  0.345956  0.365330  0.933410  1
  N  N18  1  0.653124  0.630599  0.069409  1
  N  N19  1  0.375152  0.890104  0.336113  1
