# generated using pymatgen
data_Li4Ho3Er(Co4P3)4
_symmetry_space_group_name_H-M   'P 1'
_cell_length_a   3.68812300
_cell_length_b   10.24916900
_cell_length_c   11.90385200
_cell_angle_alpha   89.99703610
_cell_angle_beta   90.00000000
_cell_angle_gamma   90.00000000
_symmetry_Int_Tables_number   1
_chemical_formula_structural   Li4Ho3Er(Co4P3)4
_chemical_formula_sum   'Li4 Ho3 Er1 Co16 P12'
_cell_volume   449.96793750
_cell_formula_units_Z   1
loop_
 _symmetry_equiv_pos_site_id
 _symmetry_equiv_pos_as_xyz
  1  'x, y, z'
loop_
 _atom_site_type_symbol
 _atom_site_label
 _atom_site_symmetry_multiplicity
 _atom_site_fract_x
 _atom_site_fract_y
 _atom_site_fract_z
 _atom_site_occupancy
  Li  Li0  1  0.250000  0.702334  0.993203  1
  Li  Li1  1  0.250000  0.797662  0.493219  1
  Li  Li2  1  0.750000  0.297672  0.006847  1
  Li  Li3  1  0.750000  0.202290  0.506765  1
  Ho  Ho4  1  0.250000  0.922306  0.202127  1
  Ho  Ho5  1  0.750000  0.422261  0.297906  1
  Ho  Ho6  1  0.750000  0.077694  0.797895  1
  Er  Er7  1  0.250000  0.577752  0.702024  1
  Co  Co8  1  0.250000  0.405955  0.484710  1
  Co  Co9  1  0.250000  0.094130  0.984706  1
  Co  Co10  1  0.750000  0.594143  0.515546  1
  Co  Co11  1  0.750000  0.905880  0.015319  1
  Co  Co12  1  0.250000  0.222920  0.172266  1
  Co  Co13  1  0.250000  0.277144  0.672256  1
  Co  Co14  1  0.750000  0.776952  0.827685  1
  Co  Co15  1  0.750000  0.722914  0.327777  1
  Co  Co16  1  0.250000  0.877926  0.700511  1
  Co  Co17  1  0.250000  0.621977  0.200525  1
  Co  Co18  1  0.750000  0.121975  0.299479  1
  Co  Co19  1  0.750000  0.378209  0.799403  1
  Co  Co20  1  0.250000  0.464651  0.932388  1
  Co  Co21  1  0.250000  0.035398  0.432496  1
  Co  Co22  1  0.750000  0.535401  0.067477  1
  Co  Co23  1  0.750000  0.964537  0.567503  1
  P  P24  1  0.250000  0.425944  0.115254  1
  P  P25  1  0.250000  0.074040  0.615264  1
  P  P26  1  0.750000  0.574079  0.884542  1
  P  P27  1  0.750000  0.925942  0.384741  1
  P  P28  1  0.250000  0.268763  0.858858  1
  P  P29  1  0.250000  0.231222  0.358808  1
  P  P30  1  0.750000  0.731207  0.141151  1
  P  P31  1  0.750000  0.768460  0.641222  1
  P  P32  1  0.250000  0.602203  0.393512  1
  P  P33  1  0.250000  0.897812  0.893529  1
  P  P34  1  0.750000  0.398034  0.606592  1
  P  P35  1  0.750000  0.102212  0.106493  1
