# generated using pymatgen
data_ScNi6W
_symmetry_space_group_name_H-M   'P 1'
_cell_length_a   5.13913400
_cell_length_b   5.13913485
_cell_length_c   4.26319700
_cell_angle_alpha   90.00000000
_cell_angle_beta   90.00000000
_cell_angle_gamma   120.00000741
_symmetry_Int_Tables_number   1
_chemical_formula_structural   ScNi6W
_chemical_formula_sum   'Sc1 Ni6 W1'
_cell_volume   97.50928148
_cell_formula_units_Z   1
loop_
 _symmetry_equiv_pos_site_id
 _symmetry_equiv_pos_as_xyz
  1  'x, y, z'
loop_
 _atom_site_type_symbol
 _atom_site_label
 _atom_site_symmetry_multiplicity
 _atom_site_fract_x
 _atom_site_fract_y
 _atom_site_fract_z
 _atom_site_occupancy
  Sc  Sc0  1  0.666668  0.333334  0.249999  1
  Ni  Ni1  1  0.165412  0.330826  0.249999  1
  Ni  Ni2  1  0.669175  0.834589  0.249999  1
  Ni  Ni3  1  0.165412  0.834589  0.249999  1
  Ni  Ni4  1  0.841770  0.158228  0.749999  1
  Ni  Ni5  1  0.316458  0.158228  0.749999  1
  Ni  Ni6  1  0.841770  0.683542  0.749999  1
  W  W7  1  0.333334  0.666668  0.749999  1
