# generated using pymatgen
data_DyHoCo12GeP6
_symmetry_space_group_name_H-M   'P 1'
_cell_length_a   9.08558900
_cell_length_b   9.08558899
_cell_length_c   3.57937600
_cell_angle_alpha   90.00000000
_cell_angle_beta   90.00000000
_cell_angle_gamma   120.00001097
_symmetry_Int_Tables_number   1
_chemical_formula_structural   DyHoCo12GeP6
_chemical_formula_sum   'Dy1 Ho1 Co12 Ge1 P6'
_cell_volume   255.88455838
_cell_formula_units_Z   1
loop_
 _symmetry_equiv_pos_site_id
 _symmetry_equiv_pos_as_xyz
  1  'x, y, z'
loop_
 _atom_site_type_symbol
 _atom_site_label
 _atom_site_symmetry_multiplicity
 _atom_site_fract_x
 _atom_site_fract_y
 _atom_site_fract_z
 _atom_site_occupancy
  Dy  Dy0  1  0.333333  0.666667  0.500000  1
  Ho  Ho1  1  0.000000  0.000000  0.000000  1
  Co  Co2  1  0.103136  0.393924  0.000000  1
  Co  Co3  1  0.606076  0.709211  0.000000  1
  Co  Co4  1  0.290789  0.896864  0.000000  1
  Co  Co5  1  0.052665  0.772048  0.500000  1
  Co  Co6  1  0.227952  0.280619  0.500000  1
  Co  Co7  1  0.719381  0.947335  0.500000  1
  Co  Co8  1  0.827660  0.620524  0.000000  1
  Co  Co9  1  0.379476  0.207136  0.000000  1
  Co  Co10  1  0.792864  0.172340  0.000000  1
  Co  Co11  1  0.915848  0.444120  0.500000  1
  Co  Co12  1  0.555880  0.471725  0.500000  1
  Co  Co13  1  0.528275  0.084152  0.500000  1
  Ge  Ge14  1  0.666667  0.333333  0.000000  1
  P  P15  1  0.777866  0.736216  0.500000  1
  P  P16  1  0.263784  0.041650  0.500000  1
  P  P17  1  0.958350  0.222134  0.500000  1
  P  P18  1  0.071961  0.626368  0.000000  1
  P  P19  1  0.373632  0.445595  0.000000  1
  P  P20  1  0.554405  0.928039  0.000000  1
