# generated using pymatgen
data_LiEr(NiPt)2
_symmetry_space_group_name_H-M   'P 1'
_cell_length_a   5.10491017
_cell_length_b   5.10491004
_cell_length_c   5.37227400
_cell_angle_alpha   58.25181800
_cell_angle_beta   58.25181893
_cell_angle_gamma   57.61949444
_symmetry_Int_Tables_number   1
_chemical_formula_structural   LiEr(NiPt)2
_chemical_formula_sum   'Li1 Er1 Ni2 Pt2'
_cell_volume   94.54073212
_cell_formula_units_Z   1
loop_
 _symmetry_equiv_pos_site_id
 _symmetry_equiv_pos_as_xyz
  1  'x, y, z'
loop_
 _atom_site_type_symbol
 _atom_site_label
 _atom_site_symmetry_multiplicity
 _atom_site_fract_x
 _atom_site_fract_y
 _atom_site_fract_z
 _atom_site_occupancy
  Li  Li0  1  0.010502  0.010502  0.989498  1
  Er  Er1  1  0.250249  0.250249  0.249751  1
  Ni  Ni2  1  0.619994  0.122539  0.628734  1
  Ni  Ni3  1  0.122539  0.619994  0.628734  1
  Pt  Pt4  1  0.623358  0.623358  0.628537  1
  Pt  Pt5  1  0.623358  0.623358  0.124747  1
