# generated using pymatgen
data_VSi(BMo2)2
_symmetry_space_group_name_H-M   'P 1'
_cell_length_a   6.97806202
_cell_length_b   6.97806202
_cell_length_c   6.97806185
_cell_angle_alpha   129.22455823
_cell_angle_beta   129.22455594
_cell_angle_gamma   74.64952314
_symmetry_Int_Tables_number   1
_chemical_formula_structural   VSi(BMo2)2
_chemical_formula_sum   'V2 Si2 B4 Mo8'
_cell_volume   198.67272089
_cell_formula_units_Z   2
loop_
 _symmetry_equiv_pos_site_id
 _symmetry_equiv_pos_as_xyz
  1  'x, y, z'
loop_
 _atom_site_type_symbol
 _atom_site_label
 _atom_site_symmetry_multiplicity
 _atom_site_fract_x
 _atom_site_fract_y
 _atom_site_fract_z
 _atom_site_occupancy
  V  V0  1  0.000000  0.000000  0.000000  1
  V  V1  1  0.500000  0.500000  0.000000  1
  Si  Si2  1  0.750000  0.750000  0.000000  1
  Si  Si3  1  0.250000  0.250000  0.000000  1
  B  B4  1  0.377285  0.877285  0.254570  1
  B  B5  1  0.877285  0.622715  0.500000  1
  B  B6  1  0.622715  0.122715  0.745430  1
  B  B7  1  0.122715  0.377285  0.500000  1
  Mo  Mo8  1  0.803715  0.970237  0.500000  1
  Mo  Mo9  1  0.303715  0.803715  0.833478  1
  Mo  Mo10  1  0.196285  0.029763  0.500000  1
  Mo  Mo11  1  0.529763  0.696285  0.500000  1
  Mo  Mo12  1  0.029763  0.529763  0.833478  1
  Mo  Mo13  1  0.696285  0.196285  0.166522  1
  Mo  Mo14  1  0.970237  0.470237  0.166522  1
  Mo  Mo15  1  0.470237  0.303715  0.500000  1
