# generated using pymatgen
data_Dy3Ho2P12Ir11Ru8
_symmetry_space_group_name_H-M   'P 1'
_cell_length_a   12.62803101
_cell_length_b   12.59715426
_cell_length_c   3.97282000
_cell_angle_alpha   90.00000000
_cell_angle_beta   90.00000000
_cell_angle_gamma   120.04987914
_symmetry_Int_Tables_number   1
_chemical_formula_structural   Dy3Ho2P12Ir11Ru8
_chemical_formula_sum   'Dy3 Ho2 P12 Ir11 Ru8'
_cell_volume   547.04002689
_cell_formula_units_Z   1
loop_
 _symmetry_equiv_pos_site_id
 _symmetry_equiv_pos_as_xyz
  1  'x, y, z'
loop_
 _atom_site_type_symbol
 _atom_site_label
 _atom_site_symmetry_multiplicity
 _atom_site_fract_x
 _atom_site_fract_y
 _atom_site_fract_z
 _atom_site_occupancy
  Dy  Dy0  1  0.334711  0.669027  0.000000  1
  Dy  Dy1  1  0.183120  0.184695  0.500000  1
  Dy  Dy2  1  0.999362  0.815089  0.500000  1
  Ho  Ho3  1  0.666959  0.331396  0.000000  1
  Ho  Ho4  1  0.813839  0.000997  0.500000  1
  P  P5  1  0.634350  0.999037  0.000000  1
  P  P6  1  0.363275  0.363616  0.000000  1
  P  P7  1  0.000289  0.636043  0.000000  1
  P  P8  1  0.688814  0.517686  0.500000  1
  P  P9  1  0.829780  0.307496  0.500000  1
  P  P10  1  0.317245  0.834121  0.500000  1
  P  P11  1  0.519431  0.691287  0.500000  1
  P  P12  1  0.179008  0.000100  0.000000  1
  P  P13  1  0.819048  0.819283  0.000000  1
  P  P14  1  0.996509  0.180973  0.000000  1
  P  P15  1  0.480229  0.167513  0.500000  1
  P  P16  1  0.170421  0.482297  0.500000  1
  Ir  Ir17  1  0.624708  0.804100  0.000000  1
  Ir  Ir18  1  0.182916  0.376767  0.000000  1
  Ir  Ir19  1  0.374426  0.181412  0.000000  1
  Ir  Ir20  1  0.191975  0.818774  0.000000  1
  Ir  Ir21  1  0.805951  0.623165  0.000000  1
  Ir  Ir22  1  0.869932  0.506711  0.500000  1
  Ir  Ir23  1  0.492276  0.360262  0.500000  1
  Ir  Ir24  1  0.637034  0.129327  0.500000  1
  Ir  Ir25  1  0.132518  0.640855  0.500000  1
  Ir  Ir26  1  0.362570  0.492244  0.500000  1
  Ir  Ir27  1  0.998793  0.000413  0.000000  1
  Ru  Ru28  1  0.511841  0.871757  0.500000  1
  Ru  Ru29  1  0.712262  0.710699  0.500000  1
  Ru  Ru30  1  0.002202  0.289262  0.500000  1
  Ru  Ru31  1  0.450452  0.998838  0.000000  1
  Ru  Ru32  1  0.546798  0.544485  0.000000  1
  Ru  Ru33  1  0.002309  0.454963  0.000000  1
  Ru  Ru34  1  0.818239  0.195583  0.000000  1
  Ru  Ru35  1  0.286408  0.999721  0.500000  1
