# generated using pymatgen
data_InTc3Se4
_symmetry_space_group_name_H-M   'P 1'
_cell_length_a   12.96282700
_cell_length_b   6.69081656
_cell_length_c   12.02315833
_cell_angle_alpha   66.03617472
_cell_angle_beta   90.00000000
_cell_angle_gamma   90.00000000
_symmetry_Int_Tables_number   1
_chemical_formula_structural   InTc3Se4
_chemical_formula_sum   'In4 Tc12 Se16'
_cell_volume   952.90488778
_cell_formula_units_Z   4
loop_
 _symmetry_equiv_pos_site_id
 _symmetry_equiv_pos_as_xyz
  1  'x, y, z'
loop_
 _atom_site_type_symbol
 _atom_site_label
 _atom_site_symmetry_multiplicity
 _atom_site_fract_x
 _atom_site_fract_y
 _atom_site_fract_z
 _atom_site_occupancy
  In  In0  1  0.194916  0.945506  0.324719  1
  In  In1  1  0.305084  0.945506  0.824719  1
  In  In2  1  0.805084  0.054494  0.675281  1
  In  In3  1  0.694916  0.054494  0.175281  1
  Tc  Tc4  1  0.563134  0.032892  0.354699  1
  Tc  Tc5  1  0.936866  0.032892  0.854699  1
  Tc  Tc6  1  0.436866  0.967108  0.645301  1
  Tc  Tc7  1  0.063134  0.967108  0.145301  1
  Tc  Tc8  1  0.371879  0.970164  0.438709  1
  Tc  Tc9  1  0.128121  0.970164  0.938709  1
  Tc  Tc10  1  0.628121  0.029836  0.561291  1
  Tc  Tc11  1  0.871879  0.029836  0.061291  1
  Tc  Tc12  1  0.519071  0.695980  0.559208  1
  Tc  Tc13  1  0.980929  0.695980  0.059208  1
  Tc  Tc14  1  0.480929  0.304020  0.440792  1
  Tc  Tc15  1  0.019071  0.304020  0.940792  1
  Se  Se16  1  0.451580  0.732537  0.343186  1
  Se  Se17  1  0.048420  0.732537  0.843186  1
  Se  Se18  1  0.548420  0.267463  0.656814  1
  Se  Se19  1  0.951580  0.267463  0.156814  1
  Se  Se20  1  0.335425  0.650605  0.638252  1
  Se  Se21  1  0.164575  0.650605  0.138252  1
  Se  Se22  1  0.664575  0.349395  0.361748  1
  Se  Se23  1  0.835425  0.349395  0.861748  1
  Se  Se24  1  0.419553  0.292279  0.243185  1
  Se  Se25  1  0.080447  0.292279  0.743185  1
  Se  Se26  1  0.580447  0.707721  0.756815  1
  Se  Se27  1  0.919553  0.707721  0.256815  1
  Se  Se28  1  0.702480  0.769653  0.479267  1
  Se  Se29  1  0.797520  0.769653  0.979267  1
  Se  Se30  1  0.297520  0.230347  0.520733  1
  Se  Se31  1  0.202480  0.230347  0.020733  1
