# generated using pymatgen
data_Na6Ac7ThAu20
_symmetry_space_group_name_H-M   'P 1'
_cell_length_a   9.14489806
_cell_length_b   9.14500043
_cell_length_c   10.75848800
_cell_angle_alpha   90.00599585
_cell_angle_beta   90.00635931
_cell_angle_gamma   108.42537847
_symmetry_Int_Tables_number   1
_chemical_formula_structural   Na6Ac7ThAu20
_chemical_formula_sum   'Na6 Ac7 Th1 Au20'
_cell_volume   853.60953929
_cell_formula_units_Z   1
loop_
 _symmetry_equiv_pos_site_id
 _symmetry_equiv_pos_as_xyz
  1  'x, y, z'
loop_
 _atom_site_type_symbol
 _atom_site_label
 _atom_site_symmetry_multiplicity
 _atom_site_fract_x
 _atom_site_fract_y
 _atom_site_fract_z
 _atom_site_occupancy
  Na  Na0  1  0.508326  0.010828  0.251178  1
  Na  Na1  1  0.988942  0.491498  0.748694  1
  Na  Na2  1  0.000989  0.998734  0.000111  1
  Na  Na3  1  0.011972  0.511027  0.251201  1
  Na  Na4  1  0.488885  0.987720  0.748517  1
  Na  Na5  1  0.502826  0.497442  0.500020  1
  Ac  Ac6  1  0.201151  0.799005  0.499975  1
  Ac  Ac7  1  0.798194  0.800117  0.294092  1
  Ac  Ac8  1  0.298051  0.298619  0.202927  1
  Ac  Ac9  1  0.797742  0.202276  0.499870  1
  Ac  Ac10  1  0.299560  0.700674  0.000210  1
  Ac  Ac11  1  0.701473  0.702026  0.797138  1
  Ac  Ac12  1  0.199495  0.201612  0.706122  1
  Th  Th13  1  0.700224  0.299692  0.000046  1
  Au  Au14  1  0.156730  0.430491  0.488006  1
  Au  Au15  1  0.904208  0.907538  0.594095  1
  Au  Au16  1  0.569639  0.843338  0.511928  1
  Au  Au17  1  0.873024  0.164052  0.203694  1
  Au  Au18  1  0.384899  0.658940  0.291623  1
  Au  Au19  1  0.663113  0.375302  0.280828  1
  Au  Au20  1  0.406247  0.400645  0.910524  1
  Au  Au21  1  0.926719  0.638845  0.010501  1
  Au  Au22  1  0.340857  0.615254  0.708524  1
  Au  Au23  1  0.360983  0.073291  0.989366  1
  Au  Au24  1  0.599667  0.593624  0.089471  1
  Au  Au25  1  0.652473  0.940369  0.014510  1
  Au  Au26  1  0.092579  0.095970  0.405944  1
  Au  Au27  1  0.624540  0.336582  0.719447  1
  Au  Au28  1  0.119049  0.841204  0.793180  1
  Au  Au29  1  0.059797  0.347775  0.985425  1
  Au  Au30  1  0.844133  0.571058  0.510469  1
  Au  Au31  1  0.158623  0.881175  0.207046  1
  Au  Au32  1  0.428921  0.156307  0.489241  1
  Au  Au33  1  0.835967  0.126970  0.796077  1
