# generated using pymatgen
data_Se6SN2
_symmetry_space_group_name_H-M   'P 1'
_cell_length_a   6.81007803
_cell_length_b   7.75345657
_cell_length_c   8.92913341
_cell_angle_alpha   76.66807114
_cell_angle_beta   98.67615009
_cell_angle_gamma   75.38111705
_symmetry_Int_Tables_number   1
_chemical_formula_structural   Se6SN2
_chemical_formula_sum   'Se6 S1 N2'
_cell_volume   432.83512338
_cell_formula_units_Z   1
loop_
 _symmetry_equiv_pos_site_id
 _symmetry_equiv_pos_as_xyz
  1  'x, y, z'
loop_
 _atom_site_type_symbol
 _atom_site_label
 _atom_site_symmetry_multiplicity
 _atom_site_fract_x
 _atom_site_fract_y
 _atom_site_fract_z
 _atom_site_occupancy
  Se  Se0  1  0.625360  0.938104  0.205696  1
  Se  Se1  1  0.751701  0.610624  0.951088  1
  Se  Se2  1  0.577984  0.661316  0.153064  1
  Se  Se3  1  0.039986  0.727770  0.594171  1
  Se  Se4  1  0.542225  0.789937  0.702399  1
  Se  Se5  1  0.971851  0.892283  0.313418  1
  S  S6  1  0.373591  0.599190  0.624520  1
  N  N7  1  0.186593  0.343766  0.306976  1
  N  N8  1  0.155536  0.289871  0.425033  1
