# generated using pymatgen
data_YbPr4(SiAs)2
_symmetry_space_group_name_H-M   'P 1'
_cell_length_a   8.53927300
_cell_length_b   8.53927375
_cell_length_c   7.95947900
_cell_angle_alpha   90.00000000
_cell_angle_beta   90.00000000
_cell_angle_gamma   124.98081721
_symmetry_Int_Tables_number   1
_chemical_formula_structural   YbPr4(SiAs)2
_chemical_formula_sum   'Yb2 Pr8 Si4 As4'
_cell_volume   475.54626098
_cell_formula_units_Z   2
loop_
 _symmetry_equiv_pos_site_id
 _symmetry_equiv_pos_as_xyz
  1  'x, y, z'
loop_
 _atom_site_type_symbol
 _atom_site_label
 _atom_site_symmetry_multiplicity
 _atom_site_fract_x
 _atom_site_fract_y
 _atom_site_fract_z
 _atom_site_occupancy
  Yb  Yb0  1  0.000000  0.000000  0.000000  1
  Yb  Yb1  1  0.500000  0.500000  0.500000  1
  Pr  Pr2  1  0.037470  0.311818  0.329283  1
  Pr  Pr3  1  0.962530  0.688182  0.670717  1
  Pr  Pr4  1  0.462530  0.188182  0.829283  1
  Pr  Pr5  1  0.811818  0.537470  0.170717  1
  Pr  Pr6  1  0.537470  0.811818  0.170717  1
  Pr  Pr7  1  0.188182  0.462530  0.829283  1
  Pr  Pr8  1  0.688182  0.962530  0.670717  1
  Pr  Pr9  1  0.311818  0.037470  0.329283  1
  Si  Si10  1  0.389001  0.389001  0.112204  1
  Si  Si11  1  0.610999  0.610999  0.887796  1
  Si  Si12  1  0.110999  0.110999  0.612204  1
  Si  Si13  1  0.889001  0.889001  0.387796  1
  As  As14  1  0.798599  0.201401  0.000000  1
  As  As15  1  0.201401  0.798599  0.000000  1
  As  As16  1  0.701401  0.298599  0.500000  1
  As  As17  1  0.298599  0.701401  0.500000  1
