# generated using pymatgen
data_La3Th(BeSi3)2
_symmetry_space_group_name_H-M   'P 1'
_cell_length_a   7.97296900
_cell_length_b   7.98259075
_cell_length_c   4.42512200
_cell_angle_alpha   90.00000000
_cell_angle_beta   90.00000000
_cell_angle_gamma   119.96013146
_symmetry_Int_Tables_number   1
_chemical_formula_structural   La3Th(BeSi3)2
_chemical_formula_sum   'La3 Th1 Be2 Si6'
_cell_volume   244.00243183
_cell_formula_units_Z   1
loop_
 _symmetry_equiv_pos_site_id
 _symmetry_equiv_pos_as_xyz
  1  'x, y, z'
loop_
 _atom_site_type_symbol
 _atom_site_label
 _atom_site_symmetry_multiplicity
 _atom_site_fract_x
 _atom_site_fract_y
 _atom_site_fract_z
 _atom_site_occupancy
  La  La0  1  0.000000  0.000000  0.500000  1
  La  La1  1  0.000000  0.500000  0.500000  1
  La  La2  1  0.500000  0.500000  0.500000  1
  Th  Th3  1  0.500000  0.000000  0.500000  1
  Be  Be4  1  0.334313  0.668627  0.000000  1
  Be  Be5  1  0.665687  0.331373  0.000000  1
  Si  Si6  1  0.171849  0.343700  0.000000  1
  Si  Si7  1  0.654932  0.829022  0.000000  1
  Si  Si8  1  0.345068  0.170978  0.000000  1
  Si  Si9  1  0.174089  0.829022  0.000000  1
  Si  Si10  1  0.828151  0.656300  0.000000  1
  Si  Si11  1  0.825911  0.170978  0.000000  1
