# generated using pymatgen
data_SmDyHo4(SbO7)2
_symmetry_space_group_name_H-M   'P 1'
_cell_length_a   6.46711069
_cell_length_b   6.46710983
_cell_length_c   7.53435903
_cell_angle_alpha   90.03016031
_cell_angle_beta   89.96984252
_cell_angle_gamma   109.30172531
_symmetry_Int_Tables_number   1
_chemical_formula_structural   SmDyHo4(SbO7)2
_chemical_formula_sum   'Sm1 Dy1 Ho4 Sb2 O14'
_cell_volume   297.40110890
_cell_formula_units_Z   1
loop_
 _symmetry_equiv_pos_site_id
 _symmetry_equiv_pos_as_xyz
  1  'x, y, z'
loop_
 _atom_site_type_symbol
 _atom_site_label
 _atom_site_symmetry_multiplicity
 _atom_site_fract_x
 _atom_site_fract_y
 _atom_site_fract_z
 _atom_site_occupancy
  Sm  Sm0  1  0.500000  0.500000  0.000000  1
  Dy  Dy1  1  0.500000  0.500000  0.500000  1
  Ho  Ho2  1  0.531390  0.000628  0.748431  1
  Ho  Ho3  1  0.000628  0.531390  0.251569  1
  Ho  Ho4  1  0.468610  0.999372  0.251569  1
  Ho  Ho5  1  0.999372  0.468610  0.748431  1
  Sb  Sb6  1  0.000000  0.000000  0.500000  1
  Sb  Sb7  1  0.000000  0.000000  0.000000  1
  O  O8  1  0.677165  0.927895  0.470272  1
  O  O9  1  0.927895  0.677165  0.529728  1
  O  O10  1  0.676832  0.929426  0.029899  1
  O  O11  1  0.929426  0.676832  0.970101  1
  O  O12  1  0.322835  0.072105  0.529728  1
  O  O13  1  0.072105  0.322835  0.470272  1
  O  O14  1  0.323168  0.070574  0.970101  1
  O  O15  1  0.070574  0.323168  0.029899  1
  O  O16  1  0.929883  0.070117  0.750079  1
  O  O17  1  0.070117  0.929883  0.249921  1
  O  O18  1  0.367179  0.632821  0.744772  1
  O  O19  1  0.632821  0.367179  0.255228  1
  O  O20  1  0.639198  0.360802  0.745300  1
  O  O21  1  0.360802  0.639198  0.254700  1
