# generated using pymatgen
data_Y3Mg3Hg2Ge
_symmetry_space_group_name_H-M   'P 1'
_cell_length_a   7.50838000
_cell_length_b   7.50837929
_cell_length_c   4.36032800
_cell_angle_alpha   90.00000000
_cell_angle_beta   90.00000000
_cell_angle_gamma   120.00000313
_symmetry_Int_Tables_number   1
_chemical_formula_structural   Y3Mg3Hg2Ge
_chemical_formula_sum   'Y3 Mg3 Hg2 Ge1'
_cell_volume   212.88360940
_cell_formula_units_Z   1
loop_
 _symmetry_equiv_pos_site_id
 _symmetry_equiv_pos_as_xyz
  1  'x, y, z'
loop_
 _atom_site_type_symbol
 _atom_site_label
 _atom_site_symmetry_multiplicity
 _atom_site_fract_x
 _atom_site_fract_y
 _atom_site_fract_z
 _atom_site_occupancy
  Y  Y0  1  0.579166  0.006240  0.000000  1
  Y  Y1  1  0.993760  0.572924  0.000000  1
  Y  Y2  1  0.427076  0.420834  0.000000  1
  Mg  Mg3  1  0.248648  0.000401  0.500000  1
  Mg  Mg4  1  0.999599  0.248248  0.500000  1
  Mg  Mg5  1  0.751752  0.751352  0.500000  1
  Hg  Hg6  1  0.333333  0.666667  0.500000  1
  Hg  Hg7  1  0.000000  0.000000  0.000000  1
  Ge  Ge8  1  0.666667  0.333333  0.500000  1
