# generated using pymatgen
data_Be8Co3Ni(Mo6C)2
_symmetry_space_group_name_H-M   'P 1'
_cell_length_a   7.53986103
_cell_length_b   7.54031104
_cell_length_c   7.54031100
_cell_angle_alpha   59.99999580
_cell_angle_beta   59.99802143
_cell_angle_gamma   59.99802244
_symmetry_Int_Tables_number   1
_chemical_formula_structural   Be8Co3Ni(Mo6C)2
_chemical_formula_sum   'Be8 Co3 Ni1 Mo12 C2'
_cell_volume   303.11949177
_cell_formula_units_Z   1
loop_
 _symmetry_equiv_pos_site_id
 _symmetry_equiv_pos_as_xyz
  1  'x, y, z'
loop_
 _atom_site_type_symbol
 _atom_site_label
 _atom_site_symmetry_multiplicity
 _atom_site_fract_x
 _atom_site_fract_y
 _atom_site_fract_z
 _atom_site_occupancy
  Be  Be0  1  0.423379  0.421498  0.733624  1
  Be  Be1  1  0.423379  0.733624  0.421498  1
  Be  Be2  1  0.731257  0.422914  0.422914  1
  Be  Be3  1  0.423379  0.421498  0.421498  1
  Be  Be4  1  0.826621  0.828502  0.516376  1
  Be  Be5  1  0.826621  0.516376  0.828502  1
  Be  Be6  1  0.518743  0.827086  0.827086  1
  Be  Be7  1  0.826621  0.828502  0.828502  1
  Co  Co8  1  0.625000  0.625000  0.125000  1
  Co  Co9  1  0.625000  0.125000  0.625000  1
  Co  Co10  1  0.625000  0.625000  0.625000  1
  Ni  Ni11  1  0.125000  0.625000  0.625000  1
  Mo  Mo12  1  0.049179  0.050826  0.449998  1
  Mo  Mo13  1  0.450691  0.049368  0.450572  1
  Mo  Mo14  1  0.049179  0.449998  0.449998  1
  Mo  Mo15  1  0.450691  0.450572  0.049368  1
  Mo  Mo16  1  0.049179  0.449998  0.050826  1
  Mo  Mo17  1  0.450691  0.049368  0.049368  1
  Mo  Mo18  1  0.200821  0.199174  0.800002  1
  Mo  Mo19  1  0.799309  0.200632  0.799428  1
  Mo  Mo20  1  0.200821  0.800002  0.800002  1
  Mo  Mo21  1  0.799309  0.799428  0.200632  1
  Mo  Mo22  1  0.200821  0.800002  0.199174  1
  Mo  Mo23  1  0.799309  0.200632  0.200632  1
  C  C24  1  0.250647  0.249784  0.249784  1
  C  C25  1  0.999353  0.000216  0.000216  1
