# generated using pymatgen
data_Gd2OsC2
_symmetry_space_group_name_H-M   'P 1'
_cell_length_a   5.13271100
_cell_length_b   6.44144900
_cell_length_c   9.81629200
_cell_angle_alpha   90.00000000
_cell_angle_beta   90.00000000
_cell_angle_gamma   90.00000000
_symmetry_Int_Tables_number   1
_chemical_formula_structural   Gd2OsC2
_chemical_formula_sum   'Gd8 Os4 C8'
_cell_volume   324.54718983
_cell_formula_units_Z   4
loop_
 _symmetry_equiv_pos_site_id
 _symmetry_equiv_pos_as_xyz
  1  'x, y, z'
loop_
 _atom_site_type_symbol
 _atom_site_label
 _atom_site_symmetry_multiplicity
 _atom_site_fract_x
 _atom_site_fract_y
 _atom_site_fract_z
 _atom_site_occupancy
  Gd  Gd0  1  0.250000  0.688410  0.550737  1
  Gd  Gd1  1  0.750000  0.311590  0.449263  1
  Gd  Gd2  1  0.750000  0.811590  0.050737  1
  Gd  Gd3  1  0.250000  0.188410  0.949263  1
  Gd  Gd4  1  0.250000  0.523903  0.219524  1
  Gd  Gd5  1  0.750000  0.476097  0.780476  1
  Gd  Gd6  1  0.750000  0.976097  0.719524  1
  Gd  Gd7  1  0.250000  0.023903  0.280476  1
  Os  Os8  1  0.250000  0.726837  0.864336  1
  Os  Os9  1  0.750000  0.273163  0.135664  1
  Os  Os10  1  0.750000  0.773163  0.364336  1
  Os  Os11  1  0.250000  0.226837  0.635664  1
  C  C12  1  0.250000  0.464350  0.756952  1
  C  C13  1  0.750000  0.535650  0.243048  1
  C  C14  1  0.750000  0.035650  0.256952  1
  C  C15  1  0.250000  0.964350  0.743048  1
  C  C16  1  0.250000  0.822999  0.051584  1
  C  C17  1  0.750000  0.177001  0.948416  1
  C  C18  1  0.750000  0.677001  0.551584  1
  C  C19  1  0.250000  0.322999  0.448416  1
