# generated using pymatgen
data_Sr2Cu17Si8Pt
_symmetry_space_group_name_H-M   'P 1'
_cell_length_a   8.22845592
_cell_length_b   8.22845641
_cell_length_c   8.22092704
_cell_angle_alpha   120.25059132
_cell_angle_beta   120.17259311
_cell_angle_gamma   89.68667478
_symmetry_Int_Tables_number   1
_chemical_formula_structural   Sr2Cu17Si8Pt
_chemical_formula_sum   'Sr2 Cu17 Si8 Pt1'
_cell_volume   392.14105512
_cell_formula_units_Z   1
loop_
 _symmetry_equiv_pos_site_id
 _symmetry_equiv_pos_as_xyz
  1  'x, y, z'
loop_
 _atom_site_type_symbol
 _atom_site_label
 _atom_site_symmetry_multiplicity
 _atom_site_fract_x
 _atom_site_fract_y
 _atom_site_fract_z
 _atom_site_occupancy
  Sr  Sr0  1  0.246958  0.249047  0.998638  1
  Sr  Sr1  1  0.749591  0.751680  0.998638  1
  Cu  Cu2  1  0.212422  0.057682  0.270104  1
  Cu  Cu3  1  0.791894  0.922215  0.714109  1
  Cu  Cu4  1  0.434571  0.295237  0.729808  1
  Cu  Cu5  1  0.066057  0.796372  0.862428  1
  Cu  Cu6  1  0.807186  0.060262  0.499667  1
  Cu  Cu7  1  0.560204  0.307962  0.503018  1
  Cu  Cu8  1  0.195055  0.942814  0.503018  1
  Cu  Cu9  1  0.439406  0.692482  0.499667  1
  Cu  Cu10  1  0.941532  0.440695  0.749943  1
  Cu  Cu11  1  0.685939  0.195726  0.254399  1
  Cu  Cu12  1  0.058672  0.568459  0.254399  1
  Cu  Cu13  1  0.701549  0.439261  0.140810  1
  Cu  Cu14  1  0.564057  0.704228  0.268285  1
  Cu  Cu15  1  0.502332  0.000386  0.502718  1
  Cu  Cu16  1  0.999704  0.507722  0.507426  1
  Cu  Cu17  1  0.309250  0.808413  0.749943  1
  Cu  Cu18  1  0.296927  0.564035  0.860963  1
  Si  Si19  1  0.792155  0.291668  0.852074  1
  Si  Si20  1  0.560406  0.059918  0.852074  1
  Si  Si21  1  0.059595  0.207165  0.498416  1
  Si  Si22  1  0.291251  0.438821  0.498416  1
  Si  Si23  1  0.941127  0.793649  0.498717  1
  Si  Si24  1  0.440924  0.938246  0.148006  1
  Si  Si25  1  0.209760  0.707081  0.148006  1
  Si  Si26  1  0.705068  0.557590  0.498717  1
  Pt  Pt27  1  0.936409  0.201185  0.137594  1
