# generated using pymatgen
data_TbDy10YCo5Sb
_symmetry_space_group_name_H-M   'P 1'
_cell_length_a   8.30322248
_cell_length_b   8.30322208
_cell_length_c   8.29032342
_cell_angle_alpha   110.77075721
_cell_angle_beta   110.64879509
_cell_angle_gamma   107.08740099
_symmetry_Int_Tables_number   1
_chemical_formula_structural   TbDy10YCo5Sb
_chemical_formula_sum   'Tb1 Dy10 Y1 Co5 Sb1'
_cell_volume   439.04775845
_cell_formula_units_Z   1
loop_
 _symmetry_equiv_pos_site_id
 _symmetry_equiv_pos_as_xyz
  1  'x, y, z'
loop_
 _atom_site_type_symbol
 _atom_site_label
 _atom_site_symmetry_multiplicity
 _atom_site_fract_x
 _atom_site_fract_y
 _atom_site_fract_z
 _atom_site_occupancy
  Tb  Tb0  1  0.814810  0.709097  0.523906  1
  Dy  Dy1  1  0.184883  0.708571  0.893454  1
  Dy  Dy2  1  0.815318  0.291447  0.106766  1
  Dy  Dy3  1  0.687865  0.379345  0.692327  1
  Dy  Dy4  1  0.312386  0.620724  0.308005  1
  Dy  Dy5  1  0.687281  0.995620  0.308005  1
  Dy  Dy6  1  0.312981  0.004463  0.692327  1
  Dy  Dy7  1  0.600203  0.793695  0.807397  1
  Dy  Dy8  1  0.400343  0.206531  0.192928  1
  Dy  Dy9  1  0.986397  0.792584  0.192928  1
  Dy  Dy10  1  0.013702  0.207195  0.807397  1
  Y  Y11  1  0.185983  0.290607  0.476592  1
  Co  Co12  1  0.623880  0.000081  0.623960  1
  Co  Co13  1  0.375932  0.000371  0.376303  1
  Co  Co14  1  0.111081  0.612115  0.499247  1
  Co  Co15  1  0.887132  0.388165  0.499247  1
  Co  Co16  1  0.000147  0.999566  0.999712  1
  Sb  Sb17  1  0.499675  0.499824  0.999499  1
