# generated using pymatgen
data_Y4HoTl5
_symmetry_space_group_name_H-M   'P 1'
_cell_length_a   3.77493000
_cell_length_b   3.77493000
_cell_length_c   19.40416300
_cell_angle_alpha   90.00000000
_cell_angle_beta   90.00000000
_cell_angle_gamma   90.00000000
_symmetry_Int_Tables_number   1
_chemical_formula_structural   Y4HoTl5
_chemical_formula_sum   'Y4 Ho1 Tl5'
_cell_volume   276.51119535
_cell_formula_units_Z   1
loop_
 _symmetry_equiv_pos_site_id
 _symmetry_equiv_pos_as_xyz
  1  'x, y, z'
loop_
 _atom_site_type_symbol
 _atom_site_label
 _atom_site_symmetry_multiplicity
 _atom_site_fract_x
 _atom_site_fract_y
 _atom_site_fract_z
 _atom_site_occupancy
  Y  Y0  1  0.000000  0.000000  0.198717  1
  Y  Y1  1  0.000000  0.000000  0.400050  1
  Y  Y2  1  0.000000  0.000000  0.599950  1
  Y  Y3  1  0.000000  0.000000  0.801283  1
  Ho  Ho4  1  0.000000  0.000000  0.000000  1
  Tl  Tl5  1  0.500000  0.500000  0.098878  1
  Tl  Tl6  1  0.500000  0.500000  0.299355  1
  Tl  Tl7  1  0.500000  0.500000  0.500000  1
  Tl  Tl8  1  0.500000  0.500000  0.700645  1
  Tl  Tl9  1  0.500000  0.500000  0.901122  1
