# generated using pymatgen
data_La2Nd2HoRu2
_symmetry_space_group_name_H-M   'P 1'
_cell_length_a   6.61506450
_cell_length_b   7.25014396
_cell_length_c   8.98176473
_cell_angle_alpha   95.58004400
_cell_angle_beta   111.60771697
_cell_angle_gamma   89.99999689
_symmetry_Int_Tables_number   1
_chemical_formula_structural   La2Nd2HoRu2
_chemical_formula_sum   'La4 Nd4 Ho2 Ru4'
_cell_volume   398.29925975
_cell_formula_units_Z   2
loop_
 _symmetry_equiv_pos_site_id
 _symmetry_equiv_pos_as_xyz
  1  'x, y, z'
loop_
 _atom_site_type_symbol
 _atom_site_label
 _atom_site_symmetry_multiplicity
 _atom_site_fract_x
 _atom_site_fract_y
 _atom_site_fract_z
 _atom_site_occupancy
  La  La0  1  0.980007  0.907076  0.186554  1
  La  La1  1  0.793453  0.592924  0.813446  1
  La  La2  1  0.019993  0.092924  0.813446  1
  La  La3  1  0.206547  0.407076  0.186554  1
  Nd  Nd4  1  0.636574  0.814920  0.427858  1
  Nd  Nd5  1  0.208716  0.685080  0.572142  1
  Nd  Nd6  1  0.363426  0.185080  0.572142  1
  Nd  Nd7  1  0.791284  0.314920  0.427858  1
  Ho  Ho8  1  0.430750  0.750000  0.000000  1
  Ho  Ho9  1  0.569250  0.250000  0.000000  1
  Ru  Ru10  1  0.824264  0.581620  0.215079  1
  Ru  Ru11  1  0.609185  0.918380  0.784921  1
  Ru  Ru12  1  0.175736  0.418380  0.784921  1
  Ru  Ru13  1  0.390815  0.081620  0.215079  1
