# generated using pymatgen
data_ZrNb3(VAs)4
_symmetry_space_group_name_H-M   'P 1'
_cell_length_a   6.64593588
_cell_length_b   3.56739700
_cell_length_c   7.99516347
_cell_angle_alpha   90.00000000
_cell_angle_beta   90.54814983
_cell_angle_gamma   90.00000000
_symmetry_Int_Tables_number   1
_chemical_formula_structural   ZrNb3(VAs)4
_chemical_formula_sum   'Zr1 Nb3 V4 As4'
_cell_volume   189.54619108
_cell_formula_units_Z   1
loop_
 _symmetry_equiv_pos_site_id
 _symmetry_equiv_pos_as_xyz
  1  'x, y, z'
loop_
 _atom_site_type_symbol
 _atom_site_label
 _atom_site_symmetry_multiplicity
 _atom_site_fract_x
 _atom_site_fract_y
 _atom_site_fract_z
 _atom_site_occupancy
  Zr  Zr0  1  0.043341  0.249999  0.831371  1
  Nb  Nb1  1  0.956343  0.750000  0.171050  1
  Nb  Nb2  1  0.455716  0.750000  0.332818  1
  Nb  Nb3  1  0.543493  0.249999  0.665744  1
  V  V4  1  0.628744  0.249999  0.057183  1
  V  V5  1  0.130821  0.249999  0.441456  1
  V  V6  1  0.869656  0.750000  0.555107  1
  V  V7  1  0.373457  0.750000  0.946412  1
  As  As8  1  0.255051  0.249999  0.141400  1
  As  As9  1  0.754078  0.249999  0.360172  1
  As  As10  1  0.248697  0.750000  0.637722  1
  As  As11  1  0.740601  0.750000  0.859571  1
