# generated using pymatgen
data_TaVSe8I
_symmetry_space_group_name_H-M   'P 1'
_cell_length_a   9.45132633
_cell_length_b   9.45132615
_cell_length_c   9.45132599
_cell_angle_alpha   117.38912546
_cell_angle_beta   117.38912700
_cell_angle_gamma   94.58497002
_symmetry_Int_Tables_number   1
_chemical_formula_structural   TaVSe8I
_chemical_formula_sum   'Ta2 V2 Se16 I2'
_cell_volume   618.40148923
_cell_formula_units_Z   2
loop_
 _symmetry_equiv_pos_site_id
 _symmetry_equiv_pos_as_xyz
  1  'x, y, z'
loop_
 _atom_site_type_symbol
 _atom_site_label
 _atom_site_symmetry_multiplicity
 _atom_site_fract_x
 _atom_site_fract_y
 _atom_site_fract_z
 _atom_site_occupancy
  Ta  Ta0  1  0.000000  0.500000  0.500000  1
  Ta  Ta1  1  0.500000  0.000000  0.500000  1
  V  V2  1  0.250000  0.750000  0.500000  1
  V  V3  1  0.750000  0.250000  0.500000  1
  Se  Se4  1  0.338587  0.680553  0.749861  1
  Se  Se5  1  0.930692  0.588727  0.250139  1
  Se  Se6  1  0.319447  0.661413  0.250139  1
  Se  Se7  1  0.588727  0.338587  0.658033  1
  Se  Se8  1  0.680553  0.930692  0.341967  1
  Se  Se9  1  0.661413  0.411273  0.341967  1
  Se  Se10  1  0.196456  0.992727  0.434193  1
  Se  Se11  1  0.992727  0.558534  0.796270  1
  Se  Se12  1  0.762263  0.196456  0.203730  1
  Se  Se13  1  0.441466  0.007273  0.203730  1
  Se  Se14  1  0.803544  0.237737  0.796270  1
  Se  Se15  1  0.558534  0.762263  0.565807  1
  Se  Se16  1  0.007273  0.803544  0.565807  1
  Se  Se17  1  0.237737  0.441466  0.434193  1
  Se  Se18  1  0.411273  0.069308  0.749861  1
  Se  Se19  1  0.069308  0.319447  0.658033  1
  I  I20  1  0.844907  0.844907  0.000000  1
  I  I21  1  0.155093  0.155093  0.000000  1
