# generated using pymatgen
data_Er3Al12Os3Rh
_symmetry_space_group_name_H-M   'P 1'
_cell_length_a   8.81242797
_cell_length_b   8.76689630
_cell_length_c   9.53172177
_cell_angle_alpha   89.99999883
_cell_angle_beta   90.17010737
_cell_angle_gamma   119.82922703
_symmetry_Int_Tables_number   1
_chemical_formula_structural   Er3Al12Os3Rh
_chemical_formula_sum   'Er6 Al24 Os6 Rh2'
_cell_volume   638.83053887
_cell_formula_units_Z   2
loop_
 _symmetry_equiv_pos_site_id
 _symmetry_equiv_pos_as_xyz
  1  'x, y, z'
loop_
 _atom_site_type_symbol
 _atom_site_label
 _atom_site_symmetry_multiplicity
 _atom_site_fract_x
 _atom_site_fract_y
 _atom_site_fract_z
 _atom_site_occupancy
  Er  Er0  1  0.190962  0.388371  0.252465  1
  Er  Er1  1  0.809038  0.611629  0.747535  1
  Er  Er2  1  0.613264  0.806633  0.253949  1
  Er  Er3  1  0.386736  0.193367  0.746051  1
  Er  Er4  1  0.190962  0.802592  0.252465  1
  Er  Er5  1  0.809038  0.197408  0.747535  1
  Al  Al6  1  0.332457  0.666229  0.024382  1
  Al  Al7  1  0.667543  0.333771  0.975618  1
  Al  Al8  1  0.666727  0.333363  0.521035  1
  Al  Al9  1  0.333273  0.666637  0.478965  1
  Al  Al10  1  0.165368  0.328258  0.575329  1
  Al  Al11  1  0.834632  0.671742  0.424671  1
  Al  Al12  1  0.672928  0.836464  0.577030  1
  Al  Al13  1  0.837486  0.672724  0.075863  1
  Al  Al14  1  0.327072  0.163536  0.422970  1
  Al  Al15  1  0.162514  0.327276  0.924137  1
  Al  Al16  1  0.165368  0.837110  0.575329  1
  Al  Al17  1  0.325608  0.162804  0.078061  1
  Al  Al18  1  0.834632  0.162890  0.424671  1
  Al  Al19  1  0.674392  0.837196  0.921939  1
  Al  Al20  1  0.837486  0.164762  0.075863  1
  Al  Al21  1  0.162514  0.835238  0.924137  1
  Al  Al22  1  0.560478  0.122261  0.249578  1
  Al  Al23  1  0.439522  0.877739  0.750422  1
  Al  Al24  1  0.875225  0.437613  0.249107  1
  Al  Al25  1  0.124775  0.562387  0.750893  1
  Al  Al26  1  0.560478  0.438217  0.249578  1
  Al  Al27  1  0.439522  0.561783  0.750422  1
  Al  Al28  1  0.998873  0.999437  0.250126  1
  Al  Al29  1  0.001127  0.000563  0.749874  1
  Os  Os30  1  0.000000  0.500000  0.000000  1
  Os  Os31  1  0.500000  0.000000  0.500000  1
  Os  Os32  1  0.000000  0.500000  0.500000  1
  Os  Os33  1  0.500000  0.500000  0.500000  1
  Os  Os34  1  0.000000  0.000000  0.000000  1
  Os  Os35  1  0.000000  0.000000  0.500000  1
  Rh  Rh36  1  0.500000  0.000000  0.000000  1
  Rh  Rh37  1  0.500000  0.500000  0.000000  1
