# generated using pymatgen
data_Tb3LuGa2(B2Rh5)2
_symmetry_space_group_name_H-M   'P 1'
_cell_length_a   9.47511255
_cell_length_b   9.47511255
_cell_length_c   3.21542100
_cell_angle_alpha   90.00000000
_cell_angle_beta   90.00000000
_cell_angle_gamma   90.23865013
_symmetry_Int_Tables_number   1
_chemical_formula_structural   Tb3LuGa2(B2Rh5)2
_chemical_formula_sum   'Tb3 Lu1 Ga2 B4 Rh10'
_cell_volume   288.67078365
_cell_formula_units_Z   1
loop_
 _symmetry_equiv_pos_site_id
 _symmetry_equiv_pos_as_xyz
  1  'x, y, z'
loop_
 _atom_site_type_symbol
 _atom_site_label
 _atom_site_symmetry_multiplicity
 _atom_site_fract_x
 _atom_site_fract_y
 _atom_site_fract_z
 _atom_site_occupancy
  Tb  Tb0  1  0.825760  0.325760  0.000000  1
  Tb  Tb1  1  0.324566  0.174811  0.000000  1
  Tb  Tb2  1  0.674811  0.824566  0.000000  1
  Lu  Lu3  1  0.174525  0.674525  0.000000  1
  Ga  Ga4  1  0.999983  0.000507  0.000000  1
  Ga  Ga5  1  0.500507  0.499983  0.000000  1
  B  B6  1  0.621940  0.121940  0.000000  1
  B  B7  1  0.123010  0.379996  0.000000  1
  B  B8  1  0.879996  0.623010  0.000000  1
  B  B9  1  0.375460  0.875460  0.000000  1
  Rh  Rh10  1  0.070852  0.219752  0.500000  1
  Rh  Rh11  1  0.217305  0.926265  0.500000  1
  Rh  Rh12  1  0.780879  0.070551  0.500000  1
  Rh  Rh13  1  0.931882  0.781169  0.500000  1
  Rh  Rh14  1  0.426265  0.717305  0.500000  1
  Rh  Rh15  1  0.570551  0.280879  0.500000  1
  Rh  Rh16  1  0.719752  0.570852  0.500000  1
  Rh  Rh17  1  0.281169  0.431882  0.500000  1
  Rh  Rh18  1  0.499019  0.999019  0.500000  1
  Rh  Rh19  1  0.001769  0.501769  0.500000  1
