# generated using pymatgen
data_Er8Ti10NbSi16Hg
_symmetry_space_group_name_H-M   'P 1'
_cell_length_a   7.04954402
_cell_length_b   7.04954481
_cell_length_c   12.87052673
_cell_angle_alpha   90.18780692
_cell_angle_beta   89.81219491
_cell_angle_gamma   89.66000542
_symmetry_Int_Tables_number   1
_chemical_formula_structural   Er8Ti10NbSi16Hg
_chemical_formula_sum   'Er8 Ti10 Nb1 Si16 Hg1'
_cell_volume   639.59650614
_cell_formula_units_Z   1
loop_
 _symmetry_equiv_pos_site_id
 _symmetry_equiv_pos_as_xyz
  1  'x, y, z'
loop_
 _atom_site_type_symbol
 _atom_site_label
 _atom_site_symmetry_multiplicity
 _atom_site_fract_x
 _atom_site_fract_y
 _atom_site_fract_z
 _atom_site_occupancy
  Er  Er0  1  0.341768  0.000578  0.467390  1
  Er  Er1  1  0.498178  0.840984  0.715741  1
  Er  Er2  1  0.501705  0.156360  0.215191  1
  Er  Er3  1  0.840984  0.498178  0.284259  1
  Er  Er4  1  0.156360  0.501705  0.784809  1
  Er  Er5  1  0.656924  0.001194  0.968658  1
  Er  Er6  1  0.000578  0.341768  0.532610  1
  Er  Er7  1  0.001194  0.656924  0.031342  1
  Ti  Ti8  1  0.174073  0.825818  0.250517  1
  Ti  Ti9  1  0.825818  0.174073  0.749483  1
  Ti  Ti10  1  0.146649  0.008552  0.876766  1
  Ti  Ti11  1  0.496137  0.649779  0.123133  1
  Ti  Ti12  1  0.506888  0.352348  0.623352  1
  Ti  Ti13  1  0.649779  0.496137  0.876867  1
  Ti  Ti14  1  0.352348  0.506888  0.376648  1
  Ti  Ti15  1  0.848806  0.990542  0.374713  1
  Ti  Ti16  1  0.008552  0.146649  0.123234  1
  Ti  Ti17  1  0.990542  0.848806  0.625287  1
  Nb  Nb18  1  0.672821  0.672821  0.500000  1
  Si  Si19  1  0.201669  0.133019  0.683627  1
  Si  Si20  1  0.373499  0.725696  0.926576  1
  Si  Si21  1  0.631909  0.292621  0.432314  1
  Si  Si22  1  0.725696  0.373499  0.073424  1
  Si  Si23  1  0.292621  0.631909  0.567686  1
  Si  Si24  1  0.798514  0.866354  0.182533  1
  Si  Si25  1  0.133019  0.201669  0.316373  1
  Si  Si26  1  0.866354  0.798514  0.817467  1
  Si  Si27  1  0.286823  0.932976  0.067451  1
  Si  Si28  1  0.546128  0.791747  0.313296  1
  Si  Si29  1  0.458517  0.205829  0.805666  1
  Si  Si30  1  0.791747  0.546128  0.686704  1
  Si  Si31  1  0.205829  0.458517  0.194334  1
  Si  Si32  1  0.708839  0.048223  0.563875  1
  Si  Si33  1  0.932976  0.286823  0.932549  1
  Si  Si34  1  0.048223  0.708839  0.436125  1
  Hg  Hg35  1  0.327533  0.327533  0.000000  1
