# generated using pymatgen
data_ScCo(NiP)2
_symmetry_space_group_name_H-M   'P 1'
_cell_length_a   3.62588900
_cell_length_b   10.39498400
_cell_length_c   11.99183900
_cell_angle_alpha   90.00000000
_cell_angle_beta   90.00000000
_cell_angle_gamma   90.00000000
_symmetry_Int_Tables_number   1
_chemical_formula_structural   ScCo(NiP)2
_chemical_formula_sum   'Sc6 Co6 Ni12 P12'
_cell_volume   451.98510096
_cell_formula_units_Z   6
loop_
 _symmetry_equiv_pos_site_id
 _symmetry_equiv_pos_as_xyz
  1  'x, y, z'
loop_
 _atom_site_type_symbol
 _atom_site_label
 _atom_site_symmetry_multiplicity
 _atom_site_fract_x
 _atom_site_fract_y
 _atom_site_fract_z
 _atom_site_occupancy
  Sc  Sc0  1  0.000000  0.500000  0.523036  1
  Sc  Sc1  1  0.500000  0.000000  0.476964  1
  Sc  Sc2  1  0.500000  0.818479  0.206030  1
  Sc  Sc3  1  0.500000  0.181521  0.206030  1
  Sc  Sc4  1  0.000000  0.681521  0.793970  1
  Sc  Sc5  1  0.000000  0.318479  0.793970  1
  Co  Co6  1  0.000000  0.500000  0.985554  1
  Co  Co7  1  0.500000  0.000000  0.014446  1
  Co  Co8  1  0.500000  0.333967  0.994367  1
  Co  Co9  1  0.500000  0.666033  0.994367  1
  Co  Co10  1  0.000000  0.166033  0.005633  1
  Co  Co11  1  0.000000  0.833967  0.005633  1
  Ni  Ni12  1  0.500000  0.301450  0.431263  1
  Ni  Ni13  1  0.500000  0.698550  0.431263  1
  Ni  Ni14  1  0.000000  0.198550  0.568737  1
  Ni  Ni15  1  0.000000  0.801450  0.568737  1
  Ni  Ni16  1  0.500000  0.875497  0.711174  1
  Ni  Ni17  1  0.500000  0.124503  0.711174  1
  Ni  Ni18  1  0.000000  0.624503  0.288826  1
  Ni  Ni19  1  0.000000  0.375497  0.288826  1
  Ni  Ni20  1  0.500000  0.500000  0.160435  1
  Ni  Ni21  1  0.000000  0.000000  0.839565  1
  Ni  Ni22  1  0.500000  0.500000  0.702459  1
  Ni  Ni23  1  0.000000  0.000000  0.297541  1
  P  P24  1  0.500000  0.317810  0.617991  1
  P  P25  1  0.500000  0.682190  0.617991  1
  P  P26  1  0.000000  0.182190  0.382009  1
  P  P27  1  0.000000  0.817810  0.382009  1
  P  P28  1  0.500000  0.500000  0.879395  1
  P  P29  1  0.000000  0.000000  0.120605  1
  P  P30  1  0.500000  0.842688  0.893613  1
  P  P31  1  0.500000  0.157312  0.893613  1
  P  P32  1  0.000000  0.657312  0.106387  1
  P  P33  1  0.000000  0.342688  0.106387  1
  P  P34  1  0.500000  0.500000  0.350619  1
  P  P35  1  0.000000  0.000000  0.649381  1
