# generated using pymatgen
data_Lu3(GaPt2)2
_symmetry_space_group_name_H-M   'P 1'
_cell_length_a   7.24312205
_cell_length_b   7.53487339
_cell_length_c   3.68440700
_cell_angle_alpha   90.00000000
_cell_angle_beta   90.00000000
_cell_angle_gamma   121.34162839
_symmetry_Int_Tables_number   1
_chemical_formula_structural   Lu3(GaPt2)2
_chemical_formula_sum   'Lu3 Ga2 Pt4'
_cell_volume   171.73882875
_cell_formula_units_Z   1
loop_
 _symmetry_equiv_pos_site_id
 _symmetry_equiv_pos_as_xyz
  1  'x, y, z'
loop_
 _atom_site_type_symbol
 _atom_site_label
 _atom_site_symmetry_multiplicity
 _atom_site_fract_x
 _atom_site_fract_y
 _atom_site_fract_z
 _atom_site_occupancy
  Lu  Lu0  1  0.369807  0.391161  0.500000  1
  Lu  Lu1  1  0.630193  0.021354  0.500000  1
  Lu  Lu2  1  0.000000  0.582955  0.500000  1
  Ga  Ga3  1  0.737765  0.735408  0.000000  1
  Ga  Ga4  1  0.262235  0.997643  0.000000  1
  Pt  Pt5  1  0.000000  0.262988  0.000000  1
  Pt  Pt6  1  0.647951  0.344395  0.000000  1
  Pt  Pt7  1  0.352049  0.696444  0.000000  1
  Pt  Pt8  1  0.000000  0.967653  0.500000  1
