# generated using pymatgen
data_Pr8Si15Rh
_symmetry_space_group_name_H-M   'P 1'
_cell_length_a   8.22874000
_cell_length_b   8.22874060
_cell_length_c   8.53092500
_cell_angle_alpha   90.00000000
_cell_angle_beta   90.00000000
_cell_angle_gamma   120.00000562
_symmetry_Int_Tables_number   1
_chemical_formula_structural   Pr8Si15Rh
_chemical_formula_sum   'Pr8 Si15 Rh1'
_cell_volume   500.25730996
_cell_formula_units_Z   1
loop_
 _symmetry_equiv_pos_site_id
 _symmetry_equiv_pos_as_xyz
  1  'x, y, z'
loop_
 _atom_site_type_symbol
 _atom_site_label
 _atom_site_symmetry_multiplicity
 _atom_site_fract_x
 _atom_site_fract_y
 _atom_site_fract_z
 _atom_site_occupancy
  Pr  Pr0  1  0.499709  0.500291  0.746067  1
  Pr  Pr1  1  0.500124  0.499876  0.254077  1
  Pr  Pr2  1  0.000584  0.500291  0.746067  1
  Pr  Pr3  1  0.999752  0.499876  0.254077  1
  Pr  Pr4  1  0.499709  0.999416  0.746067  1
  Pr  Pr5  1  0.500124  0.000248  0.254077  1
  Pr  Pr6  1  0.000000  0.000000  0.749195  1
  Pr  Pr7  1  0.000000  0.000000  0.250542  1
  Si  Si8  1  0.829114  0.170886  0.000138  1
  Si  Si9  1  0.163059  0.836941  0.999723  1
  Si  Si10  1  0.341772  0.170886  0.000138  1
  Si  Si11  1  0.167804  0.832196  0.500251  1
  Si  Si12  1  0.673881  0.836941  0.999723  1
  Si  Si13  1  0.833936  0.166064  0.499676  1
  Si  Si14  1  0.829114  0.658228  0.000138  1
  Si  Si15  1  0.664391  0.832196  0.500251  1
  Si  Si16  1  0.163059  0.326119  0.999723  1
  Si  Si17  1  0.332127  0.166064  0.499676  1
  Si  Si18  1  0.167804  0.335609  0.500251  1
  Si  Si19  1  0.833936  0.667873  0.499676  1
  Si  Si20  1  0.333333  0.666667  0.001511  1
  Si  Si21  1  0.333333  0.666667  0.499165  1
  Si  Si22  1  0.666667  0.333333  0.501091  1
  Rh  Rh23  1  0.666667  0.333333  0.998709  1
