# generated using pymatgen
data_Cs2MgTiSe4
_symmetry_space_group_name_H-M   'P 1'
_cell_length_a   14.98241832
_cell_length_b   13.35250061
_cell_length_c   8.12212833
_cell_angle_alpha   84.76629722
_cell_angle_beta   62.56023812
_cell_angle_gamma   32.67346832
_symmetry_Int_Tables_number   1
_chemical_formula_structural   Cs2MgTiSe4
_chemical_formula_sum   'Cs4 Mg2 Ti2 Se8'
_cell_volume   611.28487913
_cell_formula_units_Z   2
loop_
 _symmetry_equiv_pos_site_id
 _symmetry_equiv_pos_as_xyz
  1  'x, y, z'
loop_
 _atom_site_type_symbol
 _atom_site_label
 _atom_site_symmetry_multiplicity
 _atom_site_fract_x
 _atom_site_fract_y
 _atom_site_fract_z
 _atom_site_occupancy
  Cs  Cs0  1  0.821444  0.821444  0.178556  1
  Cs  Cs1  1  0.178556  0.178556  0.821444  1
  Cs  Cs2  1  0.428556  0.428556  0.071444  1
  Cs  Cs3  1  0.071444  0.071444  0.428556  1
  Mg  Mg4  1  0.750000  0.750000  0.750000  1
  Mg  Mg5  1  0.500000  0.500000  0.500000  1
  Ti  Ti6  1  0.250000  0.250000  0.250000  1
  Ti  Ti7  1  0.000000  0.000000  0.000000  1
  Se  Se8  1  0.371698  0.732432  0.814269  1
  Se  Se9  1  0.081601  0.814269  0.732432  1
  Se  Se10  1  0.814269  0.081601  0.371698  1
  Se  Se11  1  0.732432  0.371698  0.081601  1
  Se  Se12  1  0.878302  0.517568  0.435731  1
  Se  Se13  1  0.168399  0.435731  0.517568  1
  Se  Se14  1  0.435731  0.168399  0.878302  1
  Se  Se15  1  0.517568  0.878302  0.168399  1
