# generated using pymatgen
data_Mg3Ta6NbB20
_symmetry_space_group_name_H-M   'P 1'
_cell_length_a   6.15061477
_cell_length_b   7.01282454
_cell_length_c   7.43523455
_cell_angle_alpha   94.40098552
_cell_angle_beta   101.96997347
_cell_angle_gamma   115.99901295
_symmetry_Int_Tables_number   1
_chemical_formula_structural   Mg3Ta6NbB20
_chemical_formula_sum   'Mg3 Ta6 Nb1 B20'
_cell_volume   276.80950362
_cell_formula_units_Z   1
loop_
 _symmetry_equiv_pos_site_id
 _symmetry_equiv_pos_as_xyz
  1  'x, y, z'
loop_
 _atom_site_type_symbol
 _atom_site_label
 _atom_site_symmetry_multiplicity
 _atom_site_fract_x
 _atom_site_fract_y
 _atom_site_fract_z
 _atom_site_occupancy
  Mg  Mg0  1  0.496957  0.997658  0.996784  1
  Mg  Mg1  1  0.999960  0.203335  0.603757  1
  Mg  Mg2  1  0.003874  0.601695  0.800669  1
  Ta  Ta3  1  0.500349  0.797506  0.400792  1
  Ta  Ta4  1  0.999282  0.399429  0.200861  1
  Ta  Ta5  1  0.501335  0.204273  0.597533  1
  Ta  Ta6  1  0.999519  0.804389  0.397778  1
  Ta  Ta7  1  0.499251  0.600936  0.798030  1
  Ta  Ta8  1  0.500756  0.395630  0.200597  1
  Nb  Nb9  1  0.997940  0.996000  0.003146  1
  B  B10  1  0.333508  0.233764  0.867294  1
  B  B11  1  0.332267  0.632503  0.066086  1
  B  B12  1  0.164625  0.366703  0.930315  1
  B  B13  1  0.334582  0.033463  0.264157  1
  B  B14  1  0.167319  0.763983  0.132456  1
  B  B15  1  0.835383  0.235217  0.866176  1
  B  B16  1  0.164534  0.165644  0.336277  1
  B  B17  1  0.832677  0.630313  0.065590  1
  B  B18  1  0.332503  0.432894  0.467902  1
  B  B19  1  0.665699  0.364475  0.934533  1
  B  B20  1  0.831227  0.031692  0.268084  1
  B  B21  1  0.664107  0.765140  0.132479  1
  B  B22  1  0.333208  0.835393  0.668312  1
  B  B23  1  0.166187  0.566954  0.535440  1
  B  B24  1  0.666407  0.165967  0.333867  1
  B  B25  1  0.836075  0.434227  0.468859  1
  B  B26  1  0.167626  0.967203  0.730476  1
  B  B27  1  0.835298  0.836471  0.665127  1
  B  B28  1  0.670711  0.569230  0.534220  1
  B  B29  1  0.666834  0.967914  0.732401  1
