# generated using pymatgen
data_Sm10B2Cl15
_symmetry_space_group_name_H-M   'P 1'
_cell_length_a   8.88519777
_cell_length_b   9.73768951
_cell_length_c   10.50122413
_cell_angle_alpha   90.70263769
_cell_angle_beta   114.66475558
_cell_angle_gamma   111.18457966
_symmetry_Int_Tables_number   1
_chemical_formula_structural   Sm10B2Cl15
_chemical_formula_sum   'Sm10 B2 Cl15'
_cell_volume   755.49576120
_cell_formula_units_Z   1
loop_
 _symmetry_equiv_pos_site_id
 _symmetry_equiv_pos_as_xyz
  1  'x, y, z'
loop_
 _atom_site_type_symbol
 _atom_site_label
 _atom_site_symmetry_multiplicity
 _atom_site_fract_x
 _atom_site_fract_y
 _atom_site_fract_z
 _atom_site_occupancy
  Sm  Sm0  1  0.810866  0.417888  0.280409  1
  Sm  Sm1  1  0.189134  0.582112  0.719591  1
  Sm  Sm2  1  0.682332  0.743925  0.819099  1
  Sm  Sm3  1  0.317668  0.256075  0.180901  1
  Sm  Sm4  1  0.526766  0.700641  0.100963  1
  Sm  Sm5  1  0.473234  0.299359  0.899037  1
  Sm  Sm6  1  0.589985  0.038272  0.333053  1
  Sm  Sm7  1  0.410015  0.961728  0.666947  1
  Sm  Sm8  1  0.732486  0.077334  0.049665  1
  Sm  Sm9  1  0.267514  0.922666  0.950335  1
  B  B10  1  0.466465  0.816817  0.874459  1
  B  B11  1  0.533535  0.183183  0.125541  1
  Cl  Cl12  1  0.000000  0.000000  0.000000  1
  Cl  Cl13  1  0.635873  0.883403  0.586445  1
  Cl  Cl14  1  0.364127  0.116597  0.413555  1
  Cl  Cl15  1  0.881939  0.299160  0.524593  1
  Cl  Cl16  1  0.118061  0.700840  0.475407  1
  Cl  Cl17  1  0.295290  0.764689  0.180736  1
  Cl  Cl18  1  0.704710  0.235311  0.819264  1
  Cl  Cl19  1  0.055138  0.343538  0.227454  1
  Cl  Cl20  1  0.169436  0.058761  0.704788  1
  Cl  Cl21  1  0.830564  0.941239  0.295212  1
  Cl  Cl22  1  0.236796  0.411793  0.945094  1
  Cl  Cl23  1  0.763204  0.588207  0.054906  1
  Cl  Cl24  1  0.408422  0.467376  0.662166  1
  Cl  Cl25  1  0.591578  0.532624  0.337834  1
  Cl  Cl26  1  0.944862  0.656462  0.772546  1
