# generated using pymatgen
data_Cs4LaNd3(GeSe4)4
_symmetry_space_group_name_H-M   'P 1'
_cell_length_a   7.22767623
_cell_length_b   6.94429263
_cell_length_c   19.92944052
_cell_angle_alpha   71.22410513
_cell_angle_beta   89.97124041
_cell_angle_gamma   89.98878750
_symmetry_Int_Tables_number   1
_chemical_formula_structural   Cs4LaNd3(GeSe4)4
_chemical_formula_sum   'Cs4 La1 Nd3 Ge4 Se16'
_cell_volume   947.05022796
_cell_formula_units_Z   1
loop_
 _symmetry_equiv_pos_site_id
 _symmetry_equiv_pos_as_xyz
  1  'x, y, z'
loop_
 _atom_site_type_symbol
 _atom_site_label
 _atom_site_symmetry_multiplicity
 _atom_site_fract_x
 _atom_site_fract_y
 _atom_site_fract_z
 _atom_site_occupancy
  Cs  Cs0  1  0.750267  0.728616  0.032964  1
  Cs  Cs1  1  0.249817  0.271340  0.966860  1
  Cs  Cs2  1  0.749708  0.728382  0.533088  1
  Cs  Cs3  1  0.250243  0.271455  0.467129  1
  La  La4  1  0.233260  0.227726  0.226859  1
  Nd  Nd5  1  0.732892  0.772608  0.273144  1
  Nd  Nd6  1  0.766869  0.772614  0.772919  1
  Nd  Nd7  1  0.266965  0.227364  0.727107  1
  Ge  Ge8  1  0.732865  0.213699  0.833787  1
  Ge  Ge9  1  0.767419  0.213419  0.334090  1
  Ge  Ge10  1  0.232831  0.786237  0.666254  1
  Ge  Ge11  1  0.267640  0.786599  0.165902  1
  Se  Se12  1  0.508488  0.036328  0.143444  1
  Se  Se13  1  0.759219  0.415755  0.409182  1
  Se  Se14  1  0.005201  0.008258  0.847033  1
  Se  Se15  1  0.835812  0.429964  0.217200  1
  Se  Se16  1  0.993982  0.038508  0.644303  1
  Se  Se17  1  0.259386  0.588378  0.089380  1
  Se  Se18  1  0.740854  0.415435  0.909206  1
  Se  Se19  1  0.339136  0.575074  0.283232  1
  Se  Se20  1  0.240880  0.584491  0.590839  1
  Se  Se21  1  0.493993  0.961478  0.855742  1
  Se  Se22  1  0.661229  0.429043  0.717209  1
  Se  Se23  1  0.161172  0.570914  0.782855  1
  Se  Se24  1  0.004775  0.959441  0.356624  1
  Se  Se25  1  0.993137  0.989077  0.152369  1
  Se  Se26  1  0.496753  0.006154  0.348302  1
  Se  Se27  1  0.505207  0.991643  0.652977  1
