# generated using pymatgen
data_CaCeLu2(B6Ru)2
_symmetry_space_group_name_H-M   'P 1'
_cell_length_a   3.64646300
_cell_length_b   9.10613634
_cell_length_c   11.50424058
_cell_angle_alpha   90.24048899
_cell_angle_beta   90.00000000
_cell_angle_gamma   90.00000000
_symmetry_Int_Tables_number   1
_chemical_formula_structural   CaCeLu2(B6Ru)2
_chemical_formula_sum   'Ca2 Ce2 Lu4 B24 Ru4'
_cell_volume   381.99712052
_cell_formula_units_Z   2
loop_
 _symmetry_equiv_pos_site_id
 _symmetry_equiv_pos_as_xyz
  1  'x, y, z'
loop_
 _atom_site_type_symbol
 _atom_site_label
 _atom_site_symmetry_multiplicity
 _atom_site_fract_x
 _atom_site_fract_y
 _atom_site_fract_z
 _atom_site_occupancy
  Ca  Ca0  1  0.000000  0.823718  0.084638  1
  Ca  Ca1  1  0.000000  0.176282  0.915362  1
  Ce  Ce2  1  0.000000  0.321936  0.413745  1
  Ce  Ce3  1  0.000000  0.678064  0.586255  1
  Lu  Lu4  1  0.000000  0.944749  0.371007  1
  Lu  Lu5  1  0.000000  0.055251  0.628993  1
  Lu  Lu6  1  0.000000  0.443085  0.127114  1
  Lu  Lu7  1  0.000000  0.556915  0.872886  1
  B  B8  1  0.500000  0.555256  0.431620  1
  B  B9  1  0.500000  0.444744  0.568380  1
  B  B10  1  0.500000  0.054890  0.068209  1
  B  B11  1  0.500000  0.945110  0.931791  1
  B  B12  1  0.500000  0.750494  0.417961  1
  B  B13  1  0.500000  0.249506  0.582039  1
  B  B14  1  0.500000  0.249287  0.082011  1
  B  B15  1  0.500000  0.750713  0.917989  1
  B  B16  1  0.500000  0.791612  0.265051  1
  B  B17  1  0.500000  0.208388  0.734949  1
  B  B18  1  0.500000  0.292076  0.234205  1
  B  B19  1  0.500000  0.707924  0.765795  1
  B  B20  1  0.500000  0.631061  0.183826  1
  B  B21  1  0.500000  0.368939  0.816174  1
  B  B22  1  0.500000  0.131040  0.315555  1
  B  B23  1  0.500000  0.868960  0.684445  1
  B  B24  1  0.500000  0.983906  0.212804  1
  B  B25  1  0.500000  0.016094  0.787196  1
  B  B26  1  0.500000  0.484595  0.285932  1
  B  B27  1  0.500000  0.515405  0.714068  1
  B  B28  1  0.500000  0.600586  0.027543  1
  B  B29  1  0.500000  0.399414  0.972457  1
  B  B30  1  0.500000  0.103228  0.472079  1
  B  B31  1  0.500000  0.896772  0.527921  1
  Ru  Ru32  1  0.000000  0.638465  0.320973  1
  Ru  Ru33  1  0.000000  0.361535  0.679027  1
  Ru  Ru34  1  0.000000  0.141617  0.183205  1
  Ru  Ru35  1  0.000000  0.858383  0.816795  1
