# generated using pymatgen
data_Tb11TmCo4SnRh
_symmetry_space_group_name_H-M   'P 1'
_cell_length_a   8.31743771
_cell_length_b   8.32654551
_cell_length_c   8.32654632
_cell_angle_alpha   111.00291604
_cell_angle_beta   110.56375200
_cell_angle_gamma   106.92009593
_symmetry_Int_Tables_number   1
_chemical_formula_structural   Tb11TmCo4SnRh
_chemical_formula_sum   'Tb11 Tm1 Co4 Sn1 Rh1'
_cell_volume   443.00795183
_cell_formula_units_Z   1
loop_
 _symmetry_equiv_pos_site_id
 _symmetry_equiv_pos_as_xyz
  1  'x, y, z'
loop_
 _atom_site_type_symbol
 _atom_site_label
 _atom_site_symmetry_multiplicity
 _atom_site_fract_x
 _atom_site_fract_y
 _atom_site_fract_z
 _atom_site_occupancy
  Tb  Tb0  1  0.597876  0.791708  0.806167  1
  Tb  Tb1  1  0.015622  0.208845  0.806777  1
  Tb  Tb2  1  0.985836  0.790042  0.195794  1
  Tb  Tb3  1  0.186980  0.293038  0.478879  1
  Tb  Tb4  1  0.811894  0.704991  0.517749  1
  Tb  Tb5  1  0.186980  0.708101  0.893942  1
  Tb  Tb6  1  0.811894  0.294146  0.106904  1
  Tb  Tb7  1  0.313871  0.618112  0.306352  1
  Tb  Tb8  1  0.685466  0.380106  0.693412  1
  Tb  Tb9  1  0.313871  0.007518  0.695757  1
  Tb  Tb10  1  0.685466  0.992054  0.305361  1
  Tm  Tm11  1  0.408276  0.211581  0.196695  1
  Co  Co12  1  0.377514  0.000776  0.376738  1
  Co  Co13  1  0.618248  0.999222  0.619025  1
  Co  Co14  1  0.111092  0.610787  0.500305  1
  Co  Co15  1  0.881780  0.386878  0.494902  1
  Sn  Sn16  1  0.499518  0.499318  0.000200  1
  Rh  Rh17  1  0.007817  0.002776  0.005041  1
