# generated using pymatgen
data_TbYbSm5NiI12
_symmetry_space_group_name_H-M   'P 1'
_cell_length_a   9.87939334
_cell_length_b   9.87333446
_cell_length_c   9.88640141
_cell_angle_alpha   106.78279592
_cell_angle_beta   106.95376560
_cell_angle_gamma   106.87655775
_symmetry_Int_Tables_number   1
_chemical_formula_structural   TbYbSm5NiI12
_chemical_formula_sum   'Tb1 Yb1 Sm5 Ni1 I12'
_cell_volume   805.92280821
_cell_formula_units_Z   1
loop_
 _symmetry_equiv_pos_site_id
 _symmetry_equiv_pos_as_xyz
  1  'x, y, z'
loop_
 _atom_site_type_symbol
 _atom_site_label
 _atom_site_symmetry_multiplicity
 _atom_site_fract_x
 _atom_site_fract_y
 _atom_site_fract_z
 _atom_site_occupancy
  Tb  Tb0  1  0.024657  0.293731  0.096199  1
  Yb  Yb1  1  0.499998  0.500178  0.500064  1
  Sm  Sm2  1  0.902351  0.976092  0.702081  1
  Sm  Sm3  1  0.702165  0.903387  0.975622  1
  Sm  Sm4  1  0.975512  0.702205  0.902922  1
  Sm  Sm5  1  0.097587  0.024457  0.298082  1
  Sm  Sm6  1  0.298194  0.098275  0.024771  1
  Ni  Ni7  1  0.000251  0.000227  0.000127  1
  I  I8  1  0.928196  0.322580  0.779879  1
  I  I9  1  0.774833  0.926586  0.321798  1
  I  I10  1  0.321735  0.775337  0.926674  1
  I  I11  1  0.072900  0.675949  0.224262  1
  I  I12  1  0.225183  0.073510  0.678203  1
  I  I13  1  0.682556  0.227411  0.074242  1
  I  I14  1  0.540086  0.844376  0.618277  1
  I  I15  1  0.618431  0.540587  0.844428  1
  I  I16  1  0.844245  0.618634  0.540359  1
  I  I17  1  0.459936  0.155816  0.381652  1
  I  I18  1  0.377583  0.459204  0.155149  1
  I  I19  1  0.153602  0.381458  0.455209  1
