# generated using pymatgen
data_Li4La3PrSi8
_symmetry_space_group_name_H-M   'P 1'
_cell_length_a   3.91208700
_cell_length_b   7.80856601
_cell_length_c   10.71082029
_cell_angle_alpha   89.95961565
_cell_angle_beta   90.00000000
_cell_angle_gamma   90.00000000
_symmetry_Int_Tables_number   1
_chemical_formula_structural   Li4La3PrSi8
_chemical_formula_sum   'Li4 La3 Pr1 Si8'
_cell_volume   327.19180303
_cell_formula_units_Z   1
loop_
 _symmetry_equiv_pos_site_id
 _symmetry_equiv_pos_as_xyz
  1  'x, y, z'
loop_
 _atom_site_type_symbol
 _atom_site_label
 _atom_site_symmetry_multiplicity
 _atom_site_fract_x
 _atom_site_fract_y
 _atom_site_fract_z
 _atom_site_occupancy
  Li  Li0  1  0.250000  0.996385  0.390155  1
  Li  Li1  1  0.750000  0.004113  0.609016  1
  Li  Li2  1  0.250000  0.496429  0.111191  1
  Li  Li3  1  0.750000  0.503323  0.889917  1
  La  La4  1  0.250000  0.137011  0.866038  1
  La  La5  1  0.750000  0.862159  0.134635  1
  La  La6  1  0.250000  0.637324  0.634308  1
  Pr  Pr7  1  0.750000  0.364673  0.365768  1
  Si  Si8  1  0.750000  0.276056  0.074085  1
  Si  Si9  1  0.250000  0.724956  0.927224  1
  Si  Si10  1  0.750000  0.771715  0.427661  1
  Si  Si11  1  0.250000  0.225324  0.571320  1
  Si  Si12  1  0.750000  0.832039  0.822166  1
  Si  Si13  1  0.250000  0.167876  0.178787  1
  Si  Si14  1  0.750000  0.333032  0.676086  1
  Si  Si15  1  0.250000  0.667582  0.321643  1
