# generated using pymatgen
data_Al2SnCl8
_symmetry_space_group_name_H-M   'P 1'
_cell_length_a   7.13987100
_cell_length_b   7.64499320
_cell_length_c   12.87527019
_cell_angle_alpha   85.74276255
_cell_angle_beta   90.00000000
_cell_angle_gamma   90.00000000
_symmetry_Int_Tables_number   1
_chemical_formula_structural   Al2SnCl8
_chemical_formula_sum   'Al4 Sn2 Cl16'
_cell_volume   700.84804359
_cell_formula_units_Z   2
loop_
 _symmetry_equiv_pos_site_id
 _symmetry_equiv_pos_as_xyz
  1  'x, y, z'
loop_
 _atom_site_type_symbol
 _atom_site_label
 _atom_site_symmetry_multiplicity
 _atom_site_fract_x
 _atom_site_fract_y
 _atom_site_fract_z
 _atom_site_occupancy
  Al  Al0  1  0.261720  0.681089  0.579270  1
  Al  Al1  1  0.738280  0.681089  0.079270  1
  Al  Al2  1  0.738280  0.318911  0.420730  1
  Al  Al3  1  0.261720  0.318911  0.920730  1
  Sn  Sn4  1  0.880104  0.500000  0.750000  1
  Sn  Sn5  1  0.119896  0.500000  0.250000  1
  Cl  Cl6  1  0.823039  0.407674  0.117586  1
  Cl  Cl7  1  0.823039  0.592326  0.382414  1
  Cl  Cl8  1  0.297496  0.734807  0.413978  1
  Cl  Cl9  1  0.297496  0.265193  0.086022  1
  Cl  Cl10  1  0.702504  0.265193  0.586022  1
  Cl  Cl11  1  0.702504  0.734807  0.913978  1
  Cl  Cl12  1  0.022294  0.820461  0.639149  1
  Cl  Cl13  1  0.022294  0.179539  0.860851  1
  Cl  Cl14  1  0.977706  0.179539  0.360851  1
  Cl  Cl15  1  0.977706  0.820461  0.139149  1
  Cl  Cl16  1  0.516933  0.745285  0.653535  1
  Cl  Cl17  1  0.516933  0.254715  0.846465  1
  Cl  Cl18  1  0.483067  0.254715  0.346465  1
  Cl  Cl19  1  0.483067  0.745285  0.153535  1
  Cl  Cl20  1  0.176961  0.407674  0.617586  1
  Cl  Cl21  1  0.176961  0.592326  0.882414  1
