# generated using pymatgen
data_Sc3GeP2Ir2Ru
_symmetry_space_group_name_H-M   'P 1'
_cell_length_a   6.46651249
_cell_length_b   6.46651256
_cell_length_c   3.90057100
_cell_angle_alpha   90.00000000
_cell_angle_beta   90.00000000
_cell_angle_gamma   119.89935479
_symmetry_Int_Tables_number   1
_chemical_formula_structural   Sc3GeP2Ir2Ru
_chemical_formula_sum   'Sc3 Ge1 P2 Ir2 Ru1'
_cell_volume   141.39648738
_cell_formula_units_Z   1
loop_
 _symmetry_equiv_pos_site_id
 _symmetry_equiv_pos_as_xyz
  1  'x, y, z'
loop_
 _atom_site_type_symbol
 _atom_site_label
 _atom_site_symmetry_multiplicity
 _atom_site_fract_x
 _atom_site_fract_y
 _atom_site_fract_z
 _atom_site_occupancy
  Sc  Sc0  1  0.426085  0.426085  0.500000  1
  Sc  Sc1  1  0.572554  0.998707  0.500000  1
  Sc  Sc2  1  0.998707  0.572554  0.500000  1
  Ge  Ge3  1  0.996649  0.996649  0.500000  1
  P  P4  1  0.667695  0.335558  0.000000  1
  P  P5  1  0.335558  0.667695  0.000000  1
  Ir  Ir6  1  0.000479  0.252893  0.000000  1
  Ir  Ir7  1  0.252893  0.000479  0.000000  1
  Ru  Ru8  1  0.749381  0.749381  0.000000  1
