# generated using pymatgen
data_Gd2MoWN4
_symmetry_space_group_name_H-M   'P 1'
_cell_length_a   3.24234500
_cell_length_b   5.76295410
_cell_length_c   10.64301003
_cell_angle_alpha   90.07074092
_cell_angle_beta   90.00000000
_cell_angle_gamma   90.00000000
_symmetry_Int_Tables_number   1
_chemical_formula_structural   Gd2MoWN4
_chemical_formula_sum   'Gd4 Mo2 W2 N8'
_cell_volume   198.86965697
_cell_formula_units_Z   2
loop_
 _symmetry_equiv_pos_site_id
 _symmetry_equiv_pos_as_xyz
  1  'x, y, z'
loop_
 _atom_site_type_symbol
 _atom_site_label
 _atom_site_symmetry_multiplicity
 _atom_site_fract_x
 _atom_site_fract_y
 _atom_site_fract_z
 _atom_site_occupancy
  Gd  Gd0  1  0.250000  0.577985  0.855336  1
  Gd  Gd1  1  0.750000  0.422015  0.144664  1
  Gd  Gd2  1  0.750000  0.921973  0.354786  1
  Gd  Gd3  1  0.250000  0.078027  0.645214  1
  Mo  Mo4  1  0.250000  0.935663  0.093946  1
  Mo  Mo5  1  0.750000  0.064337  0.906054  1
  W  W6  1  0.750000  0.566381  0.595432  1
  W  W7  1  0.250000  0.433619  0.404568  1
  N  N8  1  0.250000  0.663003  0.251570  1
  N  N9  1  0.750000  0.336997  0.748430  1
  N  N10  1  0.750000  0.832699  0.748556  1
  N  N11  1  0.250000  0.167301  0.251444  1
  N  N12  1  0.250000  0.754913  0.509024  1
  N  N13  1  0.750000  0.245087  0.490976  1
  N  N14  1  0.750000  0.747641  0.008253  1
  N  N15  1  0.250000  0.252359  0.991747  1
