# generated using pymatgen
data_Lu11In9Au4
_symmetry_space_group_name_H-M   'P 1'
_cell_length_a   12.94474131
_cell_length_b   12.94474165
_cell_length_c   3.68208900
_cell_angle_alpha   90.00000000
_cell_angle_beta   90.00000000
_cell_angle_gamma   109.68954820
_symmetry_Int_Tables_number   1
_chemical_formula_structural   Lu11In9Au4
_chemical_formula_sum   'Lu11 In9 Au4'
_cell_volume   580.91974726
_cell_formula_units_Z   1
loop_
 _symmetry_equiv_pos_site_id
 _symmetry_equiv_pos_as_xyz
  1  'x, y, z'
loop_
 _atom_site_type_symbol
 _atom_site_label
 _atom_site_symmetry_multiplicity
 _atom_site_fract_x
 _atom_site_fract_y
 _atom_site_fract_z
 _atom_site_occupancy
  Lu  Lu0  1  0.416642  0.068961  0.000000  1
  Lu  Lu1  1  0.583358  0.931039  0.000000  1
  Lu  Lu2  1  0.068961  0.416642  0.000000  1
  Lu  Lu3  1  0.931039  0.583358  0.000000  1
  Lu  Lu4  1  0.158745  0.841255  0.000000  1
  Lu  Lu5  1  0.841255  0.158745  0.000000  1
  Lu  Lu6  1  0.367317  0.632683  0.000000  1
  Lu  Lu7  1  0.632683  0.367317  0.000000  1
  Lu  Lu8  1  0.302344  0.302344  0.000000  1
  Lu  Lu9  1  0.697656  0.697656  0.000000  1
  Lu  Lu10  1  0.000000  0.000000  0.000000  1
  In  In11  1  0.366166  0.848231  0.500000  1
  In  In12  1  0.633834  0.151769  0.500000  1
  In  In13  1  0.848231  0.366166  0.500000  1
  In  In14  1  0.151769  0.633834  0.500000  1
  In  In15  1  0.213387  0.064251  0.500000  1
  In  In16  1  0.786613  0.935749  0.500000  1
  In  In17  1  0.064251  0.213387  0.500000  1
  In  In18  1  0.935749  0.786613  0.500000  1
  In  In19  1  0.500000  0.500000  0.500000  1
  Au  Au20  1  0.452369  0.250806  0.500000  1
  Au  Au21  1  0.547631  0.749194  0.500000  1
  Au  Au22  1  0.250806  0.452369  0.500000  1
  Au  Au23  1  0.749194  0.547631  0.500000  1
