# generated using pymatgen
data_HBr35
_symmetry_space_group_name_H-M   'P 1'
_cell_length_a   15.98197694
_cell_length_b   11.40028128
_cell_length_c   10.79188300
_cell_angle_alpha   88.81408278
_cell_angle_beta   66.02770512
_cell_angle_gamma   92.31545406
_symmetry_Int_Tables_number   1
_chemical_formula_structural   HBr35
_chemical_formula_sum   'H1 Br35'
_cell_volume   1793.71352310
_cell_formula_units_Z   1
loop_
 _symmetry_equiv_pos_site_id
 _symmetry_equiv_pos_as_xyz
  1  'x, y, z'
loop_
 _atom_site_type_symbol
 _atom_site_label
 _atom_site_symmetry_multiplicity
 _atom_site_fract_x
 _atom_site_fract_y
 _atom_site_fract_z
 _atom_site_occupancy
  H  H0  1  0.164972  0.329895  0.631933  1
  Br  Br1  1  0.511028  0.286669  0.542725  1
  Br  Br2  1  0.758178  0.581453  0.568847  1
  Br  Br3  1  0.485946  0.709163  0.740794  1
  Br  Br4  1  0.058484  0.868815  0.841998  1
  Br  Br5  1  0.886353  0.146102  0.028154  1
  Br  Br6  1  0.638681  0.325581  0.305599  1
  Br  Br7  1  0.619968  0.336395  0.842712  1
  Br  Br8  1  0.350312  0.800305  0.718369  1
  Br  Br9  1  0.412957  0.561150  0.163703  1
  Br  Br10  1  0.661015  0.136937  0.805754  1
  Br  Br11  1  0.904012  0.543355  0.363528  1
  Br  Br12  1  0.063478  0.903635  0.605402  1
  Br  Br13  1  0.893468  0.107564  0.266812  1
  Br  Br14  1  0.882867  0.195016  0.807696  1
  Br  Br15  1  0.648493  0.051023  0.173336  1
  Br  Br16  1  0.035424  0.831984  0.090550  1
  Br  Br17  1  0.366610  0.018307  0.754818  1
  Br  Br18  1  0.897190  0.317884  0.321853  1
  Br  Br19  1  0.882752  0.909745  0.687455  1
  Br  Br20  1  0.880087  0.641492  0.816724  1
  Br  Br21  1  0.307737  0.122150  0.252335  1
  Br  Br22  1  0.335263  0.329462  0.212315  1
  Br  Br23  1  0.615244  0.612827  0.784458  1
  Br  Br24  1  0.081762  0.543477  0.414021  1
  Br  Br25  1  0.713671  0.908006  0.779794  1
  Br  Br26  1  0.867907  0.432399  0.821331  1
  Br  Br27  1  0.492327  0.072294  0.214732  1
  Br  Br28  1  0.155447  0.203653  0.645087  1
  Br  Br29  1  0.685659  0.773543  0.273885  1
  Br  Br30  1  0.857989  0.803079  0.186894  1
  Br  Br31  1  0.382619  0.240715  0.777202  1
  Br  Br32  1  0.326011  0.532639  0.579131  1
  Br  Br33  1  0.661173  0.546951  0.288971  1
  Br  Br34  1  0.183710  0.554867  0.539596  1
  Br  Br35  1  0.331207  0.721469  0.151490  1
