# generated using pymatgen
data_Nd5CoSnBi
_symmetry_space_group_name_H-M   'P 1'
_cell_length_a   8.30018483
_cell_length_b   9.10829711
_cell_length_c   12.66445181
_cell_angle_alpha   90.16351477
_cell_angle_beta   90.07437061
_cell_angle_gamma   89.98778427
_symmetry_Int_Tables_number   1
_chemical_formula_structural   Nd5CoSnBi
_chemical_formula_sum   'Nd20 Co4 Sn4 Bi4'
_cell_volume   957.43478911
_cell_formula_units_Z   4
loop_
 _symmetry_equiv_pos_site_id
 _symmetry_equiv_pos_as_xyz
  1  'x, y, z'
loop_
 _atom_site_type_symbol
 _atom_site_label
 _atom_site_symmetry_multiplicity
 _atom_site_fract_x
 _atom_site_fract_y
 _atom_site_fract_z
 _atom_site_occupancy
  Nd  Nd0  1  0.850332  0.744920  0.799183  1
  Nd  Nd1  1  0.153645  0.250253  0.200731  1
  Nd  Nd2  1  0.349207  0.255614  0.703340  1
  Nd  Nd3  1  0.646736  0.750329  0.296666  1
  Nd  Nd4  1  0.377587  0.744591  0.690712  1
  Nd  Nd5  1  0.614521  0.250051  0.307893  1
  Nd  Nd6  1  0.878436  0.255369  0.808398  1
  Nd  Nd7  1  0.128742  0.749630  0.190264  1
  Nd  Nd8  1  0.950978  0.747067  0.505324  1
  Nd  Nd9  1  0.052666  0.253336  0.498727  1
  Nd  Nd10  1  0.449138  0.252476  0.997681  1
  Nd  Nd11  1  0.548003  0.746537  0.006380  1
  Nd  Nd12  1  0.679416  0.031350  0.565902  1
  Nd  Nd13  1  0.321833  0.969209  0.429955  1
  Nd  Nd14  1  0.179588  0.969762  0.937085  1
  Nd  Nd15  1  0.321714  0.531378  0.431737  1
  Nd  Nd16  1  0.818052  0.030178  0.065206  1
  Nd  Nd17  1  0.680551  0.468986  0.570728  1
  Nd  Nd18  1  0.817678  0.469058  0.063914  1
  Nd  Nd19  1  0.181319  0.530513  0.932599  1
  Co  Co20  1  0.567681  0.750466  0.506377  1
  Co  Co21  1  0.431339  0.249409  0.493522  1
  Co  Co22  1  0.065307  0.249670  0.991950  1
  Co  Co23  1  0.935599  0.750337  0.008149  1
  Sn  Sn24  1  0.572700  0.495308  0.828500  1
  Sn  Sn25  1  0.427844  0.504154  0.172850  1
  Sn  Sn26  1  0.072572  0.506298  0.672393  1
  Sn  Sn27  1  0.427888  0.995325  0.171098  1
  Bi  Bi28  1  0.925459  0.493846  0.325281  1
  Bi  Bi29  1  0.573529  0.004459  0.825955  1
  Bi  Bi30  1  0.925912  0.006168  0.326702  1
  Bi  Bi31  1  0.074026  0.993951  0.674796  1
