# generated using pymatgen
data_TiAl2MoRu4
_symmetry_space_group_name_H-M   'P 1'
_cell_length_a   4.33054200
_cell_length_b   6.11832200
_cell_length_c   12.93319000
_cell_angle_alpha   90.00000000
_cell_angle_beta   90.00012818
_cell_angle_gamma   90.00000000
_symmetry_Int_Tables_number   1
_chemical_formula_structural   TiAl2MoRu4
_chemical_formula_sum   'Ti3 Al6 Mo3 Ru12'
_cell_volume   342.67328067
_cell_formula_units_Z   3
loop_
 _symmetry_equiv_pos_site_id
 _symmetry_equiv_pos_as_xyz
  1  'x, y, z'
loop_
 _atom_site_type_symbol
 _atom_site_label
 _atom_site_symmetry_multiplicity
 _atom_site_fract_x
 _atom_site_fract_y
 _atom_site_fract_z
 _atom_site_occupancy
  Ti  Ti0  1  0.500001  0.000000  0.503681  1
  Ti  Ti1  1  0.000151  0.499999  0.666668  1
  Ti  Ti2  1  0.500158  0.000000  0.829652  1
  Al  Al3  1  0.999998  0.000000  0.998004  1
  Al  Al4  1  0.499800  0.499999  0.166665  1
  Al  Al5  1  0.999821  0.000000  0.335332  1
  Al  Al6  1  0.499998  0.499999  0.503180  1
  Al  Al7  1  0.000184  0.000000  0.666665  1
  Al  Al8  1  0.500159  0.499999  0.830157  1
  Mo  Mo9  1  0.000000  0.499999  0.995690  1
  Mo  Mo10  1  0.499823  0.000000  0.166666  1
  Mo  Mo11  1  0.999830  0.499999  0.337644  1
  Ru  Ru12  1  0.500004  0.251099  0.002066  1
  Ru  Ru13  1  0.500004  0.748900  0.002066  1
  Ru  Ru14  1  0.999871  0.249796  0.166668  1
  Ru  Ru15  1  0.999871  0.750204  0.166668  1
  Ru  Ru16  1  0.499839  0.251094  0.331263  1
  Ru  Ru17  1  0.499839  0.748907  0.331263  1
  Ru  Ru18  1  0.999997  0.250113  0.497871  1
  Ru  Ru19  1  0.999997  0.749887  0.497871  1
  Ru  Ru20  1  0.500157  0.249492  0.666668  1
  Ru  Ru21  1  0.500157  0.750509  0.666668  1
  Ru  Ru22  1  0.000170  0.250107  0.835463  1
  Ru  Ru23  1  0.000170  0.749893  0.835463  1
