# generated using pymatgen
data_Pr3MgZn2IrPd2
_symmetry_space_group_name_H-M   'P 1'
_cell_length_a   7.54984024
_cell_length_b   7.52839437
_cell_length_c   4.02985500
_cell_angle_alpha   90.00000000
_cell_angle_beta   90.00000000
_cell_angle_gamma   120.12387326
_symmetry_Int_Tables_number   1
_chemical_formula_structural   Pr3MgZn2IrPd2
_chemical_formula_sum   'Pr3 Mg1 Zn2 Ir1 Pd2'
_cell_volume   198.11470898
_cell_formula_units_Z   1
loop_
 _symmetry_equiv_pos_site_id
 _symmetry_equiv_pos_as_xyz
  1  'x, y, z'
loop_
 _atom_site_type_symbol
 _atom_site_label
 _atom_site_symmetry_multiplicity
 _atom_site_fract_x
 _atom_site_fract_y
 _atom_site_fract_z
 _atom_site_occupancy
  Pr  Pr0  1  0.579895  0.997025  0.500000  1
  Pr  Pr1  1  0.394668  0.405001  0.500000  1
  Pr  Pr2  1  0.015749  0.589553  0.500000  1
  Mg  Mg3  1  0.759464  0.761313  0.000000  1
  Zn  Zn4  1  0.001175  0.247026  0.000000  1
  Zn  Zn5  1  0.244388  0.995474  0.000000  1
  Ir  Ir6  1  0.334487  0.666423  0.000000  1
  Pd  Pd7  1  0.004270  0.004263  0.500000  1
  Pd  Pd8  1  0.665904  0.333922  0.000000  1
