# generated using pymatgen
data_Sc7U(TcB6)4
_symmetry_space_group_name_H-M   'P 1'
_cell_length_a   8.90655897
_cell_length_b   11.21865771
_cell_length_c   3.53820500
_cell_angle_alpha   90.00000000
_cell_angle_beta   90.00000000
_cell_angle_gamma   90.14310436
_symmetry_Int_Tables_number   1
_chemical_formula_structural   Sc7U(TcB6)4
_chemical_formula_sum   'Sc7 U1 Tc4 B24'
_cell_volume   353.53505481
_cell_formula_units_Z   1
loop_
 _symmetry_equiv_pos_site_id
 _symmetry_equiv_pos_as_xyz
  1  'x, y, z'
loop_
 _atom_site_type_symbol
 _atom_site_label
 _atom_site_symmetry_multiplicity
 _atom_site_fract_x
 _atom_site_fract_y
 _atom_site_fract_z
 _atom_site_occupancy
  Sc  Sc0  1  0.057294  0.127761  0.000000  1
  Sc  Sc1  1  0.555670  0.372963  0.000000  1
  Sc  Sc2  1  0.178958  0.415727  0.000000  1
  Sc  Sc3  1  0.822871  0.586493  0.000000  1
  Sc  Sc4  1  0.442898  0.628611  0.000000  1
  Sc  Sc5  1  0.946311  0.870556  0.000000  1
  Sc  Sc6  1  0.317425  0.912038  0.000000  1
  U  U7  1  0.677254  0.085247  0.000000  1
  Tc  Tc8  1  0.362239  0.179655  0.000000  1
  Tc  Tc9  1  0.858682  0.318659  0.000000  1
  Tc  Tc10  1  0.139287  0.679956  0.000000  1
  Tc  Tc11  1  0.638870  0.821551  0.000000  1
  B  B12  1  0.901515  0.026962  0.500001  1
  B  B13  1  0.446537  0.066271  0.500001  1
  B  B14  1  0.247036  0.079493  0.500001  1
  B  B15  1  0.870167  0.182693  0.500001  1
  B  B16  1  0.519339  0.213546  0.500001  1
  B  B17  1  0.205236  0.236067  0.500001  1
  B  B18  1  0.705932  0.265159  0.500001  1
  B  B19  1  0.020761  0.288295  0.500001  1
  B  B20  1  0.369477  0.318427  0.500001  1
  B  B21  1  0.747844  0.422311  0.500001  1
  B  B22  1  0.946547  0.434908  0.500001  1
  B  B23  1  0.400748  0.473269  0.500001  1
  B  B24  1  0.599055  0.527869  0.500001  1
  B  B25  1  0.053238  0.564841  0.500001  1
  B  B26  1  0.252651  0.578708  0.500001  1
  B  B27  1  0.629305  0.682204  0.500001  1
  B  B28  1  0.979649  0.712063  0.500001  1
  B  B29  1  0.294491  0.735998  0.500001  1
  B  B30  1  0.794535  0.762766  0.500001  1
  B  B31  1  0.479312  0.786440  0.500001  1
  B  B32  1  0.130163  0.817183  0.500001  1
  B  B33  1  0.753440  0.919634  0.500001  1
  B  B34  1  0.554134  0.933528  0.500001  1
  B  B35  1  0.101134  0.972147  0.500001  1
