# generated using pymatgen
data_Ce3Dy(SnRh2)2
_symmetry_space_group_name_H-M   'P 1'
_cell_length_a   7.61568823
_cell_length_b   7.61568674
_cell_length_c   3.75008100
_cell_angle_alpha   90.00000000
_cell_angle_beta   90.00000000
_cell_angle_gamma   88.41694296
_symmetry_Int_Tables_number   1
_chemical_formula_structural   Ce3Dy(SnRh2)2
_chemical_formula_sum   'Ce3 Dy1 Sn2 Rh4'
_cell_volume   217.41679402
_cell_formula_units_Z   1
loop_
 _symmetry_equiv_pos_site_id
 _symmetry_equiv_pos_as_xyz
  1  'x, y, z'
loop_
 _atom_site_type_symbol
 _atom_site_label
 _atom_site_symmetry_multiplicity
 _atom_site_fract_x
 _atom_site_fract_y
 _atom_site_fract_z
 _atom_site_occupancy
  Ce  Ce0  1  0.329115  0.829115  0.500000  1
  Ce  Ce1  1  0.169115  0.326542  0.500000  1
  Ce  Ce2  1  0.826542  0.669115  0.500000  1
  Dy  Dy3  1  0.670573  0.170573  0.500000  1
  Sn  Sn4  1  0.993616  0.000686  0.000000  1
  Sn  Sn5  1  0.500686  0.493616  0.000000  1
  Rh  Rh6  1  0.143010  0.643010  0.000000  1
  Rh  Rh7  1  0.877115  0.377115  0.000000  1
  Rh  Rh8  1  0.632830  0.857399  0.000000  1
  Rh  Rh9  1  0.357399  0.132830  0.000000  1
