# generated using pymatgen
data_La16Y(LuIr4)3
_symmetry_space_group_name_H-M   'P 1'
_cell_length_a   11.38497600
_cell_length_b   11.38497600
_cell_length_c   6.52260200
_cell_angle_alpha   90.00000000
_cell_angle_beta   90.00000000
_cell_angle_gamma   90.00000000
_symmetry_Int_Tables_number   1
_chemical_formula_structural   La16Y(LuIr4)3
_chemical_formula_sum   'La16 Y1 Lu3 Ir12'
_cell_volume   845.44452915
_cell_formula_units_Z   1
loop_
 _symmetry_equiv_pos_site_id
 _symmetry_equiv_pos_as_xyz
  1  'x, y, z'
loop_
 _atom_site_type_symbol
 _atom_site_label
 _atom_site_symmetry_multiplicity
 _atom_site_fract_x
 _atom_site_fract_y
 _atom_site_fract_z
 _atom_site_occupancy
  La  La0  1  0.286490  0.087682  0.386854  1
  La  La1  1  0.286609  0.912031  0.886820  1
  La  La2  1  0.713391  0.087969  0.886820  1
  La  La3  1  0.713510  0.912318  0.386854  1
  La  La4  1  0.588094  0.786845  0.887188  1
  La  La5  1  0.588010  0.212617  0.386455  1
  La  La6  1  0.411990  0.787383  0.386455  1
  La  La7  1  0.411906  0.213155  0.887188  1
  La  La8  1  0.212617  0.411990  0.613545  1
  La  La9  1  0.213155  0.588094  0.112812  1
  La  La10  1  0.786845  0.411906  0.112812  1
  La  La11  1  0.787383  0.588010  0.613545  1
  La  La12  1  0.912031  0.713391  0.113180  1
  La  La13  1  0.912318  0.286490  0.613146  1
  La  La14  1  0.087682  0.713510  0.613146  1
  La  La15  1  0.087969  0.286609  0.113180  1
  Y  Y16  1  0.500000  0.500000  0.500000  1
  Lu  Lu17  1  0.000000  0.000000  0.500000  1
  Lu  Lu18  1  0.000000  0.000000  0.000000  1
  Lu  Lu19  1  0.500000  0.500000  0.000000  1
  Ir  Ir20  1  0.852983  0.147054  0.250010  1
  Ir  Ir21  1  0.852946  0.852983  0.749990  1
  Ir  Ir22  1  0.147054  0.147017  0.749990  1
  Ir  Ir23  1  0.147017  0.852946  0.250010  1
  Ir  Ir24  1  0.648501  0.351240  0.752750  1
  Ir  Ir25  1  0.648760  0.648501  0.247250  1
  Ir  Ir26  1  0.351240  0.351499  0.247250  1
  Ir  Ir27  1  0.351499  0.648760  0.752750  1
  Ir  Ir28  1  0.500000  0.000000  0.119177  1
  Ir  Ir29  1  0.500000  0.000000  0.619290  1
  Ir  Ir30  1  0.000000  0.500000  0.880823  1
  Ir  Ir31  1  0.000000  0.500000  0.380710  1
