# generated using pymatgen
data_Yb5HgPd2
_symmetry_space_group_name_H-M   'P 1'
_cell_length_a   8.97963181
_cell_length_b   8.97963149
_cell_length_c   8.97963193
_cell_angle_alpha   128.47297247
_cell_angle_beta   128.47297172
_cell_angle_gamma   75.86007853
_symmetry_Int_Tables_number   1
_chemical_formula_structural   Yb5HgPd2
_chemical_formula_sum   'Yb10 Hg2 Pd4'
_cell_volume   431.59482940
_cell_formula_units_Z   2
loop_
 _symmetry_equiv_pos_site_id
 _symmetry_equiv_pos_as_xyz
  1  'x, y, z'
loop_
 _atom_site_type_symbol
 _atom_site_label
 _atom_site_symmetry_multiplicity
 _atom_site_fract_x
 _atom_site_fract_y
 _atom_site_fract_z
 _atom_site_occupancy
  Yb  Yb0  1  0.500000  0.500000  0.000000  1
  Yb  Yb1  1  0.000000  0.000000  0.000000  1
  Yb  Yb2  1  0.531497  0.031497  0.831633  1
  Yb  Yb3  1  0.199864  0.699864  0.168367  1
  Yb  Yb4  1  0.031497  0.199864  0.500000  1
  Yb  Yb5  1  0.699864  0.531497  0.500000  1
  Yb  Yb6  1  0.468503  0.968503  0.168367  1
  Yb  Yb7  1  0.800136  0.300136  0.831633  1
  Yb  Yb8  1  0.968503  0.800136  0.500000  1
  Yb  Yb9  1  0.300136  0.468503  0.500000  1
  Hg  Hg10  1  0.250000  0.250000  0.000000  1
  Hg  Hg11  1  0.750000  0.750000  0.000000  1
  Pd  Pd12  1  0.132010  0.632010  0.764021  1
  Pd  Pd13  1  0.867990  0.367990  0.235979  1
  Pd  Pd14  1  0.632010  0.867990  0.500000  1
  Pd  Pd15  1  0.367990  0.132010  0.500000  1
