# generated using pymatgen
data_Ho12Th4Mg4FeCo3
_symmetry_space_group_name_H-M   'P 1'
_cell_length_a   9.63853751
_cell_length_b   9.63853713
_cell_length_c   9.63853721
_cell_angle_alpha   59.47037947
_cell_angle_beta   59.47038485
_cell_angle_gamma   59.47038061
_symmetry_Int_Tables_number   1
_chemical_formula_structural   Ho12Th4Mg4FeCo3
_chemical_formula_sum   'Ho12 Th4 Mg4 Fe1 Co3'
_cell_volume   625.53935147
_cell_formula_units_Z   1
loop_
 _symmetry_equiv_pos_site_id
 _symmetry_equiv_pos_as_xyz
  1  'x, y, z'
loop_
 _atom_site_type_symbol
 _atom_site_label
 _atom_site_symmetry_multiplicity
 _atom_site_fract_x
 _atom_site_fract_y
 _atom_site_fract_z
 _atom_site_occupancy
  Ho  Ho0  1  0.813285  0.186649  0.186649  1
  Ho  Ho1  1  0.184695  0.814533  0.814533  1
  Ho  Ho2  1  0.186649  0.813285  0.186649  1
  Ho  Ho3  1  0.814533  0.184695  0.814533  1
  Ho  Ho4  1  0.186649  0.186649  0.813285  1
  Ho  Ho5  1  0.814533  0.814533  0.184695  1
  Ho  Ho6  1  0.935640  0.565215  0.565215  1
  Ho  Ho7  1  0.563340  0.935511  0.935511  1
  Ho  Ho8  1  0.565215  0.935640  0.565215  1
  Ho  Ho9  1  0.935511  0.563340  0.935511  1
  Ho  Ho10  1  0.565215  0.565215  0.935640  1
  Ho  Ho11  1  0.935511  0.935511  0.563340  1
  Th  Th12  1  0.344211  0.344211  0.344211  1
  Th  Th13  1  0.343156  0.343156  0.968063  1
  Th  Th14  1  0.343156  0.968063  0.343156  1
  Th  Th15  1  0.968063  0.343156  0.343156  1
  Mg  Mg16  1  0.579859  0.579859  0.579859  1
  Mg  Mg17  1  0.579223  0.579223  0.260081  1
  Mg  Mg18  1  0.579223  0.260081  0.579223  1
  Mg  Mg19  1  0.260081  0.579223  0.579223  1
  Fe  Fe20  1  0.145696  0.145696  0.145696  1
  Co  Co21  1  0.145014  0.145014  0.566527  1
  Co  Co22  1  0.145014  0.566527  0.145014  1
  Co  Co23  1  0.566527  0.145014  0.145014  1
