# generated using pymatgen
data_PuScReB6
_symmetry_space_group_name_H-M   'P 1'
_cell_length_a   3.59285700
_cell_length_b   9.00953400
_cell_length_c   11.38442100
_cell_angle_alpha   90.00000000
_cell_angle_beta   90.00000000
_cell_angle_gamma   90.00000000
_symmetry_Int_Tables_number   1
_chemical_formula_structural   PuScReB6
_chemical_formula_sum   'Pu4 Sc4 Re4 B24'
_cell_volume   368.51333548
_cell_formula_units_Z   4
loop_
 _symmetry_equiv_pos_site_id
 _symmetry_equiv_pos_as_xyz
  1  'x, y, z'
loop_
 _atom_site_type_symbol
 _atom_site_label
 _atom_site_symmetry_multiplicity
 _atom_site_fract_x
 _atom_site_fract_y
 _atom_site_fract_z
 _atom_site_occupancy
  Pu  Pu0  1  0.000000  0.320283  0.414584  1
  Pu  Pu1  1  0.000000  0.679717  0.585416  1
  Pu  Pu2  1  0.000000  0.820283  0.085416  1
  Pu  Pu3  1  0.000000  0.179717  0.914584  1
  Sc  Sc4  1  0.000000  0.944953  0.372352  1
  Sc  Sc5  1  0.000000  0.055047  0.627648  1
  Sc  Sc6  1  0.000000  0.444953  0.127648  1
  Sc  Sc7  1  0.000000  0.555047  0.872352  1
  Re  Re8  1  0.000000  0.640485  0.318844  1
  Re  Re9  1  0.000000  0.359515  0.681156  1
  Re  Re10  1  0.000000  0.140485  0.181156  1
  Re  Re11  1  0.000000  0.859515  0.818844  1
  B  B12  1  0.500000  0.554119  0.432977  1
  B  B13  1  0.500000  0.445881  0.567023  1
  B  B14  1  0.500000  0.054119  0.067023  1
  B  B15  1  0.500000  0.945881  0.932977  1
  B  B16  1  0.500000  0.753659  0.418987  1
  B  B17  1  0.500000  0.246341  0.581013  1
  B  B18  1  0.500000  0.253659  0.081013  1
  B  B19  1  0.500000  0.746341  0.918987  1
  B  B20  1  0.500000  0.795152  0.264481  1
  B  B21  1  0.500000  0.204848  0.735519  1
  B  B22  1  0.500000  0.295152  0.235519  1
  B  B23  1  0.500000  0.704848  0.764481  1
  B  B24  1  0.500000  0.629921  0.182347  1
  B  B25  1  0.500000  0.370079  0.817653  1
  B  B26  1  0.500000  0.129921  0.317653  1
  B  B27  1  0.500000  0.870079  0.682347  1
  B  B28  1  0.500000  0.981048  0.214004  1
  B  B29  1  0.500000  0.018952  0.785996  1
  B  B30  1  0.500000  0.481048  0.285996  1
  B  B31  1  0.500000  0.518952  0.714004  1
  B  B32  1  0.500000  0.598356  0.026803  1
  B  B33  1  0.500000  0.401644  0.973197  1
  B  B34  1  0.500000  0.098356  0.473197  1
  B  B35  1  0.500000  0.901644  0.526803  1
