# generated using pymatgen
data_Dy3YAlNi
_symmetry_space_group_name_H-M   'P 1'
_cell_length_a   9.39149782
_cell_length_b   9.39149802
_cell_length_c   9.38579400
_cell_angle_alpha   60.02008223
_cell_angle_beta   60.02008153
_cell_angle_gamma   59.95982801
_symmetry_Int_Tables_number   1
_chemical_formula_structural   Dy3YAlNi
_chemical_formula_sum   'Dy12 Y4 Al4 Ni4'
_cell_volume   585.36318701
_cell_formula_units_Z   4
loop_
 _symmetry_equiv_pos_site_id
 _symmetry_equiv_pos_as_xyz
  1  'x, y, z'
loop_
 _atom_site_type_symbol
 _atom_site_label
 _atom_site_symmetry_multiplicity
 _atom_site_fract_x
 _atom_site_fract_y
 _atom_site_fract_z
 _atom_site_occupancy
  Dy  Dy0  1  0.813156  0.813156  0.186844  1
  Dy  Dy1  1  0.186844  0.186844  0.813156  1
  Dy  Dy2  1  0.600895  0.600895  0.600410  1
  Dy  Dy3  1  0.600895  0.600895  0.197801  1
  Dy  Dy4  1  0.600410  0.197801  0.600895  1
  Dy  Dy5  1  0.197801  0.600410  0.600895  1
  Dy  Dy6  1  0.059136  0.440864  0.440864  1
  Dy  Dy7  1  0.440864  0.059136  0.059136  1
  Dy  Dy8  1  0.440864  0.059136  0.440864  1
  Dy  Dy9  1  0.059136  0.440864  0.059136  1
  Dy  Dy10  1  0.440889  0.440889  0.059111  1
  Dy  Dy11  1  0.059111  0.059111  0.440889  1
  Y  Y12  1  0.186258  0.813742  0.813742  1
  Y  Y13  1  0.813742  0.186258  0.186258  1
  Y  Y14  1  0.813742  0.186258  0.813742  1
  Y  Y15  1  0.186258  0.813742  0.186258  1
  Al  Al16  1  0.827118  0.827118  0.827089  1
  Al  Al17  1  0.827118  0.827118  0.518672  1
  Al  Al18  1  0.827089  0.518672  0.827118  1
  Al  Al19  1  0.518672  0.827089  0.827118  1
  Ni  Ni20  1  0.392821  0.392821  0.393076  1
  Ni  Ni21  1  0.392821  0.392821  0.821281  1
  Ni  Ni22  1  0.393076  0.821281  0.392821  1
  Ni  Ni23  1  0.821281  0.393076  0.392821  1
