# generated using pymatgen
data_Zr6Zn17SbPt6
_symmetry_space_group_name_H-M   'P 1'
_cell_length_a   8.89753172
_cell_length_b   8.89753134
_cell_length_c   8.89753300
_cell_angle_alpha   60.00000500
_cell_angle_beta   60.00000640
_cell_angle_gamma   59.99999857
_symmetry_Int_Tables_number   1
_chemical_formula_structural   Zr6Zn17SbPt6
_chemical_formula_sum   'Zr6 Zn17 Sb1 Pt6'
_cell_volume   498.07381919
_cell_formula_units_Z   1
loop_
 _symmetry_equiv_pos_site_id
 _symmetry_equiv_pos_as_xyz
  1  'x, y, z'
loop_
 _atom_site_type_symbol
 _atom_site_label
 _atom_site_symmetry_multiplicity
 _atom_site_fract_x
 _atom_site_fract_y
 _atom_site_fract_z
 _atom_site_occupancy
  Zr  Zr0  1  0.727565  0.272435  0.272435  1
  Zr  Zr1  1  0.272435  0.727565  0.727565  1
  Zr  Zr2  1  0.272435  0.727565  0.272435  1
  Zr  Zr3  1  0.727565  0.272435  0.727565  1
  Zr  Zr4  1  0.272435  0.272435  0.727565  1
  Zr  Zr5  1  0.727565  0.727565  0.272435  1
  Zn  Zn6  1  0.127534  0.127534  0.127534  1
  Zn  Zn7  1  0.872466  0.872466  0.872466  1
  Zn  Zn8  1  0.127534  0.127534  0.617399  1
  Zn  Zn9  1  0.127534  0.617399  0.127534  1
  Zn  Zn10  1  0.872466  0.872466  0.382601  1
  Zn  Zn11  1  0.872466  0.382601  0.872466  1
  Zn  Zn12  1  0.617399  0.127534  0.127534  1
  Zn  Zn13  1  0.382601  0.872466  0.872466  1
  Zn  Zn14  1  0.342598  0.342598  0.342598  1
  Zn  Zn15  1  0.657402  0.657402  0.657402  1
  Zn  Zn16  1  0.342598  0.342598  0.972207  1
  Zn  Zn17  1  0.342598  0.972207  0.342598  1
  Zn  Zn18  1  0.657402  0.657402  0.027793  1
  Zn  Zn19  1  0.657402  0.027793  0.657402  1
  Zn  Zn20  1  0.972207  0.342598  0.342598  1
  Zn  Zn21  1  0.027793  0.657402  0.657402  1
  Zn  Zn22  1  0.000000  0.000000  0.000000  1
  Sb  Sb23  1  0.500000  0.500000  0.500000  1
  Pt  Pt24  1  0.500000  0.000000  0.000000  1
  Pt  Pt25  1  0.000000  0.500000  0.500000  1
  Pt  Pt26  1  0.000000  0.500000  0.000000  1
  Pt  Pt27  1  0.500000  0.000000  0.500000  1
  Pt  Pt28  1  0.000000  0.000000  0.500000  1
  Pt  Pt29  1  0.500000  0.500000  0.000000  1
