# generated using pymatgen
data_Y2Tm18Cd6OsRh
_symmetry_space_group_name_H-M   'P 1'
_cell_length_a   9.49638121
_cell_length_b   9.49638121
_cell_length_c   9.70884600
_cell_angle_alpha   90.00000000
_cell_angle_beta   90.00000000
_cell_angle_gamma   119.92960442
_symmetry_Int_Tables_number   1
_chemical_formula_structural   Y2Tm18Cd6OsRh
_chemical_formula_sum   'Y2 Tm18 Cd6 Os1 Rh1'
_cell_volume   758.79097169
_cell_formula_units_Z   1
loop_
 _symmetry_equiv_pos_site_id
 _symmetry_equiv_pos_as_xyz
  1  'x, y, z'
loop_
 _atom_site_type_symbol
 _atom_site_label
 _atom_site_symmetry_multiplicity
 _atom_site_fract_x
 _atom_site_fract_y
 _atom_site_fract_z
 _atom_site_occupancy
  Y  Y0  1  0.539263  0.079002  0.250000  1
  Y  Y1  1  0.920997  0.460737  0.250000  1
  Tm  Tm2  1  0.000218  0.999781  0.500269  1
  Tm  Tm3  1  0.000218  0.999781  0.999731  1
  Tm  Tm4  1  0.538175  0.461825  0.250000  1
  Tm  Tm5  1  0.457377  0.542622  0.750000  1
  Tm  Tm6  1  0.457437  0.915370  0.750000  1
  Tm  Tm7  1  0.084630  0.542563  0.750000  1
  Tm  Tm8  1  0.210110  0.789890  0.441658  1
  Tm  Tm9  1  0.210615  0.419562  0.441591  1
  Tm  Tm10  1  0.580438  0.789385  0.441591  1
  Tm  Tm11  1  0.791355  0.208646  0.561150  1
  Tm  Tm12  1  0.790391  0.582199  0.560574  1
  Tm  Tm13  1  0.417801  0.209609  0.560574  1
  Tm  Tm14  1  0.791355  0.208646  0.938850  1
  Tm  Tm15  1  0.790391  0.582199  0.939426  1
  Tm  Tm16  1  0.417801  0.209609  0.939426  1
  Tm  Tm17  1  0.210110  0.789890  0.058342  1
  Tm  Tm18  1  0.210615  0.419562  0.058409  1
  Tm  Tm19  1  0.580438  0.789385  0.058409  1
  Cd  Cd20  1  0.886657  0.113343  0.250000  1
  Cd  Cd21  1  0.884998  0.772297  0.250000  1
  Cd  Cd22  1  0.227703  0.115002  0.250000  1
  Cd  Cd23  1  0.114517  0.885483  0.750000  1
  Cd  Cd24  1  0.114820  0.229198  0.750000  1
  Cd  Cd25  1  0.770802  0.885180  0.750000  1
  Os  Os26  1  0.333970  0.666030  0.250000  1
  Rh  Rh27  1  0.666798  0.333202  0.750000  1
