# generated using pymatgen
data_Tm7Co4Tc2Sn23
_symmetry_space_group_name_H-M   'P 1'
_cell_length_a   9.73069841
_cell_length_b   9.73069898
_cell_length_c   9.98398398
_cell_angle_alpha   89.82135600
_cell_angle_beta   90.17864580
_cell_angle_gamma   119.43830280
_symmetry_Int_Tables_number   1
_chemical_formula_structural   Tm7Co4Tc2Sn23
_chemical_formula_sum   'Tm7 Co4 Tc2 Sn23'
_cell_volume   823.28485472
_cell_formula_units_Z   1
loop_
 _symmetry_equiv_pos_site_id
 _symmetry_equiv_pos_as_xyz
  1  'x, y, z'
loop_
 _atom_site_type_symbol
 _atom_site_label
 _atom_site_symmetry_multiplicity
 _atom_site_fract_x
 _atom_site_fract_y
 _atom_site_fract_z
 _atom_site_occupancy
  Tm  Tm0  1  0.481867  0.518133  0.307280  1
  Tm  Tm1  1  0.518133  0.481867  0.692720  1
  Tm  Tm2  1  0.484216  0.962531  0.305425  1
  Tm  Tm3  1  0.515784  0.037469  0.694575  1
  Tm  Tm4  1  0.037469  0.515784  0.305425  1
  Tm  Tm5  1  0.962531  0.484216  0.694575  1
  Tm  Tm6  1  0.000000  0.000000  0.000000  1
  Co  Co7  1  0.829717  0.658237  0.198582  1
  Co  Co8  1  0.170283  0.341763  0.801418  1
  Co  Co9  1  0.341763  0.170283  0.198582  1
  Co  Co10  1  0.658237  0.829717  0.801418  1
  Tc  Tc11  1  0.835825  0.164175  0.203352  1
  Tc  Tc12  1  0.164175  0.835825  0.796648  1
  Sn  Sn13  1  0.118185  0.881815  0.272052  1
  Sn  Sn14  1  0.881815  0.118185  0.727948  1
  Sn  Sn15  1  0.130484  0.240416  0.270251  1
  Sn  Sn16  1  0.869516  0.759584  0.729749  1
  Sn  Sn17  1  0.759584  0.869516  0.270251  1
  Sn  Sn18  1  0.240416  0.130484  0.729749  1
  Sn  Sn19  1  0.779710  0.220290  0.461226  1
  Sn  Sn20  1  0.220290  0.779710  0.538774  1
  Sn  Sn21  1  0.781869  0.563250  0.453970  1
  Sn  Sn22  1  0.218131  0.436750  0.546030  1
  Sn  Sn23  1  0.436750  0.218131  0.453970  1
  Sn  Sn24  1  0.563250  0.781869  0.546030  1
  Sn  Sn25  1  0.347584  0.001274  0.003882  1
  Sn  Sn26  1  0.652416  0.998726  0.996118  1
  Sn  Sn27  1  0.001274  0.347584  0.996118  1
  Sn  Sn28  1  0.998726  0.652416  0.003882  1
  Sn  Sn29  1  0.651498  0.651498  0.000000  1
  Sn  Sn30  1  0.348502  0.348502  0.000000  1
  Sn  Sn31  1  0.333416  0.666584  0.123308  1
  Sn  Sn32  1  0.666584  0.333416  0.876692  1
  Sn  Sn33  1  0.333040  0.666960  0.817883  1
  Sn  Sn34  1  0.666960  0.333040  0.182117  1
  Sn  Sn35  1  0.000000  0.000000  0.500000  1
