# generated using pymatgen
data_Tb2DyY(Mo2O7)2
_symmetry_space_group_name_H-M   'P 1'
_cell_length_a   7.46116456
_cell_length_b   7.46116432
_cell_length_c   7.37552821
_cell_angle_alpha   58.99562822
_cell_angle_beta   58.99562744
_cell_angle_gamma   59.31645682
_symmetry_Int_Tables_number   1
_chemical_formula_structural   Tb2DyY(Mo2O7)2
_chemical_formula_sum   'Tb2 Dy1 Y1 Mo4 O14'
_cell_volume   284.38380067
_cell_formula_units_Z   1
loop_
 _symmetry_equiv_pos_site_id
 _symmetry_equiv_pos_as_xyz
  1  'x, y, z'
loop_
 _atom_site_type_symbol
 _atom_site_label
 _atom_site_symmetry_multiplicity
 _atom_site_fract_x
 _atom_site_fract_y
 _atom_site_fract_z
 _atom_site_occupancy
  Tb  Tb0  1  0.625000  0.125000  0.125000  1
  Tb  Tb1  1  0.125000  0.625000  0.125000  1
  Dy  Dy2  1  0.125000  0.125000  0.625000  1
  Y  Y3  1  0.125000  0.125000  0.125000  1
  Mo  Mo4  1  0.125000  0.625000  0.625000  1
  Mo  Mo5  1  0.625000  0.125000  0.625000  1
  Mo  Mo6  1  0.625000  0.625000  0.125000  1
  Mo  Mo7  1  0.625000  0.625000  0.625000  1
  O  O8  1  0.715326  0.715326  0.292568  1
  O  O9  1  0.287487  0.287487  0.693922  1
  O  O10  1  0.713003  0.299007  0.699639  1
  O  O11  1  0.271479  0.717167  0.284255  1
  O  O12  1  0.299007  0.713003  0.699639  1
  O  O13  1  0.717167  0.271479  0.284255  1
  O  O14  1  0.534674  0.534674  0.957432  1
  O  O15  1  0.962513  0.962513  0.556078  1
  O  O16  1  0.536997  0.950993  0.550361  1
  O  O17  1  0.978521  0.532833  0.965745  1
  O  O18  1  0.950993  0.536997  0.550361  1
  O  O19  1  0.532833  0.978521  0.965745  1
  O  O20  1  0.249245  0.249245  0.251835  1
  O  O21  1  0.000755  0.000755  0.998165  1
