# generated using pymatgen
data_Ta9Al3ZnGe
_symmetry_space_group_name_H-M   'P 1'
_cell_length_a   9.92124228
_cell_length_b   9.93264401
_cell_length_c   9.92124190
_cell_angle_alpha   93.84914383
_cell_angle_beta   93.78616261
_cell_angle_gamma   149.97019986
_symmetry_Int_Tables_number   1
_chemical_formula_structural   Ta9Al3ZnGe
_chemical_formula_sum   'Ta18 Al6 Zn2 Ge2'
_cell_volume   472.84610888
_cell_formula_units_Z   2
loop_
 _symmetry_equiv_pos_site_id
 _symmetry_equiv_pos_as_xyz
  1  'x, y, z'
loop_
 _atom_site_type_symbol
 _atom_site_label
 _atom_site_symmetry_multiplicity
 _atom_site_fract_x
 _atom_site_fract_y
 _atom_site_fract_z
 _atom_site_occupancy
  Ta  Ta0  1  0.565807  0.793288  0.355785  1
  Ta  Ta1  1  0.081724  0.155690  0.240850  1
  Ta  Ta2  1  0.585161  0.344310  0.926034  1
  Ta  Ta3  1  0.656633  0.582681  0.240929  1
  Ta  Ta4  1  0.343367  0.417319  0.759071  1
  Ta  Ta5  1  0.792121  0.436312  0.227692  1
  Ta  Ta6  1  0.414839  0.655690  0.073966  1
  Ta  Ta7  1  0.158246  0.917319  0.073953  1
  Ta  Ta8  1  0.708620  0.936312  0.644191  1
  Ta  Ta9  1  0.434193  0.206712  0.644215  1
  Ta  Ta10  1  0.918276  0.844310  0.759150  1
  Ta  Ta11  1  0.062497  0.706712  0.772519  1
  Ta  Ta12  1  0.207879  0.563688  0.772308  1
  Ta  Ta13  1  0.250778  0.750000  0.500778  1
  Ta  Ta14  1  0.291380  0.063688  0.355809  1
  Ta  Ta15  1  0.749222  0.250000  0.499222  1
  Ta  Ta16  1  0.841754  0.082681  0.926047  1
  Ta  Ta17  1  0.937503  0.293288  0.227481  1
  Al  Al18  1  0.374248  0.874098  0.242497  1
  Al  Al19  1  0.868399  0.625902  0.500148  1
  Al  Al20  1  0.131601  0.374098  0.499852  1
  Al  Al21  1  0.625752  0.125902  0.757503  1
  Al  Al22  1  0.000000  0.500000  0.000000  1
  Al  Al23  1  0.000000  0.000000  0.500000  1
  Zn  Zn24  1  0.500000  0.000000  0.000000  1
  Zn  Zn25  1  0.500000  0.500000  0.500000  1
  Ge  Ge26  1  0.749986  0.750000  0.999986  1
  Ge  Ge27  1  0.250014  0.250000  0.000014  1
