# generated using pymatgen
data_Dy5ScTe3
_symmetry_space_group_name_H-M   'P 1'
_cell_length_a   4.12903300
_cell_length_b   11.48108100
_cell_length_c   21.23746000
_cell_angle_alpha   90.00000000
_cell_angle_beta   90.00000000
_cell_angle_gamma   90.00000000
_symmetry_Int_Tables_number   1
_chemical_formula_structural   Dy5ScTe3
_chemical_formula_sum   'Dy20 Sc4 Te12'
_cell_volume   1006.77798114
_cell_formula_units_Z   4
loop_
 _symmetry_equiv_pos_site_id
 _symmetry_equiv_pos_as_xyz
  1  'x, y, z'
loop_
 _atom_site_type_symbol
 _atom_site_label
 _atom_site_symmetry_multiplicity
 _atom_site_fract_x
 _atom_site_fract_y
 _atom_site_fract_z
 _atom_site_occupancy
  Dy  Dy0  1  0.250000  0.466238  0.339340  1
  Dy  Dy1  1  0.750000  0.533762  0.660660  1
  Dy  Dy2  1  0.750000  0.966238  0.160660  1
  Dy  Dy3  1  0.250000  0.033762  0.839340  1
  Dy  Dy4  1  0.250000  0.744141  0.228527  1
  Dy  Dy5  1  0.750000  0.255859  0.771473  1
  Dy  Dy6  1  0.750000  0.244141  0.271473  1
  Dy  Dy7  1  0.250000  0.755859  0.728527  1
  Dy  Dy8  1  0.250000  0.115185  0.032532  1
  Dy  Dy9  1  0.750000  0.884815  0.967468  1
  Dy  Dy10  1  0.750000  0.615185  0.467468  1
  Dy  Dy11  1  0.250000  0.384815  0.532532  1
  Dy  Dy12  1  0.250000  0.424840  0.140538  1
  Dy  Dy13  1  0.750000  0.575160  0.859462  1
  Dy  Dy14  1  0.750000  0.924840  0.359462  1
  Dy  Dy15  1  0.250000  0.075160  0.640538  1
  Dy  Dy16  1  0.250000  0.608357  0.993337  1
  Dy  Dy17  1  0.750000  0.391643  0.006663  1
  Dy  Dy18  1  0.750000  0.108357  0.506663  1
  Dy  Dy19  1  0.250000  0.891643  0.493337  1
  Sc  Sc20  1  0.250000  0.155740  0.390873  1
  Sc  Sc21  1  0.750000  0.844260  0.609127  1
  Sc  Sc22  1  0.750000  0.655740  0.109127  1
  Sc  Sc23  1  0.250000  0.344260  0.890873  1
  Te  Te24  1  0.250000  0.843229  0.076195  1
  Te  Te25  1  0.750000  0.156771  0.923805  1
  Te  Te26  1  0.750000  0.343229  0.423805  1
  Te  Te27  1  0.250000  0.656771  0.576195  1
  Te  Te28  1  0.250000  0.721530  0.375128  1
  Te  Te29  1  0.750000  0.278470  0.624872  1
  Te  Te30  1  0.750000  0.221530  0.124872  1
  Te  Te31  1  0.250000  0.778470  0.875128  1
  Te  Te32  1  0.250000  0.031229  0.263847  1
  Te  Te33  1  0.750000  0.968771  0.736153  1
  Te  Te34  1  0.750000  0.531229  0.236153  1
  Te  Te35  1  0.250000  0.468771  0.763847  1
