# generated using pymatgen
data_Li4Nd4Sm2Pd13
_symmetry_space_group_name_H-M   'P 1'
_cell_length_a   8.37782874
_cell_length_b   8.37796542
_cell_length_c   8.37796601
_cell_angle_alpha   109.46460288
_cell_angle_beta   109.47485914
_cell_angle_gamma   109.47485387
_symmetry_Int_Tables_number   1
_chemical_formula_structural   Li4Nd4Sm2Pd13
_chemical_formula_sum   'Li4 Nd4 Sm2 Pd13'
_cell_volume   452.67158778
_cell_formula_units_Z   1
loop_
 _symmetry_equiv_pos_site_id
 _symmetry_equiv_pos_as_xyz
  1  'x, y, z'
loop_
 _atom_site_type_symbol
 _atom_site_label
 _atom_site_symmetry_multiplicity
 _atom_site_fract_x
 _atom_site_fract_y
 _atom_site_fract_z
 _atom_site_occupancy
  Li  Li0  1  0.000000  0.999809  0.499330  1
  Li  Li1  1  0.000000  0.500670  0.000191  1
  Li  Li2  1  0.500000  0.999808  0.000192  1
  Li  Li3  1  0.500000  0.499808  0.500192  1
  Nd  Nd4  1  0.000000  0.305556  0.305895  1
  Nd  Nd5  1  0.306489  0.306313  0.000176  1
  Nd  Nd6  1  0.693511  0.999824  0.693687  1
  Nd  Nd7  1  0.000000  0.694105  0.694444  1
  Sm  Sm8  1  0.692929  0.692771  0.000158  1
  Sm  Sm9  1  0.307071  0.999842  0.307229  1
  Pd  Pd10  1  0.333605  0.333098  0.665391  1
  Pd  Pd11  1  0.666395  0.999493  0.331787  1
  Pd  Pd12  1  0.000000  0.668293  0.331707  1
  Pd  Pd13  1  0.667620  0.333669  0.999972  1
  Pd  Pd14  1  0.332380  0.666048  0.332352  1
  Pd  Pd15  1  0.000000  0.332377  0.667623  1
  Pd  Pd16  1  0.333605  0.668213  0.000507  1
  Pd  Pd17  1  0.332380  0.000028  0.666331  1
  Pd  Pd18  1  0.664082  0.331797  0.332285  1
  Pd  Pd19  1  0.667620  0.667648  0.333952  1
  Pd  Pd20  1  0.666395  0.334609  0.666902  1
  Pd  Pd21  1  0.335918  0.667715  0.668203  1
  Pd  Pd22  1  0.000000  0.998507  0.001493  1
