# generated using pymatgen
data_Lu2GeB2Ru4Rh
_symmetry_space_group_name_H-M   'P 1'
_cell_length_a   9.52664740
_cell_length_b   9.46914154
_cell_length_c   3.07938000
_cell_angle_alpha   90.00000000
_cell_angle_beta   90.00000000
_cell_angle_gamma   89.83819438
_symmetry_Int_Tables_number   1
_chemical_formula_structural   Lu2GeB2Ru4Rh
_chemical_formula_sum   'Lu4 Ge2 B4 Ru8 Rh2'
_cell_volume   277.78721422
_cell_formula_units_Z   2
loop_
 _symmetry_equiv_pos_site_id
 _symmetry_equiv_pos_as_xyz
  1  'x, y, z'
loop_
 _atom_site_type_symbol
 _atom_site_label
 _atom_site_symmetry_multiplicity
 _atom_site_fract_x
 _atom_site_fract_y
 _atom_site_fract_z
 _atom_site_occupancy
  Lu  Lu0  1  0.823123  0.324330  0.000000  1
  Lu  Lu1  1  0.325438  0.173912  0.000000  1
  Lu  Lu2  1  0.674562  0.826088  0.000000  1
  Lu  Lu3  1  0.176877  0.675670  0.000000  1
  Ge  Ge4  1  0.000000  0.000000  0.000000  1
  Ge  Ge5  1  0.500000  0.500000  0.000000  1
  B  B6  1  0.621915  0.123113  0.000000  1
  B  B7  1  0.117010  0.374434  0.000000  1
  B  B8  1  0.882990  0.625566  0.000000  1
  B  B9  1  0.378085  0.876887  0.000000  1
  Ru  Ru10  1  0.067638  0.213743  0.500000  1
  Ru  Ru11  1  0.215636  0.930159  0.500000  1
  Ru  Ru12  1  0.784364  0.069841  0.500000  1
  Ru  Ru13  1  0.932362  0.786257  0.500000  1
  Ru  Ru14  1  0.432750  0.711635  0.500000  1
  Ru  Ru15  1  0.567250  0.288365  0.500000  1
  Ru  Ru16  1  0.500000  0.000000  0.500000  1
  Ru  Ru17  1  0.000000  0.500000  0.500000  1
  Rh  Rh18  1  0.718429  0.571720  0.500000  1
  Rh  Rh19  1  0.281571  0.428280  0.500000  1
