# generated using pymatgen
data_Yb3NpP20
_symmetry_space_group_name_H-M   'P 1'
_cell_length_a   16.88531534
_cell_length_b   5.44883553
_cell_length_c   5.44594334
_cell_angle_alpha   76.97078918
_cell_angle_beta   90.29737422
_cell_angle_gamma   90.78473882
_symmetry_Int_Tables_number   1
_chemical_formula_structural   Yb3NpP20
_chemical_formula_sum   'Yb3 Np1 P20'
_cell_volume   488.10921024
_cell_formula_units_Z   1
loop_
 _symmetry_equiv_pos_site_id
 _symmetry_equiv_pos_as_xyz
  1  'x, y, z'
loop_
 _atom_site_type_symbol
 _atom_site_label
 _atom_site_symmetry_multiplicity
 _atom_site_fract_x
 _atom_site_fract_y
 _atom_site_fract_z
 _atom_site_occupancy
  Yb  Yb0  1  0.264022  0.405801  0.015886  1
  Yb  Yb1  1  0.994136  0.894645  0.036192  1
  Yb  Yb2  1  0.763250  0.592422  0.988257  1
  Np  Np3  1  0.497818  0.114387  0.983243  1
  P  P4  1  0.629974  0.811270  0.237234  1
  P  P5  1  0.136259  0.790612  0.734799  1
  P  P6  1  0.324248  0.789318  0.580903  1
  P  P7  1  0.263538  0.864974  0.215549  1
  P  P8  1  0.139624  0.777942  0.336508  1
  P  P9  1  0.135406  0.181645  0.740463  1
  P  P10  1  0.940463  0.287893  0.592984  1
  P  P11  1  0.124167  0.368485  0.342442  1
  P  P12  1  0.502132  0.661079  0.781413  1
  P  P13  1  0.636245  0.211966  0.243533  1
  P  P14  1  0.420026  0.336471  0.337246  1
  P  P15  1  0.915959  0.663529  0.668202  1
  P  P16  1  0.440084  0.715598  0.413167  1
  P  P17  1  0.636443  0.220053  0.648809  1
  P  P18  1  0.624127  0.631245  0.642528  1
  P  P19  1  0.823214  0.207850  0.426187  1
  P  P20  1  0.355229  0.151972  0.677860  1
  P  P21  1  0.758073  0.138266  0.785758  1
  P  P22  1  0.847319  0.837085  0.344831  1
  P  P23  1  0.000043  0.345494  0.226006  1
