# generated using pymatgen
data_Sm11(IrCl5)3
_symmetry_space_group_name_H-M   'P 1'
_cell_length_a   12.52355600
_cell_length_b   12.52355151
_cell_length_c   12.51843100
_cell_angle_alpha   90.00000000
_cell_angle_beta   90.00000000
_cell_angle_gamma   120.00041864
_symmetry_Int_Tables_number   1
_chemical_formula_structural   Sm11(IrCl5)3
_chemical_formula_sum   'Sm22 Ir6 Cl30'
_cell_volume   1700.33254704
_cell_formula_units_Z   2
loop_
 _symmetry_equiv_pos_site_id
 _symmetry_equiv_pos_as_xyz
  1  'x, y, z'
loop_
 _atom_site_type_symbol
 _atom_site_label
 _atom_site_symmetry_multiplicity
 _atom_site_fract_x
 _atom_site_fract_y
 _atom_site_fract_z
 _atom_site_occupancy
  Sm  Sm0  1  0.666665  0.333335  0.073151  1
  Sm  Sm1  1  0.968179  0.629574  0.103327  1
  Sm  Sm2  1  0.661390  0.031811  0.103328  1
  Sm  Sm3  1  0.370415  0.338604  0.103326  1
  Sm  Sm4  1  0.395564  0.070497  0.250000  1
  Sm  Sm5  1  0.929486  0.325072  0.250000  1
  Sm  Sm6  1  0.674938  0.604421  0.250000  1
  Sm  Sm7  1  0.661390  0.031811  0.396672  1
  Sm  Sm8  1  0.370415  0.338604  0.396674  1
  Sm  Sm9  1  0.968179  0.629574  0.396674  1
  Sm  Sm10  1  0.666665  0.333335  0.426848  1
  Sm  Sm11  1  0.333335  0.666664  0.573151  1
  Sm  Sm12  1  0.031821  0.370426  0.603327  1
  Sm  Sm13  1  0.629585  0.661396  0.603327  1
  Sm  Sm14  1  0.338610  0.968189  0.603329  1
  Sm  Sm15  1  0.325062  0.395579  0.750000  1
  Sm  Sm16  1  0.070514  0.674928  0.750000  1
  Sm  Sm17  1  0.604437  0.929503  0.750000  1
  Sm  Sm18  1  0.629585  0.661396  0.896673  1
  Sm  Sm19  1  0.338610  0.968189  0.896671  1
  Sm  Sm20  1  0.031821  0.370426  0.896674  1
  Sm  Sm21  1  0.333335  0.666664  0.926848  1
  Ir  Ir22  1  0.660257  0.191985  0.250000  1
  Ir  Ir23  1  0.531731  0.339753  0.250000  1
  Ir  Ir24  1  0.808043  0.468288  0.250000  1
  Ir  Ir25  1  0.191958  0.531712  0.750000  1
  Ir  Ir26  1  0.468269  0.660247  0.750000  1
  Ir  Ir27  1  0.339743  0.808015  0.750000  1
  Cl  Cl28  1  0.274976  0.087317  0.066872  1
  Cl  Cl29  1  0.812341  0.725042  0.066859  1
  Cl  Cl30  1  0.912693  0.187660  0.066868  1
  Cl  Cl31  1  0.123772  0.521247  0.086690  1
  Cl  Cl32  1  0.478765  0.602514  0.086671  1
  Cl  Cl33  1  0.397476  0.876248  0.086675  1
  Cl  Cl34  1  0.194257  0.315163  0.250000  1
  Cl  Cl35  1  0.120908  0.805757  0.250000  1
  Cl  Cl36  1  0.684855  0.879110  0.250000  1
  Cl  Cl37  1  0.397476  0.876248  0.413325  1
  Cl  Cl38  1  0.123772  0.521247  0.413309  1
  Cl  Cl39  1  0.478765  0.602514  0.413329  1
  Cl  Cl40  1  0.912693  0.187660  0.433132  1
  Cl  Cl41  1  0.812341  0.725042  0.433141  1
  Cl  Cl42  1  0.274976  0.087317  0.433128  1
  Cl  Cl43  1  0.725023  0.912683  0.566871  1
  Cl  Cl44  1  0.187659  0.274958  0.566859  1
  Cl  Cl45  1  0.087307  0.812340  0.566868  1
  Cl  Cl46  1  0.521236  0.397486  0.586671  1
  Cl  Cl47  1  0.876228  0.478753  0.586690  1
  Cl  Cl48  1  0.602524  0.123752  0.586674  1
  Cl  Cl49  1  0.315144  0.120890  0.750000  1
  Cl  Cl50  1  0.879093  0.194243  0.750000  1
  Cl  Cl51  1  0.805744  0.684837  0.750000  1
  Cl  Cl52  1  0.602524  0.123752  0.913326  1
  Cl  Cl53  1  0.521236  0.397486  0.913328  1
  Cl  Cl54  1  0.876228  0.478753  0.913309  1
  Cl  Cl55  1  0.087307  0.812340  0.933132  1
  Cl  Cl56  1  0.187659  0.274958  0.933141  1
  Cl  Cl57  1  0.725023  0.912683  0.933128  1
