# generated using pymatgen
data_YErP2(Ru2C)2
_symmetry_space_group_name_H-M   'P 1'
_cell_length_a   5.84545176
_cell_length_b   5.84545167
_cell_length_c   7.05753200
_cell_angle_alpha   90.00000000
_cell_angle_beta   90.00000000
_cell_angle_gamma   142.30735135
_symmetry_Int_Tables_number   1
_chemical_formula_structural   YErP2(Ru2C)2
_chemical_formula_sum   'Y1 Er1 P2 Ru4 C2'
_cell_volume   147.44585570
_cell_formula_units_Z   1
loop_
 _symmetry_equiv_pos_site_id
 _symmetry_equiv_pos_as_xyz
  1  'x, y, z'
loop_
 _atom_site_type_symbol
 _atom_site_label
 _atom_site_symmetry_multiplicity
 _atom_site_fract_x
 _atom_site_fract_y
 _atom_site_fract_z
 _atom_site_occupancy
  Y  Y0  1  0.455976  0.544024  0.750000  1
  Er  Er1  1  0.543868  0.456132  0.250000  1
  P  P2  1  0.268427  0.731573  0.250000  1
  P  P3  1  0.731551  0.268449  0.750000  1
  Ru  Ru4  1  0.834671  0.165329  0.053812  1
  Ru  Ru5  1  0.165258  0.834742  0.947354  1
  Ru  Ru6  1  0.165258  0.834742  0.552646  1
  Ru  Ru7  1  0.834671  0.165329  0.446188  1
  C  C8  1  0.000160  0.999840  0.001971  1
  C  C9  1  0.000160  0.999840  0.498029  1
