# generated using pymatgen
data_TbHo2Lu3MnSb2
_symmetry_space_group_name_H-M   'P 1'
_cell_length_a   8.05724704
_cell_length_b   8.05724752
_cell_length_c   4.23531700
_cell_angle_alpha   90.00000000
_cell_angle_beta   90.00000000
_cell_angle_gamma   119.98808887
_symmetry_Int_Tables_number   1
_chemical_formula_structural   TbHo2Lu3MnSb2
_chemical_formula_sum   'Tb1 Ho2 Lu3 Mn1 Sb2'
_cell_volume   238.14532019
_cell_formula_units_Z   1
loop_
 _symmetry_equiv_pos_site_id
 _symmetry_equiv_pos_as_xyz
  1  'x, y, z'
loop_
 _atom_site_type_symbol
 _atom_site_label
 _atom_site_symmetry_multiplicity
 _atom_site_fract_x
 _atom_site_fract_y
 _atom_site_fract_z
 _atom_site_occupancy
  Tb  Tb0  1  0.395097  0.395097  0.000000  1
  Ho  Ho1  1  0.605403  0.000113  0.000000  1
  Ho  Ho2  1  0.000113  0.605403  0.000000  1
  Lu  Lu3  1  0.233350  0.999679  0.500000  1
  Lu  Lu4  1  0.999679  0.233350  0.500000  1
  Lu  Lu5  1  0.766572  0.766572  0.500000  1
  Mn  Mn6  1  0.999431  0.999431  0.000000  1
  Sb  Sb7  1  0.333264  0.667091  0.500000  1
  Sb  Sb8  1  0.667091  0.333264  0.500000  1
