# generated using pymatgen
data_YbLu7(FeB6)4
_symmetry_space_group_name_H-M   'P 1'
_cell_length_a   3.47122600
_cell_length_b   8.98709195
_cell_length_c   11.34910503
_cell_angle_alpha   89.92436336
_cell_angle_beta   90.00000000
_cell_angle_gamma   90.00000000
_symmetry_Int_Tables_number   1
_chemical_formula_structural   YbLu7(FeB6)4
_chemical_formula_sum   'Yb1 Lu7 Fe4 B24'
_cell_volume   354.04895102
_cell_formula_units_Z   1
loop_
 _symmetry_equiv_pos_site_id
 _symmetry_equiv_pos_as_xyz
  1  'x, y, z'
loop_
 _atom_site_type_symbol
 _atom_site_label
 _atom_site_symmetry_multiplicity
 _atom_site_fract_x
 _atom_site_fract_y
 _atom_site_fract_z
 _atom_site_occupancy
  Yb  Yb0  1  0.000000  0.324342  0.414186  1
  Lu  Lu1  1  0.000000  0.675418  0.584746  1
  Lu  Lu2  1  0.000000  0.823777  0.085708  1
  Lu  Lu3  1  0.000000  0.176728  0.914846  1
  Lu  Lu4  1  0.000000  0.942740  0.369147  1
  Lu  Lu5  1  0.000000  0.058334  0.630397  1
  Lu  Lu6  1  0.000000  0.442263  0.131106  1
  Lu  Lu7  1  0.000000  0.557155  0.870265  1
  Fe  Fe8  1  0.000000  0.640571  0.319550  1
  Fe  Fe9  1  0.000000  0.361247  0.681737  1
  Fe  Fe10  1  0.000000  0.136925  0.178073  1
  Fe  Fe11  1  0.000000  0.861558  0.820330  1
  B  B12  1  0.500000  0.555075  0.432340  1
  B  B13  1  0.500000  0.445889  0.568288  1
  B  B14  1  0.500000  0.053374  0.066667  1
  B  B15  1  0.500000  0.945774  0.932358  1
  B  B16  1  0.500000  0.747380  0.418369  1
  B  B17  1  0.500000  0.253422  0.582993  1
  B  B18  1  0.500000  0.246556  0.081205  1
  B  B19  1  0.500000  0.752887  0.918572  1
  B  B20  1  0.500000  0.790840  0.265151  1
  B  B21  1  0.500000  0.210017  0.735270  1
  B  B22  1  0.500000  0.288827  0.233536  1
  B  B23  1  0.500000  0.709783  0.765491  1
  B  B24  1  0.500000  0.632099  0.185618  1
  B  B25  1  0.500000  0.368669  0.815121  1
  B  B26  1  0.500000  0.130480  0.313121  1
  B  B27  1  0.500000  0.868535  0.685476  1
  B  B28  1  0.500000  0.983947  0.210624  1
  B  B29  1  0.500000  0.015566  0.788536  1
  B  B30  1  0.500000  0.486048  0.288326  1
  B  B31  1  0.500000  0.515566  0.711768  1
  B  B32  1  0.500000  0.605851  0.029206  1
  B  B33  1  0.500000  0.394446  0.971336  1
  B  B34  1  0.500000  0.101715  0.471903  1
  B  B35  1  0.500000  0.896194  0.528628  1
