# generated using pymatgen
data_ErTh3(AlRu)4
_symmetry_space_group_name_H-M   'P 1'
_cell_length_a   4.02523700
_cell_length_b   7.35630906
_cell_length_c   16.29643366
_cell_angle_alpha   89.83938836
_cell_angle_beta   90.00000000
_cell_angle_gamma   90.00000000
_symmetry_Int_Tables_number   1
_chemical_formula_structural   ErTh3(AlRu)4
_chemical_formula_sum   'Er2 Th6 Al8 Ru8'
_cell_volume   482.54996661
_cell_formula_units_Z   2
loop_
 _symmetry_equiv_pos_site_id
 _symmetry_equiv_pos_as_xyz
  1  'x, y, z'
loop_
 _atom_site_type_symbol
 _atom_site_label
 _atom_site_symmetry_multiplicity
 _atom_site_fract_x
 _atom_site_fract_y
 _atom_site_fract_z
 _atom_site_occupancy
  Er  Er0  1  0.750000  0.956860  0.218127  1
  Er  Er1  1  0.250000  0.160750  0.560211  1
  Th  Th2  1  0.750000  0.828616  0.438996  1
  Th  Th3  1  0.750000  0.458228  0.282059  1
  Th  Th4  1  0.750000  0.330539  0.063265  1
  Th  Th5  1  0.250000  0.675760  0.938880  1
  Th  Th6  1  0.250000  0.046069  0.778482  1
  Th  Th7  1  0.250000  0.541897  0.717296  1
  Al  Al8  1  0.750000  0.485406  0.561183  1
  Al  Al9  1  0.750000  0.369199  0.850273  1
  Al  Al10  1  0.750000  0.007389  0.938078  1
  Al  Al11  1  0.750000  0.874154  0.646243  1
  Al  Al12  1  0.250000  0.485255  0.438880  1
  Al  Al13  1  0.250000  0.997708  0.068142  1
  Al  Al14  1  0.250000  0.640990  0.152995  1
  Al  Al15  1  0.250000  0.122516  0.343551  1
  Ru  Ru16  1  0.750000  0.755784  0.814577  1
  Ru  Ru17  1  0.250000  0.242057  0.937965  1
  Ru  Ru18  1  0.750000  0.257500  0.430497  1
  Ru  Ru19  1  0.250000  0.749179  0.321378  1
  Ru  Ru20  1  0.750000  0.764849  0.064636  1
  Ru  Ru21  1  0.750000  0.250162  0.687741  1
  Ru  Ru22  1  0.250000  0.267360  0.182564  1
  Ru  Ru23  1  0.250000  0.731774  0.563985  1
