# generated using pymatgen
data_Mn4Br6O
_symmetry_space_group_name_H-M   'P 1'
_cell_length_a   3.84813200
_cell_length_b   12.86225800
_cell_length_c   13.57124700
_cell_angle_alpha   90.00000000
_cell_angle_beta   90.00000000
_cell_angle_gamma   90.00000000
_symmetry_Int_Tables_number   1
_chemical_formula_structural   Mn4Br6O
_chemical_formula_sum   'Mn8 Br12 O2'
_cell_volume   671.71791689
_cell_formula_units_Z   2
loop_
 _symmetry_equiv_pos_site_id
 _symmetry_equiv_pos_as_xyz
  1  'x, y, z'
loop_
 _atom_site_type_symbol
 _atom_site_label
 _atom_site_symmetry_multiplicity
 _atom_site_fract_x
 _atom_site_fract_y
 _atom_site_fract_z
 _atom_site_occupancy
  Mn  Mn0  1  0.000000  0.118091  0.089170  1
  Mn  Mn1  1  0.000000  0.881909  0.910830  1
  Mn  Mn2  1  0.000000  0.618091  0.410830  1
  Mn  Mn3  1  0.000000  0.381909  0.589170  1
  Mn  Mn4  1  0.500000  0.102378  0.879501  1
  Mn  Mn5  1  0.500000  0.897622  0.120499  1
  Mn  Mn6  1  0.500000  0.602378  0.620499  1
  Mn  Mn7  1  0.500000  0.397622  0.379501  1
  Br  Br8  1  0.500000  0.272575  0.668248  1
  Br  Br9  1  0.500000  0.727425  0.331752  1
  Br  Br10  1  0.500000  0.772575  0.831752  1
  Br  Br11  1  0.500000  0.227425  0.168248  1
  Br  Br12  1  0.000000  0.237475  0.929142  1
  Br  Br13  1  0.000000  0.762525  0.070858  1
  Br  Br14  1  0.000000  0.480537  0.265419  1
  Br  Br15  1  0.000000  0.519463  0.734581  1
  Br  Br16  1  0.000000  0.980537  0.234581  1
  Br  Br17  1  0.000000  0.019463  0.765419  1
  Br  Br18  1  0.000000  0.262525  0.429142  1
  Br  Br19  1  0.000000  0.737475  0.570858  1
  O  O20  1  0.500000  0.000000  0.000000  1
  O  O21  1  0.500000  0.500000  0.500000  1
