# generated using pymatgen
data_Ba4Ga4SiGeO14
_symmetry_space_group_name_H-M   'P 1'
_cell_length_a   8.28658001
_cell_length_b   5.70782427
_cell_length_c   8.29441778
_cell_angle_alpha   90.00620284
_cell_angle_beta   90.14039583
_cell_angle_gamma   90.05023433
_symmetry_Int_Tables_number   1
_chemical_formula_structural   Ba4Ga4SiGeO14
_chemical_formula_sum   'Ba4 Ga4 Si1 Ge1 O14'
_cell_volume   392.31088214
_cell_formula_units_Z   1
loop_
 _symmetry_equiv_pos_site_id
 _symmetry_equiv_pos_as_xyz
  1  'x, y, z'
loop_
 _atom_site_type_symbol
 _atom_site_label
 _atom_site_symmetry_multiplicity
 _atom_site_fract_x
 _atom_site_fract_y
 _atom_site_fract_z
 _atom_site_occupancy
  Ba  Ba0  1  0.839283  0.514370  0.081935  1
  Ba  Ba1  1  0.339122  0.486899  0.920118  1
  Ba  Ba2  1  0.162647  0.506117  0.405508  1
  Ba  Ba3  1  0.667740  0.496682  0.591680  1
  Ga  Ga4  1  0.501485  0.000715  0.250120  1
  Ga  Ga5  1  0.996830  0.000814  0.748145  1
  Ga  Ga6  1  0.643743  0.976225  0.893396  1
  Ga  Ga7  1  0.140932  0.024395  0.109183  1
  Si  Si8  1  0.860092  0.037820  0.390171  1
  Ge  Ge9  1  0.359341  0.967559  0.608856  1
  O  O10  1  0.987042  0.152453  0.256914  1
  O  O11  1  0.493139  0.835360  0.749580  1
  O  O12  1  0.642789  0.291748  0.887034  1
  O  O13  1  0.141751  0.708611  0.112903  1
  O  O14  1  0.360383  0.271691  0.604980  1
  O  O15  1  0.859702  0.754523  0.394793  1
  O  O16  1  0.580050  0.817551  0.083489  1
  O  O17  1  0.078554  0.182069  0.916620  1
  O  O18  1  0.418350  0.821063  0.424422  1
  O  O19  1  0.914548  0.166557  0.564913  1
  O  O20  1  0.681562  0.160534  0.343571  1
  O  O21  1  0.170766  0.826902  0.659743  1
  O  O22  1  0.329968  0.186854  0.179571  1
  O  O23  1  0.830172  0.812487  0.822355  1
