# generated using pymatgen
data_Er4Tc2MoRu5
_symmetry_space_group_name_H-M   'P 1'
_cell_length_a   5.47905044
_cell_length_b   5.24238682
_cell_length_c   9.04709900
_cell_angle_alpha   90.00000000
_cell_angle_beta   90.00000000
_cell_angle_gamma   123.21256430
_symmetry_Int_Tables_number   1
_chemical_formula_structural   Er4Tc2MoRu5
_chemical_formula_sum   'Er4 Tc2 Mo1 Ru5'
_cell_volume   217.41250448
_cell_formula_units_Z   1
loop_
 _symmetry_equiv_pos_site_id
 _symmetry_equiv_pos_as_xyz
  1  'x, y, z'
loop_
 _atom_site_type_symbol
 _atom_site_label
 _atom_site_symmetry_multiplicity
 _atom_site_fract_x
 _atom_site_fract_y
 _atom_site_fract_z
 _atom_site_occupancy
  Er  Er0  1  0.334972  0.663479  0.434094  1
  Er  Er1  1  0.670365  0.343866  0.565063  1
  Er  Er2  1  0.670365  0.343866  0.934937  1
  Er  Er3  1  0.334972  0.663479  0.065906  1
  Tc  Tc4  1  0.337695  0.170085  0.250000  1
  Tc  Tc5  1  0.820405  0.654985  0.250000  1
  Mo  Mo6  1  0.161245  0.327330  0.750000  1
  Ru  Ru7  1  0.170215  0.822477  0.750000  1
  Ru  Ru8  1  0.649057  0.819885  0.750000  1
  Ru  Ru9  1  0.012358  0.009432  0.999958  1
  Ru  Ru10  1  0.825992  0.171683  0.250000  1
  Ru  Ru11  1  0.012358  0.009432  0.500042  1
