# generated using pymatgen
data_CeHoMnN3
_symmetry_space_group_name_H-M   'P 1'
_cell_length_a   3.40776132
_cell_length_b   3.77305710
_cell_length_c   6.64341702
_cell_angle_alpha   106.49725096
_cell_angle_beta   104.86109349
_cell_angle_gamma   90.00001592
_symmetry_Int_Tables_number   1
_chemical_formula_structural   CeHoMnN3
_chemical_formula_sum   'Ce1 Ho1 Mn1 N3'
_cell_volume   78.91807325
_cell_formula_units_Z   1
loop_
 _symmetry_equiv_pos_site_id
 _symmetry_equiv_pos_as_xyz
  1  'x, y, z'
loop_
 _atom_site_type_symbol
 _atom_site_label
 _atom_site_symmetry_multiplicity
 _atom_site_fract_x
 _atom_site_fract_y
 _atom_site_fract_z
 _atom_site_occupancy
  Ce  Ce0  1  0.352300  0.352300  0.704600  1
  Ho  Ho1  1  0.644821  0.644822  0.289646  1
  Mn  Mn2  1  0.002570  0.002570  0.005140  1
  N  N3  1  0.999944  0.499942  0.999884  1
  N  N4  1  0.163698  0.163698  0.327396  1
  N  N5  1  0.836665  0.836665  0.673333  1
