# generated using pymatgen
data_Y10PPb6S
_symmetry_space_group_name_H-M   'P 1'
_cell_length_a   9.14233500
_cell_length_b   9.14233630
_cell_length_c   6.80620400
_cell_angle_alpha   90.00000000
_cell_angle_beta   90.00000000
_cell_angle_gamma   120.00000614
_symmetry_Int_Tables_number   1
_chemical_formula_structural   Y10PPb6S
_chemical_formula_sum   'Y10 P1 Pb6 S1'
_cell_volume   492.66293599
_cell_formula_units_Z   1
loop_
 _symmetry_equiv_pos_site_id
 _symmetry_equiv_pos_as_xyz
  1  'x, y, z'
loop_
 _atom_site_type_symbol
 _atom_site_label
 _atom_site_symmetry_multiplicity
 _atom_site_fract_x
 _atom_site_fract_y
 _atom_site_fract_z
 _atom_site_occupancy
  Y  Y0  1  0.760749  0.760749  0.752303  1
  Y  Y1  1  0.239251  0.000000  0.752303  1
  Y  Y2  1  0.000000  0.239251  0.752303  1
  Y  Y3  1  0.239251  0.239251  0.247697  1
  Y  Y4  1  0.760749  0.000000  0.247697  1
  Y  Y5  1  0.000000  0.760749  0.247697  1
  Y  Y6  1  0.666667  0.333333  0.000000  1
  Y  Y7  1  0.333333  0.666667  0.000000  1
  Y  Y8  1  0.333333  0.666667  0.500000  1
  Y  Y9  1  0.666667  0.333333  0.500000  1
  P  P10  1  0.000000  0.000000  0.000000  1
  Pb  Pb11  1  0.399302  0.399302  0.749929  1
  Pb  Pb12  1  0.600698  0.000000  0.749929  1
  Pb  Pb13  1  0.000000  0.600698  0.749929  1
  Pb  Pb14  1  0.600698  0.600698  0.250071  1
  Pb  Pb15  1  0.399302  0.000000  0.250071  1
  Pb  Pb16  1  0.000000  0.399302  0.250071  1
  S  S17  1  0.000000  0.000000  0.500000  1
