# generated using pymatgen
data_GdTiF7
_symmetry_space_group_name_H-M   'P 1'
_cell_length_a   5.58830300
_cell_length_b   8.94387757
_cell_length_c   12.03040600
_cell_angle_alpha   62.27111282
_cell_angle_beta   90.00000000
_cell_angle_gamma   90.00000000
_symmetry_Int_Tables_number   1
_chemical_formula_structural   GdTiF7
_chemical_formula_sum   'Gd4 Ti4 F28'
_cell_volume   532.23991271
_cell_formula_units_Z   4
loop_
 _symmetry_equiv_pos_site_id
 _symmetry_equiv_pos_as_xyz
  1  'x, y, z'
loop_
 _atom_site_type_symbol
 _atom_site_label
 _atom_site_symmetry_multiplicity
 _atom_site_fract_x
 _atom_site_fract_y
 _atom_site_fract_z
 _atom_site_occupancy
  Gd  Gd0  1  0.759159  0.810981  0.764802  1
  Gd  Gd1  1  0.259159  0.189019  0.735198  1
  Gd  Gd2  1  0.240841  0.189019  0.235198  1
  Gd  Gd3  1  0.740841  0.810981  0.264802  1
  Ti  Ti4  1  0.756600  0.273956  0.957081  1
  Ti  Ti5  1  0.256600  0.726044  0.542919  1
  Ti  Ti6  1  0.243400  0.726044  0.042919  1
  Ti  Ti7  1  0.743400  0.273956  0.457081  1
  F  F8  1  0.440871  0.708208  0.923211  1
  F  F9  1  0.940871  0.291792  0.576789  1
  F  F10  1  0.559129  0.291792  0.076789  1
  F  F11  1  0.059129  0.708208  0.423211  1
  F  F12  1  0.459400  0.279103  0.543028  1
  F  F13  1  0.959400  0.720897  0.956972  1
  F  F14  1  0.540600  0.720897  0.456972  1
  F  F15  1  0.040600  0.279103  0.043028  1
  F  F16  1  0.773730  0.512179  0.864010  1
  F  F17  1  0.273730  0.487821  0.635990  1
  F  F18  1  0.226270  0.487821  0.135990  1
  F  F19  1  0.726270  0.512179  0.364010  1
  F  F20  1  0.759926  0.037135  0.051140  1
  F  F21  1  0.259926  0.962865  0.448860  1
  F  F22  1  0.240074  0.962865  0.948860  1
  F  F23  1  0.740074  0.037135  0.551140  1
  F  F24  1  0.985896  0.729924  0.635664  1
  F  F25  1  0.485896  0.270076  0.864336  1
  F  F26  1  0.014104  0.270076  0.364336  1
  F  F27  1  0.514104  0.729924  0.135664  1
  F  F28  1  0.049569  0.744283  0.167154  1
  F  F29  1  0.549569  0.255717  0.332846  1
  F  F30  1  0.950431  0.255717  0.832846  1
  F  F31  1  0.450431  0.744283  0.667154  1
  F  F32  1  0.409655  0.969467  0.228334  1
  F  F33  1  0.909655  0.030533  0.271666  1
  F  F34  1  0.590345  0.030533  0.771666  1
  F  F35  1  0.090345  0.969467  0.728334  1
