# generated using pymatgen
data_SmThTa3Si4
_symmetry_space_group_name_H-M   'P 1'
_cell_length_a   6.97366071
_cell_length_b   7.17217532
_cell_length_c   13.55291533
_cell_angle_alpha   90.00934255
_cell_angle_beta   90.21661310
_cell_angle_gamma   90.03307374
_symmetry_Int_Tables_number   1
_chemical_formula_structural   SmThTa3Si4
_chemical_formula_sum   'Sm4 Th4 Ta12 Si16'
_cell_volume   677.86194669
_cell_formula_units_Z   4
loop_
 _symmetry_equiv_pos_site_id
 _symmetry_equiv_pos_as_xyz
  1  'x, y, z'
loop_
 _atom_site_type_symbol
 _atom_site_label
 _atom_site_symmetry_multiplicity
 _atom_site_fract_x
 _atom_site_fract_y
 _atom_site_fract_z
 _atom_site_occupancy
  Sm  Sm0  1  0.502686  0.330583  0.097498  1
  Sm  Sm1  1  0.005141  0.169338  0.403593  1
  Sm  Sm2  1  0.504636  0.330962  0.404158  1
  Sm  Sm3  1  0.496253  0.669147  0.594556  1
  Th  Th4  1  0.003547  0.168815  0.096434  1
  Th  Th5  1  0.997648  0.831445  0.904973  1
  Th  Th6  1  0.497050  0.668872  0.905106  1
  Th  Th7  1  0.995633  0.831853  0.593708  1
  Ta  Ta8  1  0.161355  0.491738  0.749292  1
  Ta  Ta9  1  0.839076  0.509999  0.249897  1
  Ta  Ta10  1  0.338106  0.988137  0.250717  1
  Ta  Ta11  1  0.663187  0.010438  0.749949  1
  Ta  Ta12  1  0.332865  0.172427  0.624990  1
  Ta  Ta13  1  0.664240  0.825454  0.375009  1
  Ta  Ta14  1  0.165226  0.673707  0.375003  1
  Ta  Ta15  1  0.665851  0.827999  0.125459  1
  Ta  Ta16  1  0.835712  0.326405  0.624956  1
  Ta  Ta17  1  0.334133  0.171428  0.874682  1
  Ta  Ta18  1  0.833555  0.329149  0.874538  1
  Ta  Ta19  1  0.163867  0.673503  0.125449  1
  Si  Si20  1  0.039414  0.130897  0.749836  1
  Si  Si21  1  0.960638  0.870686  0.251572  1
  Si  Si22  1  0.461415  0.628103  0.250325  1
  Si  Si23  1  0.538638  0.370095  0.748613  1
  Si  Si24  1  0.300736  0.880864  0.748128  1
  Si  Si25  1  0.701390  0.119996  0.251941  1
  Si  Si26  1  0.204941  0.380544  0.251697  1
  Si  Si27  1  0.796662  0.618060  0.747904  1
  Si  Si28  1  0.161821  0.457820  0.541517  1
  Si  Si29  1  0.840021  0.536616  0.456123  1
  Si  Si30  1  0.340471  0.960923  0.456491  1
  Si  Si31  1  0.836921  0.541429  0.044608  1
  Si  Si32  1  0.655571  0.041144  0.541644  1
  Si  Si33  1  0.159807  0.456202  0.957396  1
  Si  Si34  1  0.658661  0.045389  0.957643  1
  Si  Si35  1  0.343126  0.959834  0.044593  1
