# generated using pymatgen
data_Lu5Rh2
_symmetry_space_group_name_H-M   'P 1'
_cell_length_a   6.34688523
_cell_length_b   7.04465711
_cell_length_c   8.36190720
_cell_angle_alpha   96.79895142
_cell_angle_beta   112.30345231
_cell_angle_gamma   89.99999780
_symmetry_Int_Tables_number   1
_chemical_formula_structural   Lu5Rh2
_chemical_formula_sum   'Lu10 Rh4'
_cell_volume   343.06026785
_cell_formula_units_Z   2
loop_
 _symmetry_equiv_pos_site_id
 _symmetry_equiv_pos_as_xyz
  1  'x, y, z'
loop_
 _atom_site_type_symbol
 _atom_site_label
 _atom_site_symmetry_multiplicity
 _atom_site_fract_x
 _atom_site_fract_y
 _atom_site_fract_z
 _atom_site_occupancy
  Lu  Lu0  1  0.523441  0.082029  0.813968  1
  Lu  Lu1  1  0.476559  0.917971  0.186032  1
  Lu  Lu2  1  0.709472  0.417971  0.186032  1
  Lu  Lu3  1  0.290528  0.582029  0.813968  1
  Lu  Lu4  1  0.290158  0.312660  0.439932  1
  Lu  Lu5  1  0.709842  0.687340  0.560068  1
  Lu  Lu6  1  0.850227  0.187340  0.560068  1
  Lu  Lu7  1  0.149773  0.812660  0.439932  1
  Lu  Lu8  1  0.074107  0.250000  0.000000  1
  Lu  Lu9  1  0.925893  0.750000  0.000000  1
  Rh  Rh10  1  0.323773  0.570933  0.219530  1
  Rh  Rh11  1  0.676227  0.429067  0.780470  1
  Rh  Rh12  1  0.104244  0.929067  0.780470  1
  Rh  Rh13  1  0.895756  0.070933  0.219530  1
