# generated using pymatgen
data_Er4MnNi13
_symmetry_space_group_name_H-M   'P 1'
_cell_length_a   4.95482570
_cell_length_b   4.91183205
_cell_length_c   12.41300058
_cell_angle_alpha   78.56703830
_cell_angle_beta   78.48748271
_cell_angle_gamma   59.71003351
_symmetry_Int_Tables_number   1
_chemical_formula_structural   Er4MnNi13
_chemical_formula_sum   'Er4 Mn1 Ni13'
_cell_volume   253.90435732
_cell_formula_units_Z   1
loop_
 _symmetry_equiv_pos_site_id
 _symmetry_equiv_pos_as_xyz
  1  'x, y, z'
loop_
 _atom_site_type_symbol
 _atom_site_label
 _atom_site_symmetry_multiplicity
 _atom_site_fract_x
 _atom_site_fract_y
 _atom_site_fract_z
 _atom_site_occupancy
  Er  Er0  1  0.947610  0.947820  0.156960  1
  Er  Er1  1  0.052390  0.052180  0.843040  1
  Er  Er2  1  0.852106  0.852972  0.442816  1
  Er  Er3  1  0.147894  0.147028  0.557184  1
  Mn  Mn4  1  0.500000  0.000000  0.000000  1
  Ni  Ni5  1  0.500000  0.500000  0.500000  1
  Ni  Ni6  1  0.722176  0.722304  0.833345  1
  Ni  Ni7  1  0.277824  0.277696  0.166655  1
  Ni  Ni8  1  0.610969  0.612000  0.166062  1
  Ni  Ni9  1  0.389031  0.388000  0.833938  1
  Ni  Ni10  1  0.000000  0.500000  0.000000  1
  Ni  Ni11  1  0.500000  0.500000  0.000000  1
  Ni  Ni12  1  0.389374  0.389258  0.330861  1
  Ni  Ni13  1  0.890506  0.389258  0.330861  1
  Ni  Ni14  1  0.388803  0.891370  0.331022  1
  Ni  Ni15  1  0.610626  0.610742  0.669139  1
  Ni  Ni16  1  0.109494  0.610742  0.669139  1
  Ni  Ni17  1  0.611197  0.108630  0.668978  1
