# generated using pymatgen
data_Rb8Hf4Zr2BBr20
_symmetry_space_group_name_H-M   'P 1'
_cell_length_a   12.04204089
_cell_length_b   12.03847820
_cell_length_c   12.03847753
_cell_angle_alpha   60.01958324
_cell_angle_beta   59.99020309
_cell_angle_gamma   59.99020944
_symmetry_Int_Tables_number   1
_chemical_formula_structural   Rb8Hf4Zr2BBr20
_chemical_formula_sum   'Rb8 Hf4 Zr2 B1 Br20'
_cell_volume   1234.03695858
_cell_formula_units_Z   1
loop_
 _symmetry_equiv_pos_site_id
 _symmetry_equiv_pos_as_xyz
  1  'x, y, z'
loop_
 _atom_site_type_symbol
 _atom_site_label
 _atom_site_symmetry_multiplicity
 _atom_site_fract_x
 _atom_site_fract_y
 _atom_site_fract_z
 _atom_site_occupancy
  Rb  Rb0  1  0.361210  0.360563  0.360563  1
  Rb  Rb1  1  0.638790  0.639437  0.639437  1
  Rb  Rb2  1  0.360563  0.361210  0.917667  1
  Rb  Rb3  1  0.360563  0.917667  0.361210  1
  Rb  Rb4  1  0.639437  0.638790  0.082333  1
  Rb  Rb5  1  0.639437  0.082333  0.638790  1
  Rb  Rb6  1  0.917667  0.360563  0.360563  1
  Rb  Rb7  1  0.082333  0.639437  0.639437  1
  Hf  Hf8  1  0.134896  0.865104  0.134896  1
  Hf  Hf9  1  0.865104  0.134896  0.865104  1
  Hf  Hf10  1  0.134896  0.134896  0.865104  1
  Hf  Hf11  1  0.865104  0.865104  0.134896  1
  Zr  Zr12  1  0.863861  0.136139  0.136139  1
  Zr  Zr13  1  0.136139  0.863861  0.863861  1
  B  B14  1  0.000000  0.000000  0.000000  1
  Br  Br15  1  0.315495  0.000000  0.000000  1
  Br  Br16  1  0.684505  0.000000  0.000000  1
  Br  Br17  1  0.000000  0.315495  0.684505  1
  Br  Br18  1  0.000000  0.684505  0.315495  1
  Br  Br19  1  0.003104  0.318057  0.996896  1
  Br  Br20  1  0.681943  0.996896  0.318057  1
  Br  Br21  1  0.996896  0.681943  0.003104  1
  Br  Br22  1  0.318057  0.003104  0.681943  1
  Br  Br23  1  0.003104  0.996896  0.318057  1
  Br  Br24  1  0.996896  0.003104  0.681943  1
  Br  Br25  1  0.681943  0.318057  0.996896  1
  Br  Br26  1  0.318057  0.681943  0.003104  1
  Br  Br27  1  0.690777  0.309223  0.309223  1
  Br  Br28  1  0.309223  0.690777  0.690777  1
  Br  Br29  1  0.306936  0.693064  0.306936  1
  Br  Br30  1  0.693064  0.306936  0.693064  1
  Br  Br31  1  0.306936  0.306936  0.693064  1
  Br  Br32  1  0.693064  0.693064  0.306936  1
  Br  Br33  1  0.250000  0.250000  0.250000  1
  Br  Br34  1  0.750000  0.750000  0.750000  1
