# generated using pymatgen
data_Th8Sc12Si15Au
_symmetry_space_group_name_H-M   'P 1'
_cell_length_a   7.27548245
_cell_length_b   7.47418568
_cell_length_c   14.29350478
_cell_angle_alpha   89.83668084
_cell_angle_beta   89.86896972
_cell_angle_gamma   90.16450121
_symmetry_Int_Tables_number   1
_chemical_formula_structural   Th8Sc12Si15Au
_chemical_formula_sum   'Th8 Sc12 Si15 Au1'
_cell_volume   777.24817898
_cell_formula_units_Z   1
loop_
 _symmetry_equiv_pos_site_id
 _symmetry_equiv_pos_as_xyz
  1  'x, y, z'
loop_
 _atom_site_type_symbol
 _atom_site_label
 _atom_site_symmetry_multiplicity
 _atom_site_fract_x
 _atom_site_fract_y
 _atom_site_fract_z
 _atom_site_occupancy
  Th  Th0  1  0.007046  0.172705  0.096811  1
  Th  Th1  1  0.992453  0.828970  0.903761  1
  Th  Th2  1  0.493111  0.673765  0.903038  1
  Th  Th3  1  0.992546  0.831058  0.597429  1
  Th  Th4  1  0.507344  0.327050  0.096127  1
  Th  Th5  1  0.003742  0.171189  0.401109  1
  Th  Th6  1  0.511855  0.324660  0.399947  1
  Th  Th7  1  0.494244  0.677112  0.598911  1
  Sc  Sc8  1  0.160771  0.500786  0.754229  1
  Sc  Sc9  1  0.837801  0.497199  0.248498  1
  Sc  Sc10  1  0.339239  0.999598  0.248741  1
  Sc  Sc11  1  0.662184  0.996608  0.751114  1
  Sc  Sc12  1  0.342110  0.173426  0.625620  1
  Sc  Sc13  1  0.664940  0.826300  0.374481  1
  Sc  Sc14  1  0.167897  0.673904  0.372096  1
  Sc  Sc15  1  0.668528  0.825009  0.124097  1
  Sc  Sc16  1  0.825564  0.325863  0.625978  1
  Sc  Sc17  1  0.331319  0.173691  0.876542  1
  Sc  Sc18  1  0.833205  0.325140  0.875867  1
  Sc  Sc19  1  0.166933  0.673188  0.124975  1
  Si  Si20  1  0.036473  0.124503  0.750883  1
  Si  Si21  1  0.965278  0.878960  0.248922  1
  Si  Si22  1  0.466185  0.622677  0.249154  1
  Si  Si23  1  0.535100  0.378661  0.752050  1
  Si  Si24  1  0.288063  0.876975  0.750950  1
  Si  Si25  1  0.709541  0.123448  0.248273  1
  Si  Si26  1  0.210040  0.375458  0.248782  1
  Si  Si27  1  0.792353  0.622265  0.751685  1
  Si  Si28  1  0.834916  0.540592  0.459714  1
  Si  Si29  1  0.337642  0.962343  0.459205  1
  Si  Si30  1  0.841233  0.535841  0.039956  1
  Si  Si31  1  0.661538  0.038116  0.538923  1
  Si  Si32  1  0.159397  0.464134  0.960955  1
  Si  Si33  1  0.657901  0.036621  0.960438  1
  Si  Si34  1  0.341867  0.963247  0.040268  1
  Au  Au35  1  0.159639  0.458939  0.540475  1
