# generated using pymatgen
data_La4YSn3
_symmetry_space_group_name_H-M   'P 1'
_cell_length_a   9.51025391
_cell_length_b   9.51025383
_cell_length_c   9.51025413
_cell_angle_alpha   96.26228899
_cell_angle_beta   96.26229123
_cell_angle_gamma   141.42933002
_symmetry_Int_Tables_number   1
_chemical_formula_structural   La4YSn3
_chemical_formula_sum   'La8 Y2 Sn6'
_cell_volume   506.19496869
_cell_formula_units_Z   2
loop_
 _symmetry_equiv_pos_site_id
 _symmetry_equiv_pos_as_xyz
  1  'x, y, z'
loop_
 _atom_site_type_symbol
 _atom_site_label
 _atom_site_symmetry_multiplicity
 _atom_site_fract_x
 _atom_site_fract_y
 _atom_site_fract_z
 _atom_site_occupancy
  La  La0  1  0.911779  0.222328  0.134107  1
  La  La1  1  0.222328  0.088221  0.310548  1
  La  La2  1  0.777672  0.911779  0.689452  1
  La  La3  1  0.088221  0.777672  0.865893  1
  La  La4  1  0.722328  0.411779  0.134107  1
  La  La5  1  0.277672  0.588221  0.865893  1
  La  La6  1  0.588221  0.722328  0.310548  1
  La  La7  1  0.411779  0.277672  0.689452  1
  Y  Y8  1  0.750000  0.250000  0.500000  1
  Y  Y9  1  0.250000  0.750000  0.500000  1
  Sn  Sn10  1  0.750000  0.750000  0.000000  1
  Sn  Sn11  1  0.250000  0.250000  0.000000  1
  Sn  Sn12  1  0.844778  0.655222  0.500000  1
  Sn  Sn13  1  0.655222  0.155222  0.810445  1
  Sn  Sn14  1  0.344778  0.844778  0.189555  1
  Sn  Sn15  1  0.155222  0.344778  0.500000  1
