# generated using pymatgen
data_Y4Ho6(InBi)3
_symmetry_space_group_name_H-M   'P 1'
_cell_length_a   9.04172149
_cell_length_b   9.04172116
_cell_length_c   6.57061400
_cell_angle_alpha   90.00000000
_cell_angle_beta   90.00000000
_cell_angle_gamma   120.03773949
_symmetry_Int_Tables_number   1
_chemical_formula_structural   Y4Ho6(InBi)3
_chemical_formula_sum   'Y4 Ho6 In3 Bi3'
_cell_volume   465.02204179
_cell_formula_units_Z   1
loop_
 _symmetry_equiv_pos_site_id
 _symmetry_equiv_pos_as_xyz
  1  'x, y, z'
loop_
 _atom_site_type_symbol
 _atom_site_label
 _atom_site_symmetry_multiplicity
 _atom_site_fract_x
 _atom_site_fract_y
 _atom_site_fract_z
 _atom_site_occupancy
  Y  Y0  1  0.762727  0.762727  0.750000  1
  Y  Y1  1  0.237277  0.999848  0.750000  1
  Y  Y2  1  0.999848  0.237277  0.750000  1
  Y  Y3  1  0.238416  0.238416  0.250000  1
  Ho  Ho4  1  0.666801  0.333429  0.007346  1
  Ho  Ho5  1  0.333429  0.666801  0.007346  1
  Ho  Ho6  1  0.333429  0.666801  0.492654  1
  Ho  Ho7  1  0.666801  0.333429  0.492654  1
  Ho  Ho8  1  0.761291  0.999809  0.250000  1
  Ho  Ho9  1  0.999809  0.761291  0.250000  1
  In  In10  1  0.606540  0.606540  0.250000  1
  In  In11  1  0.393784  0.999777  0.250000  1
  In  In12  1  0.999777  0.393784  0.250000  1
  Bi  Bi13  1  0.396219  0.396219  0.750000  1
  Bi  Bi14  1  0.603865  0.999987  0.750000  1
  Bi  Bi15  1  0.999987  0.603865  0.750000  1
