# generated using pymatgen
data_Ho3CdCu(HgAu)2
_symmetry_space_group_name_H-M   'P 1'
_cell_length_a   7.86374173
_cell_length_b   7.86374176
_cell_length_c   3.73754500
_cell_angle_alpha   90.00000000
_cell_angle_beta   90.00000000
_cell_angle_gamma   121.03817930
_symmetry_Int_Tables_number   1
_chemical_formula_structural   Ho3CdCu(HgAu)2
_chemical_formula_sum   'Ho3 Cd1 Cu1 Hg2 Au2'
_cell_volume   198.03251033
_cell_formula_units_Z   1
loop_
 _symmetry_equiv_pos_site_id
 _symmetry_equiv_pos_as_xyz
  1  'x, y, z'
loop_
 _atom_site_type_symbol
 _atom_site_label
 _atom_site_symmetry_multiplicity
 _atom_site_fract_x
 _atom_site_fract_y
 _atom_site_fract_z
 _atom_site_occupancy
  Ho  Ho0  1  0.595297  0.008044  0.000000  1
  Ho  Ho1  1  0.008044  0.595297  0.000000  1
  Ho  Ho2  1  0.394331  0.394331  0.000000  1
  Cd  Cd3  1  0.749347  0.749347  0.500000  1
  Cu  Cu4  1  0.999567  0.999567  0.000000  1
  Hg  Hg5  1  0.251791  0.992918  0.500000  1
  Hg  Hg6  1  0.992918  0.251791  0.500000  1
  Au  Au7  1  0.341830  0.666874  0.500000  1
  Au  Au8  1  0.666874  0.341830  0.500000  1
