# generated using pymatgen
data_PrNi5P3
_symmetry_space_group_name_H-M   'P 1'
_cell_length_a   6.10505700
_cell_length_b   6.10505602
_cell_length_c   11.44485700
_cell_angle_alpha   90.00000000
_cell_angle_beta   90.00000000
_cell_angle_gamma   145.48075054
_symmetry_Int_Tables_number   1
_chemical_formula_structural   PrNi5P3
_chemical_formula_sum   'Pr2 Ni10 P6'
_cell_volume   241.72969047
_cell_formula_units_Z   2
loop_
 _symmetry_equiv_pos_site_id
 _symmetry_equiv_pos_as_xyz
  1  'x, y, z'
loop_
 _atom_site_type_symbol
 _atom_site_label
 _atom_site_symmetry_multiplicity
 _atom_site_fract_x
 _atom_site_fract_y
 _atom_site_fract_z
 _atom_site_occupancy
  Pr  Pr0  1  0.161526  0.838474  0.250000  1
  Pr  Pr1  1  0.838474  0.161526  0.750000  1
  Ni  Ni2  1  0.448901  0.551099  0.145319  1
  Ni  Ni3  1  0.448901  0.551099  0.354681  1
  Ni  Ni4  1  0.199494  0.800506  0.930744  1
  Ni  Ni5  1  0.551099  0.448901  0.854681  1
  Ni  Ni6  1  0.800506  0.199494  0.430744  1
  Ni  Ni7  1  0.551099  0.448901  0.645319  1
  Ni  Ni8  1  0.199494  0.800506  0.569256  1
  Ni  Ni9  1  0.000000  0.000000  0.000000  1
  Ni  Ni10  1  0.000000  0.000000  0.500000  1
  Ni  Ni11  1  0.800506  0.199494  0.069256  1
  P  P12  1  0.116922  0.883078  0.750000  1
  P  P13  1  0.382367  0.617633  0.960252  1
  P  P14  1  0.382367  0.617633  0.539748  1
  P  P15  1  0.617633  0.382367  0.460252  1
  P  P16  1  0.617633  0.382367  0.039748  1
  P  P17  1  0.883078  0.116922  0.250000  1
