# generated using pymatgen
data_Ca2La3(Pr5Ir4)3
_symmetry_space_group_name_H-M   'P 1'
_cell_length_a   11.36963188
_cell_length_b   11.38544132
_cell_length_c   6.55904148
_cell_angle_alpha   90.00372732
_cell_angle_beta   89.92300146
_cell_angle_gamma   90.05501813
_symmetry_Int_Tables_number   1
_chemical_formula_structural   Ca2La3(Pr5Ir4)3
_chemical_formula_sum   'Ca2 La3 Pr15 Ir12'
_cell_volume   849.05545603
_cell_formula_units_Z   1
loop_
 _symmetry_equiv_pos_site_id
 _symmetry_equiv_pos_as_xyz
  1  'x, y, z'
loop_
 _atom_site_type_symbol
 _atom_site_label
 _atom_site_symmetry_multiplicity
 _atom_site_fract_x
 _atom_site_fract_y
 _atom_site_fract_z
 _atom_site_occupancy
  Ca  Ca0  1  0.999527  0.999726  0.499639  1
  Ca  Ca1  1  0.999884  0.999973  0.000110  1
  La  La2  1  0.288341  0.089541  0.387454  1
  La  La3  1  0.288016  0.910372  0.887261  1
  La  La4  1  0.711851  0.088925  0.887402  1
  Pr  Pr5  1  0.711769  0.910984  0.385169  1
  Pr  Pr6  1  0.589986  0.790836  0.883528  1
  Pr  Pr7  1  0.589672  0.208860  0.383627  1
  Pr  Pr8  1  0.411067  0.790783  0.383488  1
  Pr  Pr9  1  0.410446  0.209637  0.883302  1
  Pr  Pr10  1  0.208248  0.411072  0.616371  1
  Pr  Pr11  1  0.208247  0.589015  0.116622  1
  Pr  Pr12  1  0.791723  0.410979  0.116531  1
  Pr  Pr13  1  0.791663  0.589304  0.616302  1
  Pr  Pr14  1  0.911305  0.711745  0.114969  1
  Pr  Pr15  1  0.911703  0.288485  0.614420  1
  Pr  Pr16  1  0.088054  0.711563  0.614871  1
  Pr  Pr17  1  0.088346  0.288525  0.114616  1
  Pr  Pr18  1  0.499972  0.499958  0.000399  1
  Pr  Pr19  1  0.500139  0.500029  0.500474  1
  Ir  Ir20  1  0.841614  0.157131  0.247662  1
  Ir  Ir21  1  0.842503  0.842274  0.749860  1
  Ir  Ir22  1  0.158254  0.157272  0.747628  1
  Ir  Ir23  1  0.158300  0.842839  0.247702  1
  Ir  Ir24  1  0.654420  0.345462  0.749999  1
  Ir  Ir25  1  0.654260  0.654315  0.249960  1
  Ir  Ir26  1  0.345560  0.345653  0.250076  1
  Ir  Ir27  1  0.345706  0.654506  0.749883  1
  Ir  Ir28  1  0.499452  0.000383  0.115027  1
  Ir  Ir29  1  0.499961  0.999874  0.616099  1
  Ir  Ir30  1  0.000082  0.499857  0.884788  1
  Ir  Ir31  1  0.999929  0.500122  0.384762  1
