# generated using pymatgen
data_SmTh(Pd2Pt)2
_symmetry_space_group_name_H-M   'P 1'
_cell_length_a   5.93070455
_cell_length_b   5.93070401
_cell_length_c   9.73505000
_cell_angle_alpha   90.00000000
_cell_angle_beta   90.00000000
_cell_angle_gamma   120.24494383
_symmetry_Int_Tables_number   1
_chemical_formula_structural   SmTh(Pd2Pt)2
_chemical_formula_sum   'Sm2 Th2 Pd8 Pt4'
_cell_volume   295.80405537
_cell_formula_units_Z   2
loop_
 _symmetry_equiv_pos_site_id
 _symmetry_equiv_pos_as_xyz
  1  'x, y, z'
loop_
 _atom_site_type_symbol
 _atom_site_label
 _atom_site_symmetry_multiplicity
 _atom_site_fract_x
 _atom_site_fract_y
 _atom_site_fract_z
 _atom_site_occupancy
  Sm  Sm0  1  0.000000  0.000000  0.500000  1
  Sm  Sm1  1  0.000000  0.000000  0.000000  1
  Th  Th2  1  0.332979  0.667021  0.250000  1
  Th  Th3  1  0.667021  0.332979  0.750000  1
  Pd  Pd4  1  0.500000  0.500000  0.500000  1
  Pd  Pd5  1  0.500000  0.500000  0.000000  1
  Pd  Pd6  1  0.824578  0.649755  0.250000  1
  Pd  Pd7  1  0.350245  0.175422  0.250000  1
  Pd  Pd8  1  0.824123  0.175877  0.250000  1
  Pd  Pd9  1  0.175422  0.350245  0.750000  1
  Pd  Pd10  1  0.649755  0.824578  0.750000  1
  Pd  Pd11  1  0.175877  0.824123  0.750000  1
  Pt  Pt12  1  0.500000  0.000000  0.500000  1
  Pt  Pt13  1  0.000000  0.500000  0.500000  1
  Pt  Pt14  1  0.500000  0.000000  0.000000  1
  Pt  Pt15  1  0.000000  0.500000  0.000000  1
