# generated using pymatgen
data_Hf6Ta3Al13FeCo6
_symmetry_space_group_name_H-M   'P 1'
_cell_length_a   8.57698234
_cell_length_b   8.57698150
_cell_length_c   8.57698249
_cell_angle_alpha   59.70492295
_cell_angle_beta   59.70491798
_cell_angle_gamma   59.70492427
_symmetry_Int_Tables_number   1
_chemical_formula_structural   Hf6Ta3Al13FeCo6
_chemical_formula_sum   'Hf6 Ta3 Al13 Fe1 Co6'
_cell_volume   443.16746664
_cell_formula_units_Z   1
loop_
 _symmetry_equiv_pos_site_id
 _symmetry_equiv_pos_as_xyz
  1  'x, y, z'
loop_
 _atom_site_type_symbol
 _atom_site_label
 _atom_site_symmetry_multiplicity
 _atom_site_fract_x
 _atom_site_fract_y
 _atom_site_fract_z
 _atom_site_occupancy
  Hf  Hf0  1  0.691366  0.691366  0.307060  1
  Hf  Hf1  1  0.309768  0.689819  0.309768  1
  Hf  Hf2  1  0.689819  0.309768  0.309768  1
  Hf  Hf3  1  0.309768  0.309768  0.689819  1
  Hf  Hf4  1  0.691366  0.307060  0.691366  1
  Hf  Hf5  1  0.307060  0.691366  0.691366  1
  Ta  Ta6  1  0.880780  0.880780  0.356866  1
  Ta  Ta7  1  0.880780  0.356866  0.880780  1
  Ta  Ta8  1  0.356866  0.880780  0.880780  1
  Al  Al9  1  0.882490  0.882490  0.882490  1
  Al  Al10  1  0.117985  0.117985  0.641560  1
  Al  Al11  1  0.117985  0.641560  0.117985  1
  Al  Al12  1  0.641560  0.117985  0.117985  1
  Al  Al13  1  0.120389  0.120389  0.120389  1
  Al  Al14  1  0.667369  0.667369  0.006720  1
  Al  Al15  1  0.667369  0.006720  0.667369  1
  Al  Al16  1  0.006720  0.667369  0.667369  1
  Al  Al17  1  0.661736  0.661736  0.661736  1
  Al  Al18  1  0.335075  0.335075  0.995647  1
  Al  Al19  1  0.335075  0.995647  0.335075  1
  Al  Al20  1  0.995647  0.335075  0.335075  1
  Al  Al21  1  0.335157  0.335157  0.335157  1
  Fe  Fe22  1  0.001997  0.001997  0.001997  1
  Co  Co23  1  0.998342  0.998342  0.494708  1
  Co  Co24  1  0.503966  0.996548  0.503966  1
  Co  Co25  1  0.996548  0.503966  0.503966  1
  Co  Co26  1  0.503966  0.503966  0.996548  1
  Co  Co27  1  0.998342  0.494708  0.998342  1
  Co  Co28  1  0.494708  0.998342  0.998342  1
