# generated using pymatgen
data_Tb12Co2I17
_symmetry_space_group_name_H-M   'P 1'
_cell_length_a   9.76376434
_cell_length_b   11.68902952
_cell_length_c   11.68218171
_cell_angle_alpha   93.22418359
_cell_angle_beta   104.73828295
_cell_angle_gamma   114.51583999
_symmetry_Int_Tables_number   1
_chemical_formula_structural   Tb12Co2I17
_chemical_formula_sum   'Tb12 Co2 I17'
_cell_volume   1153.15688027
_cell_formula_units_Z   1
loop_
 _symmetry_equiv_pos_site_id
 _symmetry_equiv_pos_as_xyz
  1  'x, y, z'
loop_
 _atom_site_type_symbol
 _atom_site_label
 _atom_site_symmetry_multiplicity
 _atom_site_fract_x
 _atom_site_fract_y
 _atom_site_fract_z
 _atom_site_occupancy
  Tb  Tb0  1  0.051665  0.502860  0.320273  1
  Tb  Tb1  1  0.992903  0.809408  0.587299  1
  Tb  Tb2  1  0.652370  0.241326  0.280804  1
  Tb  Tb3  1  0.007097  0.190592  0.412701  1
  Tb  Tb4  1  0.214528  0.668228  0.982677  1
  Tb  Tb5  1  0.256955  0.977744  0.890242  1
  Tb  Tb6  1  0.347630  0.758674  0.719196  1
  Tb  Tb7  1  0.948335  0.497140  0.679727  1
  Tb  Tb8  1  0.743045  0.022256  0.109758  1
  Tb  Tb9  1  0.143878  0.287345  0.152320  1
  Tb  Tb10  1  0.785472  0.331772  0.017323  1
  Tb  Tb11  1  0.856122  0.712655  0.847680  1
  Co  Co12  1  0.103175  0.738191  0.784240  1
  Co  Co13  1  0.896825  0.261809  0.215760  1
  I  I14  1  0.781525  0.529264  0.417018  1
  I  I15  1  0.642020  0.417525  0.761246  1
  I  I16  1  0.843829  0.894528  0.326759  1
  I  I17  1  0.328227  0.212979  0.369055  1
  I  I18  1  0.156171  0.105472  0.673241  1
  I  I19  1  0.587402  0.054498  0.840789  1
  I  I20  1  0.756484  0.186477  0.539742  1
  I  I21  1  0.552972  0.710151  0.954955  1
  I  I22  1  0.357980  0.582475  0.238754  1
  I  I23  1  0.218475  0.470736  0.582982  1
  I  I24  1  0.056458  0.363695  0.893786  1
  I  I25  1  0.447028  0.289849  0.045045  1
  I  I26  1  0.000000  0.000000  0.000000  1
  I  I27  1  0.243516  0.813523  0.460258  1
  I  I28  1  0.412598  0.945502  0.159211  1
  I  I29  1  0.671773  0.787021  0.630945  1
  I  I30  1  0.943542  0.636305  0.106214  1
