# generated using pymatgen
data_Hf3Al3PdPt2
_symmetry_space_group_name_H-M   'P 1'
_cell_length_a   7.09087700
_cell_length_b   7.09087758
_cell_length_c   7.25582900
_cell_angle_alpha   90.00000000
_cell_angle_beta   90.00000000
_cell_angle_gamma   120.00000195
_symmetry_Int_Tables_number   1
_chemical_formula_structural   Hf3Al3PdPt2
_chemical_formula_sum   'Hf6 Al6 Pd2 Pt4'
_cell_volume   315.94944874
_cell_formula_units_Z   2
loop_
 _symmetry_equiv_pos_site_id
 _symmetry_equiv_pos_as_xyz
  1  'x, y, z'
loop_
 _atom_site_type_symbol
 _atom_site_label
 _atom_site_symmetry_multiplicity
 _atom_site_fract_x
 _atom_site_fract_y
 _atom_site_fract_z
 _atom_site_occupancy
  Hf  Hf0  1  0.579945  0.975775  0.750000  1
  Hf  Hf1  1  0.024225  0.604170  0.750000  1
  Hf  Hf2  1  0.395830  0.420055  0.750000  1
  Hf  Hf3  1  0.975775  0.579945  0.250000  1
  Hf  Hf4  1  0.604170  0.024225  0.250000  1
  Hf  Hf5  1  0.420055  0.395830  0.250000  1
  Al  Al6  1  0.742226  0.742226  0.000000  1
  Al  Al7  1  0.257774  0.000000  0.000000  1
  Al  Al8  1  0.000000  0.257774  0.000000  1
  Al  Al9  1  0.742226  0.742226  0.500000  1
  Al  Al10  1  0.257774  0.000000  0.500000  1
  Al  Al11  1  0.000000  0.257774  0.500000  1
  Pd  Pd12  1  0.000000  0.000000  0.750000  1
  Pd  Pd13  1  0.000000  0.000000  0.250000  1
  Pt  Pt14  1  0.666667  0.333333  0.968602  1
  Pt  Pt15  1  0.666667  0.333333  0.531398  1
  Pt  Pt16  1  0.333333  0.666667  0.468603  1
  Pt  Pt17  1  0.333333  0.666667  0.031398  1
