# generated using pymatgen
data_Dy4Er4B24Ir3Rh
_symmetry_space_group_name_H-M   'P 1'
_cell_length_a   3.63851000
_cell_length_b   9.15935125
_cell_length_c   11.50993231
_cell_angle_alpha   90.02646674
_cell_angle_beta   90.00000000
_cell_angle_gamma   90.00000000
_symmetry_Int_Tables_number   1
_chemical_formula_structural   Dy4Er4B24Ir3Rh
_chemical_formula_sum   'Dy4 Er4 B24 Ir3 Rh1'
_cell_volume   383.58446463
_cell_formula_units_Z   1
loop_
 _symmetry_equiv_pos_site_id
 _symmetry_equiv_pos_as_xyz
  1  'x, y, z'
loop_
 _atom_site_type_symbol
 _atom_site_label
 _atom_site_symmetry_multiplicity
 _atom_site_fract_x
 _atom_site_fract_y
 _atom_site_fract_z
 _atom_site_occupancy
  Dy  Dy0  1  0.500000  0.323170  0.412964  1
  Dy  Dy1  1  0.500000  0.677243  0.586123  1
  Dy  Dy2  1  0.500000  0.177876  0.913441  1
  Dy  Dy3  1  0.500000  0.822074  0.087411  1
  Er  Er4  1  0.500000  0.445219  0.126242  1
  Er  Er5  1  0.500000  0.555405  0.874681  1
  Er  Er6  1  0.500000  0.055405  0.625251  1
  Er  Er7  1  0.500000  0.943532  0.374131  1
  B  B8  1  0.000000  0.109231  0.469991  1
  B  B9  1  0.000000  0.890482  0.529759  1
  B  B10  1  0.000000  0.390733  0.970342  1
  B  B11  1  0.000000  0.609553  0.029857  1
  B  B12  1  0.000000  0.132202  0.315701  1
  B  B13  1  0.000000  0.867629  0.683911  1
  B  B14  1  0.000000  0.367755  0.816104  1
  B  B15  1  0.000000  0.632752  0.184077  1
  B  B16  1  0.000000  0.053849  0.066552  1
  B  B17  1  0.000000  0.946305  0.933492  1
  B  B18  1  0.000000  0.446077  0.566418  1
  B  B19  1  0.000000  0.553594  0.433703  1
  B  B20  1  0.000000  0.482716  0.286976  1
  B  B21  1  0.000000  0.517314  0.713483  1
  B  B22  1  0.000000  0.017589  0.786684  1
  B  B23  1  0.000000  0.982383  0.213321  1
  B  B24  1  0.000000  0.250435  0.079742  1
  B  B25  1  0.000000  0.749752  0.920315  1
  B  B26  1  0.000000  0.250018  0.579445  1
  B  B27  1  0.000000  0.749648  0.420259  1
  B  B28  1  0.000000  0.293874  0.234505  1
  B  B29  1  0.000000  0.706355  0.765420  1
  B  B30  1  0.000000  0.206356  0.734376  1
  B  B31  1  0.000000  0.793704  0.265025  1
  Ir  Ir32  1  0.500000  0.139144  0.178914  1
  Ir  Ir33  1  0.500000  0.861178  0.820809  1
  Ir  Ir34  1  0.500000  0.360399  0.679988  1
  Rh  Rh35  1  0.500000  0.639048  0.320584  1
