# generated using pymatgen
data_Na5P12Ir16Rh3
_symmetry_space_group_name_H-M   'P 1'
_cell_length_a   12.61610500
_cell_length_b   12.61610575
_cell_length_c   3.95927400
_cell_angle_alpha   90.00000000
_cell_angle_beta   90.00000000
_cell_angle_gamma   120.00000066
_symmetry_Int_Tables_number   1
_chemical_formula_structural   Na5P12Ir16Rh3
_chemical_formula_sum   'Na5 P12 Ir16 Rh3'
_cell_volume   545.75384248
_cell_formula_units_Z   1
loop_
 _symmetry_equiv_pos_site_id
 _symmetry_equiv_pos_as_xyz
  1  'x, y, z'
loop_
 _atom_site_type_symbol
 _atom_site_label
 _atom_site_symmetry_multiplicity
 _atom_site_fract_x
 _atom_site_fract_y
 _atom_site_fract_z
 _atom_site_occupancy
  Na  Na0  1  0.000000  0.179720  0.500000  1
  Na  Na1  1  0.820280  0.820280  0.500000  1
  Na  Na2  1  0.179720  0.000000  0.500000  1
  Na  Na3  1  0.666667  0.333333  0.000000  1
  Na  Na4  1  0.333333  0.666667  0.000000  1
  P  P5  1  0.000000  0.820268  0.000000  1
  P  P6  1  0.179732  0.179732  0.000000  1
  P  P7  1  0.820268  0.000000  0.000000  1
  P  P8  1  0.689094  0.174292  0.500000  1
  P  P9  1  0.825708  0.514802  0.500000  1
  P  P10  1  0.485198  0.310906  0.500000  1
  P  P11  1  0.174292  0.689094  0.500000  1
  P  P12  1  0.514802  0.825708  0.500000  1
  P  P13  1  0.310906  0.485198  0.500000  1
  P  P14  1  0.000000  0.364222  0.000000  1
  P  P15  1  0.635778  0.635778  0.000000  1
  P  P16  1  0.364222  0.000000  0.000000  1
  Ir  Ir17  1  0.000000  0.711473  0.500000  1
  Ir  Ir18  1  0.288527  0.288527  0.500000  1
  Ir  Ir19  1  0.711473  0.000000  0.500000  1
  Ir  Ir20  1  0.805144  0.182868  0.000000  1
  Ir  Ir21  1  0.817132  0.622276  0.000000  1
  Ir  Ir22  1  0.377724  0.194856  0.000000  1
  Ir  Ir23  1  0.182868  0.805144  0.000000  1
  Ir  Ir24  1  0.622276  0.817132  0.000000  1
  Ir  Ir25  1  0.194856  0.377724  0.000000  1
  Ir  Ir26  1  0.871621  0.361263  0.500000  1
  Ir  Ir27  1  0.638737  0.510358  0.500000  1
  Ir  Ir28  1  0.489642  0.128379  0.500000  1
  Ir  Ir29  1  0.361263  0.871621  0.500000  1
  Ir  Ir30  1  0.510358  0.638737  0.500000  1
  Ir  Ir31  1  0.128379  0.489642  0.500000  1
  Ir  Ir32  1  0.000000  0.000000  0.000000  1
  Rh  Rh33  1  0.000000  0.544859  0.000000  1
  Rh  Rh34  1  0.455141  0.455141  0.000000  1
  Rh  Rh35  1  0.544859  0.000000  0.000000  1
