# generated using pymatgen
data_TmTa11(BOs)12
_symmetry_space_group_name_H-M   'P 1'
_cell_length_a   3.12886400
_cell_length_b   9.11675162
_cell_length_c   15.87424473
_cell_angle_alpha   89.99475492
_cell_angle_beta   90.00000000
_cell_angle_gamma   90.00000000
_symmetry_Int_Tables_number   1
_chemical_formula_structural   TmTa11(BOs)12
_chemical_formula_sum   'Tm1 Ta11 B12 Os12'
_cell_volume   452.81403440
_cell_formula_units_Z   1
loop_
 _symmetry_equiv_pos_site_id
 _symmetry_equiv_pos_as_xyz
  1  'x, y, z'
loop_
 _atom_site_type_symbol
 _atom_site_label
 _atom_site_symmetry_multiplicity
 _atom_site_fract_x
 _atom_site_fract_y
 _atom_site_fract_z
 _atom_site_occupancy
  Tm  Tm0  1  0.000000  0.817787  0.708014  1
  Ta  Ta1  1  0.000000  0.799564  0.493471  1
  Ta  Ta2  1  0.000000  0.198668  0.504558  1
  Ta  Ta3  1  0.000000  0.298274  0.005157  1
  Ta  Ta4  1  0.000000  0.699796  0.996844  1
  Ta  Ta5  1  0.000000  0.515194  0.592804  1
  Ta  Ta6  1  0.000000  0.483260  0.405989  1
  Ta  Ta7  1  0.000000  0.014902  0.906581  1
  Ta  Ta8  1  0.000000  0.984156  0.093936  1
  Ta  Ta9  1  0.000000  0.688304  0.202384  1
  Ta  Ta10  1  0.000000  0.316054  0.797081  1
  Ta  Ta11  1  0.000000  0.188324  0.296920  1
  B  B12  1  0.500000  0.604646  0.494690  1
  B  B13  1  0.500000  0.393614  0.502978  1
  B  B14  1  0.500000  0.105033  0.003569  1
  B  B15  1  0.500000  0.894657  0.997864  1
  B  B16  1  0.000000  0.607921  0.832487  1
  B  B17  1  0.000000  0.391006  0.167291  1
  B  B18  1  0.000000  0.109554  0.666003  1
  B  B19  1  0.000000  0.890997  0.332419  1
  B  B20  1  0.500000  0.711865  0.591625  1
  B  B21  1  0.500000  0.284508  0.401177  1
  B  B22  1  0.500000  0.214894  0.902377  1
  B  B23  1  0.500000  0.785198  0.099038  1
  Os  Os24  1  0.500000  0.718737  0.354477  1
  Os  Os25  1  0.500000  0.281343  0.642320  1
  Os  Os26  1  0.500000  0.219011  0.144639  1
  Os  Os27  1  0.500000  0.777061  0.861984  1
  Os  Os28  1  0.500000  0.515557  0.094617  1
  Os  Os29  1  0.500000  0.481466  0.908289  1
  Os  Os30  1  0.500000  0.017247  0.404084  1
  Os  Os31  1  0.500000  0.988053  0.590551  1
  Os  Os32  1  0.500000  0.553440  0.736683  1
  Os  Os33  1  0.500000  0.438244  0.265769  1
  Os  Os34  1  0.500000  0.072780  0.767528  1
  Os  Os35  1  0.500000  0.938886  0.233798  1
