# generated using pymatgen
data_Nb9CdSe16
_symmetry_space_group_name_H-M   'P 1'
_cell_length_a   7.01376800
_cell_length_b   7.01376964
_cell_length_c   13.82348800
_cell_angle_alpha   90.00000000
_cell_angle_beta   90.00000000
_cell_angle_gamma   120.00001114
_symmetry_Int_Tables_number   1
_chemical_formula_structural   Nb9CdSe16
_chemical_formula_sum   'Nb9 Cd1 Se16'
_cell_volume   588.91296668
_cell_formula_units_Z   1
loop_
 _symmetry_equiv_pos_site_id
 _symmetry_equiv_pos_as_xyz
  1  'x, y, z'
loop_
 _atom_site_type_symbol
 _atom_site_label
 _atom_site_symmetry_multiplicity
 _atom_site_fract_x
 _atom_site_fract_y
 _atom_site_fract_z
 _atom_site_occupancy
  Nb  Nb0  1  0.000000  0.000000  0.262220  1
  Nb  Nb1  1  0.000000  0.000000  0.737780  1
  Nb  Nb2  1  0.505995  0.011991  0.259955  1
  Nb  Nb3  1  0.494005  0.988009  0.740045  1
  Nb  Nb4  1  0.988009  0.494005  0.259955  1
  Nb  Nb5  1  0.011991  0.505995  0.740045  1
  Nb  Nb6  1  0.505995  0.494005  0.259955  1
  Nb  Nb7  1  0.494005  0.505995  0.740045  1
  Nb  Nb8  1  0.000000  0.000000  0.500000  1
  Cd  Cd9  1  0.000000  0.000000  0.000000  1
  Se  Se10  1  0.333333  0.666667  0.616130  1
  Se  Se11  1  0.666667  0.333333  0.383870  1
  Se  Se12  1  0.666667  0.333333  0.135859  1
  Se  Se13  1  0.333333  0.666667  0.864141  1
  Se  Se14  1  0.167728  0.335456  0.140626  1
  Se  Se15  1  0.832272  0.664544  0.859374  1
  Se  Se16  1  0.664544  0.832272  0.140626  1
  Se  Se17  1  0.831286  0.662572  0.618798  1
  Se  Se18  1  0.335456  0.167728  0.859374  1
  Se  Se19  1  0.168714  0.337428  0.381202  1
  Se  Se20  1  0.167728  0.832272  0.140626  1
  Se  Se21  1  0.337428  0.168714  0.618798  1
  Se  Se22  1  0.832272  0.167728  0.859374  1
  Se  Se23  1  0.662572  0.831286  0.381202  1
  Se  Se24  1  0.831286  0.168714  0.618798  1
  Se  Se25  1  0.168714  0.831286  0.381202  1
