# generated using pymatgen
data_Y8HoLu3In20
_symmetry_space_group_name_H-M   'P 1'
_cell_length_a   6.55108516
_cell_length_b   10.36355100
_cell_length_c   12.19674430
_cell_angle_alpha   90.00000000
_cell_angle_beta   89.97477514
_cell_angle_gamma   90.00000000
_symmetry_Int_Tables_number   1
_chemical_formula_structural   Y8HoLu3In20
_chemical_formula_sum   'Y8 Ho1 Lu3 In20'
_cell_volume   828.06744462
_cell_formula_units_Z   1
loop_
 _symmetry_equiv_pos_site_id
 _symmetry_equiv_pos_as_xyz
  1  'x, y, z'
loop_
 _atom_site_type_symbol
 _atom_site_label
 _atom_site_symmetry_multiplicity
 _atom_site_fract_x
 _atom_site_fract_y
 _atom_site_fract_z
 _atom_site_occupancy
  Y  Y0  1  0.886944  0.489001  0.141909  1
  Y  Y1  1  0.613042  0.011174  0.641907  1
  Y  Y2  1  0.112787  0.989159  0.857781  1
  Y  Y3  1  0.387040  0.511150  0.357938  1
  Y  Y4  1  0.112787  0.510841  0.857781  1
  Y  Y5  1  0.387040  0.988850  0.357938  1
  Y  Y6  1  0.886944  0.010999  0.141909  1
  Y  Y7  1  0.613042  0.488826  0.641907  1
  Ho  Ho8  1  0.353402  0.750000  0.052609  1
  Lu  Lu9  1  0.147392  0.750000  0.552234  1
  Lu  Lu10  1  0.647364  0.250000  0.947604  1
  Lu  Lu11  1  0.852664  0.250000  0.447635  1
  In  In12  1  0.609790  0.750000  0.505966  1
  In  In13  1  0.887414  0.750000  0.005268  1
  In  In14  1  0.390243  0.250000  0.494154  1
  In  In15  1  0.109923  0.250000  0.994362  1
  In  In16  1  0.651920  0.750000  0.242773  1
  In  In17  1  0.850268  0.750000  0.741354  1
  In  In18  1  0.350194  0.250000  0.758315  1
  In  In19  1  0.149805  0.250000  0.258413  1
  In  In20  1  0.117141  0.750000  0.278979  1
  In  In21  1  0.382176  0.750000  0.777048  1
  In  In22  1  0.882273  0.250000  0.722180  1
  In  In23  1  0.617938  0.250000  0.222278  1
  In  In24  1  0.871105  0.543102  0.401062  1
  In  In25  1  0.629154  0.957190  0.900780  1
  In  In26  1  0.128985  0.043063  0.599019  1
  In  In27  1  0.370989  0.455542  0.099017  1
  In  In28  1  0.128985  0.456937  0.599019  1
  In  In29  1  0.370989  0.044458  0.099017  1
  In  In30  1  0.871105  0.956898  0.401062  1
  In  In31  1  0.629154  0.542810  0.900780  1
