# generated using pymatgen
data_Tb3Y3Th2(CdIr)2
_symmetry_space_group_name_H-M   'P 1'
_cell_length_a   9.79431733
_cell_length_b   9.79431653
_cell_length_c   9.79431800
_cell_angle_alpha   60.00000180
_cell_angle_beta   60.00000448
_cell_angle_gamma   60.00000031
_symmetry_Int_Tables_number   1
_chemical_formula_structural   Tb3Y3Th2(CdIr)2
_chemical_formula_sum   'Tb6 Y6 Th4 Cd4 Ir4'
_cell_volume   664.36620161
_cell_formula_units_Z   2
loop_
 _symmetry_equiv_pos_site_id
 _symmetry_equiv_pos_as_xyz
  1  'x, y, z'
loop_
 _atom_site_type_symbol
 _atom_site_label
 _atom_site_symmetry_multiplicity
 _atom_site_fract_x
 _atom_site_fract_y
 _atom_site_fract_z
 _atom_site_occupancy
  Tb  Tb0  1  0.811857  0.188143  0.188143  1
  Tb  Tb1  1  0.188143  0.811857  0.811857  1
  Tb  Tb2  1  0.188143  0.811857  0.188143  1
  Tb  Tb3  1  0.811857  0.188143  0.811857  1
  Tb  Tb4  1  0.188143  0.188143  0.811857  1
  Tb  Tb5  1  0.811857  0.811857  0.188143  1
  Y  Y6  1  0.935742  0.564258  0.564258  1
  Y  Y7  1  0.564258  0.935742  0.935742  1
  Y  Y8  1  0.564258  0.935742  0.564258  1
  Y  Y9  1  0.935742  0.564258  0.935742  1
  Y  Y10  1  0.564258  0.564258  0.935742  1
  Y  Y11  1  0.935742  0.935742  0.564258  1
  Th  Th12  1  0.349427  0.349427  0.349427  1
  Th  Th13  1  0.349427  0.349427  0.951720  1
  Th  Th14  1  0.349427  0.951720  0.349427  1
  Th  Th15  1  0.951720  0.349427  0.349427  1
  Cd  Cd16  1  0.582742  0.582742  0.582742  1
  Cd  Cd17  1  0.582742  0.582742  0.251773  1
  Cd  Cd18  1  0.582742  0.251773  0.582742  1
  Cd  Cd19  1  0.251773  0.582742  0.582742  1
  Ir  Ir20  1  0.143620  0.143620  0.143620  1
  Ir  Ir21  1  0.143620  0.143620  0.569140  1
  Ir  Ir22  1  0.143620  0.569140  0.143620  1
  Ir  Ir23  1  0.569140  0.143620  0.143620  1
