# generated using pymatgen
data_Th4Re(Si2Ir)5
_symmetry_space_group_name_H-M   'P 1'
_cell_length_a   8.26649935
_cell_length_b   8.26649892
_cell_length_c   8.26649929
_cell_angle_alpha   137.33191635
_cell_angle_beta   105.39641072
_cell_angle_gamma   89.95485005
_symmetry_Int_Tables_number   1
_chemical_formula_structural   Th4Re(Si2Ir)5
_chemical_formula_sum   'Th4 Re1 Si10 Ir5'
_cell_volume   352.39636848
_cell_formula_units_Z   1
loop_
 _symmetry_equiv_pos_site_id
 _symmetry_equiv_pos_as_xyz
  1  'x, y, z'
loop_
 _atom_site_type_symbol
 _atom_site_label
 _atom_site_symmetry_multiplicity
 _atom_site_fract_x
 _atom_site_fract_y
 _atom_site_fract_z
 _atom_site_occupancy
  Th  Th0  1  0.861903  0.631101  0.235183  1
  Th  Th1  1  0.138098  0.373280  0.769198  1
  Th  Th2  1  0.395918  0.126720  0.264817  1
  Th  Th3  1  0.604082  0.868899  0.730802  1
  Re  Re4  1  0.000000  0.750000  0.750000  1
  Si  Si5  1  0.500000  0.750000  0.250000  1
  Si  Si6  1  0.500000  0.250000  0.750000  1
  Si  Si7  1  0.225980  0.975980  0.750000  1
  Si  Si8  1  0.774020  0.524020  0.750000  1
  Si  Si9  1  0.771983  0.021983  0.250000  1
  Si  Si10  1  0.228017  0.478017  0.250000  1
  Si  Si11  1  0.043507  0.891702  0.148572  1
  Si  Si12  1  0.956493  0.105065  0.848195  1
  Si  Si13  1  0.743130  0.394935  0.351428  1
  Si  Si14  1  0.256870  0.608298  0.651805  1
  Ir  Ir15  1  0.000000  0.250000  0.250000  1
  Ir  Ir16  1  0.247197  0.862241  0.388671  1
  Ir  Ir17  1  0.752803  0.141476  0.615046  1
  Ir  Ir18  1  0.473570  0.358524  0.111329  1
  Ir  Ir19  1  0.526430  0.637759  0.884954  1
