# generated using pymatgen
data_Pr3Nd9(IrCl3)4
_symmetry_space_group_name_H-M   'P 1'
_cell_length_a   10.23866790
_cell_length_b   10.26515879
_cell_length_c   10.26515692
_cell_angle_alpha   109.62108035
_cell_angle_beta   109.38441188
_cell_angle_gamma   109.38442377
_symmetry_Int_Tables_number   1
_chemical_formula_structural   Pr3Nd9(IrCl3)4
_chemical_formula_sum   'Pr3 Nd9 Ir4 Cl12'
_cell_volume   830.76498549
_cell_formula_units_Z   1
loop_
 _symmetry_equiv_pos_site_id
 _symmetry_equiv_pos_as_xyz
  1  'x, y, z'
loop_
 _atom_site_type_symbol
 _atom_site_label
 _atom_site_symmetry_multiplicity
 _atom_site_fract_x
 _atom_site_fract_y
 _atom_site_fract_z
 _atom_site_occupancy
  Pr  Pr0  1  0.750000  0.011026  0.488974  1
  Pr  Pr1  1  0.478236  0.488815  0.239072  1
  Pr  Pr2  1  0.021764  0.260928  0.011185  1
  Nd  Nd3  1  0.260390  0.750192  0.238325  1
  Nd  Nd4  1  0.488016  0.748985  0.010932  1
  Nd  Nd5  1  0.237705  0.477041  0.489676  1
  Nd  Nd6  1  0.012149  0.023213  0.260994  1
  Nd  Nd7  1  0.239610  0.261675  0.749808  1
  Nd  Nd8  1  0.011984  0.489068  0.751015  1
  Nd  Nd9  1  0.487851  0.239006  0.476787  1
  Nd  Nd10  1  0.262295  0.010324  0.022959  1
  Nd  Nd11  1  0.750000  0.237915  0.262085  1
  Ir  Ir12  1  0.499516  0.999596  0.249904  1
  Ir  Ir13  1  0.250000  0.500143  0.999857  1
  Ir  Ir14  1  0.000484  0.250096  0.500404  1
  Ir  Ir15  1  0.250000  0.249851  0.250149  1
  Cl  Cl16  1  0.250000  0.000063  0.499937  1
  Cl  Cl17  1  0.500972  0.500647  0.750347  1
  Cl  Cl18  1  0.250000  0.750037  0.749963  1
  Cl  Cl19  1  0.999028  0.749653  0.999353  1
  Cl  Cl20  1  0.000981  0.503402  0.254446  1
  Cl  Cl21  1  0.748466  0.998103  0.999626  1
  Cl  Cl22  1  0.751388  0.749717  0.244973  1
  Cl  Cl23  1  0.495314  0.750484  0.500933  1
  Cl  Cl24  1  0.499019  0.245554  0.996598  1
  Cl  Cl25  1  0.751534  0.500374  0.501897  1
  Cl  Cl26  1  0.748612  0.255027  0.750283  1
  Cl  Cl27  1  0.004686  0.999067  0.749516  1
