# generated using pymatgen
data_Lu7Sn23Ir6
_symmetry_space_group_name_H-M   'P 1'
_cell_length_a   9.80069500
_cell_length_b   9.80069538
_cell_length_c   10.09125000
_cell_angle_alpha   90.00000000
_cell_angle_beta   90.00000000
_cell_angle_gamma   120.00000208
_symmetry_Int_Tables_number   1
_chemical_formula_structural   Lu7Sn23Ir6
_chemical_formula_sum   'Lu7 Sn23 Ir6'
_cell_volume   839.43940736
_cell_formula_units_Z   1
loop_
 _symmetry_equiv_pos_site_id
 _symmetry_equiv_pos_as_xyz
  1  'x, y, z'
loop_
 _atom_site_type_symbol
 _atom_site_label
 _atom_site_symmetry_multiplicity
 _atom_site_fract_x
 _atom_site_fract_y
 _atom_site_fract_z
 _atom_site_occupancy
  Lu  Lu0  1  0.481590  0.518410  0.306450  1
  Lu  Lu1  1  0.518410  0.481590  0.693550  1
  Lu  Lu2  1  0.481590  0.963181  0.306450  1
  Lu  Lu3  1  0.518410  0.036819  0.693550  1
  Lu  Lu4  1  0.036819  0.518410  0.306450  1
  Lu  Lu5  1  0.963181  0.481590  0.693550  1
  Lu  Lu6  1  0.000000  0.000000  0.000000  1
  Sn  Sn7  1  0.120005  0.879995  0.284319  1
  Sn  Sn8  1  0.879995  0.120005  0.715681  1
  Sn  Sn9  1  0.120005  0.240010  0.284319  1
  Sn  Sn10  1  0.879995  0.759990  0.715681  1
  Sn  Sn11  1  0.759990  0.879995  0.284319  1
  Sn  Sn12  1  0.240010  0.120005  0.715681  1
  Sn  Sn13  1  0.776828  0.223172  0.457510  1
  Sn  Sn14  1  0.223172  0.776828  0.542490  1
  Sn  Sn15  1  0.776828  0.553656  0.457510  1
  Sn  Sn16  1  0.223172  0.446344  0.542490  1
  Sn  Sn17  1  0.446344  0.223172  0.457510  1
  Sn  Sn18  1  0.553656  0.776828  0.542490  1
  Sn  Sn19  1  0.352034  0.000000  0.000000  1
  Sn  Sn20  1  0.647966  0.000000  0.000000  1
  Sn  Sn21  1  0.000000  0.352034  0.000000  1
  Sn  Sn22  1  0.000000  0.647966  0.000000  1
  Sn  Sn23  1  0.647966  0.647966  0.000000  1
  Sn  Sn24  1  0.352034  0.352034  0.000000  1
  Sn  Sn25  1  0.333333  0.666667  0.128203  1
  Sn  Sn26  1  0.666667  0.333333  0.871797  1
  Sn  Sn27  1  0.333333  0.666667  0.827183  1
  Sn  Sn28  1  0.666667  0.333333  0.172817  1
  Sn  Sn29  1  0.000000  0.000000  0.500000  1
  Ir  Ir30  1  0.830705  0.169295  0.199335  1
  Ir  Ir31  1  0.169295  0.830705  0.800665  1
  Ir  Ir32  1  0.830705  0.661410  0.199335  1
  Ir  Ir33  1  0.169295  0.338590  0.800665  1
  Ir  Ir34  1  0.338590  0.169295  0.199335  1
  Ir  Ir35  1  0.661410  0.830705  0.800665  1
