# generated using pymatgen
data_Dy4CrRuC4
_symmetry_space_group_name_H-M   'P 1'
_cell_length_a   5.06017000
_cell_length_b   6.47063454
_cell_length_c   9.79948085
_cell_angle_alpha   90.23410775
_cell_angle_beta   90.00000000
_cell_angle_gamma   90.00000000
_symmetry_Int_Tables_number   1
_chemical_formula_structural   Dy4CrRuC4
_chemical_formula_sum   'Dy8 Cr2 Ru2 C8'
_cell_volume   320.85692924
_cell_formula_units_Z   2
loop_
 _symmetry_equiv_pos_site_id
 _symmetry_equiv_pos_as_xyz
  1  'x, y, z'
loop_
 _atom_site_type_symbol
 _atom_site_label
 _atom_site_symmetry_multiplicity
 _atom_site_fract_x
 _atom_site_fract_y
 _atom_site_fract_z
 _atom_site_occupancy
  Dy  Dy0  1  0.250000  0.681047  0.557865  1
  Dy  Dy1  1  0.750000  0.318953  0.442135  1
  Dy  Dy2  1  0.750000  0.820171  0.054491  1
  Dy  Dy3  1  0.250000  0.179829  0.945509  1
  Dy  Dy4  1  0.250000  0.530120  0.216243  1
  Dy  Dy5  1  0.750000  0.469880  0.783757  1
  Dy  Dy6  1  0.750000  0.972461  0.715337  1
  Dy  Dy7  1  0.250000  0.027539  0.284663  1
  Cr  Cr8  1  0.250000  0.724851  0.861639  1
  Cr  Cr9  1  0.750000  0.275149  0.138361  1
  Ru  Ru10  1  0.750000  0.776096  0.362022  1
  Ru  Ru11  1  0.250000  0.223904  0.637978  1
  C  C12  1  0.250000  0.464618  0.764280  1
  C  C13  1  0.750000  0.535382  0.235720  1
  C  C14  1  0.750000  0.047618  0.254417  1
  C  C15  1  0.250000  0.952382  0.745583  1
  C  C16  1  0.250000  0.812345  0.039312  1
  C  C17  1  0.750000  0.187655  0.960688  1
  C  C18  1  0.750000  0.679106  0.547455  1
  C  C19  1  0.250000  0.320894  0.452545  1
