# generated using pymatgen
data_Ho2Tm6Re(B8Ru)3
_symmetry_space_group_name_H-M   'P 1'
_cell_length_a   3.63208500
_cell_length_b   9.07945897
_cell_length_c   11.46032001
_cell_angle_alpha   90.12575630
_cell_angle_beta   90.00000000
_cell_angle_gamma   90.00000000
_symmetry_Int_Tables_number   1
_chemical_formula_structural   Ho2Tm6Re(B8Ru)3
_chemical_formula_sum   'Ho2 Tm6 Re1 B24 Ru3'
_cell_volume   377.93026551
_cell_formula_units_Z   1
loop_
 _symmetry_equiv_pos_site_id
 _symmetry_equiv_pos_as_xyz
  1  'x, y, z'
loop_
 _atom_site_type_symbol
 _atom_site_label
 _atom_site_symmetry_multiplicity
 _atom_site_fract_x
 _atom_site_fract_y
 _atom_site_fract_z
 _atom_site_occupancy
  Ho  Ho0  1  0.000000  0.322358  0.415090  1
  Ho  Ho1  1  0.000000  0.680551  0.588016  1
  Tm  Tm2  1  0.000000  0.822232  0.083319  1
  Tm  Tm3  1  0.000000  0.176531  0.913467  1
  Tm  Tm4  1  0.000000  0.943226  0.371173  1
  Tm  Tm5  1  0.000000  0.056304  0.627743  1
  Tm  Tm6  1  0.000000  0.442758  0.128322  1
  Tm  Tm7  1  0.000000  0.555935  0.872668  1
  Re  Re8  1  0.000000  0.862532  0.821332  1
  B  B9  1  0.500000  0.554149  0.433345  1
  B  B10  1  0.500000  0.446156  0.566950  1
  B  B11  1  0.500000  0.053649  0.067073  1
  B  B12  1  0.500000  0.947307  0.933729  1
  B  B13  1  0.500000  0.749121  0.419423  1
  B  B14  1  0.500000  0.251196  0.580324  1
  B  B15  1  0.500000  0.248665  0.080386  1
  B  B16  1  0.500000  0.750628  0.919781  1
  B  B17  1  0.500000  0.791034  0.265292  1
  B  B18  1  0.500000  0.208659  0.733703  1
  B  B19  1  0.500000  0.291241  0.234404  1
  B  B20  1  0.500000  0.707866  0.765745  1
  B  B21  1  0.500000  0.630782  0.184640  1
  B  B22  1  0.500000  0.368533  0.815006  1
  B  B23  1  0.500000  0.131259  0.315211  1
  B  B24  1  0.500000  0.869270  0.685039  1
  B  B25  1  0.500000  0.982584  0.212474  1
  B  B26  1  0.500000  0.018784  0.787339  1
  B  B27  1  0.500000  0.482775  0.287749  1
  B  B28  1  0.500000  0.517124  0.712833  1
  B  B29  1  0.500000  0.604417  0.029665  1
  B  B30  1  0.500000  0.393479  0.971153  1
  B  B31  1  0.500000  0.105867  0.470321  1
  B  B32  1  0.500000  0.894971  0.528304  1
  Ru  Ru33  1  0.000000  0.638122  0.320629  1
  Ru  Ru34  1  0.000000  0.362032  0.678929  1
  Ru  Ru35  1  0.000000  0.137901  0.179420  1
