# generated using pymatgen
data_LiTmB14
_symmetry_space_group_name_H-M   'P 1'
_cell_length_a   7.23525018
_cell_length_b   7.23525030
_cell_length_c   7.23525019
_cell_angle_alpha   132.14905784
_cell_angle_beta   110.91727018
_cell_angle_gamma   88.39086673
_symmetry_Int_Tables_number   1
_chemical_formula_structural   LiTmB14
_chemical_formula_sum   'Li2 Tm2 B28'
_cell_volume   249.77297440
_cell_formula_units_Z   2
loop_
 _symmetry_equiv_pos_site_id
 _symmetry_equiv_pos_as_xyz
  1  'x, y, z'
loop_
 _atom_site_type_symbol
 _atom_site_label
 _atom_site_symmetry_multiplicity
 _atom_site_fract_x
 _atom_site_fract_y
 _atom_site_fract_z
 _atom_site_occupancy
  Li  Li0  1  0.000000  0.000000  0.500000  1
  Li  Li1  1  0.000000  0.500000  0.000000  1
  Tm  Tm2  1  0.621526  0.250000  0.371526  1
  Tm  Tm3  1  0.378474  0.750000  0.628474  1
  B  B4  1  0.638612  0.666125  0.972488  1
  B  B5  1  0.361388  0.333875  0.027512  1
  B  B6  1  0.193636  0.166125  0.027512  1
  B  B7  1  0.806364  0.833875  0.972488  1
  B  B8  1  0.777432  0.149806  0.627625  1
  B  B9  1  0.222568  0.850194  0.372375  1
  B  B10  1  0.022181  0.649806  0.372375  1
  B  B11  1  0.977819  0.350194  0.627625  1
  B  B12  1  0.915452  0.089187  0.826266  1
  B  B13  1  0.084548  0.910813  0.173734  1
  B  B14  1  0.762921  0.589187  0.173734  1
  B  B15  1  0.237079  0.410813  0.826266  1
  B  B16  1  0.398850  0.401080  0.680976  1
  B  B17  1  0.601150  0.282126  0.002230  1
  B  B18  1  0.220104  0.901080  0.002230  1
  B  B19  1  0.779896  0.782126  0.680976  1
  B  B20  1  0.601150  0.598920  0.319024  1
  B  B21  1  0.398850  0.717874  0.997770  1
  B  B22  1  0.779896  0.098920  0.997770  1
  B  B23  1  0.220104  0.217874  0.319024  1
  B  B24  1  0.034097  0.830105  0.703517  1
  B  B25  1  0.965903  0.669420  0.796008  1
  B  B26  1  0.626588  0.330105  0.796008  1
  B  B27  1  0.373412  0.169420  0.703517  1
  B  B28  1  0.965903  0.169895  0.296483  1
  B  B29  1  0.034097  0.330580  0.203992  1
  B  B30  1  0.373412  0.669895  0.203992  1
  B  B31  1  0.626588  0.830580  0.296483  1
