# generated using pymatgen
data_Ca2Ti3As7Rh9
_symmetry_space_group_name_H-M   'P 1'
_cell_length_a   10.07481800
_cell_length_b   10.07481685
_cell_length_c   3.87726400
_cell_angle_alpha   90.00000000
_cell_angle_beta   90.00000000
_cell_angle_gamma   120.00000377
_symmetry_Int_Tables_number   1
_chemical_formula_structural   Ca2Ti3As7Rh9
_chemical_formula_sum   'Ca2 Ti3 As7 Rh9'
_cell_volume   340.82414768
_cell_formula_units_Z   1
loop_
 _symmetry_equiv_pos_site_id
 _symmetry_equiv_pos_as_xyz
  1  'x, y, z'
loop_
 _atom_site_type_symbol
 _atom_site_label
 _atom_site_symmetry_multiplicity
 _atom_site_fract_x
 _atom_site_fract_y
 _atom_site_fract_z
 _atom_site_occupancy
  Ca  Ca0  1  0.000000  0.000000  0.763637  1
  Ca  Ca1  1  0.333333  0.666667  0.263286  1
  Ti  Ti2  1  0.788676  0.555039  0.764745  1
  Ti  Ti3  1  0.444961  0.233637  0.764745  1
  Ti  Ti4  1  0.766363  0.211324  0.764745  1
  As  As5  1  0.666667  0.333333  0.265812  1
  As  As6  1  0.081581  0.624608  0.763285  1
  As  As7  1  0.375392  0.456971  0.763285  1
  As  As8  1  0.543029  0.918419  0.763285  1
  As  As9  1  0.248055  0.033948  0.263837  1
  As  As10  1  0.966052  0.214107  0.263837  1
  As  As11  1  0.785893  0.751945  0.263837  1
  Rh  Rh12  1  0.509486  0.060982  0.263197  1
  Rh  Rh13  1  0.939018  0.448504  0.263197  1
  Rh  Rh14  1  0.551496  0.490514  0.263197  1
  Rh  Rh15  1  0.101301  0.381650  0.763605  1
  Rh  Rh16  1  0.618350  0.719651  0.763605  1
  Rh  Rh17  1  0.280349  0.898699  0.763605  1
  Rh  Rh18  1  0.236620  0.270178  0.263732  1
  Rh  Rh19  1  0.729822  0.966442  0.263732  1
  Rh  Rh20  1  0.033558  0.763380  0.263732  1
