# generated using pymatgen
data_Zr6Zn17GePt6
_symmetry_space_group_name_H-M   'P 1'
_cell_length_a   8.79830341
_cell_length_b   8.84393557
_cell_length_c   8.84393531
_cell_angle_alpha   59.74775114
_cell_angle_beta   60.17053518
_cell_angle_gamma   60.17053312
_symmetry_Int_Tables_number   1
_chemical_formula_structural   Zr6Zn17GePt6
_chemical_formula_sum   'Zr6 Zn17 Ge1 Pt6'
_cell_volume   486.91227899
_cell_formula_units_Z   1
loop_
 _symmetry_equiv_pos_site_id
 _symmetry_equiv_pos_as_xyz
  1  'x, y, z'
loop_
 _atom_site_type_symbol
 _atom_site_label
 _atom_site_symmetry_multiplicity
 _atom_site_fract_x
 _atom_site_fract_y
 _atom_site_fract_z
 _atom_site_occupancy
  Zr  Zr0  1  0.714704  0.285296  0.285296  1
  Zr  Zr1  1  0.285296  0.714704  0.714704  1
  Zr  Zr2  1  0.283436  0.718813  0.281187  1
  Zr  Zr3  1  0.716564  0.281187  0.718813  1
  Zr  Zr4  1  0.283436  0.281187  0.718813  1
  Zr  Zr5  1  0.716564  0.718813  0.281187  1
  Zn  Zn6  1  0.121829  0.124332  0.124332  1
  Zn  Zn7  1  0.878171  0.875668  0.875668  1
  Zn  Zn8  1  0.124821  0.119720  0.630640  1
  Zn  Zn9  1  0.124821  0.630640  0.119720  1
  Zn  Zn10  1  0.875179  0.880280  0.369360  1
  Zn  Zn11  1  0.875179  0.369360  0.880280  1
  Zn  Zn12  1  0.629508  0.124332  0.124332  1
  Zn  Zn13  1  0.370492  0.875668  0.875668  1
  Zn  Zn14  1  0.000000  0.500000  0.500000  1
  Zn  Zn15  1  0.336888  0.342808  0.342808  1
  Zn  Zn16  1  0.663112  0.657192  0.657192  1
  Zn  Zn17  1  0.341131  0.339573  0.978167  1
  Zn  Zn18  1  0.341131  0.978167  0.339573  1
  Zn  Zn19  1  0.658869  0.660427  0.021833  1
  Zn  Zn20  1  0.658869  0.021833  0.660427  1
  Zn  Zn21  1  0.977497  0.342808  0.342808  1
  Zn  Zn22  1  0.022503  0.657192  0.657192  1
  Ge  Ge23  1  0.500000  0.500000  0.500000  1
  Pt  Pt24  1  0.500000  0.000000  0.000000  1
  Pt  Pt25  1  0.000000  0.500000  0.000000  1
  Pt  Pt26  1  0.500000  0.000000  0.500000  1
  Pt  Pt27  1  0.000000  0.000000  0.500000  1
  Pt  Pt28  1  0.500000  0.500000  0.000000  1
  Pt  Pt29  1  0.000000  0.000000  0.000000  1
