# generated using pymatgen
data_Ba3YTm3O9
_symmetry_space_group_name_H-M   'P 1'
_cell_length_a   9.13491271
_cell_length_b   9.13491266
_cell_length_c   9.13491311
_cell_angle_alpha   38.99980791
_cell_angle_beta   38.99980474
_cell_angle_gamma   38.99980794
_symmetry_Int_Tables_number   1
_chemical_formula_structural   Ba3YTm3O9
_chemical_formula_sum   'Ba3 Y1 Tm3 O9'
_cell_volume   271.49711704
_cell_formula_units_Z   1
loop_
 _symmetry_equiv_pos_site_id
 _symmetry_equiv_pos_as_xyz
  1  'x, y, z'
loop_
 _atom_site_type_symbol
 _atom_site_label
 _atom_site_symmetry_multiplicity
 _atom_site_fract_x
 _atom_site_fract_y
 _atom_site_fract_z
 _atom_site_occupancy
  Ba  Ba0  1  0.415208  0.415208  0.415208  1
  Ba  Ba1  1  0.835782  0.835782  0.835782  1
  Ba  Ba2  1  0.000887  0.000887  0.000887  1
  Y  Y3  1  0.574958  0.574958  0.574958  1
  Tm  Tm4  1  0.700692  0.700692  0.700692  1
  Tm  Tm5  1  0.262053  0.262053  0.262053  1
  Tm  Tm6  1  0.136515  0.136515  0.136515  1
  O  O7  1  0.428792  0.965216  0.533567  1
  O  O8  1  0.965216  0.533567  0.428792  1
  O  O9  1  0.533567  0.428792  0.965216  1
  O  O10  1  0.293417  0.882014  0.412647  1
  O  O11  1  0.882014  0.412647  0.293417  1
  O  O12  1  0.412647  0.293417  0.882014  1
  O  O13  1  0.418237  0.862224  0.974793  1
  O  O14  1  0.974793  0.418237  0.862224  1
  O  O15  1  0.862224  0.974793  0.418237  1
