# generated using pymatgen
data_YbEuTh(SnPt)3
_symmetry_space_group_name_H-M   'P 1'
_cell_length_a   7.62818235
_cell_length_b   7.61828768
_cell_length_c   4.12662300
_cell_angle_alpha   90.00000000
_cell_angle_beta   90.00000000
_cell_angle_gamma   119.69368914
_symmetry_Int_Tables_number   1
_chemical_formula_structural   YbEuTh(SnPt)3
_chemical_formula_sum   'Yb1 Eu1 Th1 Sn3 Pt3'
_cell_volume   208.32245855
_cell_formula_units_Z   1
loop_
 _symmetry_equiv_pos_site_id
 _symmetry_equiv_pos_as_xyz
  1  'x, y, z'
loop_
 _atom_site_type_symbol
 _atom_site_label
 _atom_site_symmetry_multiplicity
 _atom_site_fract_x
 _atom_site_fract_y
 _atom_site_fract_z
 _atom_site_occupancy
  Yb  Yb0  1  0.998679  0.591692  0.000000  1
  Eu  Eu1  1  0.589542  0.998221  0.000000  1
  Th  Th2  1  0.415366  0.416035  0.000000  1
  Sn  Sn3  1  0.989082  0.255604  0.500000  1
  Sn  Sn4  1  0.758164  0.754820  0.500000  1
  Sn  Sn5  1  0.252708  0.986933  0.500000  1
  Pt  Pt6  1  0.652520  0.338176  0.500000  1
  Pt  Pt7  1  0.017057  0.012957  0.000000  1
  Pt  Pt8  1  0.326882  0.645561  0.500000  1
