# generated using pymatgen
data_Cs2Rb4Sc(AsBr6)3
_symmetry_space_group_name_H-M   'P 1'
_cell_length_a   7.75715200
_cell_length_b   7.75712565
_cell_length_c   19.70827300
_cell_angle_alpha   90.00003016
_cell_angle_beta   90.00002931
_cell_angle_gamma   120.00005723
_symmetry_Int_Tables_number   1
_chemical_formula_structural   Cs2Rb4Sc(AsBr6)3
_chemical_formula_sum   'Cs2 Rb4 Sc1 As3 Br18'
_cell_volume   1027.02751399
_cell_formula_units_Z   1
loop_
 _symmetry_equiv_pos_site_id
 _symmetry_equiv_pos_as_xyz
  1  'x, y, z'
loop_
 _atom_site_type_symbol
 _atom_site_label
 _atom_site_symmetry_multiplicity
 _atom_site_fract_x
 _atom_site_fract_y
 _atom_site_fract_z
 _atom_site_occupancy
  Cs  Cs0  1  0.333333  0.666667  0.075760  1
  Cs  Cs1  1  0.666666  0.333332  0.920333  1
  Rb  Rb2  1  0.666674  0.333340  0.569955  1
  Rb  Rb3  1  0.333331  0.666665  0.417468  1
  Rb  Rb4  1  0.999994  0.999998  0.250779  1
  Rb  Rb5  1  0.999999  0.999999  0.762098  1
  Sc  Sc6  1  0.333333  0.666667  0.839840  1
  As  As7  1  0.333334  0.666667  0.652801  1
  As  As8  1  0.666666  0.333332  0.343842  1
  As  As9  1  0.666667  0.333333  0.159048  1
  Br  Br10  1  0.174020  0.348041  0.585016  1
  Br  Br11  1  0.826423  0.652845  0.414264  1
  Br  Br12  1  0.651959  0.825980  0.585016  1
  Br  Br13  1  0.825835  0.651669  0.090136  1
  Br  Br14  1  0.347155  0.173576  0.414264  1
  Br  Br15  1  0.170188  0.340378  0.909593  1
  Br  Br16  1  0.174021  0.825980  0.585016  1
  Br  Br17  1  0.348332  0.174165  0.090137  1
  Br  Br18  1  0.826422  0.173577  0.414264  1
  Br  Br19  1  0.659622  0.829811  0.909594  1
  Br  Br20  1  0.825835  0.174165  0.090136  1
  Br  Br21  1  0.170188  0.829811  0.909593  1
  Br  Br22  1  0.502435  0.004873  0.252956  1
  Br  Br23  1  0.493207  0.986405  0.750726  1
  Br  Br24  1  0.995126  0.497565  0.252956  1
  Br  Br25  1  0.013593  0.506796  0.750727  1
  Br  Br26  1  0.502437  0.497564  0.252956  1
  Br  Br27  1  0.493206  0.506801  0.750726  1
