# generated using pymatgen
data_Pr3Sc(Ni4P3)2
_symmetry_space_group_name_H-M   'P 1'
_cell_length_a   3.84451800
_cell_length_b   10.98896400
_cell_length_c   12.76989700
_cell_angle_alpha   90.00000000
_cell_angle_beta   90.00000000
_cell_angle_gamma   90.00000000
_symmetry_Int_Tables_number   1
_chemical_formula_structural   Pr3Sc(Ni4P3)2
_chemical_formula_sum   'Pr6 Sc2 Ni16 P12'
_cell_volume   539.49328515
_cell_formula_units_Z   2
loop_
 _symmetry_equiv_pos_site_id
 _symmetry_equiv_pos_as_xyz
  1  'x, y, z'
loop_
 _atom_site_type_symbol
 _atom_site_label
 _atom_site_symmetry_multiplicity
 _atom_site_fract_x
 _atom_site_fract_y
 _atom_site_fract_z
 _atom_site_occupancy
  Pr  Pr0  1  0.000000  0.500000  0.526125  1
  Pr  Pr1  1  0.500000  0.000000  0.473875  1
  Pr  Pr2  1  0.500000  0.817598  0.204074  1
  Pr  Pr3  1  0.500000  0.182402  0.204074  1
  Pr  Pr4  1  0.000000  0.682402  0.795926  1
  Pr  Pr5  1  0.000000  0.317598  0.795926  1
  Sc  Sc6  1  0.500000  0.500000  0.151685  1
  Sc  Sc7  1  0.000000  0.000000  0.848315  1
  Ni  Ni8  1  0.500000  0.500000  0.703754  1
  Ni  Ni9  1  0.000000  0.000000  0.296246  1
  Ni  Ni10  1  0.000000  0.500000  0.984745  1
  Ni  Ni11  1  0.500000  0.000000  0.015255  1
  Ni  Ni12  1  0.500000  0.333064  0.991927  1
  Ni  Ni13  1  0.500000  0.666936  0.991927  1
  Ni  Ni14  1  0.000000  0.166936  0.008073  1
  Ni  Ni15  1  0.000000  0.833064  0.008073  1
  Ni  Ni16  1  0.500000  0.300607  0.428912  1
  Ni  Ni17  1  0.500000  0.699393  0.428912  1
  Ni  Ni18  1  0.000000  0.199393  0.571088  1
  Ni  Ni19  1  0.000000  0.800607  0.571088  1
  Ni  Ni20  1  0.500000  0.882622  0.705673  1
  Ni  Ni21  1  0.500000  0.117378  0.705673  1
  Ni  Ni22  1  0.000000  0.617378  0.294327  1
  Ni  Ni23  1  0.000000  0.382622  0.294327  1
  P  P24  1  0.500000  0.500000  0.884656  1
  P  P25  1  0.000000  0.000000  0.115344  1
  P  P26  1  0.500000  0.500000  0.353835  1
  P  P27  1  0.000000  0.000000  0.646165  1
  P  P28  1  0.500000  0.307940  0.613163  1
  P  P29  1  0.500000  0.692060  0.613163  1
  P  P30  1  0.000000  0.192060  0.386837  1
  P  P31  1  0.000000  0.807940  0.386837  1
  P  P32  1  0.500000  0.842630  0.899578  1
  P  P33  1  0.500000  0.157370  0.899578  1
  P  P34  1  0.000000  0.657370  0.100422  1
  P  P35  1  0.000000  0.342630  0.100422  1
