# generated using pymatgen
data_Nd8TmLuSn6
_symmetry_space_group_name_H-M   'P 1'
_cell_length_a   9.20460000
_cell_length_b   9.20460013
_cell_length_c   6.74989500
_cell_angle_alpha   90.00000000
_cell_angle_beta   90.00000000
_cell_angle_gamma   120.00000673
_symmetry_Int_Tables_number   1
_chemical_formula_structural   Nd8TmLuSn6
_chemical_formula_sum   'Nd8 Tm1 Lu1 Sn6'
_cell_volume   495.26480396
_cell_formula_units_Z   1
loop_
 _symmetry_equiv_pos_site_id
 _symmetry_equiv_pos_as_xyz
  1  'x, y, z'
loop_
 _atom_site_type_symbol
 _atom_site_label
 _atom_site_symmetry_multiplicity
 _atom_site_fract_x
 _atom_site_fract_y
 _atom_site_fract_z
 _atom_site_occupancy
  Nd  Nd0  1  0.666667  0.333333  0.000000  1
  Nd  Nd1  1  0.333333  0.666667  0.000000  1
  Nd  Nd2  1  0.758355  0.758289  0.747599  1
  Nd  Nd3  1  0.241711  0.000067  0.747599  1
  Nd  Nd4  1  0.999933  0.241645  0.747599  1
  Nd  Nd5  1  0.241711  0.241645  0.252401  1
  Nd  Nd6  1  0.758355  0.000067  0.252401  1
  Nd  Nd7  1  0.999933  0.758289  0.252401  1
  Tm  Tm8  1  0.333333  0.666667  0.500000  1
  Lu  Lu9  1  0.666667  0.333333  0.500000  1
  Sn  Sn10  1  0.397518  0.397281  0.740721  1
  Sn  Sn11  1  0.602719  0.000237  0.740721  1
  Sn  Sn12  1  0.999763  0.602482  0.740721  1
  Sn  Sn13  1  0.602719  0.602482  0.259279  1
  Sn  Sn14  1  0.397518  0.000237  0.259279  1
  Sn  Sn15  1  0.999763  0.397281  0.259279  1
