# generated using pymatgen
data_ThCu2Pt2Au
_symmetry_space_group_name_H-M   'P 1'
_cell_length_a   5.26420302
_cell_length_b   5.26420312
_cell_length_c   5.26420274
_cell_angle_alpha   121.24731103
_cell_angle_beta   116.66129094
_cell_angle_gamma   91.86541083
_symmetry_Int_Tables_number   1
_chemical_formula_structural   ThCu2Pt2Au
_chemical_formula_sum   'Th1 Cu2 Pt2 Au1'
_cell_volume   104.52198960
_cell_formula_units_Z   1
loop_
 _symmetry_equiv_pos_site_id
 _symmetry_equiv_pos_as_xyz
  1  'x, y, z'
loop_
 _atom_site_type_symbol
 _atom_site_label
 _atom_site_symmetry_multiplicity
 _atom_site_fract_x
 _atom_site_fract_y
 _atom_site_fract_z
 _atom_site_occupancy
  Th  Th0  1  0.004453  0.004453  0.000000  1
  Cu  Cu1  1  0.618680  0.869154  0.250474  1
  Cu  Cu2  1  0.618680  0.368206  0.749526  1
  Pt  Pt3  1  0.122722  0.372991  0.749732  1
  Pt  Pt4  1  0.623258  0.372991  0.250268  1
  Au  Au5  1  0.262206  0.762206  0.500000  1
