# generated using pymatgen
data_CaMn2(AsRh)4
_symmetry_space_group_name_H-M   'P 1'
_cell_length_a   7.28687210
_cell_length_b   7.28687225
_cell_length_c   3.79631000
_cell_angle_alpha   90.00000000
_cell_angle_beta   90.00000000
_cell_angle_gamma   119.79119341
_symmetry_Int_Tables_number   1
_chemical_formula_structural   CaMn2(AsRh)4
_chemical_formula_sum   'Ca1 Mn2 As4 Rh4'
_cell_volume   174.93815851
_cell_formula_units_Z   1
loop_
 _symmetry_equiv_pos_site_id
 _symmetry_equiv_pos_as_xyz
  1  'x, y, z'
loop_
 _atom_site_type_symbol
 _atom_site_label
 _atom_site_symmetry_multiplicity
 _atom_site_fract_x
 _atom_site_fract_y
 _atom_site_fract_z
 _atom_site_occupancy
  Ca  Ca0  1  0.999546  0.000454  0.000000  1
  Mn  Mn1  1  0.543417  0.073881  0.000000  1
  Mn  Mn2  1  0.926119  0.456583  0.000000  1
  As  As3  1  0.812559  0.187441  0.500000  1
  As  As4  1  0.374375  0.189415  0.500000  1
  As  As5  1  0.330827  0.669173  0.000000  1
  As  As6  1  0.810585  0.625625  0.500000  1
  Rh  Rh7  1  0.199180  0.800820  0.500000  1
  Rh  Rh8  1  0.197223  0.401534  0.500000  1
  Rh  Rh9  1  0.541034  0.458966  0.000000  1
  Rh  Rh10  1  0.598466  0.802777  0.500000  1
