# generated using pymatgen
data_Dy20Ir3RuRh8
_symmetry_space_group_name_H-M   'P 1'
_cell_length_a   10.87394222
_cell_length_b   10.87215028
_cell_length_c   6.40045804
_cell_angle_alpha   89.98760260
_cell_angle_beta   90.00000131
_cell_angle_gamma   89.92680103
_symmetry_Int_Tables_number   1
_chemical_formula_structural   Dy20Ir3RuRh8
_chemical_formula_sum   'Dy20 Ir3 Ru1 Rh8'
_cell_volume   756.68157271
_cell_formula_units_Z   1
loop_
 _symmetry_equiv_pos_site_id
 _symmetry_equiv_pos_as_xyz
  1  'x, y, z'
loop_
 _atom_site_type_symbol
 _atom_site_label
 _atom_site_symmetry_multiplicity
 _atom_site_fract_x
 _atom_site_fract_y
 _atom_site_fract_z
 _atom_site_occupancy
  Dy  Dy0  1  0.292666  0.088908  0.376241  1
  Dy  Dy1  1  0.293546  0.910951  0.881636  1
  Dy  Dy2  1  0.706671  0.087353  0.881790  1
  Dy  Dy3  1  0.707206  0.910997  0.375992  1
  Dy  Dy4  1  0.586484  0.791605  0.882905  1
  Dy  Dy5  1  0.586085  0.207997  0.376129  1
  Dy  Dy6  1  0.413479  0.791155  0.377191  1
  Dy  Dy7  1  0.411865  0.207530  0.883176  1
  Dy  Dy8  1  0.210729  0.412188  0.620015  1
  Dy  Dy9  1  0.210461  0.587341  0.120011  1
  Dy  Dy10  1  0.790312  0.413015  0.120692  1
  Dy  Dy11  1  0.790168  0.589607  0.619633  1
  Dy  Dy12  1  0.909981  0.708996  0.120620  1
  Dy  Dy13  1  0.911133  0.290909  0.621236  1
  Dy  Dy14  1  0.090589  0.708884  0.621316  1
  Dy  Dy15  1  0.090019  0.291088  0.120930  1
  Dy  Dy16  1  0.999861  0.999955  0.498957  1
  Dy  Dy17  1  0.000068  0.000159  0.999030  1
  Dy  Dy18  1  0.499664  0.500090  0.998803  1
  Dy  Dy19  1  0.499922  0.500265  0.499037  1
  Ir  Ir20  1  0.655387  0.652909  0.250351  1
  Ir  Ir21  1  0.345181  0.346513  0.250081  1
  Ir  Ir22  1  0.345174  0.653815  0.749817  1
  Ru  Ru23  1  0.500351  0.000652  0.126072  1
  Rh  Rh24  1  0.847303  0.154515  0.250403  1
  Rh  Rh25  1  0.847885  0.846925  0.750041  1
  Rh  Rh26  1  0.151904  0.153232  0.749753  1
  Rh  Rh27  1  0.152009  0.846266  0.250347  1
  Rh  Rh28  1  0.654867  0.346215  0.749960  1
  Rh  Rh29  1  0.500336  0.000668  0.624944  1
  Rh  Rh30  1  0.999255  0.499615  0.876038  1
  Rh  Rh31  1  0.999440  0.499687  0.376854  1
