# generated using pymatgen
data_SmHoReB6
_symmetry_space_group_name_H-M   'P 1'
_cell_length_a   3.70638400
_cell_length_b   9.21407000
_cell_length_c   11.64327900
_cell_angle_alpha   90.00000000
_cell_angle_beta   90.00000000
_cell_angle_gamma   90.00000000
_symmetry_Int_Tables_number   1
_chemical_formula_structural   SmHoReB6
_chemical_formula_sum   'Sm4 Ho4 Re4 B24'
_cell_volume   397.62824283
_cell_formula_units_Z   4
loop_
 _symmetry_equiv_pos_site_id
 _symmetry_equiv_pos_as_xyz
  1  'x, y, z'
loop_
 _atom_site_type_symbol
 _atom_site_label
 _atom_site_symmetry_multiplicity
 _atom_site_fract_x
 _atom_site_fract_y
 _atom_site_fract_z
 _atom_site_occupancy
  Sm  Sm0  1  0.000000  0.323179  0.414004  1
  Sm  Sm1  1  0.000000  0.676821  0.585996  1
  Sm  Sm2  1  0.000000  0.823179  0.085996  1
  Sm  Sm3  1  0.000000  0.176821  0.914004  1
  Ho  Ho4  1  0.000000  0.943248  0.369910  1
  Ho  Ho5  1  0.000000  0.056752  0.630090  1
  Ho  Ho6  1  0.000000  0.443248  0.130090  1
  Ho  Ho7  1  0.000000  0.556752  0.869910  1
  Re  Re8  1  0.000000  0.639143  0.319914  1
  Re  Re9  1  0.000000  0.360857  0.680086  1
  Re  Re10  1  0.000000  0.139143  0.180086  1
  Re  Re11  1  0.000000  0.860857  0.819914  1
  B  B12  1  0.500000  0.554305  0.431485  1
  B  B13  1  0.500000  0.445695  0.568515  1
  B  B14  1  0.500000  0.054305  0.068515  1
  B  B15  1  0.500000  0.945695  0.931485  1
  B  B16  1  0.500000  0.749487  0.417053  1
  B  B17  1  0.500000  0.250513  0.582947  1
  B  B18  1  0.500000  0.249487  0.082947  1
  B  B19  1  0.500000  0.750513  0.917053  1
  B  B20  1  0.500000  0.791833  0.266135  1
  B  B21  1  0.500000  0.208167  0.733865  1
  B  B22  1  0.500000  0.291833  0.233865  1
  B  B23  1  0.500000  0.708167  0.766135  1
  B  B24  1  0.500000  0.630146  0.186181  1
  B  B25  1  0.500000  0.369854  0.813819  1
  B  B26  1  0.500000  0.130146  0.313819  1
  B  B27  1  0.500000  0.869854  0.686181  1
  B  B28  1  0.500000  0.983290  0.212761  1
  B  B29  1  0.500000  0.016710  0.787239  1
  B  B30  1  0.500000  0.483290  0.287239  1
  B  B31  1  0.500000  0.516710  0.712761  1
  B  B32  1  0.500000  0.597812  0.027249  1
  B  B33  1  0.500000  0.402188  0.972751  1
  B  B34  1  0.500000  0.097812  0.472751  1
  B  B35  1  0.500000  0.902188  0.527249  1
