# generated using pymatgen
data_Tb4Ti3Mn11(FeP2)6
_symmetry_space_group_name_H-M   'P 1'
_cell_length_a   3.64581700
_cell_length_b   10.65247356
_cell_length_c   12.33231764
_cell_angle_alpha   90.18265790
_cell_angle_beta   90.00000000
_cell_angle_gamma   90.00000000
_symmetry_Int_Tables_number   1
_chemical_formula_structural   Tb4Ti3Mn11(FeP2)6
_chemical_formula_sum   'Tb4 Ti3 Mn11 Fe6 P12'
_cell_volume   478.94740631
_cell_formula_units_Z   1
loop_
 _symmetry_equiv_pos_site_id
 _symmetry_equiv_pos_as_xyz
  1  'x, y, z'
loop_
 _atom_site_type_symbol
 _atom_site_label
 _atom_site_symmetry_multiplicity
 _atom_site_fract_x
 _atom_site_fract_y
 _atom_site_fract_z
 _atom_site_occupancy
  Tb  Tb0  1  0.250000  0.579775  0.710029  1
  Tb  Tb1  1  0.250000  0.920071  0.211260  1
  Tb  Tb2  1  0.750000  0.414254  0.291243  1
  Tb  Tb3  1  0.750000  0.085049  0.790968  1
  Ti  Ti4  1  0.250000  0.701848  0.985639  1
  Ti  Ti5  1  0.250000  0.796866  0.485625  1
  Ti  Ti6  1  0.750000  0.299778  0.010285  1
  Mn  Mn7  1  0.750000  0.204200  0.511850  1
  Mn  Mn8  1  0.250000  0.402713  0.493336  1
  Mn  Mn9  1  0.250000  0.093370  0.993556  1
  Mn  Mn10  1  0.750000  0.586421  0.506751  1
  Mn  Mn11  1  0.750000  0.911690  0.008144  1
  Mn  Mn12  1  0.250000  0.215890  0.178769  1
  Mn  Mn13  1  0.250000  0.281392  0.671717  1
  Mn  Mn14  1  0.750000  0.782426  0.824489  1
  Mn  Mn15  1  0.750000  0.718037  0.325474  1
  Mn  Mn16  1  0.250000  0.878465  0.698427  1
  Mn  Mn17  1  0.250000  0.622499  0.199257  1
  Fe  Fe18  1  0.750000  0.124991  0.303556  1
  Fe  Fe19  1  0.750000  0.373486  0.796621  1
  Fe  Fe20  1  0.250000  0.462968  0.932991  1
  Fe  Fe21  1  0.250000  0.039799  0.435657  1
  Fe  Fe22  1  0.750000  0.537932  0.068949  1
  Fe  Fe23  1  0.750000  0.964722  0.567086  1
  P  P24  1  0.250000  0.425799  0.111829  1
  P  P25  1  0.250000  0.076282  0.610964  1
  P  P26  1  0.750000  0.568929  0.887361  1
  P  P27  1  0.750000  0.930256  0.388324  1
  P  P28  1  0.250000  0.270233  0.864580  1
  P  P29  1  0.250000  0.231089  0.370137  1
  P  P30  1  0.750000  0.736649  0.131675  1
  P  P31  1  0.750000  0.765078  0.631698  1
  P  P32  1  0.250000  0.588321  0.386121  1
  P  P33  1  0.250000  0.910153  0.885527  1
  P  P34  1  0.750000  0.403777  0.613076  1
  P  P35  1  0.750000  0.094795  0.117030  1
