# generated using pymatgen
data_Dy24Tc7Mo
_symmetry_space_group_name_H-M   'P 1'
_cell_length_a   6.20046987
_cell_length_b   9.20945700
_cell_length_c   15.00598200
_cell_angle_alpha   90.00000000
_cell_angle_beta   89.93595370
_cell_angle_gamma   90.00000000
_symmetry_Int_Tables_number   1
_chemical_formula_structural   Dy24Tc7Mo
_chemical_formula_sum   'Dy24 Tc7 Mo1'
_cell_volume   856.88546480
_cell_formula_units_Z   1
loop_
 _symmetry_equiv_pos_site_id
 _symmetry_equiv_pos_as_xyz
  1  'x, y, z'
loop_
 _atom_site_type_symbol
 _atom_site_label
 _atom_site_symmetry_multiplicity
 _atom_site_fract_x
 _atom_site_fract_y
 _atom_site_fract_z
 _atom_site_occupancy
  Dy  Dy0  1  0.531238  0.750000  0.353519  1
  Dy  Dy1  1  0.031373  0.250000  0.146611  1
  Dy  Dy2  1  0.468144  0.250000  0.645934  1
  Dy  Dy3  1  0.967918  0.750000  0.856126  1
  Dy  Dy4  1  0.770936  0.750000  0.107992  1
  Dy  Dy5  1  0.272196  0.250000  0.391987  1
  Dy  Dy6  1  0.230583  0.250000  0.893008  1
  Dy  Dy7  1  0.718833  0.750000  0.606827  1
  Dy  Dy8  1  0.443666  0.935378  0.789653  1
  Dy  Dy9  1  0.943037  0.065675  0.711041  1
  Dy  Dy10  1  0.560528  0.434332  0.211863  1
  Dy  Dy11  1  0.060217  0.565586  0.288334  1
  Dy  Dy12  1  0.560528  0.065668  0.211863  1
  Dy  Dy13  1  0.060217  0.934414  0.288334  1
  Dy  Dy14  1  0.443666  0.564622  0.789653  1
  Dy  Dy15  1  0.943037  0.434325  0.711041  1
  Dy  Dy16  1  0.241535  0.936731  0.533643  1
  Dy  Dy17  1  0.742305  0.065482  0.964567  1
  Dy  Dy18  1  0.757692  0.435191  0.463660  1
  Dy  Dy19  1  0.257880  0.564625  0.037004  1
  Dy  Dy20  1  0.757692  0.064809  0.463660  1
  Dy  Dy21  1  0.257880  0.935375  0.037004  1
  Dy  Dy22  1  0.241535  0.563269  0.533643  1
  Dy  Dy23  1  0.742305  0.434518  0.964567  1
  Tc  Tc24  1  0.927501  0.750000  0.438051  1
  Tc  Tc25  1  0.428918  0.250000  0.061931  1
  Tc  Tc26  1  0.070986  0.250000  0.559658  1
  Tc  Tc27  1  0.568013  0.750000  0.939819  1
  Tc  Tc28  1  0.350842  0.750000  0.183924  1
  Tc  Tc29  1  0.851218  0.250000  0.316560  1
  Tc  Tc30  1  0.646647  0.250000  0.816663  1
  Mo  Mo31  1  0.150933  0.750000  0.681861  1
