# generated using pymatgen
data_Gd4HoW2C7
_symmetry_space_group_name_H-M   'P 1'
_cell_length_a   8.49634427
_cell_length_b   8.49634397
_cell_length_c   3.45505300
_cell_angle_alpha   90.00000000
_cell_angle_beta   90.00000000
_cell_angle_gamma   123.38215972
_symmetry_Int_Tables_number   1
_chemical_formula_structural   Gd4HoW2C7
_chemical_formula_sum   'Gd4 Ho1 W2 C7'
_cell_volume   208.26456193
_cell_formula_units_Z   1
loop_
 _symmetry_equiv_pos_site_id
 _symmetry_equiv_pos_as_xyz
  1  'x, y, z'
loop_
 _atom_site_type_symbol
 _atom_site_label
 _atom_site_symmetry_multiplicity
 _atom_site_fract_x
 _atom_site_fract_y
 _atom_site_fract_z
 _atom_site_occupancy
  Gd  Gd0  1  0.071056  0.328714  0.500000  1
  Gd  Gd1  1  0.928944  0.671286  0.500000  1
  Gd  Gd2  1  0.671286  0.928944  0.500000  1
  Gd  Gd3  1  0.328714  0.071056  0.500000  1
  Ho  Ho4  1  0.500000  0.500000  0.000000  1
  W  W5  1  0.711062  0.288938  0.000000  1
  W  W6  1  0.288938  0.711062  0.000000  1
  C  C7  1  0.625148  0.374852  0.500000  1
  C  C8  1  0.374852  0.625148  0.500000  1
  C  C9  1  0.000000  0.000000  0.000000  1
  C  C10  1  0.168210  0.168210  0.000000  1
  C  C11  1  0.831790  0.831790  0.000000  1
  C  C12  1  0.000000  0.500000  0.000000  1
  C  C13  1  0.500000  0.000000  0.000000  1
