# generated using pymatgen
data_HoLuTa4(B2Ru5)2
_symmetry_space_group_name_H-M   'P 1'
_cell_length_a   9.53086408
_cell_length_b   9.53086398
_cell_length_c   3.08660800
_cell_angle_alpha   90.00000000
_cell_angle_beta   90.00000000
_cell_angle_gamma   90.47745733
_symmetry_Int_Tables_number   1
_chemical_formula_structural   HoLuTa4(B2Ru5)2
_chemical_formula_sum   'Ho1 Lu1 Ta4 B4 Ru10'
_cell_volume   280.36961540
_cell_formula_units_Z   1
loop_
 _symmetry_equiv_pos_site_id
 _symmetry_equiv_pos_as_xyz
  1  'x, y, z'
loop_
 _atom_site_type_symbol
 _atom_site_label
 _atom_site_symmetry_multiplicity
 _atom_site_fract_x
 _atom_site_fract_y
 _atom_site_fract_z
 _atom_site_occupancy
  Ho  Ho0  1  0.824212  0.675788  0.000000  1
  Lu  Lu1  1  0.176326  0.323674  0.000000  1
  Ta  Ta2  1  0.323514  0.823693  0.000000  1
  Ta  Ta3  1  0.676307  0.176486  0.000000  1
  Ta  Ta4  1  0.499301  0.499731  0.000000  1
  Ta  Ta5  1  0.000269  0.000699  0.000000  1
  B  B6  1  0.620286  0.879714  0.000000  1
  B  B7  1  0.378635  0.121365  0.000000  1
  B  B8  1  0.121221  0.620327  0.000000  1
  B  B9  1  0.879673  0.378779  0.000000  1
  Ru  Ru10  1  0.559140  0.723109  0.500000  1
  Ru  Ru11  1  0.439370  0.277525  0.500000  1
  Ru  Ru12  1  0.081553  0.785254  0.500000  1
  Ru  Ru13  1  0.919860  0.214857  0.500000  1
  Ru  Ru14  1  0.285143  0.580140  0.500000  1
  Ru  Ru15  1  0.714746  0.418447  0.500000  1
  Ru  Ru16  1  0.222475  0.060630  0.500000  1
  Ru  Ru17  1  0.776891  0.940860  0.500000  1
  Ru  Ru18  1  0.499616  0.000384  0.500000  1
  Ru  Ru19  1  0.001462  0.498538  0.500000  1
