# generated using pymatgen
data_TbPa(GaCu)4
_symmetry_space_group_name_H-M   'P 1'
_cell_length_a   4.13301300
_cell_length_b   4.13301300
_cell_length_c   10.04919000
_cell_angle_alpha   90.00000000
_cell_angle_beta   90.00000000
_cell_angle_gamma   90.00000000
_symmetry_Int_Tables_number   1
_chemical_formula_structural   TbPa(GaCu)4
_chemical_formula_sum   'Tb1 Pa1 Ga4 Cu4'
_cell_volume   171.65821815
_cell_formula_units_Z   1
loop_
 _symmetry_equiv_pos_site_id
 _symmetry_equiv_pos_as_xyz
  1  'x, y, z'
loop_
 _atom_site_type_symbol
 _atom_site_label
 _atom_site_symmetry_multiplicity
 _atom_site_fract_x
 _atom_site_fract_y
 _atom_site_fract_z
 _atom_site_occupancy
  Tb  Tb0  1  0.500000  0.000000  0.756050  1
  Pa  Pa1  1  0.000000  0.500000  0.244623  1
  Ga  Ga2  1  0.000000  0.000000  0.497701  1
  Ga  Ga3  1  0.500000  0.500000  0.497701  1
  Ga  Ga4  1  0.000000  0.500000  0.868830  1
  Ga  Ga5  1  0.500000  0.000000  0.131148  1
  Cu  Cu6  1  0.000000  0.000000  0.003334  1
  Cu  Cu7  1  0.500000  0.500000  0.003334  1
  Cu  Cu8  1  0.000000  0.500000  0.632257  1
  Cu  Cu9  1  0.500000  0.000000  0.365021  1
