# generated using pymatgen
data_Ta16FeCu7N4
_symmetry_space_group_name_H-M   'P 1'
_cell_length_a   8.26622853
_cell_length_b   8.26622811
_cell_length_c   8.26623075
_cell_angle_alpha   60.06093441
_cell_angle_beta   60.06093704
_cell_angle_gamma   60.06083306
_symmetry_Int_Tables_number   1
_chemical_formula_structural   Ta16FeCu7N4
_chemical_formula_sum   'Ta16 Fe1 Cu7 N4'
_cell_volume   399.95059310
_cell_formula_units_Z   1
loop_
 _symmetry_equiv_pos_site_id
 _symmetry_equiv_pos_as_xyz
  1  'x, y, z'
loop_
 _atom_site_type_symbol
 _atom_site_label
 _atom_site_symmetry_multiplicity
 _atom_site_fract_x
 _atom_site_fract_y
 _atom_site_fract_z
 _atom_site_occupancy
  Ta  Ta0  1  0.121139  0.630405  0.630409  1
  Ta  Ta1  1  0.630405  0.121139  0.630409  1
  Ta  Ta2  1  0.630407  0.630407  0.121136  1
  Ta  Ta3  1  0.625303  0.625303  0.625306  1
  Ta  Ta4  1  0.815828  0.815828  0.181417  1
  Ta  Ta5  1  0.186125  0.186125  0.814128  1
  Ta  Ta6  1  0.815828  0.181421  0.815828  1
  Ta  Ta7  1  0.186130  0.814127  0.186122  1
  Ta  Ta8  1  0.181421  0.815828  0.815828  1
  Ta  Ta9  1  0.814127  0.186130  0.186122  1
  Ta  Ta10  1  0.435943  0.435943  0.065274  1
  Ta  Ta11  1  0.063315  0.063315  0.436117  1
  Ta  Ta12  1  0.435943  0.065272  0.435945  1
  Ta  Ta13  1  0.063315  0.436116  0.063316  1
  Ta  Ta14  1  0.065272  0.435943  0.435945  1
  Ta  Ta15  1  0.436116  0.063315  0.063316  1
  Fe  Fe16  1  0.825888  0.825888  0.825891  1
  Cu  Cu17  1  0.753814  0.416475  0.416475  1
  Cu  Cu18  1  0.416475  0.753814  0.416475  1
  Cu  Cu19  1  0.416474  0.416474  0.753815  1
  Cu  Cu20  1  0.415656  0.415656  0.415656  1
  Cu  Cu21  1  0.496762  0.834087  0.834088  1
  Cu  Cu22  1  0.834087  0.496762  0.834088  1
  Cu  Cu23  1  0.834090  0.834090  0.496757  1
  N  N24  1  0.623439  0.125778  0.125777  1
  N  N25  1  0.125778  0.623439  0.125777  1
  N  N26  1  0.125777  0.125777  0.623439  1
  N  N27  1  0.125144  0.125144  0.125143  1
