# generated using pymatgen
data_Sr20ZnCd3Au8
_symmetry_space_group_name_H-M   'P 1'
_cell_length_a   8.59156400
_cell_length_b   8.59156400
_cell_length_c   15.54331800
_cell_angle_alpha   90.00000000
_cell_angle_beta   90.00000000
_cell_angle_gamma   90.00000000
_symmetry_Int_Tables_number   1
_chemical_formula_structural   Sr20ZnCd3Au8
_chemical_formula_sum   'Sr20 Zn1 Cd3 Au8'
_cell_volume   1147.32958243
_cell_formula_units_Z   1
loop_
 _symmetry_equiv_pos_site_id
 _symmetry_equiv_pos_as_xyz
  1  'x, y, z'
loop_
 _atom_site_type_symbol
 _atom_site_label
 _atom_site_symmetry_multiplicity
 _atom_site_fract_x
 _atom_site_fract_y
 _atom_site_fract_z
 _atom_site_occupancy
  Sr  Sr0  1  0.000000  0.000000  0.753917  1
  Sr  Sr1  1  0.500000  0.500000  0.248530  1
  Sr  Sr2  1  0.000000  0.000000  0.246083  1
  Sr  Sr3  1  0.500000  0.500000  0.751470  1
  Sr  Sr4  1  0.167882  0.662099  0.109634  1
  Sr  Sr5  1  0.664517  0.165045  0.612317  1
  Sr  Sr6  1  0.832118  0.337901  0.109634  1
  Sr  Sr7  1  0.335483  0.834955  0.612317  1
  Sr  Sr8  1  0.337901  0.167882  0.109634  1
  Sr  Sr9  1  0.834955  0.664517  0.612317  1
  Sr  Sr10  1  0.662099  0.832118  0.109634  1
  Sr  Sr11  1  0.165045  0.335483  0.612317  1
  Sr  Sr12  1  0.337901  0.832118  0.890366  1
  Sr  Sr13  1  0.834955  0.335483  0.387683  1
  Sr  Sr14  1  0.662099  0.167882  0.890366  1
  Sr  Sr15  1  0.165045  0.664517  0.387683  1
  Sr  Sr16  1  0.167882  0.337901  0.890366  1
  Sr  Sr17  1  0.664517  0.834955  0.387683  1
  Sr  Sr18  1  0.832118  0.662099  0.890366  1
  Sr  Sr19  1  0.335483  0.165045  0.387683  1
  Zn  Zn20  1  0.500000  0.500000  0.000000  1
  Cd  Cd21  1  0.000000  0.000000  0.500000  1
  Cd  Cd22  1  0.000000  0.000000  0.000000  1
  Cd  Cd23  1  0.500000  0.500000  0.500000  1
  Au  Au24  1  0.628556  0.128079  0.248640  1
  Au  Au25  1  0.128079  0.628556  0.751360  1
  Au  Au26  1  0.871921  0.371444  0.751360  1
  Au  Au27  1  0.371444  0.871921  0.248640  1
  Au  Au28  1  0.371444  0.128079  0.751360  1
  Au  Au29  1  0.871921  0.628556  0.248640  1
  Au  Au30  1  0.128079  0.371444  0.248640  1
  Au  Au31  1  0.628556  0.871921  0.751360  1
