# generated using pymatgen
data_Yb11Er(AgGe)12
_symmetry_space_group_name_H-M   'P 1'
_cell_length_a   4.56315300
_cell_length_b   7.85332081
_cell_length_c   21.33129741
_cell_angle_alpha   89.90730514
_cell_angle_beta   90.00000000
_cell_angle_gamma   90.00000000
_symmetry_Int_Tables_number   1
_chemical_formula_structural   Yb11Er(AgGe)12
_chemical_formula_sum   'Yb11 Er1 Ag12 Ge12'
_cell_volume   764.42533438
_cell_formula_units_Z   1
loop_
 _symmetry_equiv_pos_site_id
 _symmetry_equiv_pos_as_xyz
  1  'x, y, z'
loop_
 _atom_site_type_symbol
 _atom_site_label
 _atom_site_symmetry_multiplicity
 _atom_site_fract_x
 _atom_site_fract_y
 _atom_site_fract_z
 _atom_site_occupancy
  Yb  Yb0  1  0.250000  0.224858  0.000815  1
  Yb  Yb1  1  0.250000  0.277316  0.499937  1
  Yb  Yb2  1  0.750000  0.772802  0.001097  1
  Yb  Yb3  1  0.750000  0.722177  0.499834  1
  Yb  Yb4  1  0.250000  0.211315  0.333837  1
  Yb  Yb5  1  0.250000  0.285714  0.833281  1
  Yb  Yb6  1  0.750000  0.786706  0.665781  1
  Yb  Yb7  1  0.750000  0.710496  0.166070  1
  Yb  Yb8  1  0.250000  0.213303  0.666285  1
  Yb  Yb9  1  0.250000  0.287765  0.166665  1
  Yb  Yb10  1  0.750000  0.788217  0.333122  1
  Er  Er11  1  0.750000  0.714170  0.834048  1
  Ag  Ag12  1  0.250000  0.912175  0.762439  1
  Ag  Ag13  1  0.250000  0.586788  0.261881  1
  Ag  Ag14  1  0.750000  0.087635  0.238139  1
  Ag  Ag15  1  0.750000  0.412516  0.739112  1
  Ag  Ag16  1  0.250000  0.922617  0.906591  1
  Ag  Ag17  1  0.250000  0.581795  0.405961  1
  Ag  Ag18  1  0.750000  0.081404  0.093537  1
  Ag  Ag19  1  0.750000  0.418174  0.594553  1
  Ag  Ag20  1  0.250000  0.916857  0.565759  1
  Ag  Ag21  1  0.250000  0.582521  0.068490  1
  Ag  Ag22  1  0.750000  0.082914  0.434400  1
  Ag  Ag23  1  0.750000  0.419113  0.937158  1
  Ge  Ge24  1  0.250000  0.582499  0.731043  1
  Ge  Ge25  1  0.250000  0.917986  0.227963  1
  Ge  Ge26  1  0.750000  0.417702  0.272075  1
  Ge  Ge27  1  0.750000  0.078443  0.771587  1
  Ge  Ge28  1  0.250000  0.911699  0.102196  1
  Ge  Ge29  1  0.250000  0.586673  0.603038  1
  Ge  Ge30  1  0.750000  0.088497  0.897346  1
  Ge  Ge31  1  0.750000  0.413118  0.397949  1
  Ge  Ge32  1  0.250000  0.593537  0.915220  1
  Ge  Ge33  1  0.250000  0.910506  0.427399  1
  Ge  Ge34  1  0.750000  0.410179  0.071988  1
  Ge  Ge35  1  0.750000  0.089812  0.573403  1
