# generated using pymatgen
data_Dy2ErTm5(CdPt)2
_symmetry_space_group_name_H-M   'P 1'
_cell_length_a   9.59545903
_cell_length_b   9.59164794
_cell_length_c   9.59164776
_cell_angle_alpha   60.02628639
_cell_angle_beta   59.98685668
_cell_angle_gamma   59.98685435
_symmetry_Int_Tables_number   1
_chemical_formula_structural   Dy2ErTm5(CdPt)2
_chemical_formula_sum   'Dy4 Er2 Tm10 Cd4 Pt4'
_cell_volume   624.21911430
_cell_formula_units_Z   2
loop_
 _symmetry_equiv_pos_site_id
 _symmetry_equiv_pos_as_xyz
  1  'x, y, z'
loop_
 _atom_site_type_symbol
 _atom_site_label
 _atom_site_symmetry_multiplicity
 _atom_site_fract_x
 _atom_site_fract_y
 _atom_site_fract_z
 _atom_site_occupancy
  Dy  Dy0  1  0.564298  0.935702  0.564298  1
  Dy  Dy1  1  0.935702  0.564297  0.935702  1
  Dy  Dy2  1  0.564298  0.564298  0.935702  1
  Dy  Dy3  1  0.935702  0.935702  0.564297  1
  Er  Er4  1  0.936230  0.563770  0.563770  1
  Er  Er5  1  0.563770  0.936230  0.936230  1
  Tm  Tm6  1  0.351929  0.352241  0.352241  1
  Tm  Tm7  1  0.352241  0.351929  0.943591  1
  Tm  Tm8  1  0.352241  0.943591  0.351929  1
  Tm  Tm9  1  0.943591  0.352241  0.352241  1
  Tm  Tm10  1  0.810752  0.189248  0.189248  1
  Tm  Tm11  1  0.189248  0.810752  0.810752  1
  Tm  Tm12  1  0.189239  0.810761  0.189239  1
  Tm  Tm13  1  0.810761  0.189239  0.810761  1
  Tm  Tm14  1  0.189239  0.189239  0.810761  1
  Tm  Tm15  1  0.810761  0.810761  0.189239  1
  Cd  Cd16  1  0.581746  0.581555  0.581555  1
  Cd  Cd17  1  0.581555  0.581746  0.255143  1
  Cd  Cd18  1  0.581555  0.255143  0.581746  1
  Cd  Cd19  1  0.255143  0.581555  0.581555  1
  Pt  Pt20  1  0.143288  0.143056  0.143056  1
  Pt  Pt21  1  0.143056  0.143288  0.570602  1
  Pt  Pt22  1  0.143056  0.570602  0.143288  1
  Pt  Pt23  1  0.570602  0.143056  0.143056  1
