# generated using pymatgen
data_CeCoBiSb
_symmetry_space_group_name_H-M   'P 1'
_cell_length_a   4.46147400
_cell_length_b   4.46147400
_cell_length_c   9.67864200
_cell_angle_alpha   90.00000000
_cell_angle_beta   90.00000000
_cell_angle_gamma   90.00000000
_symmetry_Int_Tables_number   1
_chemical_formula_structural   CeCoBiSb
_chemical_formula_sum   'Ce2 Co2 Bi2 Sb2'
_cell_volume   192.65095180
_cell_formula_units_Z   2
loop_
 _symmetry_equiv_pos_site_id
 _symmetry_equiv_pos_as_xyz
  1  'x, y, z'
loop_
 _atom_site_type_symbol
 _atom_site_label
 _atom_site_symmetry_multiplicity
 _atom_site_fract_x
 _atom_site_fract_y
 _atom_site_fract_z
 _atom_site_occupancy
  Ce  Ce0  1  0.750000  0.750000  0.724179  1
  Ce  Ce1  1  0.250000  0.250000  0.275821  1
  Co  Co2  1  0.250000  0.750000  0.500000  1
  Co  Co3  1  0.750000  0.250000  0.500000  1
  Bi  Bi4  1  0.250000  0.750000  0.000000  1
  Bi  Bi5  1  0.750000  0.250000  0.000000  1
  Sb  Sb6  1  0.750000  0.750000  0.360370  1
  Sb  Sb7  1  0.250000  0.250000  0.639630  1
