# generated using pymatgen
data_Th2Al20Re3Ru
_symmetry_space_group_name_H-M   'P 1'
_cell_length_a   6.92754869
_cell_length_b   6.93692388
_cell_length_c   9.24909873
_cell_angle_alpha   89.82373045
_cell_angle_beta   89.73820766
_cell_angle_gamma   97.12169229
_symmetry_Int_Tables_number   1
_chemical_formula_structural   Th2Al20Re3Ru
_chemical_formula_sum   'Th2 Al20 Re3 Ru1'
_cell_volume   441.03690181
_cell_formula_units_Z   1
loop_
 _symmetry_equiv_pos_site_id
 _symmetry_equiv_pos_as_xyz
  1  'x, y, z'
loop_
 _atom_site_type_symbol
 _atom_site_label
 _atom_site_symmetry_multiplicity
 _atom_site_fract_x
 _atom_site_fract_y
 _atom_site_fract_z
 _atom_site_occupancy
  Th  Th0  1  0.875085  0.132402  0.752175  1
  Th  Th1  1  0.124915  0.867598  0.247825  1
  Al  Al2  1  0.772858  0.773334  0.000879  1
  Al  Al3  1  0.771894  0.773928  0.500343  1
  Al  Al4  1  0.227142  0.226666  0.999121  1
  Al  Al5  1  0.228106  0.226072  0.499657  1
  Al  Al6  1  0.621157  0.378227  0.954994  1
  Al  Al7  1  0.378843  0.621773  0.045006  1
  Al  Al8  1  0.621601  0.378538  0.545823  1
  Al  Al9  1  0.378399  0.621462  0.454177  1
  Al  Al10  1  0.840880  0.158087  0.398836  1
  Al  Al11  1  0.159120  0.841913  0.601164  1
  Al  Al12  1  0.840389  0.158239  0.102053  1
  Al  Al13  1  0.159611  0.841761  0.897947  1
  Al  Al14  1  0.407143  0.139967  0.748952  1
  Al  Al15  1  0.140652  0.404785  0.250254  1
  Al  Al16  1  0.592857  0.860033  0.251048  1
  Al  Al17  1  0.859348  0.595215  0.749746  1
  Al  Al18  1  0.519733  0.782274  0.750617  1
  Al  Al19  1  0.779704  0.518218  0.251068  1
  Al  Al20  1  0.480267  0.217726  0.249383  1
  Al  Al21  1  0.220296  0.481782  0.748932  1
  Re  Re22  1  0.500000  0.000000  0.000000  1
  Re  Re23  1  0.000000  0.500000  0.000000  1
  Re  Re24  1  0.000000  0.500000  0.500000  1
  Ru  Ru25  1  0.500000  0.000000  0.500000  1
