# generated using pymatgen
data_Na3Pr5Te8
_symmetry_space_group_name_H-M   'P 1'
_cell_length_a   9.15430329
_cell_length_b   9.15430492
_cell_length_c   9.15430375
_cell_angle_alpha   59.46199480
_cell_angle_beta   59.46199417
_cell_angle_gamma   59.46199780
_symmetry_Int_Tables_number   1
_chemical_formula_structural   Na3Pr5Te8
_chemical_formula_sum   'Na3 Pr5 Te8'
_cell_volume   535.81281315
_cell_formula_units_Z   1
loop_
 _symmetry_equiv_pos_site_id
 _symmetry_equiv_pos_as_xyz
  1  'x, y, z'
loop_
 _atom_site_type_symbol
 _atom_site_label
 _atom_site_symmetry_multiplicity
 _atom_site_fract_x
 _atom_site_fract_y
 _atom_site_fract_z
 _atom_site_occupancy
  Na  Na0  1  0.125000  0.625000  0.125000  1
  Na  Na1  1  0.125000  0.125000  0.625000  1
  Na  Na2  1  0.625000  0.125000  0.125000  1
  Pr  Pr3  1  0.125000  0.125000  0.125000  1
  Pr  Pr4  1  0.625000  0.125000  0.625000  1
  Pr  Pr5  1  0.625000  0.625000  0.625000  1
  Pr  Pr6  1  0.125000  0.625000  0.625000  1
  Pr  Pr7  1  0.625000  0.625000  0.125000  1
  Te  Te8  1  0.375307  0.874506  0.375307  1
  Te  Te9  1  0.874693  0.375494  0.874693  1
  Te  Te10  1  0.874693  0.874693  0.375494  1
  Te  Te11  1  0.873404  0.873404  0.873404  1
  Te  Te12  1  0.874506  0.375307  0.375307  1
  Te  Te13  1  0.375307  0.375307  0.874506  1
  Te  Te14  1  0.376596  0.376596  0.376596  1
  Te  Te15  1  0.375494  0.874693  0.874693  1
