# generated using pymatgen
data_DyHo11Co4BiIr
_symmetry_space_group_name_H-M   'P 1'
_cell_length_a   8.29230413
_cell_length_b   8.29243547
_cell_length_c   8.29118717
_cell_angle_alpha   111.20885121
_cell_angle_beta   110.60094385
_cell_angle_gamma   106.64821686
_symmetry_Int_Tables_number   1
_chemical_formula_structural   DyHo11Co4BiIr
_chemical_formula_sum   'Dy1 Ho11 Co4 Bi1 Ir1'
_cell_volume   438.03832127
_cell_formula_units_Z   1
loop_
 _symmetry_equiv_pos_site_id
 _symmetry_equiv_pos_as_xyz
  1  'x, y, z'
loop_
 _atom_site_type_symbol
 _atom_site_label
 _atom_site_symmetry_multiplicity
 _atom_site_fract_x
 _atom_site_fract_y
 _atom_site_fract_z
 _atom_site_occupancy
  Dy  Dy0  1  0.817636  0.714034  0.531673  1
  Ho  Ho1  1  0.182134  0.285871  0.468015  1
  Ho  Ho2  1  0.182371  0.714130  0.896505  1
  Ho  Ho3  1  0.817811  0.285795  0.103613  1
  Ho  Ho4  1  0.687880  0.378667  0.690897  1
  Ho  Ho5  1  0.311890  0.621174  0.309095  1
  Ho  Ho6  1  0.687930  0.997226  0.309115  1
  Ho  Ho7  1  0.312247  0.003048  0.690913  1
  Ho  Ho8  1  0.591084  0.788615  0.802751  1
  Ho  Ho9  1  0.408718  0.211278  0.197275  1
  Ho  Ho10  1  0.985992  0.788561  0.197280  1
  Ho  Ho11  1  0.014126  0.211661  0.802747  1
  Co  Co12  1  0.623223  0.000133  0.623348  1
  Co  Co13  1  0.376713  0.999996  0.376702  1
  Co  Co14  1  0.111153  0.610869  0.499931  1
  Co  Co15  1  0.889050  0.388765  0.499935  1
  Bi  Bi16  1  0.499986  0.499996  0.999979  1
  Ir  Ir17  1  0.000055  0.000181  0.000224  1
