# generated using pymatgen
data_Li2Ho3AgSn3
_symmetry_space_group_name_H-M   'P 1'
_cell_length_a   7.28149500
_cell_length_b   7.29635293
_cell_length_c   4.57028700
_cell_angle_alpha   90.00000000
_cell_angle_beta   90.00000000
_cell_angle_gamma   119.93266544
_symmetry_Int_Tables_number   1
_chemical_formula_structural   Li2Ho3AgSn3
_chemical_formula_sum   'Li2 Ho3 Ag1 Sn3'
_cell_volume   210.42375486
_cell_formula_units_Z   1
loop_
 _symmetry_equiv_pos_site_id
 _symmetry_equiv_pos_as_xyz
  1  'x, y, z'
loop_
 _atom_site_type_symbol
 _atom_site_label
 _atom_site_symmetry_multiplicity
 _atom_site_fract_x
 _atom_site_fract_y
 _atom_site_fract_z
 _atom_site_occupancy
  Li  Li0  1  0.004234  0.233011  0.500000  1
  Li  Li1  1  0.771222  0.766989  0.500000  1
  Ho  Ho2  1  0.001633  0.567965  0.000000  1
  Ho  Ho3  1  0.433668  0.432035  0.000000  1
  Ho  Ho4  1  0.554403  0.000000  0.000000  1
  Ag  Ag5  1  0.236854  0.000000  0.500000  1
  Sn  Sn6  1  0.990908  0.000000  0.000000  1
  Sn  Sn7  1  0.672796  0.338513  0.500000  1
  Sn  Sn8  1  0.334282  0.661487  0.500000  1
