# generated using pymatgen
data_Rb4Er3Hf5S16
_symmetry_space_group_name_H-M   'P 1'
_cell_length_a   6.49762713
_cell_length_b   7.47868000
_cell_length_c   16.16065800
_cell_angle_alpha   90.00000000
_cell_angle_beta   90.08488166
_cell_angle_gamma   90.00000000
_symmetry_Int_Tables_number   1
_chemical_formula_structural   Rb4Er3Hf5S16
_chemical_formula_sum   'Rb4 Er3 Hf5 S16'
_cell_volume   785.30488579
_cell_formula_units_Z   1
loop_
 _symmetry_equiv_pos_site_id
 _symmetry_equiv_pos_as_xyz
  1  'x, y, z'
loop_
 _atom_site_type_symbol
 _atom_site_label
 _atom_site_symmetry_multiplicity
 _atom_site_fract_x
 _atom_site_fract_y
 _atom_site_fract_z
 _atom_site_occupancy
  Rb  Rb0  1  0.347399  0.000000  0.000484  1
  Rb  Rb1  1  0.649967  0.500000  0.499424  1
  Rb  Rb2  1  0.028700  0.000000  0.498999  1
  Rb  Rb3  1  0.971346  0.500000  0.001392  1
  Er  Er4  1  0.001162  0.000000  0.247646  1
  Er  Er5  1  0.000889  0.000000  0.752149  1
  Er  Er6  1  0.998843  0.500000  0.252377  1
  Hf  Hf7  1  0.999474  0.500000  0.748106  1
  Hf  Hf8  1  0.500001  0.249997  0.250006  1
  Hf  Hf9  1  0.499632  0.750585  0.750002  1
  Hf  Hf10  1  0.500001  0.750003  0.250006  1
  Hf  Hf11  1  0.499632  0.249415  0.750002  1
  S  S12  1  0.816933  0.247456  0.343137  1
  S  S13  1  0.826453  0.740585  0.658778  1
  S  S14  1  0.183100  0.747475  0.156921  1
  S  S15  1  0.174898  0.263256  0.841337  1
  S  S16  1  0.183100  0.252525  0.156921  1
  S  S17  1  0.174898  0.736744  0.841337  1
  S  S18  1  0.816933  0.752544  0.343137  1
  S  S19  1  0.826453  0.259415  0.658778  1
  S  S20  1  0.653893  0.000000  0.159757  1
  S  S21  1  0.653223  0.000000  0.840543  1
  S  S22  1  0.345992  0.500000  0.340199  1
  S  S23  1  0.329662  0.500000  0.661664  1
  S  S24  1  0.348420  0.000000  0.339588  1
  S  S25  1  0.349547  0.000000  0.659945  1
  S  S26  1  0.651498  0.500000  0.160482  1
  S  S27  1  0.667952  0.500000  0.836882  1
