# generated using pymatgen
data_Na5SrTaAs4
_symmetry_space_group_name_H-M   'P 1'
_cell_length_a   9.59998870
_cell_length_b   9.59998817
_cell_length_c   7.56584198
_cell_angle_alpha   90.06566256
_cell_angle_beta   90.06566526
_cell_angle_gamma   120.05945739
_symmetry_Int_Tables_number   1
_chemical_formula_structural   Na5SrTaAs4
_chemical_formula_sum   'Na10 Sr2 Ta2 As8'
_cell_volume   603.48664410
_cell_formula_units_Z   2
loop_
 _symmetry_equiv_pos_site_id
 _symmetry_equiv_pos_as_xyz
  1  'x, y, z'
loop_
 _atom_site_type_symbol
 _atom_site_label
 _atom_site_symmetry_multiplicity
 _atom_site_fract_x
 _atom_site_fract_y
 _atom_site_fract_z
 _atom_site_occupancy
  Na  Na0  1  0.533955  0.473087  0.615757  1
  Na  Na1  1  0.939061  0.471875  0.615094  1
  Na  Na2  1  0.473087  0.533955  0.115757  1
  Na  Na3  1  0.471875  0.939061  0.115094  1
  Na  Na4  1  0.137139  0.853731  0.782707  1
  Na  Na5  1  0.712346  0.849223  0.790722  1
  Na  Na6  1  0.146443  0.288957  0.777381  1
  Na  Na7  1  0.853731  0.137139  0.282707  1
  Na  Na8  1  0.288957  0.146443  0.277381  1
  Na  Na9  1  0.849223  0.712346  0.290722  1
  Sr  Sr10  1  0.531883  0.060707  0.610506  1
  Sr  Sr11  1  0.060707  0.531883  0.110506  1
  Ta  Ta12  1  0.332459  0.662329  0.500961  1
  Ta  Ta13  1  0.662329  0.332459  0.000961  1
  As  As14  1  0.334485  0.670304  0.830515  1
  As  As15  1  0.670304  0.334485  0.330515  1
  As  As16  1  0.810246  0.192624  0.896437  1
  As  As17  1  0.380183  0.189298  0.892838  1
  As  As18  1  0.811358  0.618308  0.901081  1
  As  As19  1  0.192624  0.810246  0.396437  1
  As  As20  1  0.618308  0.811358  0.401081  1
  As  As21  1  0.189298  0.380183  0.392838  1
