# generated using pymatgen
data_K(WO3)2
_symmetry_space_group_name_H-M   'P 1'
_cell_length_a   7.43461665
_cell_length_b   7.43461772
_cell_length_c   7.43461665
_cell_angle_alpha   119.84305806
_cell_angle_beta   120.37873787
_cell_angle_gamma   89.80865318
_symmetry_Int_Tables_number   1
_chemical_formula_structural   K(WO3)2
_chemical_formula_sum   'K2 W4 O12'
_cell_volume   290.07993343
_cell_formula_units_Z   2
loop_
 _symmetry_equiv_pos_site_id
 _symmetry_equiv_pos_as_xyz
  1  'x, y, z'
loop_
 _atom_site_type_symbol
 _atom_site_label
 _atom_site_symmetry_multiplicity
 _atom_site_fract_x
 _atom_site_fract_y
 _atom_site_fract_z
 _atom_site_occupancy
  K  K0  1  0.564733  0.909072  0.155660  1
  K  K1  1  0.246588  0.090928  0.655660  1
  W  W2  1  0.003064  0.500000  0.503064  1
  W  W3  1  0.003064  0.000000  0.003064  1
  W  W4  1  0.996362  0.498488  0.997875  1
  W  W5  1  0.499386  0.501512  0.497875  1
  O  O6  1  0.072303  0.812638  0.759667  1
  O  O7  1  0.692037  0.440106  0.751931  1
  O  O8  1  0.698806  0.818055  0.763154  1
  O  O9  1  0.067038  0.435089  0.747950  1
  O  O10  1  0.067038  0.819087  0.131950  1
  O  O11  1  0.698806  0.435652  0.380750  1
  O  O12  1  0.947029  0.187362  0.259667  1
  O  O13  1  0.311825  0.559894  0.251931  1
  O  O14  1  0.312861  0.180913  0.247950  1
  O  O15  1  0.945098  0.564348  0.263154  1
  O  O16  1  0.945098  0.181945  0.880750  1
  O  O17  1  0.312861  0.564911  0.631950  1
