# generated using pymatgen
data_Yb3ScIn2Pt3
_symmetry_space_group_name_H-M   'P 1'
_cell_length_a   7.26628500
_cell_length_b   7.43373173
_cell_length_c   4.27076100
_cell_angle_alpha   90.00000000
_cell_angle_beta   90.00000000
_cell_angle_gamma   119.25762193
_symmetry_Int_Tables_number   1
_chemical_formula_structural   Yb3ScIn2Pt3
_chemical_formula_sum   'Yb3 Sc1 In2 Pt3'
_cell_volume   201.25916597
_cell_formula_units_Z   1
loop_
 _symmetry_equiv_pos_site_id
 _symmetry_equiv_pos_as_xyz
  1  'x, y, z'
loop_
 _atom_site_type_symbol
 _atom_site_label
 _atom_site_symmetry_multiplicity
 _atom_site_fract_x
 _atom_site_fract_y
 _atom_site_fract_z
 _atom_site_occupancy
  Yb  Yb0  1  0.398610  0.000000  0.000000  1
  Yb  Yb1  1  0.008571  0.420187  0.000000  1
  Yb  Yb2  1  0.588384  0.579813  0.000000  1
  Sc  Sc3  1  0.754448  0.000000  0.500000  1
  In  In4  1  0.999172  0.747446  0.500000  1
  In  In5  1  0.251725  0.252554  0.500000  1
  Pt  Pt6  1  0.347317  0.677881  0.500000  1
  Pt  Pt7  1  0.669437  0.322119  0.500000  1
  Pt  Pt8  1  0.982337  0.000000  0.000000  1
