# generated using pymatgen
data_Li2(AcSb)3
_symmetry_space_group_name_H-M   'P 1'
_cell_length_a   4.72658200
_cell_length_b   4.72658193
_cell_length_c   25.79360500
_cell_angle_alpha   90.00000000
_cell_angle_beta   90.00000000
_cell_angle_gamma   120.00000052
_symmetry_Int_Tables_number   1
_chemical_formula_structural   Li2(AcSb)3
_chemical_formula_sum   'Li4 Ac6 Sb6'
_cell_volume   499.04195752
_cell_formula_units_Z   2
loop_
 _symmetry_equiv_pos_site_id
 _symmetry_equiv_pos_as_xyz
  1  'x, y, z'
loop_
 _atom_site_type_symbol
 _atom_site_label
 _atom_site_symmetry_multiplicity
 _atom_site_fract_x
 _atom_site_fract_y
 _atom_site_fract_z
 _atom_site_occupancy
  Li  Li0  1  0.000000  0.000000  0.833106  1
  Li  Li1  1  0.000000  0.000000  0.166894  1
  Li  Li2  1  0.000000  0.000000  0.333106  1
  Li  Li3  1  0.000000  0.000000  0.666894  1
  Ac  Ac4  1  0.666667  0.333333  0.926036  1
  Ac  Ac5  1  0.333333  0.666667  0.073964  1
  Ac  Ac6  1  0.333333  0.666667  0.426036  1
  Ac  Ac7  1  0.666667  0.333333  0.573964  1
  Ac  Ac8  1  0.333333  0.666667  0.250000  1
  Ac  Ac9  1  0.666667  0.333333  0.750000  1
  Sb  Sb10  1  0.333333  0.666667  0.661463  1
  Sb  Sb11  1  0.000000  0.000000  0.500000  1
  Sb  Sb12  1  0.666667  0.333333  0.338537  1
  Sb  Sb13  1  0.333333  0.666667  0.838537  1
  Sb  Sb14  1  0.666667  0.333333  0.161463  1
  Sb  Sb15  1  0.000000  0.000000  0.000000  1
