# generated using pymatgen
data_TbLu7Re2(OsC4)2
_symmetry_space_group_name_H-M   'P 1'
_cell_length_a   5.00551400
_cell_length_b   6.45654248
_cell_length_c   9.65590869
_cell_angle_alpha   90.23569438
_cell_angle_beta   90.00000000
_cell_angle_gamma   90.00000000
_symmetry_Int_Tables_number   1
_chemical_formula_structural   TbLu7Re2(OsC4)2
_chemical_formula_sum   'Tb1 Lu7 Re2 Os2 C8'
_cell_volume   312.06004651
_cell_formula_units_Z   1
loop_
 _symmetry_equiv_pos_site_id
 _symmetry_equiv_pos_as_xyz
  1  'x, y, z'
loop_
 _atom_site_type_symbol
 _atom_site_label
 _atom_site_symmetry_multiplicity
 _atom_site_fract_x
 _atom_site_fract_y
 _atom_site_fract_z
 _atom_site_occupancy
  Tb  Tb0  1  0.250000  0.530643  0.214326  1
  Lu  Lu1  1  0.750000  0.826000  0.055551  1
  Lu  Lu2  1  0.250000  0.674004  0.556159  1
  Lu  Lu3  1  0.750000  0.321422  0.443908  1
  Lu  Lu4  1  0.250000  0.178501  0.942419  1
  Lu  Lu5  1  0.750000  0.467894  0.782572  1
  Lu  Lu6  1  0.250000  0.032085  0.283230  1
  Lu  Lu7  1  0.750000  0.968931  0.716380  1
  Re  Re8  1  0.750000  0.780479  0.368970  1
  Re  Re9  1  0.250000  0.720768  0.867909  1
  Os  Os10  1  0.750000  0.278760  0.131086  1
  Os  Os11  1  0.250000  0.219034  0.632044  1
  C  C12  1  0.750000  0.171818  0.944086  1
  C  C13  1  0.250000  0.833405  0.054792  1
  C  C14  1  0.750000  0.672425  0.557250  1
  C  C15  1  0.250000  0.325305  0.445567  1
  C  C16  1  0.750000  0.046914  0.260529  1
  C  C17  1  0.250000  0.452416  0.760669  1
  C  C18  1  0.750000  0.546226  0.242014  1
  C  C19  1  0.250000  0.952969  0.740541  1
