# generated using pymatgen
data_Er3Al9Co(SiOs)3
_symmetry_space_group_name_H-M   'P 1'
_cell_length_a   8.65666300
_cell_length_b   8.63351898
_cell_length_c   9.41915600
_cell_angle_alpha   90.00000000
_cell_angle_beta   90.00000000
_cell_angle_gamma   120.08871324
_symmetry_Int_Tables_number   1
_chemical_formula_structural   Er3Al9Co(SiOs)3
_chemical_formula_sum   'Er6 Al18 Co2 Si6 Os6'
_cell_volume   609.10484742
_cell_formula_units_Z   2
loop_
 _symmetry_equiv_pos_site_id
 _symmetry_equiv_pos_as_xyz
  1  'x, y, z'
loop_
 _atom_site_type_symbol
 _atom_site_label
 _atom_site_symmetry_multiplicity
 _atom_site_fract_x
 _atom_site_fract_y
 _atom_site_fract_z
 _atom_site_occupancy
  Er  Er0  1  0.195625  0.391251  0.250000  1
  Er  Er1  1  0.804375  0.608749  0.750000  1
  Er  Er2  1  0.606320  0.805106  0.250000  1
  Er  Er3  1  0.393680  0.194894  0.750000  1
  Er  Er4  1  0.198785  0.805106  0.250000  1
  Er  Er5  1  0.801215  0.194894  0.750000  1
  Al  Al6  1  0.160926  0.321852  0.580237  1
  Al  Al7  1  0.839074  0.678148  0.419763  1
  Al  Al8  1  0.678141  0.838176  0.577988  1
  Al  Al9  1  0.839074  0.678148  0.080237  1
  Al  Al10  1  0.321859  0.161824  0.422012  1
  Al  Al11  1  0.160926  0.321852  0.919763  1
  Al  Al12  1  0.160035  0.838176  0.577988  1
  Al  Al13  1  0.321859  0.161824  0.077988  1
  Al  Al14  1  0.839965  0.161824  0.422012  1
  Al  Al15  1  0.678141  0.838176  0.922012  1
  Al  Al16  1  0.839965  0.161824  0.077988  1
  Al  Al17  1  0.160035  0.838176  0.922012  1
  Al  Al18  1  0.872417  0.432616  0.250000  1
  Al  Al19  1  0.127583  0.567384  0.750000  1
  Al  Al20  1  0.560201  0.432616  0.250000  1
  Al  Al21  1  0.439799  0.567384  0.750000  1
  Al  Al22  1  0.999555  0.999110  0.250000  1
  Al  Al23  1  0.000445  0.000890  0.750000  1
  Co  Co24  1  0.000000  0.000000  0.000000  1
  Co  Co25  1  0.000000  0.000000  0.500000  1
  Si  Si26  1  0.332151  0.664304  0.037249  1
  Si  Si27  1  0.667849  0.335696  0.962751  1
  Si  Si28  1  0.667849  0.335696  0.537249  1
  Si  Si29  1  0.332151  0.664304  0.462751  1
  Si  Si30  1  0.562959  0.125917  0.250000  1
  Si  Si31  1  0.437041  0.874083  0.750000  1
  Os  Os32  1  0.500000  0.000000  0.000000  1
  Os  Os33  1  0.000000  0.500000  0.000000  1
  Os  Os34  1  0.500000  0.000000  0.500000  1
  Os  Os35  1  0.500000  0.500000  0.000000  1
  Os  Os36  1  0.000000  0.500000  0.500000  1
  Os  Os37  1  0.500000  0.500000  0.500000  1
