# generated using pymatgen
data_SrBi3(Ir2O7)2
_symmetry_space_group_name_H-M   'P 1'
_cell_length_a   7.35764627
_cell_length_b   7.41671968
_cell_length_c   7.41672000
_cell_angle_alpha   59.99999856
_cell_angle_beta   59.73404917
_cell_angle_gamma   59.73404756
_symmetry_Int_Tables_number   1
_chemical_formula_structural   SrBi3(Ir2O7)2
_chemical_formula_sum   'Sr1 Bi3 Ir4 O14'
_cell_volume   285.02969083
_cell_formula_units_Z   1
loop_
 _symmetry_equiv_pos_site_id
 _symmetry_equiv_pos_as_xyz
  1  'x, y, z'
loop_
 _atom_site_type_symbol
 _atom_site_label
 _atom_site_symmetry_multiplicity
 _atom_site_fract_x
 _atom_site_fract_y
 _atom_site_fract_z
 _atom_site_occupancy
  Sr  Sr0  1  0.625000  0.125000  0.125000  1
  Bi  Bi1  1  0.125000  0.625000  0.125000  1
  Bi  Bi2  1  0.125000  0.125000  0.625000  1
  Bi  Bi3  1  0.125000  0.125000  0.125000  1
  Ir  Ir4  1  0.125000  0.625000  0.625000  1
  Ir  Ir5  1  0.625000  0.125000  0.625000  1
  Ir  Ir6  1  0.625000  0.625000  0.125000  1
  Ir  Ir7  1  0.625000  0.625000  0.625000  1
  O  O8  1  0.709629  0.695481  0.297445  1
  O  O9  1  0.293993  0.297297  0.704355  1
  O  O10  1  0.709629  0.297445  0.695481  1
  O  O11  1  0.293993  0.704355  0.297297  1
  O  O12  1  0.293993  0.704355  0.704355  1
  O  O13  1  0.709629  0.297445  0.297445  1
  O  O14  1  0.540371  0.554519  0.952555  1
  O  O15  1  0.956007  0.952703  0.545645  1
  O  O16  1  0.540371  0.952555  0.554519  1
  O  O17  1  0.956007  0.545645  0.952703  1
  O  O18  1  0.956007  0.545645  0.545645  1
  O  O19  1  0.540371  0.952555  0.952555  1
  O  O20  1  0.233967  0.255344  0.255344  1
  O  O21  1  0.016033  0.994656  0.994656  1
