# generated using pymatgen
data_PrTcI18
_symmetry_space_group_name_H-M   'P 1'
_cell_length_a   10.36157378
_cell_length_b   10.36157353
_cell_length_c   10.36157535
_cell_angle_alpha   92.95016207
_cell_angle_beta   92.95017071
_cell_angle_gamma   92.95017616
_symmetry_Int_Tables_number   1
_chemical_formula_structural   PrTcI18
_chemical_formula_sum   'Pr1 Tc1 I18'
_cell_volume   1107.86040743
_cell_formula_units_Z   1
loop_
 _symmetry_equiv_pos_site_id
 _symmetry_equiv_pos_as_xyz
  1  'x, y, z'
loop_
 _atom_site_type_symbol
 _atom_site_label
 _atom_site_symmetry_multiplicity
 _atom_site_fract_x
 _atom_site_fract_y
 _atom_site_fract_z
 _atom_site_occupancy
  Pr  Pr0  1  0.000000  0.000000  0.000000  1
  Tc  Tc1  1  0.500000  0.500000  0.500000  1
  I  I2  1  0.728928  0.137769  0.597954  1
  I  I3  1  0.975858  0.033935  0.698537  1
  I  I4  1  0.597954  0.728928  0.137769  1
  I  I5  1  0.966065  0.301463  0.024142  1
  I  I6  1  0.698537  0.975858  0.033935  1
  I  I7  1  0.033935  0.698537  0.975858  1
  I  I8  1  0.024142  0.966065  0.301463  1
  I  I9  1  0.862231  0.402046  0.271072  1
  I  I10  1  0.301463  0.024142  0.966065  1
  I  I11  1  0.271072  0.862231  0.402046  1
  I  I12  1  0.137769  0.597954  0.728928  1
  I  I13  1  0.402046  0.271072  0.862231  1
  I  I14  1  0.763601  0.523272  0.504823  1
  I  I15  1  0.523272  0.504823  0.763601  1
  I  I16  1  0.236399  0.476728  0.495177  1
  I  I17  1  0.476728  0.495177  0.236399  1
  I  I18  1  0.504823  0.763601  0.523272  1
  I  I19  1  0.495177  0.236399  0.476728  1
