# generated using pymatgen
data_Ce3Ho5(ReB6)4
_symmetry_space_group_name_H-M   'P 1'
_cell_length_a   3.71251800
_cell_length_b   9.18716685
_cell_length_c   11.57416634
_cell_angle_alpha   90.07286283
_cell_angle_beta   90.00000000
_cell_angle_gamma   90.00000000
_symmetry_Int_Tables_number   1
_chemical_formula_structural   Ce3Ho5(ReB6)4
_chemical_formula_sum   'Ce3 Ho5 Re4 B24'
_cell_volume   394.76581763
_cell_formula_units_Z   1
loop_
 _symmetry_equiv_pos_site_id
 _symmetry_equiv_pos_as_xyz
  1  'x, y, z'
loop_
 _atom_site_type_symbol
 _atom_site_label
 _atom_site_symmetry_multiplicity
 _atom_site_fract_x
 _atom_site_fract_y
 _atom_site_fract_z
 _atom_site_occupancy
  Ce  Ce0  1  0.000000  0.321602  0.414470  1
  Ce  Ce1  1  0.000000  0.678046  0.586322  1
  Ce  Ce2  1  0.000000  0.823590  0.085503  1
  Ho  Ho3  1  0.000000  0.177469  0.913905  1
  Ho  Ho4  1  0.000000  0.944416  0.372398  1
  Ho  Ho5  1  0.000000  0.056369  0.628501  1
  Ho  Ho6  1  0.000000  0.442772  0.127753  1
  Ho  Ho7  1  0.000000  0.556018  0.871764  1
  Re  Re8  1  0.000000  0.638627  0.320768  1
  Re  Re9  1  0.000000  0.362312  0.678487  1
  Re  Re10  1  0.000000  0.138566  0.179291  1
  Re  Re11  1  0.000000  0.861010  0.821061  1
  B  B12  1  0.500000  0.554509  0.431548  1
  B  B13  1  0.500000  0.445400  0.568527  1
  B  B14  1  0.500000  0.054323  0.067209  1
  B  B15  1  0.500000  0.946357  0.932299  1
  B  B16  1  0.500000  0.749141  0.418178  1
  B  B17  1  0.500000  0.250516  0.582384  1
  B  B18  1  0.500000  0.248810  0.080581  1
  B  B19  1  0.500000  0.751562  0.918132  1
  B  B20  1  0.500000  0.791476  0.265709  1
  B  B21  1  0.500000  0.207785  0.734908  1
  B  B22  1  0.500000  0.291200  0.233354  1
  B  B23  1  0.500000  0.708798  0.766097  1
  B  B24  1  0.500000  0.630997  0.185576  1
  B  B25  1  0.500000  0.368264  0.815007  1
  B  B26  1  0.500000  0.131310  0.313932  1
  B  B27  1  0.500000  0.869426  0.686303  1
  B  B28  1  0.500000  0.983864  0.212151  1
  B  B29  1  0.500000  0.017855  0.787702  1
  B  B30  1  0.500000  0.483365  0.286938  1
  B  B31  1  0.500000  0.516182  0.713317  1
  B  B32  1  0.500000  0.602403  0.028451  1
  B  B33  1  0.500000  0.395548  0.970759  1
  B  B34  1  0.500000  0.105073  0.471203  1
  B  B35  1  0.500000  0.895037  0.529515  1
