# generated using pymatgen
data_Er5LuAl7Cu16
_symmetry_space_group_name_H-M   'P 1'
_cell_length_a   8.68955501
_cell_length_b   8.68796557
_cell_length_c   8.69221300
_cell_angle_alpha   60.01303452
_cell_angle_beta   60.01873934
_cell_angle_gamma   60.04770100
_symmetry_Int_Tables_number   1
_chemical_formula_structural   Er5LuAl7Cu16
_chemical_formula_sum   'Er5 Lu1 Al7 Cu16'
_cell_volume   464.29245685
_cell_formula_units_Z   1
loop_
 _symmetry_equiv_pos_site_id
 _symmetry_equiv_pos_as_xyz
  1  'x, y, z'
loop_
 _atom_site_type_symbol
 _atom_site_label
 _atom_site_symmetry_multiplicity
 _atom_site_fract_x
 _atom_site_fract_y
 _atom_site_fract_z
 _atom_site_occupancy
  Er  Er0  1  0.288218  0.711918  0.288000  1
  Er  Er1  1  0.711621  0.288430  0.288273  1
  Er  Er2  1  0.288372  0.288441  0.711677  1
  Er  Er3  1  0.711902  0.288243  0.711658  1
  Er  Er4  1  0.288436  0.711719  0.711486  1
  Lu  Lu5  1  0.711872  0.711765  0.288215  1
  Al  Al6  1  0.999521  0.999459  0.000692  1
  Al  Al7  1  0.000091  0.000049  0.500104  1
  Al  Al8  1  0.500193  0.999738  0.499797  1
  Al  Al9  1  0.999770  0.500133  0.499817  1
  Al  Al10  1  0.500076  0.500028  0.999822  1
  Al  Al11  1  0.999569  0.500143  0.000338  1
  Al  Al12  1  0.500018  0.999714  0.000306  1
  Cu  Cu13  1  0.878488  0.878737  0.364754  1
  Cu  Cu14  1  0.878986  0.363280  0.878845  1
  Cu  Cu15  1  0.363538  0.879028  0.878499  1
  Cu  Cu16  1  0.878440  0.878585  0.878465  1
  Cu  Cu17  1  0.121636  0.121152  0.636507  1
  Cu  Cu18  1  0.121629  0.635864  0.120798  1
  Cu  Cu19  1  0.635722  0.121466  0.121218  1
  Cu  Cu20  1  0.120924  0.121479  0.121506  1
  Cu  Cu21  1  0.672774  0.672853  0.981734  1
  Cu  Cu22  1  0.672700  0.981729  0.672843  1
  Cu  Cu23  1  0.981991  0.672536  0.672796  1
  Cu  Cu24  1  0.673049  0.672778  0.672396  1
  Cu  Cu25  1  0.327139  0.327294  0.018158  1
  Cu  Cu26  1  0.327752  0.018346  0.326992  1
  Cu  Cu27  1  0.018288  0.327696  0.327174  1
  Cu  Cu28  1  0.327287  0.327398  0.327130  1
