# generated using pymatgen
data_LaPr2Si5AsPd20
_symmetry_space_group_name_H-M   'P 1'
_cell_length_a   8.80707698
_cell_length_b   8.84440910
_cell_length_c   8.84440911
_cell_angle_alpha   59.72854685
_cell_angle_beta   60.13952303
_cell_angle_gamma   60.13952893
_symmetry_Int_Tables_number   1
_chemical_formula_structural   LaPr2Si5AsPd20
_chemical_formula_sum   'La1 Pr2 Si5 As1 Pd20'
_cell_volume   487.15204013
_cell_formula_units_Z   1
loop_
 _symmetry_equiv_pos_site_id
 _symmetry_equiv_pos_as_xyz
  1  'x, y, z'
loop_
 _atom_site_type_symbol
 _atom_site_label
 _atom_site_symmetry_multiplicity
 _atom_site_fract_x
 _atom_site_fract_y
 _atom_site_fract_z
 _atom_site_occupancy
  La  La0  1  0.249806  0.250194  0.250194  1
  Pr  Pr1  1  0.749838  0.750162  0.750162  1
  Pr  Pr2  1  0.000414  0.999586  0.999586  1
  Si  Si3  1  0.267639  0.732361  0.732361  1
  Si  Si4  1  0.266800  0.733160  0.267264  1
  Si  Si5  1  0.732776  0.267264  0.733160  1
  Si  Si6  1  0.266800  0.267264  0.733160  1
  Si  Si7  1  0.732776  0.733160  0.267264  1
  As  As8  1  0.735568  0.264432  0.264432  1
  Pd  Pd9  1  0.379593  0.388374  0.388374  1
  Pd  Pd10  1  0.613578  0.614983  0.614983  1
  Pd  Pd11  1  0.384973  0.386356  0.843699  1
  Pd  Pd12  1  0.384973  0.843699  0.386356  1
  Pd  Pd13  1  0.611598  0.620332  0.156469  1
  Pd  Pd14  1  0.611598  0.156469  0.620332  1
  Pd  Pd15  1  0.843661  0.388374  0.388374  1
  Pd  Pd16  1  0.156453  0.614983  0.614983  1
  Pd  Pd17  1  0.348439  0.998743  0.998743  1
  Pd  Pd18  1  0.654077  0.998743  0.998743  1
  Pd  Pd19  1  0.001128  0.346042  0.651701  1
  Pd  Pd20  1  0.001128  0.651701  0.346042  1
  Pd  Pd21  1  0.007015  0.349614  0.992837  1
  Pd  Pd22  1  0.650534  0.992837  0.349614  1
  Pd  Pd23  1  0.999531  0.654016  0.000342  1
  Pd  Pd24  1  0.346111  0.000342  0.654016  1
  Pd  Pd25  1  0.007015  0.992837  0.349614  1
  Pd  Pd26  1  0.999531  0.000342  0.654016  1
  Pd  Pd27  1  0.650534  0.349614  0.992837  1
  Pd  Pd28  1  0.346111  0.654016  0.000342  1
