# generated using pymatgen
data_Ca3Zr5(B6Os)4
_symmetry_space_group_name_H-M   'P 1'
_cell_length_a   3.53734400
_cell_length_b   8.98260624
_cell_length_c   11.34723300
_cell_angle_alpha   90.01312063
_cell_angle_beta   90.00000000
_cell_angle_gamma   90.00000000
_symmetry_Int_Tables_number   1
_chemical_formula_structural   Ca3Zr5(B6Os)4
_chemical_formula_sum   'Ca3 Zr5 B24 Os4'
_cell_volume   360.55342020
_cell_formula_units_Z   1
loop_
 _symmetry_equiv_pos_site_id
 _symmetry_equiv_pos_as_xyz
  1  'x, y, z'
loop_
 _atom_site_type_symbol
 _atom_site_label
 _atom_site_symmetry_multiplicity
 _atom_site_fract_x
 _atom_site_fract_y
 _atom_site_fract_z
 _atom_site_occupancy
  Ca  Ca0  1  0.000000  0.322159  0.414150  1
  Ca  Ca1  1  0.000000  0.677847  0.586499  1
  Ca  Ca2  1  0.000000  0.821968  0.086122  1
  Zr  Zr3  1  0.000000  0.180801  0.912807  1
  Zr  Zr4  1  0.000000  0.944188  0.373609  1
  Zr  Zr5  1  0.000000  0.054900  0.626274  1
  Zr  Zr6  1  0.000000  0.445223  0.125906  1
  Zr  Zr7  1  0.000000  0.556143  0.874719  1
  B  B8  1  0.500000  0.553099  0.433718  1
  B  B9  1  0.500000  0.445556  0.568034  1
  B  B10  1  0.500000  0.053516  0.064242  1
  B  B11  1  0.500000  0.947826  0.934166  1
  B  B12  1  0.500000  0.751339  0.417788  1
  B  B13  1  0.500000  0.247769  0.582331  1
  B  B14  1  0.500000  0.251072  0.079199  1
  B  B15  1  0.500000  0.748276  0.918430  1
  B  B16  1  0.500000  0.794207  0.263233  1
  B  B17  1  0.500000  0.204381  0.738280  1
  B  B18  1  0.500000  0.293987  0.235025  1
  B  B19  1  0.500000  0.706608  0.763971  1
  B  B20  1  0.500000  0.630128  0.183099  1
  B  B21  1  0.500000  0.368400  0.818794  1
  B  B22  1  0.500000  0.130623  0.315536  1
  B  B23  1  0.500000  0.869849  0.683160  1
  B  B24  1  0.500000  0.982086  0.211339  1
  B  B25  1  0.500000  0.019468  0.788529  1
  B  B26  1  0.500000  0.481753  0.287482  1
  B  B27  1  0.500000  0.518229  0.713427  1
  B  B28  1  0.500000  0.600542  0.027048  1
  B  B29  1  0.500000  0.395528  0.971960  1
  B  B30  1  0.500000  0.101440  0.472710  1
  B  B31  1  0.500000  0.899397  0.527093  1
  Os  Os32  1  0.000000  0.640932  0.318123  1
  Os  Os33  1  0.000000  0.357095  0.684673  1
  Os  Os34  1  0.000000  0.141202  0.177251  1
  Os  Os35  1  0.000000  0.862464  0.821273  1
