# generated using pymatgen
data_K6ScAsF12
_symmetry_space_group_name_H-M   'P 1'
_cell_length_a   6.48543806
_cell_length_b   6.25234212
_cell_length_c   10.88128367
_cell_angle_alpha   55.18146356
_cell_angle_beta   90.09020253
_cell_angle_gamma   90.06047551
_symmetry_Int_Tables_number   1
_chemical_formula_structural   K6ScAsF12
_chemical_formula_sum   'K6 Sc1 As1 F12'
_cell_volume   362.23134484
_cell_formula_units_Z   1
loop_
 _symmetry_equiv_pos_site_id
 _symmetry_equiv_pos_as_xyz
  1  'x, y, z'
loop_
 _atom_site_type_symbol
 _atom_site_label
 _atom_site_symmetry_multiplicity
 _atom_site_fract_x
 _atom_site_fract_y
 _atom_site_fract_z
 _atom_site_occupancy
  K  K0  1  0.500000  0.500000  0.000000  1
  K  K1  1  0.000000  0.500000  0.500000  1
  K  K2  1  0.051850  0.734732  0.750814  1
  K  K3  1  0.948150  0.265268  0.249186  1
  K  K4  1  0.550854  0.268194  0.744665  1
  K  K5  1  0.449146  0.731806  0.255335  1
  Sc  Sc6  1  0.500000  0.000000  0.500000  1
  As  As7  1  0.000000  0.000000  0.000000  1
  F  F8  1  0.760996  0.775890  0.561783  1
  F  F9  1  0.239004  0.224110  0.438217  1
  F  F10  1  0.265988  0.228143  0.935707  1
  F  F11  1  0.734012  0.771857  0.064293  1
  F  F12  1  0.452931  0.885817  0.715002  1
  F  F13  1  0.547069  0.114183  0.284998  1
  F  F14  1  0.951004  0.115609  0.780837  1
  F  F15  1  0.048996  0.884391  0.219163  1
  F  F16  1  0.328842  0.689055  0.544381  1
  F  F17  1  0.671158  0.310945  0.455619  1
  F  F18  1  0.828159  0.318347  0.953403  1
  F  F19  1  0.171841  0.681653  0.046597  1
