# generated using pymatgen
data_LaYbCo5B4
_symmetry_space_group_name_H-M   'P 1'
_cell_length_a   7.09671068
_cell_length_b   5.90855898
_cell_length_c   5.35312453
_cell_angle_alpha   77.95229745
_cell_angle_beta   54.51216358
_cell_angle_gamma   47.53555234
_symmetry_Int_Tables_number   1
_chemical_formula_structural   LaYbCo5B4
_chemical_formula_sum   'La1 Yb1 Co5 B4'
_cell_volume   128.40187883
_cell_formula_units_Z   1
loop_
 _symmetry_equiv_pos_site_id
 _symmetry_equiv_pos_as_xyz
  1  'x, y, z'
loop_
 _atom_site_type_symbol
 _atom_site_label
 _atom_site_symmetry_multiplicity
 _atom_site_fract_x
 _atom_site_fract_y
 _atom_site_fract_z
 _atom_site_occupancy
  La  La0  1  0.859158  0.859156  0.140843  1
  Yb  Yb1  1  0.146981  0.146980  0.853020  1
  Co  Co2  1  0.501034  0.501036  0.998965  1
  Co  Co3  1  0.247072  0.247074  0.252927  1
  Co  Co4  1  0.001035  0.001035  0.498966  1
  Co  Co5  1  0.501225  0.501223  0.498776  1
  Co  Co6  1  0.747073  0.747074  0.752927  1
  B  B7  1  0.465798  0.788326  0.211673  1
  B  B8  1  0.207828  0.534469  0.465530  1
  B  B9  1  0.788328  0.465796  0.534203  1
  B  B10  1  0.534470  0.207827  0.792173  1
