# generated using pymatgen
data_Pt(SF9)2
_symmetry_space_group_name_H-M   'P 1'
_cell_length_a   8.83273673
_cell_length_b   8.83594855
_cell_length_c   5.22796334
_cell_angle_alpha   85.61335015
_cell_angle_beta   85.54364978
_cell_angle_gamma   60.95478201
_symmetry_Int_Tables_number   1
_chemical_formula_structural   Pt(SF9)2
_chemical_formula_sum   'Pt1 S2 F18'
_cell_volume   355.27546471
_cell_formula_units_Z   1
loop_
 _symmetry_equiv_pos_site_id
 _symmetry_equiv_pos_as_xyz
  1  'x, y, z'
loop_
 _atom_site_type_symbol
 _atom_site_label
 _atom_site_symmetry_multiplicity
 _atom_site_fract_x
 _atom_site_fract_y
 _atom_site_fract_z
 _atom_site_occupancy
  Pt  Pt0  1  0.668431  0.668432  0.409572  1
  S  S1  1  0.331590  0.331564  0.590331  1
  S  S2  1  0.999991  0.000004  0.999888  1
  F  F3  1  0.258972  0.511344  0.426373  1
  F  F4  1  0.936064  0.936051  0.259511  1
  F  F5  1  0.063943  0.063945  0.740564  1
  F  F6  1  0.814630  0.067034  0.884473  1
  F  F7  1  0.933004  0.185350  0.115621  1
  F  F8  1  0.185319  0.933009  0.115609  1
  F  F9  1  0.067045  0.814598  0.884465  1
  F  F10  1  0.454906  0.754479  0.604156  1
  F  F11  1  0.754428  0.455215  0.604070  1
  F  F12  1  0.258425  0.258413  0.389689  1
  F  F13  1  0.755759  0.755571  0.648574  1
  F  F14  1  0.404717  0.404742  0.791070  1
  F  F15  1  0.581081  0.581267  0.170698  1
  F  F16  1  0.404190  0.151845  0.754417  1
  F  F17  1  0.881888  0.582384  0.215011  1
  F  F18  1  0.582437  0.881579  0.215110  1
  F  F19  1  0.151857  0.404199  0.754426  1
  F  F20  1  0.511323  0.258975  0.426371  1
