# generated using pymatgen
data_Li4Y3Er(SiO4)4
_symmetry_space_group_name_H-M   'P 1'
_cell_length_a   5.44826351
_cell_length_b   10.93614318
_cell_length_c   6.23091490
_cell_angle_alpha   90.04618755
_cell_angle_beta   89.91138366
_cell_angle_gamma   113.63035342
_symmetry_Int_Tables_number   1
_chemical_formula_structural   Li4Y3Er(SiO4)4
_chemical_formula_sum   'Li4 Y3 Er1 Si4 O16'
_cell_volume   340.12645362
_cell_formula_units_Z   1
loop_
 _symmetry_equiv_pos_site_id
 _symmetry_equiv_pos_as_xyz
  1  'x, y, z'
loop_
 _atom_site_type_symbol
 _atom_site_label
 _atom_site_symmetry_multiplicity
 _atom_site_fract_x
 _atom_site_fract_y
 _atom_site_fract_z
 _atom_site_occupancy
  Li  Li0  1  0.919504  0.569832  0.133784  1
  Li  Li1  1  0.919443  0.070222  0.365780  1
  Li  Li2  1  0.081551  0.931147  0.633611  1
  Li  Li3  1  0.079128  0.429945  0.865977  1
  Y  Y4  1  0.445818  0.651758  0.382767  1
  Y  Y5  1  0.553105  0.346674  0.616503  1
  Y  Y6  1  0.554267  0.848236  0.883201  1
  Er  Er7  1  0.446629  0.152032  0.116495  1
  Si  Si8  1  0.096762  0.860508  0.151823  1
  Si  Si9  1  0.094650  0.357924  0.346453  1
  Si  Si10  1  0.904341  0.640577  0.651664  1
  Si  Si11  1  0.904769  0.140969  0.850570  1
  O  O12  1  0.770211  0.055374  0.072648  1
  O  O13  1  0.769908  0.777645  0.142094  1
  O  O14  1  0.184567  0.475286  0.162875  1
  O  O15  1  0.240513  0.752953  0.162085  1
  O  O16  1  0.241795  0.251677  0.334766  1
  O  O17  1  0.188045  0.977750  0.335663  1
  O  O18  1  0.767288  0.274879  0.356116  1
  O  O19  1  0.773576  0.554911  0.428733  1
  O  O20  1  0.223794  0.442697  0.570710  1
  O  O21  1  0.231129  0.723253  0.640977  1
  O  O22  1  0.816640  0.025192  0.664331  1
  O  O23  1  0.760048  0.747791  0.661948  1
  O  O24  1  0.758715  0.247619  0.840335  1
  O  O25  1  0.814659  0.524216  0.836673  1
  O  O26  1  0.232015  0.222591  0.862441  1
  O  O27  1  0.227130  0.946341  0.928975  1
