# generated using pymatgen
data_Y15TmMgAg3Rh4
_symmetry_space_group_name_H-M   'P 1'
_cell_length_a   9.60376602
_cell_length_b   9.63187867
_cell_length_c   9.63184011
_cell_angle_alpha   59.99378145
_cell_angle_beta   59.91636251
_cell_angle_gamma   59.91588742
_symmetry_Int_Tables_number   1
_chemical_formula_structural   Y15TmMgAg3Rh4
_chemical_formula_sum   'Y15 Tm1 Mg1 Ag3 Rh4'
_cell_volume   629.17973716
_cell_formula_units_Z   1
loop_
 _symmetry_equiv_pos_site_id
 _symmetry_equiv_pos_as_xyz
  1  'x, y, z'
loop_
 _atom_site_type_symbol
 _atom_site_label
 _atom_site_symmetry_multiplicity
 _atom_site_fract_x
 _atom_site_fract_y
 _atom_site_fract_z
 _atom_site_occupancy
  Y  Y0  1  0.599733  0.598933  0.203987  1
  Y  Y1  1  0.599723  0.203997  0.598933  1
  Y  Y2  1  0.185164  0.605043  0.605044  1
  Y  Y3  1  0.058359  0.439624  0.439625  1
  Y  Y4  1  0.435546  0.062997  0.062993  1
  Y  Y5  1  0.437144  0.061971  0.437049  1
  Y  Y6  1  0.059474  0.438344  0.060851  1
  Y  Y7  1  0.437142  0.437051  0.061967  1
  Y  Y8  1  0.059473  0.060852  0.438344  1
  Y  Y9  1  0.186139  0.812752  0.812754  1
  Y  Y10  1  0.816010  0.184920  0.184924  1
  Y  Y11  1  0.813685  0.187232  0.814327  1
  Y  Y12  1  0.184929  0.813700  0.185541  1
  Y  Y13  1  0.813679  0.814328  0.187236  1
  Y  Y14  1  0.184924  0.185544  0.813707  1
  Tm  Tm15  1  0.599961  0.597369  0.597365  1
  Mg  Mg16  1  0.541023  0.819039  0.819046  1
  Ag  Ag17  1  0.831464  0.835644  0.835635  1
  Ag  Ag18  1  0.832121  0.834755  0.498598  1
  Ag  Ag19  1  0.832119  0.498590  0.834763  1
  Rh  Rh20  1  0.387620  0.394579  0.394551  1
  Rh  Rh21  1  0.391508  0.398499  0.819751  1
  Rh  Rh22  1  0.391522  0.819728  0.398490  1
  Rh  Rh23  1  0.821540  0.394512  0.394519  1
