# generated using pymatgen
data_ErTh7H24
_symmetry_space_group_name_H-M   'P 1'
_cell_length_a   6.85079600
_cell_length_b   6.85079600
_cell_length_c   6.85079600
_cell_angle_alpha   90.00000000
_cell_angle_beta   90.00000000
_cell_angle_gamma   90.00000000
_symmetry_Int_Tables_number   1
_chemical_formula_structural   ErTh7H24
_chemical_formula_sum   'Er1 Th7 H24'
_cell_volume   321.53118895
_cell_formula_units_Z   1
loop_
 _symmetry_equiv_pos_site_id
 _symmetry_equiv_pos_as_xyz
  1  'x, y, z'
loop_
 _atom_site_type_symbol
 _atom_site_label
 _atom_site_symmetry_multiplicity
 _atom_site_fract_x
 _atom_site_fract_y
 _atom_site_fract_z
 _atom_site_occupancy
  Er  Er0  1  0.000000  0.000000  0.000000  1
  Th  Th1  1  0.500000  0.500000  0.500000  1
  Th  Th2  1  0.245891  0.000000  0.500000  1
  Th  Th3  1  0.754109  0.000000  0.500000  1
  Th  Th4  1  0.000000  0.500000  0.245891  1
  Th  Th5  1  0.000000  0.500000  0.754109  1
  Th  Th6  1  0.500000  0.754109  0.000000  1
  Th  Th7  1  0.500000  0.245891  0.000000  1
  H  H8  1  0.000000  0.152519  0.300694  1
  H  H9  1  0.500000  0.194896  0.655418  1
  H  H10  1  0.500000  0.805104  0.344582  1
  H  H11  1  0.805104  0.655418  0.500000  1
  H  H12  1  0.194896  0.655418  0.500000  1
  H  H13  1  0.344582  0.500000  0.805104  1
  H  H14  1  0.655418  0.500000  0.805104  1
  H  H15  1  0.300694  0.000000  0.152519  1
  H  H16  1  0.152519  0.300694  0.000000  1
  H  H17  1  0.847481  0.699306  0.000000  1
  H  H18  1  0.300694  0.000000  0.847481  1
  H  H19  1  0.847481  0.300694  0.000000  1
  H  H20  1  0.699306  0.000000  0.152519  1
  H  H21  1  0.699306  0.000000  0.847481  1
  H  H22  1  0.152519  0.699306  0.000000  1
  H  H23  1  0.000000  0.847481  0.699306  1
  H  H24  1  0.000000  0.152519  0.699306  1
  H  H25  1  0.000000  0.847481  0.300694  1
  H  H26  1  0.655418  0.500000  0.194896  1
  H  H27  1  0.344582  0.500000  0.194896  1
  H  H28  1  0.805104  0.344582  0.500000  1
  H  H29  1  0.194896  0.344582  0.500000  1
  H  H30  1  0.500000  0.805104  0.655418  1
  H  H31  1  0.500000  0.194896  0.344582  1
