# generated using pymatgen
data_Mg2PdO4
_symmetry_space_group_name_H-M   'P 1'
_cell_length_a   6.08727009
_cell_length_b   6.08727024
_cell_length_c   6.08727010
_cell_angle_alpha   121.06892184
_cell_angle_beta   119.63502660
_cell_angle_gamma   89.39596611
_symmetry_Int_Tables_number   1
_chemical_formula_structural   Mg2PdO4
_chemical_formula_sum   'Mg4 Pd2 O8'
_cell_volume   158.60752908
_cell_formula_units_Z   2
loop_
 _symmetry_equiv_pos_site_id
 _symmetry_equiv_pos_as_xyz
  1  'x, y, z'
loop_
 _atom_site_type_symbol
 _atom_site_label
 _atom_site_symmetry_multiplicity
 _atom_site_fract_x
 _atom_site_fract_y
 _atom_site_fract_z
 _atom_site_occupancy
  Mg  Mg0  1  0.893842  0.143842  0.750000  1
  Mg  Mg1  1  0.500000  0.500000  0.500000  1
  Mg  Mg2  1  0.500000  0.000000  0.000000  1
  Mg  Mg3  1  0.106158  0.856158  0.250000  1
  Pd  Pd4  1  0.000000  0.500000  0.500000  1
  Pd  Pd5  1  0.500000  0.500000  0.000000  1
  O  O6  1  0.746301  0.268448  0.022147  1
  O  O7  1  0.746301  0.724154  0.477853  1
  O  O8  1  0.283471  0.264365  0.019107  1
  O  O9  1  0.745258  0.264365  0.480893  1
  O  O10  1  0.254742  0.735635  0.519107  1
  O  O11  1  0.253699  0.275846  0.522147  1
  O  O12  1  0.716529  0.735635  0.980893  1
  O  O13  1  0.253699  0.731552  0.977853  1
