# generated using pymatgen
data_Pr3(ZnPt)4
_symmetry_space_group_name_H-M   'P 1'
_cell_length_a   8.41443237
_cell_length_b   8.41443333
_cell_length_c   8.41443212
_cell_angle_alpha   151.28105671
_cell_angle_beta   127.27772442
_cell_angle_gamma   61.14030265
_symmetry_Int_Tables_number   1
_chemical_formula_structural   Pr3(ZnPt)4
_chemical_formula_sum   'Pr3 Zn4 Pt4'
_cell_volume   225.94932160
_cell_formula_units_Z   1
loop_
 _symmetry_equiv_pos_site_id
 _symmetry_equiv_pos_as_xyz
  1  'x, y, z'
loop_
 _atom_site_type_symbol
 _atom_site_label
 _atom_site_symmetry_multiplicity
 _atom_site_fract_x
 _atom_site_fract_y
 _atom_site_fract_z
 _atom_site_occupancy
  Pr  Pr0  1  0.500000  0.000000  0.500000  1
  Pr  Pr1  1  0.871769  0.871769  0.000000  1
  Pr  Pr2  1  0.128231  0.128231  0.000000  1
  Zn  Zn3  1  0.864241  0.671963  0.192278  1
  Zn  Zn4  1  0.479685  0.671963  0.807722  1
  Zn  Zn5  1  0.520315  0.328037  0.192278  1
  Zn  Zn6  1  0.135759  0.328037  0.807722  1
  Pt  Pt7  1  0.282139  0.782139  0.500000  1
  Pt  Pt8  1  0.717861  0.217861  0.500000  1
  Pt  Pt9  1  0.196918  0.500000  0.696918  1
  Pt  Pt10  1  0.803082  0.500000  0.303082  1
