# generated using pymatgen
data_Ta2PRu5
_symmetry_space_group_name_H-M   'P 1'
_cell_length_a   4.05296900
_cell_length_b   5.45056700
_cell_length_c   10.53569900
_cell_angle_alpha   90.00000000
_cell_angle_beta   90.00000000
_cell_angle_gamma   90.00000000
_symmetry_Int_Tables_number   1
_chemical_formula_structural   Ta2PRu5
_chemical_formula_sum   'Ta4 P2 Ru10'
_cell_volume   232.74390624
_cell_formula_units_Z   2
loop_
 _symmetry_equiv_pos_site_id
 _symmetry_equiv_pos_as_xyz
  1  'x, y, z'
loop_
 _atom_site_type_symbol
 _atom_site_label
 _atom_site_symmetry_multiplicity
 _atom_site_fract_x
 _atom_site_fract_y
 _atom_site_fract_z
 _atom_site_occupancy
  Ta  Ta0  1  0.500000  0.845133  0.356238  1
  Ta  Ta1  1  0.500000  0.154867  0.643762  1
  Ta  Ta2  1  0.500000  0.345133  0.143762  1
  Ta  Ta3  1  0.500000  0.654867  0.856238  1
  P  P4  1  0.000000  0.500000  0.500000  1
  P  P5  1  0.000000  0.000000  0.000000  1
  Ru  Ru6  1  0.000000  0.500000  0.000000  1
  Ru  Ru7  1  0.000000  0.000000  0.500000  1
  Ru  Ru8  1  0.000000  0.593257  0.257610  1
  Ru  Ru9  1  0.000000  0.406743  0.742390  1
  Ru  Ru10  1  0.000000  0.093257  0.242390  1
  Ru  Ru11  1  0.000000  0.906743  0.757610  1
  Ru  Ru12  1  0.500000  0.830697  0.102198  1
  Ru  Ru13  1  0.500000  0.169303  0.897802  1
  Ru  Ru14  1  0.500000  0.330697  0.397802  1
  Ru  Ru15  1  0.500000  0.669303  0.602198  1
