# generated using pymatgen
data_Ba3Mn4(NiP3)2
_symmetry_space_group_name_H-M   'P 1'
_cell_length_a   8.73399671
_cell_length_b   8.74368353
_cell_length_c   8.74368463
_cell_angle_alpha   154.24722154
_cell_angle_beta   88.40380589
_cell_angle_gamma   97.31291856
_symmetry_Int_Tables_number   1
_chemical_formula_structural   Ba3Mn4(NiP3)2
_chemical_formula_sum   'Ba3 Mn4 Ni2 P6'
_cell_volume   281.86610396
_cell_formula_units_Z   1
loop_
 _symmetry_equiv_pos_site_id
 _symmetry_equiv_pos_as_xyz
  1  'x, y, z'
loop_
 _atom_site_type_symbol
 _atom_site_label
 _atom_site_symmetry_multiplicity
 _atom_site_fract_x
 _atom_site_fract_y
 _atom_site_fract_z
 _atom_site_occupancy
  Ba  Ba0  1  0.332823  0.332781  0.000043  1
  Ba  Ba1  1  0.666642  0.666664  0.999979  1
  Ba  Ba2  1  0.000526  0.000528  0.999998  1
  Mn  Mn3  1  0.580952  0.830629  0.750322  1
  Mn  Mn4  1  0.253504  0.503020  0.750484  1
  Mn  Mn5  1  0.752537  0.502798  0.249739  1
  Mn  Mn6  1  0.079769  0.830354  0.249414  1
  Ni  Ni7  1  0.416138  0.166392  0.249747  1
  Ni  Ni8  1  0.917086  0.166812  0.750273  1
  P  P9  1  0.322230  0.666515  0.655716  1
  P  P10  1  0.679846  0.337035  0.342810  1
  P  P11  1  0.994255  0.337072  0.657183  1
  P  P12  1  0.338962  0.996171  0.342791  1
  P  P13  1  0.011180  0.666896  0.344284  1
  P  P14  1  0.653548  0.996334  0.657215  1
