# generated using pymatgen
data_NaNdPt4
_symmetry_space_group_name_H-M   'P 1'
_cell_length_a   5.44250201
_cell_length_b   5.44250178
_cell_length_c   5.44250300
_cell_angle_alpha   59.99999864
_cell_angle_beta   60.00000004
_cell_angle_gamma   59.99999863
_symmetry_Int_Tables_number   1
_chemical_formula_structural   NaNdPt4
_chemical_formula_sum   'Na1 Nd1 Pt4'
_cell_volume   113.99369936
_cell_formula_units_Z   1
loop_
 _symmetry_equiv_pos_site_id
 _symmetry_equiv_pos_as_xyz
  1  'x, y, z'
loop_
 _atom_site_type_symbol
 _atom_site_label
 _atom_site_symmetry_multiplicity
 _atom_site_fract_x
 _atom_site_fract_y
 _atom_site_fract_z
 _atom_site_occupancy
  Na  Na0  1  0.750000  0.750000  0.750000  1
  Nd  Nd1  1  0.500000  0.500000  0.500000  1
  Pt  Pt2  1  0.124617  0.626148  0.124617  1
  Pt  Pt3  1  0.124617  0.124617  0.626148  1
  Pt  Pt4  1  0.626148  0.124617  0.124617  1
  Pt  Pt5  1  0.124617  0.124617  0.124617  1
