# generated using pymatgen
data_Rb8Hf4Zr2BI20
_symmetry_space_group_name_H-M   'P 1'
_cell_length_a   12.89294817
_cell_length_b   12.88400171
_cell_length_c   12.88400111
_cell_angle_alpha   60.04596370
_cell_angle_beta   59.97707060
_cell_angle_gamma   59.97706663
_symmetry_Int_Tables_number   1
_chemical_formula_structural   Rb8Hf4Zr2BI20
_chemical_formula_sum   'Rb8 Hf4 Zr2 B1 I20'
_cell_volume   1513.34755158
_cell_formula_units_Z   1
loop_
 _symmetry_equiv_pos_site_id
 _symmetry_equiv_pos_as_xyz
  1  'x, y, z'
loop_
 _atom_site_type_symbol
 _atom_site_label
 _atom_site_symmetry_multiplicity
 _atom_site_fract_x
 _atom_site_fract_y
 _atom_site_fract_z
 _atom_site_occupancy
  Rb  Rb0  1  0.361886  0.361516  0.361516  1
  Rb  Rb1  1  0.638114  0.638484  0.638484  1
  Rb  Rb2  1  0.361516  0.361886  0.915083  1
  Rb  Rb3  1  0.361516  0.915083  0.361886  1
  Rb  Rb4  1  0.638484  0.638114  0.084917  1
  Rb  Rb5  1  0.638484  0.084917  0.638114  1
  Rb  Rb6  1  0.915083  0.361516  0.361516  1
  Rb  Rb7  1  0.084917  0.638484  0.638484  1
  Hf  Hf8  1  0.127822  0.872178  0.127822  1
  Hf  Hf9  1  0.872178  0.127822  0.872178  1
  Hf  Hf10  1  0.127822  0.127822  0.872178  1
  Hf  Hf11  1  0.872178  0.872178  0.127822  1
  Zr  Zr12  1  0.870655  0.129345  0.129345  1
  Zr  Zr13  1  0.129345  0.870655  0.870655  1
  B  B14  1  0.000000  0.000000  0.000000  1
  I  I15  1  0.313912  0.000000  0.000000  1
  I  I16  1  0.686088  0.000000  0.000000  1
  I  I17  1  0.000000  0.313912  0.686088  1
  I  I18  1  0.000000  0.686088  0.313912  1
  I  I19  1  0.001996  0.315909  0.998004  1
  I  I20  1  0.684091  0.998004  0.315909  1
  I  I21  1  0.998004  0.684091  0.001996  1
  I  I22  1  0.315909  0.001996  0.684091  1
  I  I23  1  0.001996  0.998004  0.315909  1
  I  I24  1  0.998004  0.001996  0.684091  1
  I  I25  1  0.684091  0.315909  0.998004  1
  I  I26  1  0.315909  0.684091  0.001996  1
  I  I27  1  0.691705  0.308296  0.308296  1
  I  I28  1  0.308295  0.691704  0.691704  1
  I  I29  1  0.307315  0.692685  0.307315  1
  I  I30  1  0.692685  0.307315  0.692685  1
  I  I31  1  0.307315  0.307315  0.692685  1
  I  I32  1  0.692685  0.692685  0.307315  1
  I  I33  1  0.250000  0.250000  0.250000  1
  I  I34  1  0.750000  0.750000  0.750000  1
