# generated using pymatgen
data_Ho3FeSi3Ru
_symmetry_space_group_name_H-M   'P 1'
_cell_length_a   5.68727511
_cell_length_b   5.68727439
_cell_length_c   13.64750601
_cell_angle_alpha   89.74552296
_cell_angle_beta   90.25447594
_cell_angle_gamma   137.51963604
_symmetry_Int_Tables_number   1
_chemical_formula_structural   Ho3FeSi3Ru
_chemical_formula_sum   'Ho6 Fe2 Si6 Ru2'
_cell_volume   298.11075441
_cell_formula_units_Z   2
loop_
 _symmetry_equiv_pos_site_id
 _symmetry_equiv_pos_as_xyz
  1  'x, y, z'
loop_
 _atom_site_type_symbol
 _atom_site_label
 _atom_site_symmetry_multiplicity
 _atom_site_fract_x
 _atom_site_fract_y
 _atom_site_fract_z
 _atom_site_occupancy
  Ho  Ho0  1  0.638669  0.361331  0.248316  1
  Ho  Ho1  1  0.361331  0.638669  0.751684  1
  Ho  Ho2  1  0.919975  0.080025  0.110107  1
  Ho  Ho3  1  0.080025  0.919975  0.889893  1
  Ho  Ho4  1  0.077423  0.922577  0.616495  1
  Ho  Ho5  1  0.922577  0.077423  0.383505  1
  Fe  Fe6  1  0.215069  0.784931  0.079498  1
  Fe  Fe7  1  0.784931  0.215069  0.920502  1
  Si  Si8  1  0.326623  0.673377  0.245366  1
  Si  Si9  1  0.673377  0.326623  0.754634  1
  Si  Si10  1  0.627283  0.372717  0.039505  1
  Si  Si11  1  0.372717  0.627283  0.960495  1
  Si  Si12  1  0.384147  0.615853  0.538517  1
  Si  Si13  1  0.615853  0.384147  0.461483  1
  Ru  Ru14  1  0.786814  0.213186  0.582603  1
  Ru  Ru15  1  0.213186  0.786814  0.417397  1
