# generated using pymatgen
data_Hf12FeTc5Ir6
_symmetry_space_group_name_H-M   'P 1'
_cell_length_a   4.60383600
_cell_length_b   6.48466000
_cell_length_c   13.89299800
_cell_angle_alpha   89.99997879
_cell_angle_beta   90.00260171
_cell_angle_gamma   90.00003012
_symmetry_Int_Tables_number   1
_chemical_formula_structural   Hf12FeTc5Ir6
_chemical_formula_sum   'Hf12 Fe1 Tc5 Ir6'
_cell_volume   414.76588496
_cell_formula_units_Z   1
loop_
 _symmetry_equiv_pos_site_id
 _symmetry_equiv_pos_as_xyz
  1  'x, y, z'
loop_
 _atom_site_type_symbol
 _atom_site_label
 _atom_site_symmetry_multiplicity
 _atom_site_fract_x
 _atom_site_fract_y
 _atom_site_fract_z
 _atom_site_occupancy
  Hf  Hf0  1  0.499992  0.248579  0.998456  1
  Hf  Hf1  1  0.499991  0.751423  0.998456  1
  Hf  Hf2  1  0.999827  0.250219  0.166549  1
  Hf  Hf3  1  0.999827  0.749781  0.166549  1
  Hf  Hf4  1  0.499836  0.249963  0.333334  1
  Hf  Hf5  1  0.499835  0.750036  0.333334  1
  Hf  Hf6  1  0.000003  0.250221  0.500119  1
  Hf  Hf7  1  0.000003  0.749779  0.500118  1
  Hf  Hf8  1  0.500171  0.248580  0.668212  1
  Hf  Hf9  1  0.500171  0.751420  0.668212  1
  Hf  Hf10  1  0.000159  0.247086  0.833334  1
  Hf  Hf11  1  0.000159  0.752915  0.833334  1
  Fe  Fe12  1  0.500235  0.000000  0.833318  1
  Tc  Tc13  1  0.000000  0.500000  0.999556  1
  Tc  Tc14  1  0.499814  0.000000  0.166662  1
  Tc  Tc15  1  0.999824  0.500000  0.333332  1
  Tc  Tc16  1  0.500007  0.000000  0.500008  1
  Tc  Tc17  1  0.000176  0.500000  0.667114  1
  Ir  Ir18  1  0.999966  0.000000  0.999951  1
  Ir  Ir19  1  0.499822  0.500000  0.166339  1
  Ir  Ir20  1  0.999826  0.000000  0.333335  1
  Ir  Ir21  1  0.500002  0.500000  0.500327  1
  Ir  Ir22  1  0.000189  0.000000  0.666718  1
  Ir  Ir23  1  0.500169  0.500000  0.833335  1
