# generated using pymatgen
data_SrYb4(MnN3)2
_symmetry_space_group_name_H-M   'P 1'
_cell_length_a   5.92932374
_cell_length_b   6.52444922
_cell_length_c   11.68566965
_cell_angle_alpha   89.99999969
_cell_angle_beta   103.44096647
_cell_angle_gamma   123.37969497
_symmetry_Int_Tables_number   1
_chemical_formula_structural   SrYb4(MnN3)2
_chemical_formula_sum   'Sr2 Yb8 Mn4 N12'
_cell_volume   362.57525703
_cell_formula_units_Z   2
loop_
 _symmetry_equiv_pos_site_id
 _symmetry_equiv_pos_as_xyz
  1  'x, y, z'
loop_
 _atom_site_type_symbol
 _atom_site_label
 _atom_site_symmetry_multiplicity
 _atom_site_fract_x
 _atom_site_fract_y
 _atom_site_fract_z
 _atom_site_occupancy
  Sr  Sr0  1  0.000000  0.391975  0.750000  1
  Sr  Sr1  1  0.000000  0.608025  0.250000  1
  Yb  Yb2  1  0.129056  0.812407  0.999483  1
  Yb  Yb3  1  0.870944  0.683350  0.500517  1
  Yb  Yb4  1  0.870944  0.187593  0.000517  1
  Yb  Yb5  1  0.129056  0.316650  0.499483  1
  Yb  Yb6  1  0.326686  0.055712  0.732228  1
  Yb  Yb7  1  0.673314  0.729027  0.767772  1
  Yb  Yb8  1  0.673314  0.944288  0.267772  1
  Yb  Yb9  1  0.326686  0.270973  0.232228  1
  Mn  Mn10  1  0.523206  0.858672  0.529374  1
  Mn  Mn11  1  0.476794  0.335467  0.970626  1
  Mn  Mn12  1  0.476794  0.141328  0.470626  1
  Mn  Mn13  1  0.523206  0.664533  0.029374  1
  N  N14  1  0.874263  0.986888  0.616540  1
  N  N15  1  0.125737  0.112626  0.883460  1
  N  N16  1  0.125737  0.013112  0.383460  1
  N  N17  1  0.874263  0.887374  0.116540  1
  N  N18  1  0.290087  0.702372  0.619013  1
  N  N19  1  0.709913  0.412285  0.880987  1
  N  N20  1  0.709913  0.297628  0.380987  1
  N  N21  1  0.290087  0.587715  0.119013  1
  N  N22  1  0.555612  0.337896  0.597873  1
  N  N23  1  0.444388  0.782284  0.902127  1
  N  N24  1  0.444388  0.662104  0.402127  1
  N  N25  1  0.555612  0.217716  0.097873  1
