# generated using pymatgen
data_HoHf4Pt15
_symmetry_space_group_name_H-M   'P 1'
_cell_length_a   4.04319700
_cell_length_b   4.04319700
_cell_length_c   20.32415900
_cell_angle_alpha   90.00000000
_cell_angle_beta   90.00000000
_cell_angle_gamma   90.00000000
_symmetry_Int_Tables_number   1
_chemical_formula_structural   HoHf4Pt15
_chemical_formula_sum   'Ho1 Hf4 Pt15'
_cell_volume   332.24801006
_cell_formula_units_Z   1
loop_
 _symmetry_equiv_pos_site_id
 _symmetry_equiv_pos_as_xyz
  1  'x, y, z'
loop_
 _atom_site_type_symbol
 _atom_site_label
 _atom_site_symmetry_multiplicity
 _atom_site_fract_x
 _atom_site_fract_y
 _atom_site_fract_z
 _atom_site_occupancy
  Ho  Ho0  1  0.000000  0.000000  0.000000  1
  Hf  Hf1  1  0.000000  0.000000  0.200444  1
  Hf  Hf2  1  0.000000  0.000000  0.400261  1
  Hf  Hf3  1  0.000000  0.000000  0.599739  1
  Hf  Hf4  1  0.000000  0.000000  0.799556  1
  Pt  Pt5  1  0.500000  0.500000  0.000000  1
  Pt  Pt6  1  0.500000  0.500000  0.203554  1
  Pt  Pt7  1  0.500000  0.500000  0.400927  1
  Pt  Pt8  1  0.500000  0.500000  0.599073  1
  Pt  Pt9  1  0.500000  0.500000  0.796446  1
  Pt  Pt10  1  0.500000  0.000000  0.105093  1
  Pt  Pt11  1  0.500000  0.000000  0.301910  1
  Pt  Pt12  1  0.500000  0.000000  0.500000  1
  Pt  Pt13  1  0.500000  0.000000  0.698090  1
  Pt  Pt14  1  0.500000  0.000000  0.894907  1
  Pt  Pt15  1  0.000000  0.500000  0.105093  1
  Pt  Pt16  1  0.000000  0.500000  0.301910  1
  Pt  Pt17  1  0.000000  0.500000  0.500000  1
  Pt  Pt18  1  0.000000  0.500000  0.698090  1
  Pt  Pt19  1  0.000000  0.500000  0.894907  1
