# generated using pymatgen
data_Ca5Yb2USb6
_symmetry_space_group_name_H-M   'P 1'
_cell_length_a   8.21825610
_cell_length_b   8.22020529
_cell_length_c   8.14092808
_cell_angle_alpha   109.26570868
_cell_angle_beta   109.27569840
_cell_angle_gamma   109.66157416
_symmetry_Int_Tables_number   1
_chemical_formula_structural   Ca5Yb2USb6
_chemical_formula_sum   'Ca5 Yb2 U1 Sb6'
_cell_volume   424.45668811
_cell_formula_units_Z   1
loop_
 _symmetry_equiv_pos_site_id
 _symmetry_equiv_pos_as_xyz
  1  'x, y, z'
loop_
 _atom_site_type_symbol
 _atom_site_label
 _atom_site_symmetry_multiplicity
 _atom_site_fract_x
 _atom_site_fract_y
 _atom_site_fract_z
 _atom_site_occupancy
  Ca  Ca0  1  0.648947  0.649676  0.650478  1
  Ca  Ca1  1  0.008134  0.363117  0.504644  1
  Ca  Ca2  1  0.355121  0.491711  0.997022  1
  Ca  Ca3  1  0.000764  0.851079  0.501516  1
  Ca  Ca4  1  0.850381  0.499230  0.000887  1
  Yb  Yb5  1  0.499972  0.000058  0.852507  1
  Yb  Yb6  1  0.137184  0.144627  0.141922  1
  U  U7  1  0.499390  0.000265  0.348726  1
  Sb  Sb8  1  0.867713  0.123143  0.740655  1
  Sb  Sb9  1  0.376736  0.244561  0.616929  1
  Sb  Sb10  1  0.133521  0.756902  0.887577  1
  Sb  Sb11  1  0.743914  0.877188  0.130812  1
  Sb  Sb12  1  0.255551  0.632139  0.372492  1
  Sb  Sb13  1  0.622672  0.366306  0.253833  1
