# generated using pymatgen
data_Tb14DyLu5Pb16
_symmetry_space_group_name_H-M   'P 1'
_cell_length_a   8.17806363
_cell_length_b   8.27000774
_cell_length_c   15.65207602
_cell_angle_alpha   89.99300960
_cell_angle_beta   89.99569766
_cell_angle_gamma   89.95518867
_symmetry_Int_Tables_number   1
_chemical_formula_structural   Tb14DyLu5Pb16
_chemical_formula_sum   'Tb14 Dy1 Lu5 Pb16'
_cell_volume   1058.59103799
_cell_formula_units_Z   1
loop_
 _symmetry_equiv_pos_site_id
 _symmetry_equiv_pos_as_xyz
  1  'x, y, z'
loop_
 _atom_site_type_symbol
 _atom_site_label
 _atom_site_symmetry_multiplicity
 _atom_site_fract_x
 _atom_site_fract_y
 _atom_site_fract_z
 _atom_site_occupancy
  Tb  Tb0  1  0.626943  0.157211  0.380287  1
  Tb  Tb1  1  0.126911  0.342800  0.119798  1
  Tb  Tb2  1  0.624885  0.158765  0.121377  1
  Tb  Tb3  1  0.124992  0.341180  0.378558  1
  Tb  Tb4  1  0.375255  0.842744  0.621212  1
  Tb  Tb5  1  0.875156  0.657351  0.878654  1
  Tb  Tb6  1  0.533475  0.323575  0.901108  1
  Tb  Tb7  1  0.033439  0.176649  0.598844  1
  Tb  Tb8  1  0.466249  0.676839  0.401753  1
  Tb  Tb9  1  0.966395  0.823277  0.098205  1
  Tb  Tb10  1  0.468944  0.678532  0.096978  1
  Tb  Tb11  1  0.968844  0.821335  0.403270  1
  Tb  Tb12  1  0.532756  0.325020  0.599715  1
  Tb  Tb13  1  0.032553  0.175160  0.900307  1
  Dy  Dy14  1  0.372519  0.843926  0.876414  1
  Lu  Lu15  1  0.872445  0.655929  0.623701  1
  Lu  Lu16  1  0.206133  0.505229  0.749791  1
  Lu  Lu17  1  0.706635  0.994531  0.749881  1
  Lu  Lu18  1  0.793711  0.495307  0.250756  1
  Lu  Lu19  1  0.293715  0.004798  0.249264  1
  Pb  Pb20  1  0.284018  0.033279  0.041998  1
  Pb  Pb21  1  0.784240  0.467220  0.458509  1
  Pb  Pb22  1  0.719188  0.961569  0.544891  1
  Pb  Pb23  1  0.218757  0.537514  0.955263  1
  Pb  Pb24  1  0.712502  0.964231  0.955685  1
  Pb  Pb25  1  0.211632  0.535968  0.544444  1
  Pb  Pb26  1  0.284067  0.034217  0.455864  1
  Pb  Pb27  1  0.784076  0.465774  0.044150  1
  Pb  Pb28  1  0.568854  0.625726  0.750254  1
  Pb  Pb29  1  0.067895  0.873860  0.749280  1
  Pb  Pb30  1  0.430984  0.375855  0.250639  1
  Pb  Pb31  1  0.930934  0.124115  0.249359  1
  Pb  Pb32  1  0.346054  0.156711  0.750190  1
  Pb  Pb33  1  0.846090  0.343814  0.749642  1
  Pb  Pb34  1  0.654350  0.843932  0.250146  1
  Pb  Pb35  1  0.154400  0.656057  0.249815  1
