# generated using pymatgen
data_Ho5Nb3Co16(SiP3)3
_symmetry_space_group_name_H-M   'P 1'
_cell_length_a   12.22398800
_cell_length_b   12.22398874
_cell_length_c   3.70619000
_cell_angle_alpha   90.00000000
_cell_angle_beta   90.00000000
_cell_angle_gamma   119.99999799
_symmetry_Int_Tables_number   1
_chemical_formula_structural   Ho5Nb3Co16(SiP3)3
_chemical_formula_sum   'Ho5 Nb3 Co16 Si3 P9'
_cell_volume   479.60552396
_cell_formula_units_Z   1
loop_
 _symmetry_equiv_pos_site_id
 _symmetry_equiv_pos_as_xyz
  1  'x, y, z'
loop_
 _atom_site_type_symbol
 _atom_site_label
 _atom_site_symmetry_multiplicity
 _atom_site_fract_x
 _atom_site_fract_y
 _atom_site_fract_z
 _atom_site_occupancy
  Ho  Ho0  1  0.816600  0.998837  0.500000  1
  Ho  Ho1  1  0.001163  0.817764  0.500000  1
  Ho  Ho2  1  0.182236  0.183400  0.500000  1
  Ho  Ho3  1  0.333333  0.666667  0.000000  1
  Ho  Ho4  1  0.666667  0.333333  0.000000  1
  Nb  Nb5  1  0.443588  0.002754  0.000000  1
  Nb  Nb6  1  0.997246  0.440834  0.000000  1
  Nb  Nb7  1  0.559166  0.556412  0.000000  1
  Co  Co8  1  0.279744  0.004087  0.500000  1
  Co  Co9  1  0.995913  0.275657  0.500000  1
  Co  Co10  1  0.724343  0.720256  0.500000  1
  Co  Co11  1  0.629932  0.805527  0.000000  1
  Co  Co12  1  0.194473  0.824405  0.000000  1
  Co  Co13  1  0.175595  0.370068  0.000000  1
  Co  Co14  1  0.374446  0.179512  0.000000  1
  Co  Co15  1  0.805066  0.625554  0.000000  1
  Co  Co16  1  0.820488  0.194934  0.000000  1
  Co  Co17  1  0.526184  0.881183  0.500000  1
  Co  Co18  1  0.118817  0.645001  0.500000  1
  Co  Co19  1  0.354999  0.473816  0.500000  1
  Co  Co20  1  0.482385  0.353867  0.500000  1
  Co  Co21  1  0.871482  0.517615  0.500000  1
  Co  Co22  1  0.646133  0.128518  0.500000  1
  Co  Co23  1  0.000000  0.000000  0.000000  1
  Si  Si24  1  0.520906  0.689508  0.500000  1
  Si  Si25  1  0.310492  0.831397  0.500000  1
  Si  Si26  1  0.168603  0.479094  0.500000  1
  P  P27  1  0.179698  0.001169  0.000000  1
  P  P28  1  0.998831  0.178529  0.000000  1
  P  P29  1  0.821471  0.820302  0.000000  1
  P  P30  1  0.479435  0.169134  0.500000  1
  P  P31  1  0.689699  0.520565  0.500000  1
  P  P32  1  0.830866  0.310301  0.500000  1
  P  P33  1  0.644244  0.999077  0.000000  1
  P  P34  1  0.000923  0.645167  0.000000  1
  P  P35  1  0.354833  0.355756  0.000000  1
