# generated using pymatgen
data_TbBi3O7
_symmetry_space_group_name_H-M   'P 1'
_cell_length_a   6.66956876
_cell_length_b   6.87277206
_cell_length_c   7.87182821
_cell_angle_alpha   106.58564531
_cell_angle_beta   89.37990762
_cell_angle_gamma   99.28578823
_symmetry_Int_Tables_number   1
_chemical_formula_structural   TbBi3O7
_chemical_formula_sum   'Tb2 Bi6 O14'
_cell_volume   341.05084752
_cell_formula_units_Z   2
loop_
 _symmetry_equiv_pos_site_id
 _symmetry_equiv_pos_as_xyz
  1  'x, y, z'
loop_
 _atom_site_type_symbol
 _atom_site_label
 _atom_site_symmetry_multiplicity
 _atom_site_fract_x
 _atom_site_fract_y
 _atom_site_fract_z
 _atom_site_occupancy
  Tb  Tb0  1  0.459859  0.002541  0.248441  1
  Tb  Tb1  1  0.540141  0.997459  0.751559  1
  Bi  Bi2  1  0.000000  0.000000  0.500000  1
  Bi  Bi3  1  0.000000  0.000000  0.000000  1
  Bi  Bi4  1  0.260781  0.514801  0.877520  1
  Bi  Bi5  1  0.739219  0.485199  0.122480  1
  Bi  Bi6  1  0.722306  0.464597  0.607982  1
  Bi  Bi7  1  0.277694  0.535403  0.392018  1
  O  O8  1  0.464567  0.656401  0.183594  1
  O  O9  1  0.535433  0.343599  0.816406  1
  O  O10  1  0.303301  0.942620  0.953738  1
  O  O11  1  0.696699  0.057380  0.046262  1
  O  O12  1  0.296241  0.917704  0.511308  1
  O  O13  1  0.703759  0.082296  0.488692  1
  O  O14  1  0.530659  0.350366  0.352672  1
  O  O15  1  0.469341  0.649634  0.647328  1
  O  O16  1  0.914398  0.676863  0.963277  1
  O  O17  1  0.085602  0.323137  0.036723  1
  O  O18  1  0.099046  0.324757  0.621900  1
  O  O19  1  0.900954  0.675243  0.378100  1
  O  O20  1  0.879396  0.931727  0.732692  1
  O  O21  1  0.120604  0.068273  0.267308  1
