# generated using pymatgen
data_La4Pr3Os4C9
_symmetry_space_group_name_H-M   'P 1'
_cell_length_a   6.60378196
_cell_length_b   6.60378111
_cell_length_c   11.97987147
_cell_angle_alpha   70.76343011
_cell_angle_beta   109.23656931
_cell_angle_gamma   131.75278314
_symmetry_Int_Tables_number   1
_chemical_formula_structural   La4Pr3Os4C9
_chemical_formula_sum   'La4 Pr3 Os4 C9'
_cell_volume   363.47206904
_cell_formula_units_Z   1
loop_
 _symmetry_equiv_pos_site_id
 _symmetry_equiv_pos_as_xyz
  1  'x, y, z'
loop_
 _atom_site_type_symbol
 _atom_site_label
 _atom_site_symmetry_multiplicity
 _atom_site_fract_x
 _atom_site_fract_y
 _atom_site_fract_z
 _atom_site_occupancy
  La  La0  1  0.146453  0.853544  0.320957  1
  La  La1  1  0.373095  0.626902  0.155758  1
  La  La2  1  0.626902  0.373095  0.844242  1
  La  La3  1  0.853544  0.146453  0.679043  1
  Pr  Pr4  1  0.137537  0.862460  0.619321  1
  Pr  Pr5  1  0.862459  0.137537  0.380678  1
  Pr  Pr6  1  0.000000  0.000000  0.000000  1
  Os  Os7  1  0.642953  0.357044  0.141959  1
  Os  Os8  1  0.357045  0.642952  0.858041  1
  Os  Os9  1  0.566635  0.433362  0.429356  1
  Os  Os10  1  0.433362  0.566635  0.570645  1
  C  C11  1  0.383190  0.616807  0.708296  1
  C  C12  1  0.616808  0.383189  0.291705  1
  C  C13  1  0.392554  0.607443  0.386915  1
  C  C14  1  0.607442  0.392555  0.613086  1
  C  C15  1  0.078582  0.921415  0.821949  1
  C  C16  1  0.921416  0.078581  0.178051  1
  C  C17  1  0.499998  0.499998  0.000000  1
  C  C18  1  0.803661  0.196335  0.144305  1
  C  C19  1  0.196335  0.803662  0.855695  1
