# generated using pymatgen
data_Zr2Co6B
_symmetry_space_group_name_H-M   'P 1'
_cell_length_a   5.37075279
_cell_length_b   5.37075292
_cell_length_c   5.37075300
_cell_angle_alpha   59.99999333
_cell_angle_beta   59.99999252
_cell_angle_gamma   59.99999227
_symmetry_Int_Tables_number   1
_chemical_formula_structural   Zr2Co6B
_chemical_formula_sum   'Zr2 Co6 B1'
_cell_volume   109.54446674
_cell_formula_units_Z   1
loop_
 _symmetry_equiv_pos_site_id
 _symmetry_equiv_pos_as_xyz
  1  'x, y, z'
loop_
 _atom_site_type_symbol
 _atom_site_label
 _atom_site_symmetry_multiplicity
 _atom_site_fract_x
 _atom_site_fract_y
 _atom_site_fract_z
 _atom_site_occupancy
  Zr  Zr0  1  0.750000  0.750000  0.750000  1
  Zr  Zr1  1  0.250000  0.250000  0.250000  1
  Co  Co2  1  0.739086  0.739086  0.260914  1
  Co  Co3  1  0.260914  0.739086  0.260914  1
  Co  Co4  1  0.739086  0.260914  0.260914  1
  Co  Co5  1  0.260914  0.260914  0.739086  1
  Co  Co6  1  0.739086  0.260914  0.739086  1
  Co  Co7  1  0.260914  0.739086  0.739086  1
  B  B8  1  0.000000  0.000000  0.000000  1
