# generated using pymatgen
data_Pr14Th2Mg3CdIr4
_symmetry_space_group_name_H-M   'P 1'
_cell_length_a   10.07659180
_cell_length_b   10.07659181
_cell_length_c   10.11588518
_cell_angle_alpha   59.98986966
_cell_angle_beta   59.98987074
_cell_angle_gamma   60.05394019
_symmetry_Int_Tables_number   1
_chemical_formula_structural   Pr14Th2Mg3CdIr4
_chemical_formula_sum   'Pr14 Th2 Mg3 Cd1 Ir4'
_cell_volume   726.48455705
_cell_formula_units_Z   1
loop_
 _symmetry_equiv_pos_site_id
 _symmetry_equiv_pos_as_xyz
  1  'x, y, z'
loop_
 _atom_site_type_symbol
 _atom_site_label
 _atom_site_symmetry_multiplicity
 _atom_site_fract_x
 _atom_site_fract_y
 _atom_site_fract_z
 _atom_site_occupancy
  Pr  Pr0  1  0.347898  0.955859  0.348555  1
  Pr  Pr1  1  0.955859  0.347898  0.348555  1
  Pr  Pr2  1  0.811293  0.189171  0.188599  1
  Pr  Pr3  1  0.189397  0.810360  0.809692  1
  Pr  Pr4  1  0.189171  0.811293  0.188599  1
  Pr  Pr5  1  0.810360  0.189397  0.809692  1
  Pr  Pr6  1  0.189109  0.189109  0.810994  1
  Pr  Pr7  1  0.809525  0.809525  0.189899  1
  Pr  Pr8  1  0.940347  0.561259  0.562693  1
  Pr  Pr9  1  0.560341  0.940473  0.936293  1
  Pr  Pr10  1  0.561259  0.940347  0.562693  1
  Pr  Pr11  1  0.940473  0.560341  0.936293  1
  Pr  Pr12  1  0.561734  0.561734  0.938370  1
  Pr  Pr13  1  0.937920  0.937920  0.561208  1
  Th  Th14  1  0.342763  0.342763  0.344826  1
  Th  Th15  1  0.343967  0.343967  0.967095  1
  Mg  Mg16  1  0.577656  0.577656  0.264623  1
  Mg  Mg17  1  0.576936  0.264064  0.579976  1
  Mg  Mg18  1  0.264064  0.576936  0.579976  1
  Cd  Cd19  1  0.578593  0.578593  0.581384  1
  Ir  Ir20  1  0.146832  0.146832  0.136991  1
  Ir  Ir21  1  0.146744  0.146744  0.570232  1
  Ir  Ir22  1  0.151779  0.565980  0.141382  1
  Ir  Ir23  1  0.565980  0.151779  0.141382  1
