# generated using pymatgen
data_Ba6Nb7O21
_symmetry_space_group_name_H-M   'P 1'
_cell_length_a   9.23088589
_cell_length_b   9.23088619
_cell_length_c   9.23088535
_cell_angle_alpha   113.57384451
_cell_angle_beta   113.57384427
_cell_angle_gamma   113.57385696
_symmetry_Int_Tables_number   1
_chemical_formula_structural   Ba6Nb7O21
_chemical_formula_sum   'Ba6 Nb7 O21'
_cell_volume   492.60864988
_cell_formula_units_Z   1
loop_
 _symmetry_equiv_pos_site_id
 _symmetry_equiv_pos_as_xyz
  1  'x, y, z'
loop_
 _atom_site_type_symbol
 _atom_site_label
 _atom_site_symmetry_multiplicity
 _atom_site_fract_x
 _atom_site_fract_y
 _atom_site_fract_z
 _atom_site_occupancy
  Ba  Ba0  1  0.716650  0.859026  0.434213  1
  Ba  Ba1  1  0.434213  0.716650  0.859026  1
  Ba  Ba2  1  0.140974  0.565787  0.283350  1
  Ba  Ba3  1  0.859026  0.434213  0.716650  1
  Ba  Ba4  1  0.565787  0.283350  0.140974  1
  Ba  Ba5  1  0.283350  0.140974  0.565787  1
  Nb  Nb6  1  0.212765  0.354287  0.930693  1
  Nb  Nb7  1  0.930693  0.212765  0.354287  1
  Nb  Nb8  1  0.645713  0.069307  0.787235  1
  Nb  Nb9  1  0.354287  0.930693  0.212765  1
  Nb  Nb10  1  0.069307  0.787235  0.645713  1
  Nb  Nb11  1  0.787235  0.645713  0.069307  1
  Nb  Nb12  1  0.500000  0.500000  0.500000  1
  O  O13  1  0.217377  0.362981  0.435584  1
  O  O14  1  0.362981  0.435584  0.217377  1
  O  O15  1  0.927568  0.218574  0.855186  1
  O  O16  1  0.072067  0.286545  0.643368  1
  O  O17  1  0.643368  0.072067  0.286545  1
  O  O18  1  0.855186  0.927568  0.218574  1
  O  O19  1  0.781426  0.144814  0.072432  1
  O  O20  1  0.356632  0.927933  0.713455  1
  O  O21  1  0.564416  0.782623  0.637019  1
  O  O22  1  0.500000  0.000000  0.500000  1
  O  O23  1  0.286545  0.643368  0.072067  1
  O  O24  1  0.072432  0.781426  0.144814  1
  O  O25  1  0.218574  0.855186  0.927568  1
  O  O26  1  0.000000  0.500000  0.500000  1
  O  O27  1  0.782623  0.637019  0.564416  1
  O  O28  1  0.927933  0.713455  0.356632  1
  O  O29  1  0.500000  0.500000  0.000000  1
  O  O30  1  0.713455  0.356632  0.927933  1
  O  O31  1  0.637019  0.564416  0.782623  1
  O  O32  1  0.435584  0.217377  0.362981  1
  O  O33  1  0.144814  0.072432  0.781426  1
