# generated using pymatgen
data_Ta12Al8Co4BN3
_symmetry_space_group_name_H-M   'P 1'
_cell_length_a   8.20232663
_cell_length_b   8.16612457
_cell_length_c   8.16612300
_cell_angle_alpha   60.00000230
_cell_angle_beta   60.14589700
_cell_angle_gamma   60.14590294
_symmetry_Int_Tables_number   1
_chemical_formula_structural   Ta12Al8Co4BN3
_chemical_formula_sum   'Ta12 Al8 Co4 B1 N3'
_cell_volume   387.62181833
_cell_formula_units_Z   1
loop_
 _symmetry_equiv_pos_site_id
 _symmetry_equiv_pos_as_xyz
  1  'x, y, z'
loop_
 _atom_site_type_symbol
 _atom_site_label
 _atom_site_symmetry_multiplicity
 _atom_site_fract_x
 _atom_site_fract_y
 _atom_site_fract_z
 _atom_site_occupancy
  Ta  Ta0  1  0.564832  0.938547  0.558073  1
  Ta  Ta1  1  0.314045  0.690061  0.690061  1
  Ta  Ta2  1  0.685168  0.311453  0.311453  1
  Ta  Ta3  1  0.314045  0.690061  0.305833  1
  Ta  Ta4  1  0.685168  0.691927  0.311453  1
  Ta  Ta5  1  0.314045  0.305833  0.690061  1
  Ta  Ta6  1  0.564832  0.558073  0.938547  1
  Ta  Ta7  1  0.935955  0.559939  0.559939  1
  Ta  Ta8  1  0.564832  0.938547  0.938547  1
  Ta  Ta9  1  0.935955  0.944167  0.559939  1
  Ta  Ta10  1  0.685168  0.311453  0.691927  1
  Ta  Ta11  1  0.935955  0.559939  0.944167  1
  Al  Al12  1  0.919968  0.917093  0.917093  1
  Al  Al13  1  0.003516  0.332161  0.332161  1
  Al  Al14  1  0.330032  0.004153  0.332907  1
  Al  Al15  1  0.330032  0.332907  0.004153  1
  Al  Al16  1  0.919968  0.245847  0.917093  1
  Al  Al17  1  0.919968  0.917093  0.245847  1
  Al  Al18  1  0.246484  0.917839  0.917839  1
  Al  Al19  1  0.330032  0.332907  0.332907  1
  Co  Co20  1  0.125000  0.125000  0.125000  1
  Co  Co21  1  0.625000  0.125000  0.125000  1
  Co  Co22  1  0.125000  0.625000  0.125000  1
  Co  Co23  1  0.125000  0.125000  0.625000  1
  B  B24  1  0.125000  0.625000  0.625000  1
  N  N25  1  0.625000  0.625000  0.625000  1
  N  N26  1  0.625000  0.125000  0.625000  1
  N  N27  1  0.625000  0.625000  0.125000  1
