# generated using pymatgen
data_ThMn3Al8Fe
_symmetry_space_group_name_H-M   'P 1'
_cell_length_a   6.76403424
_cell_length_b   6.76403412
_cell_length_c   6.81230958
_cell_angle_alpha   98.40221393
_cell_angle_beta   98.40221354
_cell_angle_gamma   135.34485052
_symmetry_Int_Tables_number   1
_chemical_formula_structural   ThMn3Al8Fe
_chemical_formula_sum   'Th1 Mn3 Al8 Fe1'
_cell_volume   202.20709513
_cell_formula_units_Z   1
loop_
 _symmetry_equiv_pos_site_id
 _symmetry_equiv_pos_as_xyz
  1  'x, y, z'
loop_
 _atom_site_type_symbol
 _atom_site_label
 _atom_site_symmetry_multiplicity
 _atom_site_fract_x
 _atom_site_fract_y
 _atom_site_fract_z
 _atom_site_occupancy
  Th  Th0  1  0.000000  0.000000  0.000000  1
  Mn  Mn1  1  0.500000  0.500000  0.500000  1
  Mn  Mn2  1  0.000000  0.500000  0.000000  1
  Mn  Mn3  1  0.500000  0.000000  0.000000  1
  Al  Al4  1  0.271679  0.495917  0.773343  1
  Al  Al5  1  0.495917  0.271679  0.773343  1
  Al  Al6  1  0.504083  0.728321  0.226657  1
  Al  Al7  1  0.728321  0.504083  0.226657  1
  Al  Al8  1  0.343159  0.999945  0.345232  1
  Al  Al9  1  0.656841  0.000055  0.654768  1
  Al  Al10  1  0.000055  0.656841  0.654768  1
  Al  Al11  1  0.999945  0.343159  0.345232  1
  Fe  Fe12  1  0.000000  0.000000  0.500000  1
