# generated using pymatgen
data_Ca5Bi2Pb
_symmetry_space_group_name_H-M   'P 1'
_cell_length_a   9.35845314
_cell_length_b   9.35845299
_cell_length_c   7.08893800
_cell_angle_alpha   90.00000000
_cell_angle_beta   90.00000000
_cell_angle_gamma   119.92256055
_symmetry_Int_Tables_number   1
_chemical_formula_structural   Ca5Bi2Pb
_chemical_formula_sum   'Ca10 Bi4 Pb2'
_cell_volume   538.09419627
_cell_formula_units_Z   2
loop_
 _symmetry_equiv_pos_site_id
 _symmetry_equiv_pos_as_xyz
  1  'x, y, z'
loop_
 _atom_site_type_symbol
 _atom_site_label
 _atom_site_symmetry_multiplicity
 _atom_site_fract_x
 _atom_site_fract_y
 _atom_site_fract_z
 _atom_site_occupancy
  Ca  Ca0  1  0.667307  0.330373  0.505792  1
  Ca  Ca1  1  0.330373  0.667307  0.505792  1
  Ca  Ca2  1  0.330373  0.667307  0.994208  1
  Ca  Ca3  1  0.667307  0.330373  0.994208  1
  Ca  Ca4  1  0.723961  0.723961  0.250000  1
  Ca  Ca5  1  0.273183  0.000583  0.250000  1
  Ca  Ca6  1  0.000583  0.273183  0.250000  1
  Ca  Ca7  1  0.271581  0.271581  0.750000  1
  Ca  Ca8  1  0.727247  0.004996  0.750000  1
  Ca  Ca9  1  0.004996  0.727247  0.750000  1
  Bi  Bi10  1  0.378890  0.378890  0.250000  1
  Bi  Bi11  1  0.622734  0.997176  0.250000  1
  Bi  Bi12  1  0.997176  0.622734  0.250000  1
  Bi  Bi13  1  0.626777  0.626777  0.750000  1
  Pb  Pb14  1  0.376228  0.001284  0.750000  1
  Pb  Pb15  1  0.001284  0.376228  0.750000  1
