# generated using pymatgen
data_Ca2La2YRu2
_symmetry_space_group_name_H-M   'P 1'
_cell_length_a   6.64871518
_cell_length_b   7.35218562
_cell_length_c   9.01893495
_cell_angle_alpha   96.27604376
_cell_angle_beta   111.62915634
_cell_angle_gamma   89.99999838
_symmetry_Int_Tables_number   1
_chemical_formula_structural   Ca2La2YRu2
_chemical_formula_sum   'Ca4 La4 Y2 Ru4'
_cell_volume   406.98316072
_cell_formula_units_Z   2
loop_
 _symmetry_equiv_pos_site_id
 _symmetry_equiv_pos_as_xyz
  1  'x, y, z'
loop_
 _atom_site_type_symbol
 _atom_site_label
 _atom_site_symmetry_multiplicity
 _atom_site_fract_x
 _atom_site_fract_y
 _atom_site_fract_z
 _atom_site_occupancy
  Ca  Ca0  1  0.628700  0.816754  0.422538  1
  Ca  Ca1  1  0.206163  0.683246  0.577462  1
  Ca  Ca2  1  0.371300  0.183246  0.577462  1
  Ca  Ca3  1  0.793837  0.316754  0.422538  1
  La  La4  1  0.986025  0.905084  0.184289  1
  La  La5  1  0.801737  0.594916  0.815711  1
  La  La6  1  0.013975  0.094916  0.815711  1
  La  La7  1  0.198263  0.405084  0.184289  1
  Y  Y8  1  0.434405  0.750000  0.000000  1
  Y  Y9  1  0.565595  0.250000  0.000000  1
  Ru  Ru10  1  0.838613  0.589516  0.200238  1
  Ru  Ru11  1  0.638375  0.910484  0.799762  1
  Ru  Ru12  1  0.161387  0.410484  0.799762  1
  Ru  Ru13  1  0.361625  0.089516  0.200238  1
