# generated using pymatgen
data_Tb3Dy5Hf9Si16W3
_symmetry_space_group_name_H-M   'P 1'
_cell_length_a   7.19403176
_cell_length_b   7.19367541
_cell_length_c   13.17067214
_cell_angle_alpha   90.09802052
_cell_angle_beta   90.10986701
_cell_angle_gamma   90.09318677
_symmetry_Int_Tables_number   1
_chemical_formula_structural   Tb3Dy5Hf9Si16W3
_chemical_formula_sum   'Tb3 Dy5 Hf9 Si16 W3'
_cell_volume   681.59927055
_cell_formula_units_Z   1
loop_
 _symmetry_equiv_pos_site_id
 _symmetry_equiv_pos_as_xyz
  1  'x, y, z'
loop_
 _atom_site_type_symbol
 _atom_site_label
 _atom_site_symmetry_multiplicity
 _atom_site_fract_x
 _atom_site_fract_y
 _atom_site_fract_z
 _atom_site_occupancy
  Tb  Tb0  1  0.497736  0.154070  0.532209  1
  Tb  Tb1  1  0.343433  0.996191  0.785246  1
  Tb  Tb2  1  0.655811  0.001117  0.284372  1
  Dy  Dy3  1  0.999280  0.344522  0.215316  1
  Dy  Dy4  1  0.003363  0.656285  0.714766  1
  Dy  Dy5  1  0.154606  0.499887  0.463933  1
  Dy  Dy6  1  0.500141  0.845259  0.035988  1
  Dy  Dy7  1  0.846349  0.501906  0.967721  1
  Hf  Hf8  1  0.675556  0.324823  0.750110  1
  Hf  Hf9  1  0.146883  0.993022  0.373395  1
  Hf  Hf10  1  0.854598  0.004376  0.876557  1
  Hf  Hf11  1  0.505707  0.649441  0.621317  1
  Hf  Hf12  1  0.350564  0.494489  0.878765  1
  Hf  Hf13  1  0.493077  0.352494  0.125417  1
  Hf  Hf14  1  0.647719  0.506888  0.374433  1
  Hf  Hf15  1  0.995592  0.145372  0.623512  1
  Hf  Hf16  1  0.006829  0.853067  0.126463  1
  Si  Si17  1  0.360086  0.298437  0.316623  1
  Si  Si18  1  0.638672  0.704776  0.817460  1
  Si  Si19  1  0.202645  0.860686  0.565695  1
  Si  Si20  1  0.138702  0.796630  0.934435  1
  Si  Si21  1  0.797714  0.138897  0.067203  1
  Si  Si22  1  0.861942  0.202808  0.432861  1
  Si  Si23  1  0.294577  0.362343  0.682742  1
  Si  Si24  1  0.702017  0.639202  0.183097  1
  Si  Si25  1  0.295930  0.050597  0.183913  1
  Si  Si26  1  0.705139  0.947246  0.682120  1
  Si  Si27  1  0.448748  0.795113  0.432243  1
  Si  Si28  1  0.204113  0.550791  0.067816  1
  Si  Si29  1  0.547448  0.202645  0.936307  1
  Si  Si30  1  0.797864  0.453145  0.563867  1
  Si  Si31  1  0.052134  0.295737  0.818010  1
  Si  Si32  1  0.949766  0.703404  0.315912  1
  W  W33  1  0.176700  0.175515  0.001623  1
  W  W34  1  0.824849  0.822930  0.498606  1
  W  W35  1  0.323709  0.675892  0.249948  1
