# generated using pymatgen
data_Ba3TbTc2O9
_symmetry_space_group_name_H-M   'P 1'
_cell_length_a   6.00278800
_cell_length_b   6.00229802
_cell_length_c   14.59587700
_cell_angle_alpha   90.00234185
_cell_angle_beta   89.99744352
_cell_angle_gamma   120.00258804
_symmetry_Int_Tables_number   1
_chemical_formula_structural   Ba3TbTc2O9
_chemical_formula_sum   'Ba6 Tb2 Tc4 O18'
_cell_volume   455.42834871
_cell_formula_units_Z   2
loop_
 _symmetry_equiv_pos_site_id
 _symmetry_equiv_pos_as_xyz
  1  'x, y, z'
loop_
 _atom_site_type_symbol
 _atom_site_label
 _atom_site_symmetry_multiplicity
 _atom_site_fract_x
 _atom_site_fract_y
 _atom_site_fract_z
 _atom_site_occupancy
  Ba  Ba0  1  0.666667  0.333338  0.098128  1
  Ba  Ba1  1  0.999906  0.999872  0.250051  1
  Ba  Ba2  1  0.666671  0.333344  0.402159  1
  Ba  Ba3  1  0.333328  0.666653  0.598156  1
  Ba  Ba4  1  0.000090  0.000126  0.749756  1
  Ba  Ba5  1  0.333337  0.666666  0.902070  1
  Tb  Tb6  1  0.999999  0.999999  0.999965  1
  Tb  Tb7  1  0.999999  0.999998  0.499963  1
  Tc  Tc8  1  0.333295  0.666600  0.164260  1
  Tc  Tc9  1  0.333294  0.666595  0.335574  1
  Tc  Tc10  1  0.666706  0.333405  0.664492  1
  Tc  Tc11  1  0.666703  0.333397  0.835643  1
  O  O12  1  0.176124  0.352273  0.089500  1
  O  O13  1  0.176010  0.823820  0.089518  1
  O  O14  1  0.647851  0.823853  0.089523  1
  O  O15  1  0.016723  0.508693  0.250009  1
  O  O16  1  0.492043  0.508828  0.250009  1
  O  O17  1  0.491575  0.982933  0.249988  1
  O  O18  1  0.176006  0.352048  0.410479  1
  O  O19  1  0.175905  0.823944  0.410466  1
  O  O20  1  0.648054  0.823967  0.410464  1
  O  O21  1  0.352076  0.176096  0.589466  1
  O  O22  1  0.824030  0.176120  0.589466  1
  O  O23  1  0.823928  0.647826  0.589455  1
  O  O24  1  0.508427  0.017056  0.750043  1
  O  O25  1  0.507976  0.491187  0.750020  1
  O  O26  1  0.983265  0.491311  0.750020  1
  O  O27  1  0.352129  0.176137  0.910443  1
  O  O28  1  0.823999  0.176172  0.910449  1
  O  O29  1  0.823883  0.647742  0.910464  1
