# generated using pymatgen
data_Ho7(CuTe)2
_symmetry_space_group_name_H-M   'P 1'
_cell_length_a   9.21015719
_cell_length_b   9.21015738
_cell_length_c   9.21015690
_cell_angle_alpha   154.92900485
_cell_angle_beta   118.58910407
_cell_angle_gamma   67.39919929
_symmetry_Int_Tables_number   1
_chemical_formula_structural   Ho7(CuTe)2
_chemical_formula_sum   'Ho7 Cu2 Te2'
_cell_volume   288.14624863
_cell_formula_units_Z   1
loop_
 _symmetry_equiv_pos_site_id
 _symmetry_equiv_pos_as_xyz
  1  'x, y, z'
loop_
 _atom_site_type_symbol
 _atom_site_label
 _atom_site_symmetry_multiplicity
 _atom_site_fract_x
 _atom_site_fract_y
 _atom_site_fract_z
 _atom_site_occupancy
  Ho  Ho0  1  0.121160  0.857612  0.263548  1
  Ho  Ho1  1  0.405935  0.142388  0.263548  1
  Ho  Ho2  1  0.504000  0.500000  0.004000  1
  Ho  Ho3  1  0.043267  0.628524  0.414742  1
  Ho  Ho4  1  0.786217  0.371476  0.414742  1
  Ho  Ho5  1  0.436134  0.813445  0.622690  1
  Ho  Ho6  1  0.809245  0.186555  0.622690  1
  Cu  Cu7  1  0.663732  0.736056  0.927675  1
  Cu  Cu8  1  0.191618  0.263944  0.927675  1
  Te  Te9  1  0.765144  0.000000  0.765144  1
  Te  Te10  1  0.164407  0.500000  0.664407  1
