# generated using pymatgen
data_Tm2Ga4CoNi
_symmetry_space_group_name_H-M   'P 1'
_cell_length_a   5.35124327
_cell_length_b   5.35124336
_cell_length_c   6.70211700
_cell_angle_alpha   90.00000000
_cell_angle_beta   90.00000000
_cell_angle_gamma   135.19222538
_symmetry_Int_Tables_number   1
_chemical_formula_structural   Tm2Ga4CoNi
_chemical_formula_sum   'Tm2 Ga4 Co1 Ni1'
_cell_volume   135.25223834
_cell_formula_units_Z   1
loop_
 _symmetry_equiv_pos_site_id
 _symmetry_equiv_pos_as_xyz
  1  'x, y, z'
loop_
 _atom_site_type_symbol
 _atom_site_label
 _atom_site_symmetry_multiplicity
 _atom_site_fract_x
 _atom_site_fract_y
 _atom_site_fract_z
 _atom_site_occupancy
  Tm  Tm0  1  0.570057  0.429943  0.250000  1
  Tm  Tm1  1  0.428073  0.571927  0.750000  1
  Ga  Ga2  1  0.855639  0.144361  0.053717  1
  Ga  Ga3  1  0.144805  0.855195  0.946903  1
  Ga  Ga4  1  0.144805  0.855195  0.553097  1
  Ga  Ga5  1  0.855639  0.144361  0.446283  1
  Co  Co6  1  0.291873  0.708127  0.250000  1
  Ni  Ni7  1  0.709109  0.290891  0.750000  1
