# generated using pymatgen
data_TbFeP3Ir4
_symmetry_space_group_name_H-M   'P 1'
_cell_length_a   3.93670100
_cell_length_b   10.75459200
_cell_length_c   12.43729600
_cell_angle_alpha   90.00000000
_cell_angle_beta   90.00000000
_cell_angle_gamma   90.00000000
_symmetry_Int_Tables_number   1
_chemical_formula_structural   TbFeP3Ir4
_chemical_formula_sum   'Tb4 Fe4 P12 Ir16'
_cell_volume   526.56542582
_cell_formula_units_Z   4
loop_
 _symmetry_equiv_pos_site_id
 _symmetry_equiv_pos_as_xyz
  1  'x, y, z'
loop_
 _atom_site_type_symbol
 _atom_site_label
 _atom_site_symmetry_multiplicity
 _atom_site_fract_x
 _atom_site_fract_y
 _atom_site_fract_z
 _atom_site_occupancy
  Tb  Tb0  1  0.250000  0.581601  0.710874  1
  Tb  Tb1  1  0.250000  0.918399  0.210874  1
  Tb  Tb2  1  0.750000  0.418399  0.289126  1
  Tb  Tb3  1  0.750000  0.081601  0.789126  1
  Fe  Fe4  1  0.250000  0.456965  0.933806  1
  Fe  Fe5  1  0.250000  0.043035  0.433806  1
  Fe  Fe6  1  0.750000  0.543035  0.066194  1
  Fe  Fe7  1  0.750000  0.956965  0.566194  1
  P  P8  1  0.250000  0.432515  0.105661  1
  P  P9  1  0.250000  0.067485  0.605661  1
  P  P10  1  0.750000  0.567485  0.894339  1
  P  P11  1  0.750000  0.932515  0.394339  1
  P  P12  1  0.250000  0.268702  0.868585  1
  P  P13  1  0.250000  0.231298  0.368585  1
  P  P14  1  0.750000  0.731298  0.131415  1
  P  P15  1  0.750000  0.768702  0.631415  1
  P  P16  1  0.250000  0.597511  0.386720  1
  P  P17  1  0.250000  0.902489  0.886720  1
  P  P18  1  0.750000  0.402489  0.613280  1
  P  P19  1  0.750000  0.097511  0.113280  1
  Ir  Ir20  1  0.250000  0.720762  0.985678  1
  Ir  Ir21  1  0.250000  0.779238  0.485678  1
  Ir  Ir22  1  0.750000  0.279238  0.014322  1
  Ir  Ir23  1  0.750000  0.220762  0.514322  1
  Ir  Ir24  1  0.250000  0.408420  0.478093  1
  Ir  Ir25  1  0.250000  0.091580  0.978093  1
  Ir  Ir26  1  0.750000  0.591580  0.521907  1
  Ir  Ir27  1  0.750000  0.908420  0.021907  1
  Ir  Ir28  1  0.250000  0.235775  0.176723  1
  Ir  Ir29  1  0.250000  0.264225  0.676723  1
  Ir  Ir30  1  0.750000  0.764225  0.823277  1
  Ir  Ir31  1  0.750000  0.735775  0.323277  1
  Ir  Ir32  1  0.250000  0.881705  0.700883  1
  Ir  Ir33  1  0.250000  0.618295  0.200883  1
  Ir  Ir34  1  0.750000  0.118295  0.299117  1
  Ir  Ir35  1  0.750000  0.381705  0.799117  1
