# generated using pymatgen
data_Tm6Co12Si5Mo
_symmetry_space_group_name_H-M   'P 1'
_cell_length_a   5.22126500
_cell_length_b   5.22126514
_cell_length_c   14.95735700
_cell_angle_alpha   90.00000000
_cell_angle_beta   90.00000000
_cell_angle_gamma   120.00000546
_symmetry_Int_Tables_number   1
_chemical_formula_structural   Tm6Co12Si5Mo
_chemical_formula_sum   'Tm6 Co12 Si5 Mo1'
_cell_volume   353.13189955
_cell_formula_units_Z   1
loop_
 _symmetry_equiv_pos_site_id
 _symmetry_equiv_pos_as_xyz
  1  'x, y, z'
loop_
 _atom_site_type_symbol
 _atom_site_label
 _atom_site_symmetry_multiplicity
 _atom_site_fract_x
 _atom_site_fract_y
 _atom_site_fract_z
 _atom_site_occupancy
  Tm  Tm0  1  0.333333  0.666667  0.039335  1
  Tm  Tm1  1  0.333333  0.666667  0.251693  1
  Tm  Tm2  1  0.333333  0.666667  0.462064  1
  Tm  Tm3  1  0.666667  0.333334  0.537936  1
  Tm  Tm4  1  0.666667  0.333334  0.748307  1
  Tm  Tm5  1  0.666667  0.333334  0.960665  1
  Co  Co6  1  0.336257  0.168128  0.132528  1
  Co  Co7  1  0.831872  0.168128  0.132528  1
  Co  Co8  1  0.831872  0.663742  0.132528  1
  Co  Co9  1  0.334624  0.167312  0.371104  1
  Co  Co10  1  0.832688  0.167312  0.371104  1
  Co  Co11  1  0.832688  0.665375  0.371104  1
  Co  Co12  1  0.167312  0.334624  0.628895  1
  Co  Co13  1  0.167312  0.832687  0.628895  1
  Co  Co14  1  0.665375  0.832687  0.628895  1
  Co  Co15  1  0.168128  0.336257  0.867472  1
  Co  Co16  1  0.168128  0.831871  0.867472  1
  Co  Co17  1  0.663742  0.831871  0.867472  1
  Si  Si18  1  0.000000  0.000000  0.251190  1
  Si  Si19  1  0.666667  0.333334  0.253040  1
  Si  Si20  1  0.000000  0.000000  0.500000  1
  Si  Si21  1  0.000000  0.000000  0.748810  1
  Si  Si22  1  0.333333  0.666667  0.746960  1
  Mo  Mo23  1  0.000000  0.000000  0.000000  1
