# generated using pymatgen
data_Tm3Tc2
_symmetry_space_group_name_H-M   'P 1'
_cell_length_a   8.53723673
_cell_length_b   8.53723603
_cell_length_c   6.01894083
_cell_angle_alpha   135.16966983
_cell_angle_beta   44.83034187
_cell_angle_gamma   119.99999691
_symmetry_Int_Tables_number   1
_chemical_formula_structural   Tm3Tc2
_chemical_formula_sum   'Tm6 Tc4'
_cell_volume   218.04056086
_cell_formula_units_Z   2
loop_
 _symmetry_equiv_pos_site_id
 _symmetry_equiv_pos_as_xyz
  1  'x, y, z'
loop_
 _atom_site_type_symbol
 _atom_site_label
 _atom_site_symmetry_multiplicity
 _atom_site_fract_x
 _atom_site_fract_y
 _atom_site_fract_z
 _atom_site_occupancy
  Tm  Tm0  1  0.578236  0.750001  0.250001  1
  Tm  Tm1  1  0.921764  0.421765  0.250001  1
  Tm  Tm2  1  0.250000  0.078236  0.250001  1
  Tm  Tm3  1  0.750000  0.921765  0.750000  1
  Tm  Tm4  1  0.078236  0.578236  0.750000  1
  Tm  Tm5  1  0.421764  0.250000  0.750000  1
  Tc  Tc6  1  0.622122  0.377879  0.133637  1
  Tc  Tc7  1  0.877878  0.122122  0.366365  1
  Tc  Tc8  1  0.122121  0.877878  0.633636  1
  Tc  Tc9  1  0.377879  0.622122  0.866363  1
