# generated using pymatgen
data_Dy4Ho2C2I7
_symmetry_space_group_name_H-M   'P 1'
_cell_length_a   11.00907877
_cell_length_b   11.00907872
_cell_length_c   12.83353700
_cell_angle_alpha   58.25425052
_cell_angle_beta   58.25425678
_cell_angle_gamma   20.68835724
_symmetry_Int_Tables_number   1
_chemical_formula_structural   Dy4Ho2C2I7
_chemical_formula_sum   'Dy4 Ho2 C2 I7'
_cell_volume   464.30649105
_cell_formula_units_Z   1
loop_
 _symmetry_equiv_pos_site_id
 _symmetry_equiv_pos_as_xyz
  1  'x, y, z'
loop_
 _atom_site_type_symbol
 _atom_site_label
 _atom_site_symmetry_multiplicity
 _atom_site_fract_x
 _atom_site_fract_y
 _atom_site_fract_z
 _atom_site_occupancy
  Dy  Dy0  1  0.237290  0.237290  0.806806  1
  Dy  Dy1  1  0.308006  0.308006  0.376392  1
  Dy  Dy2  1  0.135664  0.135664  0.447071  1
  Dy  Dy3  1  0.863438  0.863438  0.553541  1
  Ho  Ho4  1  0.693109  0.693109  0.622670  1
  Ho  Ho5  1  0.762241  0.762241  0.195035  1
  C  C6  1  0.280277  0.280277  0.595302  1
  C  C7  1  0.718941  0.718941  0.405053  1
  I  I8  1  0.160427  0.160427  0.178320  1
  I  I9  1  0.840722  0.840722  0.820985  1
  I  I10  1  0.059384  0.059384  0.720697  1
  I  I11  1  0.941810  0.941810  0.278532  1
  I  I12  1  0.500144  0.500144  0.499819  1
  I  I13  1  0.385501  0.385501  0.074241  1
  I  I14  1  0.613044  0.613044  0.925536  1
