# generated using pymatgen
data_La5Sn15IrRh7
_symmetry_space_group_name_H-M   'P 1'
_cell_length_a   4.58991400
_cell_length_b   7.32507019
_cell_length_c   18.83949403
_cell_angle_alpha   90.03604559
_cell_angle_beta   90.00000000
_cell_angle_gamma   90.00000000
_symmetry_Int_Tables_number   1
_chemical_formula_structural   La5Sn15IrRh7
_chemical_formula_sum   'La5 Sn15 Ir1 Rh7'
_cell_volume   633.41083460
_cell_formula_units_Z   1
loop_
 _symmetry_equiv_pos_site_id
 _symmetry_equiv_pos_as_xyz
  1  'x, y, z'
loop_
 _atom_site_type_symbol
 _atom_site_label
 _atom_site_symmetry_multiplicity
 _atom_site_fract_x
 _atom_site_fract_y
 _atom_site_fract_z
 _atom_site_occupancy
  La  La0  1  0.500000  0.003359  0.856024  1
  La  La1  1  0.500000  0.500143  0.357508  1
  La  La2  1  0.000000  0.999904  0.143522  1
  La  La3  1  0.000000  0.500760  0.641670  1
  La  La4  1  0.500000  0.498169  0.930351  1
  Sn  Sn5  1  0.000000  0.717307  0.805627  1
  Sn  Sn6  1  0.000000  0.781228  0.305464  1
  Sn  Sn7  1  0.500000  0.279047  0.194245  1
  Sn  Sn8  1  0.500000  0.216534  0.693323  1
  Sn  Sn9  1  0.000000  0.853393  0.970381  1
  Sn  Sn10  1  0.000000  0.634052  0.468666  1
  Sn  Sn11  1  0.500000  0.134111  0.031862  1
  Sn  Sn12  1  0.500000  0.364770  0.530089  1
  Sn  Sn13  1  0.000000  0.304812  0.818249  1
  Sn  Sn14  1  0.000000  0.197062  0.317620  1
  Sn  Sn15  1  0.500000  0.695706  0.185644  1
  Sn  Sn16  1  0.500000  0.808362  0.678850  1
  Sn  Sn17  1  0.500000  0.019018  0.432974  1
  Sn  Sn18  1  0.000000  0.509911  0.068817  1
  Sn  Sn19  1  0.000000  0.982294  0.568271  1
  Ir  Ir20  1  0.000000  0.229822  0.965484  1
  Rh  Rh21  1  0.000000  0.247767  0.464712  1
  Rh  Rh22  1  0.500000  0.763741  0.044554  1
  Rh  Rh23  1  0.500000  0.750419  0.532792  1
  Rh  Rh24  1  0.000000  0.018342  0.715500  1
  Rh  Rh25  1  0.000000  0.482529  0.213508  1
  Rh  Rh26  1  0.500000  0.987099  0.289279  1
  Rh  Rh27  1  0.500000  0.520338  0.775017  1
