# generated using pymatgen
data_Cs2Rb6Hf7Zr5(BBr17)2
_symmetry_space_group_name_H-M   'P 1'
_cell_length_a   12.92912263
_cell_length_b   12.92912334
_cell_length_c   11.85967000
_cell_angle_alpha   90.12056869
_cell_angle_beta   90.12056869
_cell_angle_gamma   89.84408013
_symmetry_Int_Tables_number   1
_chemical_formula_structural   Cs2Rb6Hf7Zr5(BBr17)2
_chemical_formula_sum   'Cs2 Rb6 Hf7 Zr5 B2 Br34'
_cell_volume   1982.47268388
_cell_formula_units_Z   1
loop_
 _symmetry_equiv_pos_site_id
 _symmetry_equiv_pos_as_xyz
  1  'x, y, z'
loop_
 _atom_site_type_symbol
 _atom_site_label
 _atom_site_symmetry_multiplicity
 _atom_site_fract_x
 _atom_site_fract_y
 _atom_site_fract_z
 _atom_site_occupancy
  Cs  Cs0  1  0.282659  0.487938  0.656663  1
  Cs  Cs1  1  0.217989  0.986785  0.344765  1
  Rb  Rb2  1  0.502895  0.719001  0.352873  1
  Rb  Rb3  1  0.997133  0.219637  0.648551  1
  Rb  Rb4  1  0.497675  0.280068  0.352697  1
  Rb  Rb5  1  0.001039  0.782024  0.649670  1
  Rb  Rb6  1  0.719902  0.498761  0.646983  1
  Rb  Rb7  1  0.779833  0.996603  0.354669  1
  Hf  Hf8  1  0.590118  0.909780  0.706475  1
  Hf  Hf9  1  0.909830  0.409674  0.293662  1
  Hf  Hf10  1  0.410059  0.090766  0.706052  1
  Hf  Hf11  1  0.090396  0.591241  0.293600  1
  Hf  Hf12  1  0.589950  0.909945  0.982214  1
  Hf  Hf13  1  0.910052  0.410392  0.016333  1
  Hf  Hf14  1  0.410174  0.091212  0.981962  1
  Zr  Zr15  1  0.090180  0.591872  0.016657  1
  Zr  Zr16  1  0.872394  0.628456  0.152579  1
  Zr  Zr17  1  0.627560  0.127393  0.847080  1
  Zr  Zr18  1  0.128444  0.373836  0.152129  1
  Zr  Zr19  1  0.372439  0.873559  0.846018  1
  B  B20  1  0.998910  0.499720  0.156419  1
  B  B21  1  0.500167  0.000473  0.844333  1
  Br  Br22  1  0.997627  0.498560  0.831211  1
  Br  Br23  1  0.500053  0.000670  0.165910  1
  Br  Br24  1  0.703535  0.795393  0.160572  1
  Br  Br25  1  0.795186  0.295214  0.840335  1
  Br  Br26  1  0.296878  0.206825  0.158589  1
  Br  Br27  1  0.204201  0.709764  0.839409  1
  Br  Br28  1  0.457843  0.751537  0.683733  1
  Br  Br29  1  0.043420  0.251992  0.314519  1
  Br  Br30  1  0.542512  0.249510  0.684899  1
  Br  Br31  1  0.956938  0.749459  0.316241  1
  Br  Br32  1  0.751827  0.542840  0.314851  1
  Br  Br33  1  0.748562  0.041917  0.684879  1
  Br  Br34  1  0.248786  0.458560  0.315930  1
  Br  Br35  1  0.251211  0.959361  0.683562  1
  Br  Br36  1  0.703677  0.795850  0.540108  1
  Br  Br37  1  0.797547  0.297183  0.459494  1
  Br  Br38  1  0.297232  0.203597  0.539083  1
  Br  Br39  1  0.201733  0.702447  0.462952  1
  Br  Br40  1  0.999974  0.500383  0.476953  1
  Br  Br41  1  0.500661  0.000244  0.522231  1
  Br  Br42  1  0.460769  0.750171  0.004862  1
  Br  Br43  1  0.039234  0.250101  0.994128  1
  Br  Br44  1  0.539463  0.251082  0.005207  1
  Br  Br45  1  0.957570  0.753279  0.995713  1
  Br  Br46  1  0.748971  0.538730  0.994794  1
  Br  Br47  1  0.750455  0.038524  0.005773  1
  Br  Br48  1  0.252703  0.460607  0.994929  1
  Br  Br49  1  0.249657  0.962947  0.004667  1
  Br  Br50  1  0.704764  0.794783  0.843984  1
  Br  Br51  1  0.795754  0.295551  0.155056  1
  Br  Br52  1  0.295021  0.205878  0.843360  1
  Br  Br53  1  0.205997  0.706935  0.159691  1
  Br  Br54  1  0.504445  0.499887  0.495855  1
  Br  Br55  1  0.995997  0.001083  0.504144  1
