# generated using pymatgen
data_La15Pr5Ir11Rh
_symmetry_space_group_name_H-M   'P 1'
_cell_length_a   11.41901992
_cell_length_b   11.42706511
_cell_length_c   6.70860653
_cell_angle_alpha   89.92578193
_cell_angle_beta   89.97821252
_cell_angle_gamma   90.07898189
_symmetry_Int_Tables_number   1
_chemical_formula_structural   La15Pr5Ir11Rh
_chemical_formula_sum   'La15 Pr5 Ir11 Rh1'
_cell_volume   875.37682424
_cell_formula_units_Z   1
loop_
 _symmetry_equiv_pos_site_id
 _symmetry_equiv_pos_as_xyz
  1  'x, y, z'
loop_
 _atom_site_type_symbol
 _atom_site_label
 _atom_site_symmetry_multiplicity
 _atom_site_fract_x
 _atom_site_fract_y
 _atom_site_fract_z
 _atom_site_occupancy
  La  La0  1  0.291609  0.091208  0.387287  1
  La  La1  1  0.290964  0.908807  0.884767  1
  La  La2  1  0.709011  0.091357  0.885162  1
  La  La3  1  0.708117  0.909215  0.387533  1
  La  La4  1  0.591355  0.790887  0.884833  1
  La  La5  1  0.590826  0.208166  0.387418  1
  La  La6  1  0.409163  0.791896  0.387307  1
  La  La7  1  0.408336  0.209250  0.885272  1
  La  La8  1  0.207717  0.408446  0.613916  1
  La  La9  1  0.207874  0.591441  0.114114  1
  La  La10  1  0.792332  0.407929  0.114147  1
  La  La11  1  0.791895  0.591173  0.613942  1
  La  La12  1  0.908191  0.708085  0.114466  1
  La  La13  1  0.909587  0.291988  0.614161  1
  La  La14  1  0.090913  0.708136  0.614364  1
  Pr  Pr15  1  0.091561  0.291414  0.115230  1
  Pr  Pr16  1  0.999966  0.000122  0.499609  1
  Pr  Pr17  1  0.000243  0.000377  0.000198  1
  Pr  Pr18  1  0.500016  0.499864  0.000232  1
  Pr  Pr19  1  0.500051  0.500006  0.500000  1
  Ir  Ir20  1  0.844391  0.152911  0.250090  1
  Ir  Ir21  1  0.845667  0.846011  0.749220  1
  Ir  Ir22  1  0.154457  0.153521  0.748368  1
  Ir  Ir23  1  0.155785  0.847129  0.250209  1
  Ir  Ir24  1  0.654177  0.345861  0.749229  1
  Ir  Ir25  1  0.652905  0.655709  0.250193  1
  Ir  Ir26  1  0.347279  0.344423  0.250553  1
  Ir  Ir27  1  0.345709  0.654120  0.749173  1
  Ir  Ir28  1  0.500144  0.999927  0.623603  1
  Ir  Ir29  1  0.000088  0.500119  0.880875  1
  Ir  Ir30  1  0.999750  0.500496  0.380314  1
  Rh  Rh31  1  0.499921  0.000007  0.114220  1
