# generated using pymatgen
data_Ta6Ti3NbSi6
_symmetry_space_group_name_H-M   'P 1'
_cell_length_a   7.54993399
_cell_length_b   7.53585889
_cell_length_c   7.54936590
_cell_angle_alpha   128.90706123
_cell_angle_beta   128.95802594
_cell_angle_gamma   75.05522662
_symmetry_Int_Tables_number   1
_chemical_formula_structural   Ta6Ti3NbSi6
_chemical_formula_sum   'Ta6 Ti3 Nb1 Si6'
_cell_volume   253.15783921
_cell_formula_units_Z   1
loop_
 _symmetry_equiv_pos_site_id
 _symmetry_equiv_pos_as_xyz
  1  'x, y, z'
loop_
 _atom_site_type_symbol
 _atom_site_label
 _atom_site_symmetry_multiplicity
 _atom_site_fract_x
 _atom_site_fract_y
 _atom_site_fract_z
 _atom_site_occupancy
  Ta  Ta0  1  0.515255  0.015040  0.828932  1
  Ta  Ta1  1  0.186322  0.686108  0.171068  1
  Ta  Ta2  1  0.986372  0.813967  0.500000  1
  Ta  Ta3  1  0.314625  0.484509  0.500000  1
  Ta  Ta4  1  0.483076  0.984533  0.169654  1
  Ta  Ta5  1  0.813421  0.314879  0.830346  1
  Ti  Ti6  1  0.015101  0.186127  0.500000  1
  Ti  Ti7  1  0.000605  0.999565  0.999280  1
  Ti  Ti8  1  0.501324  0.500285  0.000720  1
  Nb  Nb9  1  0.686052  0.515247  0.500000  1
  Si  Si10  1  0.751690  0.753600  0.003491  1
  Si  Si11  1  0.248200  0.250109  0.996509  1
  Si  Si12  1  0.364644  0.131863  0.500000  1
  Si  Si13  1  0.632095  0.869149  0.500000  1
  Si  Si14  1  0.869687  0.366586  0.238156  1
  Si  Si15  1  0.131532  0.628432  0.761844  1
