# generated using pymatgen
data_Be4Co2MoW5C
_symmetry_space_group_name_H-M   'P 1'
_cell_length_a   7.54879350
_cell_length_b   7.54922831
_cell_length_c   7.55269609
_cell_angle_alpha   59.99914815
_cell_angle_beta   59.99745355
_cell_angle_gamma   60.03051828
_symmetry_Int_Tables_number   1
_chemical_formula_structural   Be4Co2MoW5C
_chemical_formula_sum   'Be8 Co4 Mo2 W10 C2'
_cell_volume   304.40797330
_cell_formula_units_Z   2
loop_
 _symmetry_equiv_pos_site_id
 _symmetry_equiv_pos_as_xyz
  1  'x, y, z'
loop_
 _atom_site_type_symbol
 _atom_site_label
 _atom_site_symmetry_multiplicity
 _atom_site_fract_x
 _atom_site_fract_y
 _atom_site_fract_z
 _atom_site_occupancy
  Be  Be0  1  0.421948  0.421922  0.734199  1
  Be  Be1  1  0.422027  0.734050  0.421988  1
  Be  Be2  1  0.734046  0.422011  0.421998  1
  Be  Be3  1  0.422031  0.422005  0.422057  1
  Be  Be4  1  0.828063  0.828088  0.515759  1
  Be  Be5  1  0.828037  0.515858  0.828099  1
  Be  Be6  1  0.515861  0.828053  0.828090  1
  Be  Be7  1  0.827973  0.828000  0.828053  1
  Co  Co8  1  0.625209  0.625210  0.124644  1
  Co  Co9  1  0.625172  0.124615  0.625390  1
  Co  Co10  1  0.124615  0.625170  0.625391  1
  Co  Co11  1  0.625009  0.625007  0.625379  1
  Mo  Mo12  1  0.200200  0.799795  0.200102  1
  Mo  Mo13  1  0.799792  0.200194  0.200121  1
  W  W14  1  0.049154  0.049173  0.451086  1
  W  W15  1  0.450524  0.049417  0.450799  1
  W  W16  1  0.049412  0.450521  0.450793  1
  W  W17  1  0.450837  0.450842  0.049294  1
  W  W18  1  0.049183  0.450881  0.049334  1
  W  W19  1  0.450883  0.049188  0.049321  1
  W  W20  1  0.200373  0.200355  0.799516  1
  W  W21  1  0.799269  0.200743  0.799155  1
  W  W22  1  0.200748  0.799272  0.799161  1
  W  W23  1  0.799640  0.799636  0.200254  1
  C  C24  1  0.250001  0.249999  0.250019  1
  C  C25  1  0.999995  0.999996  0.999996  1
