# generated using pymatgen
data_Ba7Ac3Sn8
_symmetry_space_group_name_H-M   'P 1'
_cell_length_a   8.75075500
_cell_length_b   9.27292774
_cell_length_c   18.03376814
_cell_angle_alpha   90.11682734
_cell_angle_beta   90.00000000
_cell_angle_gamma   90.00000000
_symmetry_Int_Tables_number   1
_chemical_formula_structural   Ba7Ac3Sn8
_chemical_formula_sum   'Ba14 Ac6 Sn16'
_cell_volume   1463.34921563
_cell_formula_units_Z   2
loop_
 _symmetry_equiv_pos_site_id
 _symmetry_equiv_pos_as_xyz
  1  'x, y, z'
loop_
 _atom_site_type_symbol
 _atom_site_label
 _atom_site_symmetry_multiplicity
 _atom_site_fract_x
 _atom_site_fract_y
 _atom_site_fract_z
 _atom_site_occupancy
  Ba  Ba0  1  0.322713  0.829099  0.615429  1
  Ba  Ba1  1  0.822713  0.670901  0.884571  1
  Ba  Ba2  1  0.489544  0.320249  0.905862  1
  Ba  Ba3  1  0.989544  0.179751  0.594138  1
  Ba  Ba4  1  0.508650  0.678764  0.405408  1
  Ba  Ba5  1  0.008650  0.821236  0.094592  1
  Ba  Ba6  1  0.508783  0.676145  0.095204  1
  Ba  Ba7  1  0.008783  0.823855  0.404796  1
  Ba  Ba8  1  0.487176  0.319293  0.590446  1
  Ba  Ba9  1  0.987176  0.180707  0.909554  1
  Ba  Ba10  1  0.159265  0.486973  0.750648  1
  Ba  Ba11  1  0.659265  0.013027  0.749352  1
  Ba  Ba12  1  0.835721  0.527425  0.250920  1
  Ba  Ba13  1  0.335721  0.972575  0.249080  1
  Ac  Ac14  1  0.323376  0.828259  0.881544  1
  Ac  Ac15  1  0.823376  0.671741  0.618456  1
  Ac  Ac16  1  0.678944  0.173880  0.376267  1
  Ac  Ac17  1  0.178944  0.326120  0.123733  1
  Ac  Ac18  1  0.676170  0.175185  0.122254  1
  Ac  Ac19  1  0.176170  0.324815  0.377746  1
  Sn  Sn20  1  0.343738  0.039207  0.039046  1
  Sn  Sn21  1  0.843738  0.460793  0.460954  1
  Sn  Sn22  1  0.662916  0.962305  0.531440  1
  Sn  Sn23  1  0.162916  0.537695  0.968560  1
  Sn  Sn24  1  0.644118  0.969026  0.965411  1
  Sn  Sn25  1  0.144118  0.530974  0.534589  1
  Sn  Sn26  1  0.356030  0.042631  0.456304  1
  Sn  Sn27  1  0.856030  0.457369  0.043696  1
  Sn  Sn28  1  0.534564  0.615030  0.748464  1
  Sn  Sn29  1  0.034564  0.884970  0.751536  1
  Sn  Sn30  1  0.468996  0.370510  0.250720  1
  Sn  Sn31  1  0.968996  0.129490  0.249280  1
  Sn  Sn32  1  0.267266  0.113219  0.754233  1
  Sn  Sn33  1  0.767266  0.386781  0.745767  1
  Sn  Sn34  1  0.732035  0.898785  0.248542  1
  Sn  Sn35  1  0.232035  0.601215  0.251458  1
