# generated using pymatgen
data_Pu4HgRh4Pb
_symmetry_space_group_name_H-M   'P 1'
_cell_length_a   7.64635400
_cell_length_b   7.64635400
_cell_length_c   3.74726400
_cell_angle_alpha   90.00000000
_cell_angle_beta   90.00000000
_cell_angle_gamma   90.00000000
_symmetry_Int_Tables_number   1
_chemical_formula_structural   Pu4HgRh4Pb
_chemical_formula_sum   'Pu4 Hg1 Rh4 Pb1'
_cell_volume   219.09027063
_cell_formula_units_Z   1
loop_
 _symmetry_equiv_pos_site_id
 _symmetry_equiv_pos_as_xyz
  1  'x, y, z'
loop_
 _atom_site_type_symbol
 _atom_site_label
 _atom_site_symmetry_multiplicity
 _atom_site_fract_x
 _atom_site_fract_y
 _atom_site_fract_z
 _atom_site_occupancy
  Pu  Pu0  1  0.669077  0.167561  0.500000  1
  Pu  Pu1  1  0.167561  0.330923  0.500000  1
  Pu  Pu2  1  0.832439  0.669077  0.500000  1
  Pu  Pu3  1  0.330923  0.832439  0.500000  1
  Hg  Hg4  1  0.000000  0.000000  0.000000  1
  Rh  Rh5  1  0.868941  0.362515  0.000000  1
  Rh  Rh6  1  0.131059  0.637485  0.000000  1
  Rh  Rh7  1  0.637485  0.868941  0.000000  1
  Rh  Rh8  1  0.362515  0.131059  0.000000  1
  Pb  Pb9  1  0.500000  0.500000  0.000000  1
