# generated using pymatgen
data_Pr18Sm2Si15As
_symmetry_space_group_name_H-M   'P 1'
_cell_length_a   7.90884968
_cell_length_b   7.90167291
_cell_length_c   15.32551517
_cell_angle_alpha   89.93423643
_cell_angle_beta   89.68687308
_cell_angle_gamma   89.97525101
_symmetry_Int_Tables_number   1
_chemical_formula_structural   Pr18Sm2Si15As
_chemical_formula_sum   'Pr18 Sm2 Si15 As1'
_cell_volume   957.72459501
_cell_formula_units_Z   1
loop_
 _symmetry_equiv_pos_site_id
 _symmetry_equiv_pos_as_xyz
  1  'x, y, z'
loop_
 _atom_site_type_symbol
 _atom_site_label
 _atom_site_symmetry_multiplicity
 _atom_site_fract_x
 _atom_site_fract_y
 _atom_site_fract_z
 _atom_site_occupancy
  Pr  Pr0  1  0.804543  0.190741  0.750999  1
  Pr  Pr1  1  0.688615  0.690144  0.498338  1
  Pr  Pr2  1  0.379216  0.009597  0.445572  1
  Pr  Pr3  1  0.490233  0.877122  0.697689  1
  Pr  Pr4  1  0.510687  0.122185  0.196776  1
  Pr  Pr5  1  0.877340  0.488077  0.301948  1
  Pr  Pr6  1  0.122916  0.510695  0.803618  1
  Pr  Pr7  1  0.623769  0.987851  0.947712  1
  Pr  Pr8  1  0.007503  0.378823  0.551180  1
  Pr  Pr9  1  0.989240  0.621400  0.053248  1
  Pr  Pr10  1  0.129758  0.983660  0.876281  1
  Pr  Pr11  1  0.519106  0.627602  0.126207  1
  Pr  Pr12  1  0.480647  0.372530  0.627924  1
  Pr  Pr13  1  0.628139  0.519294  0.874060  1
  Pr  Pr14  1  0.372308  0.479725  0.373601  1
  Pr  Pr15  1  0.873074  0.018673  0.376652  1
  Pr  Pr16  1  0.981759  0.128015  0.123882  1
  Pr  Pr17  1  0.017976  0.871789  0.622825  1
  Sm  Sm18  1  0.311267  0.310438  0.999993  1
  Sm  Sm19  1  0.189246  0.809736  0.249872  1
  Si  Si20  1  0.330134  0.694246  0.952997  1
  Si  Si21  1  0.667765  0.304534  0.453226  1
  Si  Si22  1  0.695632  0.331646  0.047583  1
  Si  Si23  1  0.303575  0.668047  0.547885  1
  Si  Si24  1  0.805870  0.831331  0.203048  1
  Si  Si25  1  0.169013  0.194207  0.296610  1
  Si  Si26  1  0.835133  0.803943  0.797340  1
  Si  Si27  1  0.287000  0.921971  0.060529  1
  Si  Si28  1  0.576020  0.788613  0.308788  1
  Si  Si29  1  0.429639  0.211750  0.815936  1
  Si  Si30  1  0.788864  0.578972  0.689517  1
  Si  Si31  1  0.212169  0.423106  0.189528  1
  Si  Si32  1  0.708695  0.076978  0.560161  1
  Si  Si33  1  0.925735  0.288920  0.940824  1
  Si  Si34  1  0.079488  0.712255  0.438919  1
  As  As35  1  0.187926  0.171379  0.698728  1
