# generated using pymatgen
data_Ba3AgAs2H
_symmetry_space_group_name_H-M   'P 1'
_cell_length_a   4.70620500
_cell_length_b   13.04695800
_cell_length_c   13.53730700
_cell_angle_alpha   90.00000000
_cell_angle_beta   90.00000000
_cell_angle_gamma   90.00000000
_symmetry_Int_Tables_number   1
_chemical_formula_structural   Ba3AgAs2H
_chemical_formula_sum   'Ba12 Ag4 As8 H4'
_cell_volume   831.21310785
_cell_formula_units_Z   4
loop_
 _symmetry_equiv_pos_site_id
 _symmetry_equiv_pos_as_xyz
  1  'x, y, z'
loop_
 _atom_site_type_symbol
 _atom_site_label
 _atom_site_symmetry_multiplicity
 _atom_site_fract_x
 _atom_site_fract_y
 _atom_site_fract_z
 _atom_site_occupancy
  Ba  Ba0  1  0.250000  0.069970  0.623126  1
  Ba  Ba1  1  0.250000  0.569970  0.876874  1
  Ba  Ba2  1  0.750000  0.930030  0.376874  1
  Ba  Ba3  1  0.750000  0.430030  0.123126  1
  Ba  Ba4  1  0.250000  0.202824  0.301809  1
  Ba  Ba5  1  0.250000  0.702824  0.198191  1
  Ba  Ba6  1  0.750000  0.797176  0.698191  1
  Ba  Ba7  1  0.750000  0.297176  0.801809  1
  Ba  Ba8  1  0.250000  0.373203  0.558903  1
  Ba  Ba9  1  0.250000  0.873203  0.941097  1
  Ba  Ba10  1  0.750000  0.626797  0.441097  1
  Ba  Ba11  1  0.750000  0.126797  0.058903  1
  Ag  Ag12  1  0.250000  0.128352  0.868714  1
  Ag  Ag13  1  0.250000  0.628352  0.631286  1
  Ag  Ag14  1  0.750000  0.871648  0.131286  1
  Ag  Ag15  1  0.750000  0.371648  0.368714  1
  As  As16  1  0.250000  0.308125  0.986381  1
  As  As17  1  0.250000  0.808125  0.513619  1
  As  As18  1  0.750000  0.691875  0.013619  1
  As  As19  1  0.750000  0.191875  0.486381  1
  As  As20  1  0.250000  0.470411  0.320000  1
  As  As21  1  0.250000  0.970411  0.180000  1
  As  As22  1  0.750000  0.529589  0.680000  1
  As  As23  1  0.750000  0.029589  0.820000  1
  H  H24  1  0.250000  0.248872  0.719478  1
  H  H25  1  0.250000  0.748872  0.780522  1
  H  H26  1  0.750000  0.751128  0.280522  1
  H  H27  1  0.750000  0.251128  0.219478  1
