# generated using pymatgen
data_Pr6Cd21Ag2P
_symmetry_space_group_name_H-M   'P 1'
_cell_length_a   10.05089212
_cell_length_b   10.05089221
_cell_length_c   10.02966414
_cell_angle_alpha   60.22659461
_cell_angle_beta   60.22659440
_cell_angle_gamma   60.11859743
_symmetry_Int_Tables_number   1
_chemical_formula_structural   Pr6Cd21Ag2P
_chemical_formula_sum   'Pr6 Cd21 Ag2 P1'
_cell_volume   719.53181582
_cell_formula_units_Z   1
loop_
 _symmetry_equiv_pos_site_id
 _symmetry_equiv_pos_as_xyz
  1  'x, y, z'
loop_
 _atom_site_type_symbol
 _atom_site_label
 _atom_site_symmetry_multiplicity
 _atom_site_fract_x
 _atom_site_fract_y
 _atom_site_fract_z
 _atom_site_occupancy
  Pr  Pr0  1  0.796153  0.796153  0.204778  1
  Pr  Pr1  1  0.201284  0.797001  0.205523  1
  Pr  Pr2  1  0.797001  0.201284  0.205523  1
  Pr  Pr3  1  0.204330  0.204330  0.796498  1
  Pr  Pr4  1  0.795215  0.204037  0.795852  1
  Pr  Pr5  1  0.204037  0.795215  0.795852  1
  Cd  Cd6  1  0.827738  0.504333  0.833911  1
  Cd  Cd7  1  0.504333  0.827738  0.833911  1
  Cd  Cd8  1  0.833553  0.833553  0.833360  1
  Cd  Cd9  1  0.167206  0.167206  0.498185  1
  Cd  Cd10  1  0.172157  0.496664  0.165662  1
  Cd  Cd11  1  0.496664  0.172157  0.165662  1
  Cd  Cd12  1  0.166289  0.166289  0.166699  1
  Cd  Cd13  1  0.619888  0.619888  0.134542  1
  Cd  Cd14  1  0.624475  0.131867  0.620463  1
  Cd  Cd15  1  0.131867  0.624475  0.620463  1
  Cd  Cd16  1  0.620855  0.620855  0.624479  1
  Cd  Cd17  1  0.379900  0.379900  0.865535  1
  Cd  Cd18  1  0.377883  0.864619  0.377992  1
  Cd  Cd19  1  0.864619  0.377883  0.377992  1
  Cd  Cd20  1  0.381305  0.381305  0.374265  1
  Cd  Cd21  1  0.998285  0.998285  0.499188  1
  Cd  Cd22  1  0.504407  0.998298  0.499220  1
  Cd  Cd23  1  0.998298  0.504407  0.499220  1
  Cd  Cd24  1  0.000164  0.500202  0.999873  1
  Cd  Cd25  1  0.500202  0.000164  0.999873  1
  Cd  Cd26  1  0.499619  0.499619  0.501303  1
  Ag  Ag27  1  0.831728  0.831728  0.505120  1
  Ag  Ag28  1  0.500167  0.500167  0.999962  1
  P  P29  1  0.000379  0.000379  0.999090  1
