# generated using pymatgen
data_Li6Ta6Ir11Ru
_symmetry_space_group_name_H-M   'P 1'
_cell_length_a   4.36323100
_cell_length_b   6.14034900
_cell_length_c   13.06122500
_cell_angle_alpha   89.99988699
_cell_angle_beta   90.00015336
_cell_angle_gamma   90.00029374
_symmetry_Int_Tables_number   1
_chemical_formula_structural   Li6Ta6Ir11Ru
_chemical_formula_sum   'Li6 Ta6 Ir11 Ru1'
_cell_volume   349.93321997
_cell_formula_units_Z   1
loop_
 _symmetry_equiv_pos_site_id
 _symmetry_equiv_pos_as_xyz
  1  'x, y, z'
loop_
 _atom_site_type_symbol
 _atom_site_label
 _atom_site_symmetry_multiplicity
 _atom_site_fract_x
 _atom_site_fract_y
 _atom_site_fract_z
 _atom_site_occupancy
  Li  Li0  1  0.999999  0.000266  0.999748  1
  Li  Li1  1  0.499356  0.499733  0.166471  1
  Li  Li2  1  0.999356  0.000306  0.333410  1
  Li  Li3  1  0.499996  0.499715  0.500126  1
  Li  Li4  1  0.000640  0.000268  0.666835  1
  Li  Li5  1  0.500656  0.499664  0.833409  1
  Ta  Ta6  1  0.000015  0.501943  0.997866  1
  Ta  Ta7  1  0.499580  0.000145  0.166383  1
  Ta  Ta8  1  0.999594  0.499803  0.333328  1
  Ta  Ta9  1  0.499998  0.000133  0.500284  1
  Ta  Ta10  1  0.000408  0.501933  0.668816  1
  Ta  Ta11  1  0.500396  0.995945  0.833327  1
  Ir  Ir12  1  0.500001  0.250628  0.000251  1
  Ir  Ir13  1  0.500019  0.749451  0.000209  1
  Ir  Ir14  1  0.999584  0.249982  0.166658  1
  Ir  Ir15  1  0.999589  0.750550  0.166888  1
  Ir  Ir16  1  0.499588  0.250679  0.333323  1
  Ir  Ir17  1  0.499590  0.749285  0.333323  1
  Ir  Ir18  1  0.999997  0.249997  0.500018  1
  Ir  Ir19  1  0.999997  0.750542  0.499786  1
  Ir  Ir20  1  0.500421  0.250643  0.666428  1
  Ir  Ir21  1  0.500422  0.749435  0.666473  1
  Ir  Ir22  1  0.000415  0.248347  0.833323  1
  Ru  Ru23  1  0.000383  0.750608  0.833315  1
