# generated using pymatgen
data_Sc4Ti2B4Ir3Rh7
_symmetry_space_group_name_H-M   'P 1'
_cell_length_a   3.12402800
_cell_length_b   9.37398520
_cell_length_c   9.38617520
_cell_angle_alpha   89.97642218
_cell_angle_beta   90.00000000
_cell_angle_gamma   90.00000000
_symmetry_Int_Tables_number   1
_chemical_formula_structural   Sc4Ti2B4Ir3Rh7
_chemical_formula_sum   'Sc4 Ti2 B4 Ir3 Rh7'
_cell_volume   274.87029003
_cell_formula_units_Z   1
loop_
 _symmetry_equiv_pos_site_id
 _symmetry_equiv_pos_as_xyz
  1  'x, y, z'
loop_
 _atom_site_type_symbol
 _atom_site_label
 _atom_site_symmetry_multiplicity
 _atom_site_fract_x
 _atom_site_fract_y
 _atom_site_fract_z
 _atom_site_occupancy
  Sc  Sc0  1  0.000000  0.174355  0.174355  1
  Sc  Sc1  1  0.000000  0.673940  0.326166  1
  Sc  Sc2  1  0.000000  0.325324  0.674612  1
  Sc  Sc3  1  0.000000  0.824947  0.825552  1
  Ti  Ti4  1  0.000000  0.498643  0.997504  1
  Ti  Ti5  1  0.000000  0.000598  0.501778  1
  B  B6  1  0.000000  0.878060  0.122454  1
  B  B7  1  0.000000  0.378659  0.377315  1
  B  B8  1  0.000000  0.621865  0.621874  1
  B  B9  1  0.000000  0.121761  0.878018  1
  Ir  Ir10  1  0.500000  0.716598  0.070747  1
  Ir  Ir11  1  0.500000  0.429731  0.217741  1
  Ir  Ir12  1  0.500000  0.929838  0.283260  1
  Rh  Rh13  1  0.500000  0.000259  0.998795  1
  Rh  Rh14  1  0.500000  0.217316  0.428703  1
  Rh  Rh15  1  0.500000  0.499606  0.501476  1
  Rh  Rh16  1  0.500000  0.782363  0.570662  1
  Rh  Rh17  1  0.500000  0.071830  0.717647  1
  Rh  Rh18  1  0.500000  0.572277  0.782180  1
  Rh  Rh19  1  0.500000  0.282029  0.929156  1
