# generated using pymatgen
data_Nd15Th(CdIr)4
_symmetry_space_group_name_H-M   'P 1'
_cell_length_a   9.97882133
_cell_length_b   9.97882164
_cell_length_c   9.97882215
_cell_angle_alpha   59.98372678
_cell_angle_beta   59.98372592
_cell_angle_gamma   59.98373307
_symmetry_Int_Tables_number   1
_chemical_formula_structural   Nd15Th(CdIr)4
_chemical_formula_sum   'Nd15 Th1 Cd4 Ir4'
_cell_volume   702.36446110
_cell_formula_units_Z   1
loop_
 _symmetry_equiv_pos_site_id
 _symmetry_equiv_pos_as_xyz
  1  'x, y, z'
loop_
 _atom_site_type_symbol
 _atom_site_label
 _atom_site_symmetry_multiplicity
 _atom_site_fract_x
 _atom_site_fract_y
 _atom_site_fract_z
 _atom_site_occupancy
  Nd  Nd0  1  0.349267  0.349267  0.952279  1
  Nd  Nd1  1  0.349267  0.952279  0.349267  1
  Nd  Nd2  1  0.952279  0.349267  0.349267  1
  Nd  Nd3  1  0.810237  0.190049  0.190049  1
  Nd  Nd4  1  0.189498  0.809032  0.809032  1
  Nd  Nd5  1  0.190049  0.810237  0.190049  1
  Nd  Nd6  1  0.809032  0.189498  0.809032  1
  Nd  Nd7  1  0.190049  0.190049  0.810237  1
  Nd  Nd8  1  0.809032  0.809032  0.189498  1
  Nd  Nd9  1  0.940865  0.562203  0.562203  1
  Nd  Nd10  1  0.559466  0.939407  0.939407  1
  Nd  Nd11  1  0.562203  0.940865  0.562203  1
  Nd  Nd12  1  0.939407  0.559466  0.939407  1
  Nd  Nd13  1  0.562203  0.562203  0.940865  1
  Nd  Nd14  1  0.939407  0.939407  0.559466  1
  Th  Th15  1  0.344526  0.344526  0.344526  1
  Cd  Cd16  1  0.579791  0.579791  0.579791  1
  Cd  Cd17  1  0.579778  0.579778  0.258144  1
  Cd  Cd18  1  0.579778  0.258144  0.579778  1
  Cd  Cd19  1  0.258144  0.579778  0.579778  1
  Ir  Ir20  1  0.142144  0.142144  0.142144  1
  Ir  Ir21  1  0.146167  0.146167  0.571242  1
  Ir  Ir22  1  0.146167  0.571242  0.146167  1
  Ir  Ir23  1  0.571242  0.146167  0.146167  1
