# generated using pymatgen
data_Tb2Lu2B12OsW
_symmetry_space_group_name_H-M   'P 1'
_cell_length_a   3.60613900
_cell_length_b   9.17089768
_cell_length_c   11.58370528
_cell_angle_alpha   89.85507620
_cell_angle_beta   90.00000000
_cell_angle_gamma   90.00000000
_symmetry_Int_Tables_number   1
_chemical_formula_structural   Tb2Lu2B12OsW
_chemical_formula_sum   'Tb4 Lu4 B24 Os2 W2'
_cell_volume   383.08965213
_cell_formula_units_Z   2
loop_
 _symmetry_equiv_pos_site_id
 _symmetry_equiv_pos_as_xyz
  1  'x, y, z'
loop_
 _atom_site_type_symbol
 _atom_site_label
 _atom_site_symmetry_multiplicity
 _atom_site_fract_x
 _atom_site_fract_y
 _atom_site_fract_z
 _atom_site_occupancy
  Tb  Tb0  1  0.000000  0.320979  0.413770  1
  Tb  Tb1  1  0.000000  0.679021  0.586230  1
  Tb  Tb2  1  0.000000  0.821329  0.086109  1
  Tb  Tb3  1  0.000000  0.178671  0.913891  1
  Lu  Lu4  1  0.000000  0.945089  0.371539  1
  Lu  Lu5  1  0.000000  0.054911  0.628461  1
  Lu  Lu6  1  0.000000  0.442328  0.127696  1
  Lu  Lu7  1  0.000000  0.557672  0.872304  1
  B  B8  1  0.500000  0.551506  0.434119  1
  B  B9  1  0.500000  0.448494  0.565881  1
  B  B10  1  0.500000  0.054329  0.067419  1
  B  B11  1  0.500000  0.945671  0.932581  1
  B  B12  1  0.500000  0.753448  0.420659  1
  B  B13  1  0.500000  0.246552  0.579341  1
  B  B14  1  0.500000  0.249921  0.082111  1
  B  B15  1  0.500000  0.750079  0.917889  1
  B  B16  1  0.500000  0.796409  0.263484  1
  B  B17  1  0.500000  0.203591  0.736515  1
  B  B18  1  0.500000  0.290592  0.233417  1
  B  B19  1  0.500000  0.709408  0.766584  1
  B  B20  1  0.500000  0.630921  0.180882  1
  B  B21  1  0.500000  0.369079  0.819118  1
  B  B22  1  0.500000  0.129701  0.313791  1
  B  B23  1  0.500000  0.870299  0.686209  1
  B  B24  1  0.500000  0.983510  0.212309  1
  B  B25  1  0.500000  0.016490  0.787691  1
  B  B26  1  0.500000  0.477641  0.285048  1
  B  B27  1  0.500000  0.522359  0.714952  1
  B  B28  1  0.500000  0.600202  0.026849  1
  B  B29  1  0.500000  0.399798  0.973151  1
  B  B30  1  0.500000  0.099805  0.471489  1
  B  B31  1  0.500000  0.900195  0.528511  1
  Os  Os32  1  0.000000  0.138462  0.178900  1
  Os  Os33  1  0.000000  0.861538  0.821100  1
  W  W34  1  0.000000  0.639373  0.318920  1
  W  W35  1  0.000000  0.360627  0.681080  1
