# generated using pymatgen
data_Tb2SmP4Pd7
_symmetry_space_group_name_H-M   'P 1'
_cell_length_a   7.98448279
_cell_length_b   7.98448331
_cell_length_c   9.49937606
_cell_angle_alpha   55.79004525
_cell_angle_beta   55.79004380
_cell_angle_gamma   29.12280259
_symmetry_Int_Tables_number   1
_chemical_formula_structural   Tb2SmP4Pd7
_chemical_formula_sum   'Tb2 Sm1 P4 Pd7'
_cell_volume   239.91166144
_cell_formula_units_Z   1
loop_
 _symmetry_equiv_pos_site_id
 _symmetry_equiv_pos_as_xyz
  1  'x, y, z'
loop_
 _atom_site_type_symbol
 _atom_site_label
 _atom_site_symmetry_multiplicity
 _atom_site_fract_x
 _atom_site_fract_y
 _atom_site_fract_z
 _atom_site_occupancy
  Tb  Tb0  1  0.679843  0.679843  0.323825  1
  Tb  Tb1  1  0.320157  0.320157  0.676175  1
  Sm  Sm2  1  0.000000  0.000000  0.000000  1
  P  P3  1  0.339406  0.339406  0.255924  1
  P  P4  1  0.660594  0.660594  0.744076  1
  P  P5  1  0.893724  0.893724  0.818876  1
  P  P6  1  0.106276  0.106276  0.181124  1
  Pd  Pd7  1  0.304498  0.304498  0.030203  1
  Pd  Pd8  1  0.695502  0.695502  0.969797  1
  Pd  Pd9  1  0.509432  0.509432  0.714852  1
  Pd  Pd10  1  0.830941  0.830941  0.422795  1
  Pd  Pd11  1  0.490568  0.490568  0.285148  1
  Pd  Pd12  1  0.169059  0.169059  0.577205  1
  Pd  Pd13  1  0.000000  0.000000  0.500000  1
