# generated using pymatgen
data_RbBaCrN3
_symmetry_space_group_name_H-M   'P 1'
_cell_length_a   6.71086974
_cell_length_b   6.71086851
_cell_length_c   12.94856100
_cell_angle_alpha   90.00000000
_cell_angle_beta   90.00000000
_cell_angle_gamma   128.30244209
_symmetry_Int_Tables_number   1
_chemical_formula_structural   RbBaCrN3
_chemical_formula_sum   'Rb4 Ba4 Cr4 N12'
_cell_volume   457.62563447
_cell_formula_units_Z   4
loop_
 _symmetry_equiv_pos_site_id
 _symmetry_equiv_pos_as_xyz
  1  'x, y, z'
loop_
 _atom_site_type_symbol
 _atom_site_label
 _atom_site_symmetry_multiplicity
 _atom_site_fract_x
 _atom_site_fract_y
 _atom_site_fract_z
 _atom_site_occupancy
  Rb  Rb0  1  0.547731  0.452269  0.642405  1
  Rb  Rb1  1  0.452269  0.547731  0.357595  1
  Rb  Rb2  1  0.952269  0.047731  0.142405  1
  Rb  Rb3  1  0.047731  0.952269  0.857595  1
  Ba  Ba4  1  0.852462  0.147538  0.583114  1
  Ba  Ba5  1  0.147538  0.852462  0.416886  1
  Ba  Ba6  1  0.647538  0.352462  0.083114  1
  Ba  Ba7  1  0.352462  0.647538  0.916886  1
  Cr  Cr8  1  0.728508  0.271492  0.829932  1
  Cr  Cr9  1  0.271492  0.728508  0.170068  1
  Cr  Cr10  1  0.771492  0.228508  0.329932  1
  Cr  Cr11  1  0.228508  0.771492  0.670068  1
  N  N12  1  0.811627  0.188373  0.935461  1
  N  N13  1  0.188373  0.811627  0.064539  1
  N  N14  1  0.688373  0.311627  0.435461  1
  N  N15  1  0.311627  0.688373  0.564539  1
  N  N16  1  0.594983  0.405017  0.869696  1
  N  N17  1  0.405017  0.594983  0.130304  1
  N  N18  1  0.905017  0.094983  0.369696  1
  N  N19  1  0.094983  0.905017  0.630304  1
  N  N20  1  0.510410  0.989590  0.750000  1
  N  N21  1  0.989590  0.510410  0.250000  1
  N  N22  1  0.489590  0.010410  0.250000  1
  N  N23  1  0.010410  0.489590  0.750000  1
