# generated using pymatgen
data_Rb2UV2O9
_symmetry_space_group_name_H-M   'P 1'
_cell_length_a   5.79729400
_cell_length_b   13.51990100
_cell_length_c   12.77446000
_cell_angle_alpha   90.00000000
_cell_angle_beta   90.00000000
_cell_angle_gamma   90.00000000
_symmetry_Int_Tables_number   1
_chemical_formula_structural   Rb2UV2O9
_chemical_formula_sum   'Rb8 U4 V8 O36'
_cell_volume   1001.24736854
_cell_formula_units_Z   4
loop_
 _symmetry_equiv_pos_site_id
 _symmetry_equiv_pos_as_xyz
  1  'x, y, z'
loop_
 _atom_site_type_symbol
 _atom_site_label
 _atom_site_symmetry_multiplicity
 _atom_site_fract_x
 _atom_site_fract_y
 _atom_site_fract_z
 _atom_site_occupancy
  Rb  Rb0  1  0.513596  0.420636  0.750000  1
  Rb  Rb1  1  0.486404  0.579364  0.250000  1
  Rb  Rb2  1  0.486404  0.920636  0.250000  1
  Rb  Rb3  1  0.513596  0.079364  0.750000  1
  Rb  Rb4  1  0.484769  0.750000  0.578684  1
  Rb  Rb5  1  0.484769  0.750000  0.921316  1
  Rb  Rb6  1  0.515231  0.250000  0.078684  1
  Rb  Rb7  1  0.515231  0.250000  0.421316  1
  U  U8  1  0.000000  0.000000  0.500000  1
  U  U9  1  0.000000  0.000000  0.000000  1
  U  U10  1  0.000000  0.500000  0.500000  1
  U  U11  1  0.000000  0.500000  0.000000  1
  V  V12  1  0.048916  0.373020  0.250000  1
  V  V13  1  0.023316  0.750000  0.381948  1
  V  V14  1  0.048916  0.126980  0.250000  1
  V  V15  1  0.976684  0.250000  0.618052  1
  V  V16  1  0.976684  0.250000  0.881948  1
  V  V17  1  0.951084  0.873020  0.750000  1
  V  V18  1  0.951084  0.626980  0.750000  1
  V  V19  1  0.023316  0.750000  0.118052  1
  O  O20  1  0.267374  0.477532  0.927681  1
  O  O21  1  0.835572  0.567904  0.859021  1
  O  O22  1  0.736993  0.750000  0.381044  1
  O  O23  1  0.137777  0.647611  0.446716  1
  O  O24  1  0.140241  0.750000  0.250000  1
  O  O25  1  0.263007  0.250000  0.881044  1
  O  O26  1  0.732626  0.522468  0.072319  1
  O  O27  1  0.862223  0.352389  0.553284  1
  O  O28  1  0.862223  0.147611  0.946716  1
  O  O29  1  0.267374  0.022468  0.572319  1
  O  O30  1  0.762990  0.367497  0.250000  1
  O  O31  1  0.835572  0.932096  0.640979  1
  O  O32  1  0.827300  0.750000  0.750000  1
  O  O33  1  0.172700  0.250000  0.250000  1
  O  O34  1  0.859759  0.250000  0.750000  1
  O  O35  1  0.732626  0.977532  0.427681  1
  O  O36  1  0.137777  0.852389  0.446716  1
  O  O37  1  0.137777  0.852389  0.053284  1
  O  O38  1  0.732626  0.977532  0.072319  1
  O  O39  1  0.164428  0.067904  0.140979  1
  O  O40  1  0.835572  0.567904  0.640979  1
  O  O41  1  0.862223  0.147611  0.553284  1
  O  O42  1  0.835572  0.932096  0.859021  1
  O  O43  1  0.164428  0.067904  0.359021  1
  O  O44  1  0.267374  0.022468  0.927681  1
  O  O45  1  0.762990  0.132503  0.250000  1
  O  O46  1  0.164428  0.432096  0.140979  1
  O  O47  1  0.237010  0.632503  0.750000  1
  O  O48  1  0.736993  0.750000  0.118956  1
  O  O49  1  0.137777  0.647611  0.053284  1
  O  O50  1  0.862223  0.352389  0.946716  1
  O  O51  1  0.237010  0.867497  0.750000  1
  O  O52  1  0.164428  0.432096  0.359021  1
  O  O53  1  0.263007  0.250000  0.618956  1
  O  O54  1  0.732626  0.522468  0.427681  1
  O  O55  1  0.267374  0.477532  0.572319  1
