# generated using pymatgen
data_Sc5Ta3V12Si15Ge
_symmetry_space_group_name_H-M   'P 1'
_cell_length_a   6.57745820
_cell_length_b   6.58267652
_cell_length_c   12.16809923
_cell_angle_alpha   90.06029127
_cell_angle_beta   89.94587366
_cell_angle_gamma   89.99786246
_symmetry_Int_Tables_number   1
_chemical_formula_structural   Sc5Ta3V12Si15Ge
_chemical_formula_sum   'Sc5 Ta3 V12 Si15 Ge1'
_cell_volume   526.84506840
_cell_formula_units_Z   1
loop_
 _symmetry_equiv_pos_site_id
 _symmetry_equiv_pos_as_xyz
  1  'x, y, z'
loop_
 _atom_site_type_symbol
 _atom_site_label
 _atom_site_symmetry_multiplicity
 _atom_site_fract_x
 _atom_site_fract_y
 _atom_site_fract_z
 _atom_site_occupancy
  Sc  Sc0  1  0.501168  0.835593  0.721235  1
  Sc  Sc1  1  0.502394  0.166690  0.221745  1
  Sc  Sc2  1  0.998588  0.337277  0.529085  1
  Sc  Sc3  1  0.666531  0.999236  0.969980  1
  Sc  Sc4  1  0.338030  0.998138  0.469564  1
  Ta  Ta5  1  0.005327  0.657108  0.029269  1
  Ta  Ta6  1  0.839349  0.507582  0.280814  1
  Ta  Ta7  1  0.158579  0.491933  0.780810  1
  V  V8  1  0.328704  0.340414  0.998779  1
  V  V9  1  0.160671  0.826186  0.249720  1
  V  V10  1  0.837910  0.170412  0.749750  1
  V  V11  1  0.667882  0.666409  0.499325  1
  V  V12  1  0.996729  0.161095  0.127369  1
  V  V13  1  0.339835  0.503048  0.375831  1
  V  V14  1  0.660442  0.498870  0.877949  1
  V  V15  1  0.510107  0.345534  0.624448  1
  V  V16  1  0.491706  0.652921  0.122679  1
  V  V17  1  0.997654  0.843138  0.628713  1
  V  V18  1  0.157390  0.008706  0.871789  1
  V  V19  1  0.839716  0.989687  0.371967  1
  Si  Si20  1  0.536517  0.791253  0.313450  1
  Si  Si21  1  0.463729  0.208439  0.815201  1
  Si  Si22  1  0.797031  0.541894  0.685335  1
  Si  Si23  1  0.203280  0.457874  0.185382  1
  Si  Si24  1  0.707437  0.038382  0.564409  1
  Si  Si25  1  0.957643  0.293882  0.935362  1
  Si  Si26  1  0.039346  0.705853  0.436356  1
  Si  Si27  1  0.706659  0.374128  0.073271  1
  Si  Si28  1  0.124711  0.203486  0.320441  1
  Si  Si29  1  0.875178  0.792322  0.823283  1
  Si  Si30  1  0.208620  0.132211  0.678643  1
  Si  Si31  1  0.793659  0.866183  0.176535  1
  Si  Si32  1  0.295086  0.628452  0.572979  1
  Si  Si33  1  0.367552  0.703655  0.924766  1
  Si  Si34  1  0.631212  0.296620  0.427547  1
  Ge  Ge35  1  0.293628  0.965388  0.066219  1
