# generated using pymatgen
data_HoTm2B7W
_symmetry_space_group_name_H-M   'P 1'
_cell_length_a   8.07019471
_cell_length_b   8.07019400
_cell_length_c   9.44146500
_cell_angle_alpha   90.00000000
_cell_angle_beta   90.00000000
_cell_angle_gamma   155.46632379
_symmetry_Int_Tables_number   1
_chemical_formula_structural   HoTm2B7W
_chemical_formula_sum   'Ho2 Tm4 B14 W2'
_cell_volume   255.32539819
_cell_formula_units_Z   2
loop_
 _symmetry_equiv_pos_site_id
 _symmetry_equiv_pos_as_xyz
  1  'x, y, z'
loop_
 _atom_site_type_symbol
 _atom_site_label
 _atom_site_symmetry_multiplicity
 _atom_site_fract_x
 _atom_site_fract_y
 _atom_site_fract_z
 _atom_site_occupancy
  Ho  Ho0  1  0.246257  0.753743  0.250000  1
  Ho  Ho1  1  0.753743  0.246257  0.750000  1
  Tm  Tm2  1  0.892765  0.107235  0.440818  1
  Tm  Tm3  1  0.107235  0.892765  0.559182  1
  Tm  Tm4  1  0.892765  0.107235  0.059182  1
  Tm  Tm5  1  0.107235  0.892765  0.940818  1
  B  B6  1  0.727774  0.272226  0.467329  1
  B  B7  1  0.272226  0.727774  0.532671  1
  B  B8  1  0.727774  0.272226  0.032671  1
  B  B9  1  0.272226  0.727774  0.967329  1
  B  B10  1  0.635273  0.364727  0.146699  1
  B  B11  1  0.364727  0.635273  0.853301  1
  B  B12  1  0.635273  0.364727  0.353301  1
  B  B13  1  0.364727  0.635273  0.646699  1
  B  B14  1  0.518865  0.481135  0.091121  1
  B  B15  1  0.481135  0.518865  0.908879  1
  B  B16  1  0.518865  0.481135  0.408879  1
  B  B17  1  0.481135  0.518865  0.591121  1
  B  B18  1  0.452416  0.547584  0.250000  1
  B  B19  1  0.547584  0.452416  0.750000  1
  W  W20  1  0.052645  0.947355  0.250000  1
  W  W21  1  0.947355  0.052645  0.750000  1
