# generated using pymatgen
data_Zr2Pa6Sn7Sb3
_symmetry_space_group_name_H-M   'P 1'
_cell_length_a   9.26202919
_cell_length_b   9.25544260
_cell_length_c   6.19324000
_cell_angle_alpha   90.00000000
_cell_angle_beta   90.00000000
_cell_angle_gamma   120.00008565
_symmetry_Int_Tables_number   1
_chemical_formula_structural   Zr2Pa6Sn7Sb3
_chemical_formula_sum   'Zr2 Pa6 Sn7 Sb3'
_cell_volume   459.78151213
_cell_formula_units_Z   1
loop_
 _symmetry_equiv_pos_site_id
 _symmetry_equiv_pos_as_xyz
  1  'x, y, z'
loop_
 _atom_site_type_symbol
 _atom_site_label
 _atom_site_symmetry_multiplicity
 _atom_site_fract_x
 _atom_site_fract_y
 _atom_site_fract_z
 _atom_site_occupancy
  Zr  Zr0  1  0.000108  0.999464  0.000264  1
  Zr  Zr1  1  0.000108  0.999464  0.499736  1
  Pa  Pa2  1  0.616243  0.997913  0.250000  1
  Pa  Pa3  1  0.381554  0.000472  0.750000  1
  Pa  Pa4  1  0.997310  0.616730  0.250000  1
  Pa  Pa5  1  0.002847  0.385568  0.750000  1
  Pa  Pa6  1  0.384352  0.385000  0.250000  1
  Pa  Pa7  1  0.617546  0.615235  0.750000  1
  Sn  Sn8  1  0.276519  0.000608  0.250000  1
  Sn  Sn9  1  0.724539  0.000598  0.750000  1
  Sn  Sn10  1  0.999544  0.275533  0.250000  1
  Sn  Sn11  1  0.333523  0.667557  0.000267  1
  Sn  Sn12  1  0.666638  0.331229  0.000217  1
  Sn  Sn13  1  0.666638  0.331229  0.499783  1
  Sn  Sn14  1  0.333523  0.667557  0.499733  1
  Sb  Sb15  1  0.999918  0.725254  0.750000  1
  Sb  Sb16  1  0.724933  0.725826  0.250000  1
  Sb  Sb17  1  0.274156  0.274764  0.750000  1
