# generated using pymatgen
data_Tb6Ho6B3CCl12
_symmetry_space_group_name_H-M   'P 1'
_cell_length_a   9.38090063
_cell_length_b   9.38067528
_cell_length_c   9.38357054
_cell_angle_alpha   109.28266660
_cell_angle_beta   109.33836801
_cell_angle_gamma   109.37162972
_symmetry_Int_Tables_number   1
_chemical_formula_structural   Tb6Ho6B3CCl12
_chemical_formula_sum   'Tb6 Ho6 B3 C1 Cl12'
_cell_volume   638.94102703
_cell_formula_units_Z   1
loop_
 _symmetry_equiv_pos_site_id
 _symmetry_equiv_pos_as_xyz
  1  'x, y, z'
loop_
 _atom_site_type_symbol
 _atom_site_label
 _atom_site_symmetry_multiplicity
 _atom_site_fract_x
 _atom_site_fract_y
 _atom_site_fract_z
 _atom_site_occupancy
  Tb  Tb0  1  0.019281  0.033045  0.264558  1
  Tb  Tb1  1  0.485588  0.750002  0.015114  1
  Tb  Tb2  1  0.480504  0.235403  0.467080  1
  Tb  Tb3  1  0.014635  0.485433  0.750283  1
  Tb  Tb4  1  0.264907  0.019619  0.033183  1
  Tb  Tb5  1  0.235787  0.263772  0.750047  1
  Ho  Ho6  1  0.464847  0.479773  0.234600  1
  Ho  Ho7  1  0.749766  0.234670  0.265220  1
  Ho  Ho8  1  0.750251  0.016169  0.484179  1
  Ho  Ho9  1  0.233890  0.464625  0.479371  1
  Ho  Ho10  1  0.265564  0.750366  0.235256  1
  Ho  Ho11  1  0.035178  0.265905  0.020718  1
  B  B12  1  0.499816  0.001031  0.250862  1
  B  B13  1  0.000206  0.250114  0.498343  1
  B  B14  1  0.249988  0.499149  0.002591  1
  C  C15  1  0.250000  0.252860  0.250150  1
  Cl  Cl16  1  0.250305  0.755641  0.742012  1
  Cl  Cl17  1  0.511635  0.506790  0.752571  1
  Cl  Cl18  1  0.988175  0.745534  0.995624  1
  Cl  Cl19  1  0.744173  0.247701  0.756481  1
  Cl  Cl20  1  0.991526  0.988385  0.746140  1
  Cl  Cl21  1  0.249684  0.991878  0.504532  1
  Cl  Cl22  1  0.752591  0.511738  0.502495  1
  Cl  Cl23  1  0.508578  0.252575  0.997812  1
  Cl  Cl24  1  0.755785  0.743479  0.252358  1
  Cl  Cl25  1  0.747426  0.997604  0.988330  1
  Cl  Cl26  1  0.995419  0.504524  0.249960  1
  Cl  Cl27  1  0.504493  0.752218  0.510131  1
