# generated using pymatgen
data_Tb2Dy6In3Os
_symmetry_space_group_name_H-M   'P 1'
_cell_length_a   10.41204400
_cell_length_b   10.41065267
_cell_length_c   7.10275308
_cell_angle_alpha   90.00659852
_cell_angle_beta   90.00000000
_cell_angle_gamma   120.00442104
_symmetry_Int_Tables_number   1
_chemical_formula_structural   Tb2Dy6In3Os
_chemical_formula_sum   'Tb4 Dy12 In6 Os2'
_cell_volume   666.73299452
_cell_formula_units_Z   2
loop_
 _symmetry_equiv_pos_site_id
 _symmetry_equiv_pos_as_xyz
  1  'x, y, z'
loop_
 _atom_site_type_symbol
 _atom_site_label
 _atom_site_symmetry_multiplicity
 _atom_site_fract_x
 _atom_site_fract_y
 _atom_site_fract_z
 _atom_site_occupancy
  Tb  Tb0  1  0.533558  0.067114  0.515025  1
  Tb  Tb1  1  0.932995  0.466519  0.515240  1
  Tb  Tb2  1  0.533526  0.466519  0.515240  1
  Tb  Tb3  1  0.466162  0.932324  0.015078  1
  Dy  Dy4  1  0.067841  0.533899  0.015258  1
  Dy  Dy5  1  0.466056  0.533899  0.015258  1
  Dy  Dy6  1  0.177030  0.354059  0.720281  1
  Dy  Dy7  1  0.646163  0.822991  0.720169  1
  Dy  Dy8  1  0.176828  0.822991  0.720169  1
  Dy  Dy9  1  0.822897  0.645794  0.219590  1
  Dy  Dy10  1  0.353886  0.177114  0.219816  1
  Dy  Dy11  1  0.823229  0.177114  0.219816  1
  Dy  Dy12  1  0.666729  0.333458  0.892638  1
  Dy  Dy13  1  0.333200  0.666401  0.392273  1
  Dy  Dy14  1  0.000029  0.000058  0.500163  1
  Dy  Dy15  1  0.000029  0.000058  0.000332  1
  In  In16  1  0.837094  0.674187  0.762253  1
  In  In17  1  0.325742  0.162961  0.762021  1
  In  In18  1  0.837219  0.162961  0.762021  1
  In  In19  1  0.163103  0.326205  0.261577  1
  In  In20  1  0.674101  0.836909  0.261828  1
  In  In21  1  0.162808  0.836909  0.261828  1
  Os  Os22  1  0.666621  0.333239  0.288110  1
  Os  Os23  1  0.333157  0.666316  0.788215  1
