# generated using pymatgen
data_TbSm7(Er3Pb4)4
_symmetry_space_group_name_H-M   'P 1'
_cell_length_a   8.22594767
_cell_length_b   8.31831586
_cell_length_c   15.68109922
_cell_angle_alpha   90.10835328
_cell_angle_beta   90.20120623
_cell_angle_gamma   90.12665461
_symmetry_Int_Tables_number   1
_chemical_formula_structural   TbSm7(Er3Pb4)4
_chemical_formula_sum   'Tb1 Sm7 Er12 Pb16'
_cell_volume   1072.98420876
_cell_formula_units_Z   1
loop_
 _symmetry_equiv_pos_site_id
 _symmetry_equiv_pos_as_xyz
  1  'x, y, z'
loop_
 _atom_site_type_symbol
 _atom_site_label
 _atom_site_symmetry_multiplicity
 _atom_site_fract_x
 _atom_site_fract_y
 _atom_site_fract_z
 _atom_site_occupancy
  Tb  Tb0  1  0.033475  0.176485  0.900336  1
  Sm  Sm1  1  0.530816  0.321993  0.901392  1
  Sm  Sm2  1  0.029738  0.177403  0.598208  1
  Sm  Sm3  1  0.469806  0.677623  0.401913  1
  Sm  Sm4  1  0.968479  0.823141  0.098454  1
  Sm  Sm5  1  0.468475  0.677400  0.098379  1
  Sm  Sm6  1  0.969583  0.822680  0.401741  1
  Sm  Sm7  1  0.530270  0.322289  0.598715  1
  Er  Er8  1  0.372252  0.841976  0.878349  1
  Er  Er9  1  0.871762  0.658089  0.622902  1
  Er  Er10  1  0.629076  0.158188  0.378091  1
  Er  Er11  1  0.127345  0.341514  0.121702  1
  Er  Er12  1  0.627673  0.157921  0.121463  1
  Er  Er13  1  0.128548  0.341774  0.377754  1
  Er  Er14  1  0.370677  0.841981  0.622311  1
  Er  Er15  1  0.871799  0.658177  0.877870  1
  Er  Er16  1  0.204926  0.505111  0.750357  1
  Er  Er17  1  0.705154  0.995031  0.750332  1
  Er  Er18  1  0.795056  0.494649  0.249902  1
  Er  Er19  1  0.295225  0.005513  0.249654  1
  Pb  Pb20  1  0.286517  0.038319  0.042152  1
  Pb  Pb21  1  0.788675  0.462509  0.457272  1
  Pb  Pb22  1  0.711164  0.960887  0.543479  1
  Pb  Pb23  1  0.210843  0.535797  0.956396  1
  Pb  Pb24  1  0.714891  0.964507  0.956158  1
  Pb  Pb25  1  0.211245  0.538051  0.543519  1
  Pb  Pb26  1  0.288332  0.038465  0.456993  1
  Pb  Pb27  1  0.787483  0.463022  0.043038  1
  Pb  Pb28  1  0.567461  0.627190  0.750452  1
  Pb  Pb29  1  0.067477  0.872780  0.750595  1
  Pb  Pb30  1  0.433147  0.372809  0.249483  1
  Pb  Pb31  1  0.932811  0.127518  0.249657  1
  Pb  Pb32  1  0.341530  0.152040  0.750001  1
  Pb  Pb33  1  0.843637  0.347015  0.750624  1
  Pb  Pb34  1  0.657327  0.847828  0.250128  1
  Pb  Pb35  1  0.157324  0.652327  0.250227  1
