# generated using pymatgen
data_Tb9ErPb8
_symmetry_space_group_name_H-M   'P 1'
_cell_length_a   8.24138600
_cell_length_b   8.30989213
_cell_length_c   15.70627500
_cell_angle_alpha   90.00000000
_cell_angle_beta   90.00000000
_cell_angle_gamma   90.01013549
_symmetry_Int_Tables_number   1
_chemical_formula_structural   Tb9ErPb8
_chemical_formula_sum   'Tb18 Er2 Pb16'
_cell_volume   1075.64467672
_cell_formula_units_Z   2
loop_
 _symmetry_equiv_pos_site_id
 _symmetry_equiv_pos_as_xyz
  1  'x, y, z'
loop_
 _atom_site_type_symbol
 _atom_site_label
 _atom_site_symmetry_multiplicity
 _atom_site_fract_x
 _atom_site_fract_y
 _atom_site_fract_z
 _atom_site_occupancy
  Tb  Tb0  1  0.377418  0.841909  0.879207  1
  Tb  Tb1  1  0.877133  0.658388  0.620996  1
  Tb  Tb2  1  0.622313  0.158040  0.378989  1
  Tb  Tb3  1  0.123016  0.341581  0.120993  1
  Tb  Tb4  1  0.622313  0.158040  0.121011  1
  Tb  Tb5  1  0.123016  0.341581  0.379007  1
  Tb  Tb6  1  0.377418  0.841909  0.620793  1
  Tb  Tb7  1  0.877133  0.658388  0.879004  1
  Tb  Tb8  1  0.535816  0.324444  0.899785  1
  Tb  Tb9  1  0.035669  0.175395  0.600026  1
  Tb  Tb10  1  0.464024  0.675873  0.399900  1
  Tb  Tb11  1  0.964551  0.824764  0.100062  1
  Tb  Tb12  1  0.464024  0.675873  0.100100  1
  Tb  Tb13  1  0.964551  0.824764  0.399938  1
  Tb  Tb14  1  0.535816  0.324444  0.600215  1
  Tb  Tb15  1  0.035669  0.175395  0.899974  1
  Tb  Tb16  1  0.209565  0.503851  0.750000  1
  Tb  Tb17  1  0.790391  0.496238  0.250000  1
  Er  Er18  1  0.709509  0.996136  0.750000  1
  Er  Er19  1  0.290183  0.004191  0.250000  1
  Pb  Pb20  1  0.281200  0.033311  0.043345  1
  Pb  Pb21  1  0.781171  0.466221  0.457408  1
  Pb  Pb22  1  0.718951  0.966302  0.543167  1
  Pb  Pb23  1  0.218781  0.533635  0.957044  1
  Pb  Pb24  1  0.718951  0.966302  0.956833  1
  Pb  Pb25  1  0.218781  0.533635  0.542956  1
  Pb  Pb26  1  0.281200  0.033311  0.456655  1
  Pb  Pb27  1  0.781171  0.466221  0.042592  1
  Pb  Pb28  1  0.573304  0.626091  0.750000  1
  Pb  Pb29  1  0.072573  0.874905  0.750000  1
  Pb  Pb30  1  0.426285  0.374344  0.250000  1
  Pb  Pb31  1  0.927571  0.124414  0.250000  1
  Pb  Pb32  1  0.348466  0.152443  0.750000  1
  Pb  Pb33  1  0.847861  0.345821  0.750000  1
  Pb  Pb34  1  0.651633  0.847172  0.250000  1
  Pb  Pb35  1  0.152574  0.654667  0.250000  1
