# generated using pymatgen
data_Er3P4Ir7
_symmetry_space_group_name_H-M   'P 1'
_cell_length_a   7.69246213
_cell_length_b   7.69246265
_cell_length_c   9.18285321
_cell_angle_alpha   57.10257993
_cell_angle_beta   57.10257617
_cell_angle_gamma   29.79103943
_symmetry_Int_Tables_number   1
_chemical_formula_structural   Er3P4Ir7
_chemical_formula_sum   'Er3 P4 Ir7'
_cell_volume   223.30213030
_cell_formula_units_Z   1
loop_
 _symmetry_equiv_pos_site_id
 _symmetry_equiv_pos_as_xyz
  1  'x, y, z'
loop_
 _atom_site_type_symbol
 _atom_site_label
 _atom_site_symmetry_multiplicity
 _atom_site_fract_x
 _atom_site_fract_y
 _atom_site_fract_z
 _atom_site_occupancy
  Er  Er0  1  0.500000  0.500000  0.500000  1
  Er  Er1  1  0.826993  0.826993  0.170042  1
  Er  Er2  1  0.173007  0.173007  0.829958  1
  P  P3  1  0.389605  0.389605  0.327352  1
  P  P4  1  0.610395  0.610395  0.672648  1
  P  P5  1  0.832954  0.832954  0.773169  1
  P  P6  1  0.167046  0.167046  0.226831  1
  Ir  Ir7  1  0.665202  0.665202  0.080781  1
  Ir  Ir8  1  0.007055  0.007055  0.224005  1
  Ir  Ir9  1  0.992945  0.992945  0.775995  1
  Ir  Ir10  1  0.500000  0.500000  0.000000  1
  Ir  Ir11  1  0.199447  0.199447  0.448320  1
  Ir  Ir12  1  0.800553  0.800553  0.551680  1
  Ir  Ir13  1  0.334798  0.334798  0.919219  1
