# generated using pymatgen
data_Tm3Mn4InF28
_symmetry_space_group_name_H-M   'P 1'
_cell_length_a   5.39065393
_cell_length_b   8.61681502
_cell_length_c   11.60068200
_cell_angle_alpha   62.60412228
_cell_angle_beta   90.04845636
_cell_angle_gamma   90.00986233
_symmetry_Int_Tables_number   1
_chemical_formula_structural   Tm3Mn4InF28
_chemical_formula_sum   'Tm3 Mn4 In1 F28'
_cell_volume   478.42122314
_cell_formula_units_Z   1
loop_
 _symmetry_equiv_pos_site_id
 _symmetry_equiv_pos_as_xyz
  1  'x, y, z'
loop_
 _atom_site_type_symbol
 _atom_site_label
 _atom_site_symmetry_multiplicity
 _atom_site_fract_x
 _atom_site_fract_y
 _atom_site_fract_z
 _atom_site_occupancy
  Tm  Tm0  1  0.763445  0.811079  0.764850  1
  Tm  Tm1  1  0.262665  0.189340  0.735416  1
  Tm  Tm2  1  0.238315  0.184865  0.235454  1
  Mn  Mn3  1  0.758448  0.273675  0.956230  1
  Mn  Mn4  1  0.263143  0.725637  0.542654  1
  Mn  Mn5  1  0.237097  0.726588  0.046182  1
  Mn  Mn6  1  0.740564  0.276289  0.454781  1
  In  In7  1  0.733553  0.808849  0.264112  1
  F  F8  1  0.431003  0.704823  0.924898  1
  F  F9  1  0.939534  0.297811  0.574737  1
  F  F10  1  0.561168  0.292797  0.078144  1
  F  F11  1  0.070008  0.698724  0.424247  1
  F  F12  1  0.457133  0.284463  0.541678  1
  F  F13  1  0.950365  0.721301  0.960065  1
  F  F14  1  0.553012  0.717262  0.458465  1
  F  F15  1  0.043519  0.279203  0.043847  1
  F  F16  1  0.772673  0.515341  0.862679  1
  F  F17  1  0.277874  0.485848  0.640732  1
  F  F18  1  0.222333  0.485848  0.140606  1
  F  F19  1  0.727782  0.519086  0.357425  1
  F  F20  1  0.756490  0.036008  0.043041  1
  F  F21  1  0.260166  0.964666  0.449866  1
  F  F22  1  0.240886  0.965186  0.954405  1
  F  F23  1  0.741697  0.038338  0.546314  1
  F  F24  1  0.985882  0.729830  0.635111  1
  F  F25  1  0.481501  0.273764  0.863175  1
  F  F26  1  0.014553  0.270730  0.361594  1
  F  F27  1  0.519431  0.725891  0.137887  1
  F  F28  1  0.044312  0.744791  0.174475  1
  F  F29  1  0.543331  0.258394  0.329573  1
  F  F30  1  0.953383  0.259709  0.828918  1
  F  F31  1  0.456548  0.746711  0.668342  1
  F  F32  1  0.412623  0.966298  0.228586  1
  F  F33  1  0.909653  0.020496  0.271255  1
  F  F34  1  0.587743  0.028686  0.770546  1
  F  F35  1  0.088167  0.971675  0.729710  1
