# generated using pymatgen
data_Sm2TmMg3Pb2Au
_symmetry_space_group_name_H-M   'P 1'
_cell_length_a   7.61540072
_cell_length_b   7.61540238
_cell_length_c   4.53010800
_cell_angle_alpha   90.00000000
_cell_angle_beta   90.00000000
_cell_angle_gamma   119.69645391
_symmetry_Int_Tables_number   1
_chemical_formula_structural   Sm2TmMg3Pb2Au
_chemical_formula_sum   'Sm2 Tm1 Mg3 Pb2 Au1'
_cell_volume   228.21547199
_cell_formula_units_Z   1
loop_
 _symmetry_equiv_pos_site_id
 _symmetry_equiv_pos_as_xyz
  1  'x, y, z'
loop_
 _atom_site_type_symbol
 _atom_site_label
 _atom_site_symmetry_multiplicity
 _atom_site_fract_x
 _atom_site_fract_y
 _atom_site_fract_z
 _atom_site_occupancy
  Sm  Sm0  1  0.594634  0.998933  0.000000  1
  Sm  Sm1  1  0.998933  0.594634  0.000000  1
  Tm  Tm2  1  0.401445  0.401445  0.000000  1
  Mg  Mg3  1  0.233169  0.001085  0.500000  1
  Mg  Mg4  1  0.001085  0.233169  0.500000  1
  Mg  Mg5  1  0.767050  0.767050  0.500000  1
  Pb  Pb6  1  0.335062  0.663159  0.500000  1
  Pb  Pb7  1  0.663159  0.335062  0.500000  1
  Au  Au8  1  0.005464  0.005464  0.000000  1
