# generated using pymatgen
data_Sm4Er(OsO6)2
_symmetry_space_group_name_H-M   'P 1'
_cell_length_a   6.98472745
_cell_length_b   6.98472836
_cell_length_c   7.60835361
_cell_angle_alpha   73.86295276
_cell_angle_beta   73.86294817
_cell_angle_gamma   48.43788896
_symmetry_Int_Tables_number   1
_chemical_formula_structural   Sm4Er(OsO6)2
_chemical_formula_sum   'Sm4 Er1 Os2 O12'
_cell_volume   264.52188943
_cell_formula_units_Z   1
loop_
 _symmetry_equiv_pos_site_id
 _symmetry_equiv_pos_as_xyz
  1  'x, y, z'
loop_
 _atom_site_type_symbol
 _atom_site_label
 _atom_site_symmetry_multiplicity
 _atom_site_fract_x
 _atom_site_fract_y
 _atom_site_fract_z
 _atom_site_occupancy
  Sm  Sm0  1  0.697694  0.697694  0.643040  1
  Sm  Sm1  1  0.302306  0.302306  0.356960  1
  Sm  Sm2  1  0.686259  0.686259  0.171052  1
  Sm  Sm3  1  0.313741  0.313741  0.828948  1
  Er  Er4  1  0.000000  0.000000  0.500000  1
  Os  Os5  1  0.782184  0.217816  0.000000  1
  Os  Os6  1  0.217816  0.782184  0.000000  1
  O  O7  1  0.000875  0.000875  0.202343  1
  O  O8  1  0.999125  0.999125  0.797657  1
  O  O9  1  0.585959  0.085777  0.084274  1
  O  O10  1  0.414041  0.914223  0.915726  1
  O  O11  1  0.914223  0.414041  0.915726  1
  O  O12  1  0.085777  0.585959  0.084274  1
  O  O13  1  0.498533  0.498533  0.167869  1
  O  O14  1  0.501467  0.501467  0.832131  1
  O  O15  1  0.396511  0.901073  0.429510  1
  O  O16  1  0.603489  0.098927  0.570490  1
  O  O17  1  0.098927  0.603489  0.570490  1
  O  O18  1  0.901073  0.396511  0.429510  1
