# generated using pymatgen
data_K8ThAs4
_symmetry_space_group_name_H-M   'P 1'
_cell_length_a   11.23397188
_cell_length_b   11.23397158
_cell_length_c   11.23397200
_cell_angle_alpha   59.99999878
_cell_angle_beta   59.99999965
_cell_angle_gamma   59.99999549
_symmetry_Int_Tables_number   1
_chemical_formula_structural   K8ThAs4
_chemical_formula_sum   'K16 Th2 As8'
_cell_volume   1002.50136545
_cell_formula_units_Z   2
loop_
 _symmetry_equiv_pos_site_id
 _symmetry_equiv_pos_as_xyz
  1  'x, y, z'
loop_
 _atom_site_type_symbol
 _atom_site_label
 _atom_site_symmetry_multiplicity
 _atom_site_fract_x
 _atom_site_fract_y
 _atom_site_fract_z
 _atom_site_occupancy
  K  K0  1  0.625000  0.625000  0.125000  1
  K  K1  1  0.625000  0.125000  0.625000  1
  K  K2  1  0.125000  0.625000  0.625000  1
  K  K3  1  0.625000  0.625000  0.625000  1
  K  K4  1  0.031202  0.468798  0.468798  1
  K  K5  1  0.781202  0.218798  0.218798  1
  K  K6  1  0.468798  0.031202  0.468798  1
  K  K7  1  0.468798  0.468798  0.031202  1
  K  K8  1  0.031202  0.031202  0.468798  1
  K  K9  1  0.031202  0.468798  0.031202  1
  K  K10  1  0.468798  0.031202  0.031202  1
  K  K11  1  0.781202  0.218798  0.781202  1
  K  K12  1  0.218798  0.781202  0.218798  1
  K  K13  1  0.218798  0.218798  0.781202  1
  K  K14  1  0.781202  0.781202  0.218798  1
  K  K15  1  0.218798  0.781202  0.781202  1
  Th  Th16  1  0.750000  0.750000  0.750000  1
  Th  Th17  1  0.500000  0.500000  0.500000  1
  As  As18  1  0.854595  0.854595  0.436215  1
  As  As19  1  0.854595  0.436215  0.854595  1
  As  As20  1  0.395405  0.395405  0.813785  1
  As  As21  1  0.395405  0.813785  0.395405  1
  As  As22  1  0.813785  0.395405  0.395405  1
  As  As23  1  0.854595  0.854595  0.854595  1
  As  As24  1  0.436215  0.854595  0.854595  1
  As  As25  1  0.395405  0.395405  0.395405  1
