# generated using pymatgen
data_Li8Ca3Pb4
_symmetry_space_group_name_H-M   'P 1'
_cell_length_a   9.89649022
_cell_length_b   9.89649045
_cell_length_c   9.89649100
_cell_angle_alpha   60.00000149
_cell_angle_beta   60.00000073
_cell_angle_gamma   60.00000511
_symmetry_Int_Tables_number   1
_chemical_formula_structural   Li8Ca3Pb4
_chemical_formula_sum   'Li16 Ca6 Pb8'
_cell_volume   685.37564830
_cell_formula_units_Z   2
loop_
 _symmetry_equiv_pos_site_id
 _symmetry_equiv_pos_as_xyz
  1  'x, y, z'
loop_
 _atom_site_type_symbol
 _atom_site_label
 _atom_site_symmetry_multiplicity
 _atom_site_fract_x
 _atom_site_fract_y
 _atom_site_fract_z
 _atom_site_occupancy
  Li  Li0  1  0.626450  0.626450  0.120650  1
  Li  Li1  1  0.626450  0.120650  0.626450  1
  Li  Li2  1  0.120650  0.626450  0.626450  1
  Li  Li3  1  0.626450  0.626450  0.626450  1
  Li  Li4  1  0.373550  0.373550  0.879350  1
  Li  Li5  1  0.373550  0.879350  0.373550  1
  Li  Li6  1  0.879350  0.373550  0.373550  1
  Li  Li7  1  0.373550  0.373550  0.373550  1
  Li  Li8  1  0.834352  0.834352  0.496945  1
  Li  Li9  1  0.834352  0.496945  0.834352  1
  Li  Li10  1  0.496945  0.834352  0.834352  1
  Li  Li11  1  0.834352  0.834352  0.834352  1
  Li  Li12  1  0.165648  0.165648  0.503055  1
  Li  Li13  1  0.165648  0.503055  0.165648  1
  Li  Li14  1  0.503055  0.165648  0.165648  1
  Li  Li15  1  0.165648  0.165648  0.165648  1
  Ca  Ca16  1  0.773907  0.773907  0.226093  1
  Ca  Ca17  1  0.226093  0.773907  0.226093  1
  Ca  Ca18  1  0.773907  0.226093  0.226093  1
  Ca  Ca19  1  0.226093  0.226093  0.773907  1
  Ca  Ca20  1  0.773907  0.226093  0.773907  1
  Ca  Ca21  1  0.226093  0.773907  0.773907  1
  Pb  Pb22  1  0.000000  0.000000  0.500000  1
  Pb  Pb23  1  0.500000  0.000000  0.500000  1
  Pb  Pb24  1  0.000000  0.500000  0.500000  1
  Pb  Pb25  1  0.500000  0.500000  0.000000  1
  Pb  Pb26  1  0.000000  0.500000  0.000000  1
  Pb  Pb27  1  0.500000  0.000000  0.000000  1
  Pb  Pb28  1  0.500000  0.500000  0.500000  1
  Pb  Pb29  1  0.000000  0.000000  0.000000  1
