# generated using pymatgen
data_Ho4Al18Rh5Au
_symmetry_space_group_name_H-M   'P 1'
_cell_length_a   7.57929471
_cell_length_b   7.57938614
_cell_length_c   9.44859034
_cell_angle_alpha   89.95294503
_cell_angle_beta   89.95295422
_cell_angle_gamma   119.48049163
_symmetry_Int_Tables_number   1
_chemical_formula_structural   Ho4Al18Rh5Au
_chemical_formula_sum   'Ho4 Al18 Rh5 Au1'
_cell_volume   472.50855294
_cell_formula_units_Z   1
loop_
 _symmetry_equiv_pos_site_id
 _symmetry_equiv_pos_as_xyz
  1  'x, y, z'
loop_
 _atom_site_type_symbol
 _atom_site_label
 _atom_site_symmetry_multiplicity
 _atom_site_fract_x
 _atom_site_fract_y
 _atom_site_fract_z
 _atom_site_occupancy
  Ho  Ho0  1  0.995654  0.674445  0.250657  1
  Ho  Ho1  1  0.004346  0.325555  0.749343  1
  Ho  Ho2  1  0.674446  0.995658  0.250656  1
  Ho  Ho3  1  0.325554  0.004342  0.749344  1
  Al  Al4  1  0.135406  0.135407  0.257019  1
  Al  Al5  1  0.864594  0.864593  0.742981  1
  Al  Al6  1  0.001251  0.344403  0.079478  1
  Al  Al7  1  0.998749  0.655597  0.920522  1
  Al  Al8  1  0.000507  0.663963  0.574568  1
  Al  Al9  1  0.336036  0.999491  0.425432  1
  Al  Al10  1  0.999493  0.336037  0.425432  1
  Al  Al11  1  0.663964  0.000509  0.574568  1
  Al  Al12  1  0.655598  0.998750  0.920522  1
  Al  Al13  1  0.344402  0.001250  0.079478  1
  Al  Al14  1  0.333117  0.333117  0.552274  1
  Al  Al15  1  0.666883  0.666883  0.447726  1
  Al  Al16  1  0.658145  0.658145  0.057833  1
  Al  Al17  1  0.341855  0.341855  0.942167  1
  Al  Al18  1  0.339140  0.551561  0.251354  1
  Al  Al19  1  0.660860  0.448439  0.748646  1
  Al  Al20  1  0.551559  0.339141  0.251352  1
  Al  Al21  1  0.448441  0.660859  0.748648  1
  Rh  Rh22  1  0.671944  0.328069  0.999999  1
  Rh  Rh23  1  0.328056  0.671931  0.000001  1
  Rh  Rh24  1  0.327991  0.671995  0.500002  1
  Rh  Rh25  1  0.672009  0.328005  0.499998  1
  Rh  Rh26  1  0.000000  0.000000  0.500000  1
  Au  Au27  1  0.000000  0.000000  0.000000  1
