# generated using pymatgen
data_TiMnNb5B4Ru9
_symmetry_space_group_name_H-M   'P 1'
_cell_length_a   9.35822570
_cell_length_b   9.34375498
_cell_length_c   3.01881100
_cell_angle_alpha   90.00000000
_cell_angle_beta   90.00000000
_cell_angle_gamma   90.18464619
_symmetry_Int_Tables_number   1
_chemical_formula_structural   TiMnNb5B4Ru9
_chemical_formula_sum   'Ti1 Mn1 Nb5 B4 Ru9'
_cell_volume   263.96638508
_cell_formula_units_Z   1
loop_
 _symmetry_equiv_pos_site_id
 _symmetry_equiv_pos_as_xyz
  1  'x, y, z'
loop_
 _atom_site_type_symbol
 _atom_site_label
 _atom_site_symmetry_multiplicity
 _atom_site_fract_x
 _atom_site_fract_y
 _atom_site_fract_z
 _atom_site_occupancy
  Ti  Ti0  1  0.500000  0.500000  0.000000  1
  Mn  Mn1  1  0.500000  0.000000  0.500000  1
  Nb  Nb2  1  0.819428  0.676221  0.000000  1
  Nb  Nb3  1  0.180572  0.323779  0.000000  1
  Nb  Nb4  1  0.332233  0.828895  0.000000  1
  Nb  Nb5  1  0.667767  0.171105  0.000000  1
  Nb  Nb6  1  0.000000  0.000000  0.000000  1
  B  B7  1  0.610989  0.883430  0.000000  1
  B  B8  1  0.389011  0.116570  0.000000  1
  B  B9  1  0.126943  0.620111  0.000000  1
  B  B10  1  0.873057  0.379889  0.000000  1
  Ru  Ru11  1  0.569202  0.718500  0.500000  1
  Ru  Ru12  1  0.430798  0.281500  0.500000  1
  Ru  Ru13  1  0.072620  0.781896  0.500000  1
  Ru  Ru14  1  0.927380  0.218104  0.500000  1
  Ru  Ru15  1  0.285697  0.571452  0.500000  1
  Ru  Ru16  1  0.714303  0.428548  0.500000  1
  Ru  Ru17  1  0.222318  0.070328  0.500000  1
  Ru  Ru18  1  0.777682  0.929672  0.500000  1
  Ru  Ru19  1  0.000000  0.500000  0.500000  1
