# generated using pymatgen
data_Ga2SnI8
_symmetry_space_group_name_H-M   'P 1'
_cell_length_a   8.28882700
_cell_length_b   8.50944480
_cell_length_c   15.60832854
_cell_angle_alpha   87.39332638
_cell_angle_beta   90.00000000
_cell_angle_gamma   90.00000000
_symmetry_Int_Tables_number   1
_chemical_formula_structural   Ga2SnI8
_chemical_formula_sum   'Ga4 Sn2 I16'
_cell_volume   1099.76803511
_cell_formula_units_Z   2
loop_
 _symmetry_equiv_pos_site_id
 _symmetry_equiv_pos_as_xyz
  1  'x, y, z'
loop_
 _atom_site_type_symbol
 _atom_site_label
 _atom_site_symmetry_multiplicity
 _atom_site_fract_x
 _atom_site_fract_y
 _atom_site_fract_z
 _atom_site_occupancy
  Ga  Ga0  1  0.934251  0.221155  0.579197  1
  Ga  Ga1  1  0.065749  0.221155  0.079197  1
  Ga  Ga2  1  0.570563  0.641430  0.777423  1
  Ga  Ga3  1  0.429437  0.641430  0.277423  1
  Sn  Sn4  1  0.754174  0.074102  0.810735  1
  Sn  Sn5  1  0.245826  0.074102  0.310735  1
  I  I6  1  0.421610  0.615588  0.638202  1
  I  I7  1  0.578390  0.615588  0.138202  1
  I  I8  1  0.872307  0.731859  0.760216  1
  I  I9  1  0.127693  0.731859  0.260216  1
  I  I10  1  0.938927  0.480532  0.495153  1
  I  I11  1  0.061073  0.480532  0.995153  1
  I  I12  1  0.920728  0.995435  0.001076  1
  I  I13  1  0.079272  0.995435  0.501076  1
  I  I14  1  0.639009  0.126729  0.616740  1
  I  I15  1  0.360991  0.126729  0.116740  1
  I  I16  1  0.559838  0.384187  0.875780  1
  I  I17  1  0.440162  0.384187  0.375780  1
  I  I18  1  0.441809  0.863195  0.867329  1
  I  I19  1  0.558191  0.863195  0.367329  1
  I  I20  1  0.927467  0.233186  0.230351  1
  I  I21  1  0.072533  0.233186  0.730351  1
