# generated using pymatgen
data_Tb3CoSn3IrPt
_symmetry_space_group_name_H-M   'P 1'
_cell_length_a   7.56487100
_cell_length_b   7.56487072
_cell_length_c   3.83642300
_cell_angle_alpha   90.00000000
_cell_angle_beta   90.00000000
_cell_angle_gamma   119.99998813
_symmetry_Int_Tables_number   1
_chemical_formula_structural   Tb3CoSn3IrPt
_chemical_formula_sum   'Tb3 Co1 Sn3 Ir1 Pt1'
_cell_volume   190.13418461
_cell_formula_units_Z   1
loop_
 _symmetry_equiv_pos_site_id
 _symmetry_equiv_pos_as_xyz
  1  'x, y, z'
loop_
 _atom_site_type_symbol
 _atom_site_label
 _atom_site_symmetry_multiplicity
 _atom_site_fract_x
 _atom_site_fract_y
 _atom_site_fract_z
 _atom_site_occupancy
  Tb  Tb0  1  0.595645  0.006325  0.000000  1
  Tb  Tb1  1  0.993675  0.589321  0.000000  1
  Tb  Tb2  1  0.410679  0.404355  0.000000  1
  Co  Co3  1  0.000000  0.000000  0.000000  1
  Sn  Sn4  1  0.251391  0.003075  0.500000  1
  Sn  Sn5  1  0.996925  0.248316  0.500000  1
  Sn  Sn6  1  0.751684  0.748609  0.500000  1
  Ir  Ir7  1  0.666667  0.333333  0.500000  1
  Pt  Pt8  1  0.333333  0.666667  0.500000  1
