# generated using pymatgen
data_Zr3C2N
_symmetry_space_group_name_H-M   'P 1'
_cell_length_a   3.31915400
_cell_length_b   3.31915341
_cell_length_c   8.12052800
_cell_angle_alpha   90.00000000
_cell_angle_beta   90.00000000
_cell_angle_gamma   120.00000590
_symmetry_Int_Tables_number   1
_chemical_formula_structural   Zr3C2N
_chemical_formula_sum   'Zr3 C2 N1'
_cell_volume   77.47643032
_cell_formula_units_Z   1
loop_
 _symmetry_equiv_pos_site_id
 _symmetry_equiv_pos_as_xyz
  1  'x, y, z'
loop_
 _atom_site_type_symbol
 _atom_site_label
 _atom_site_symmetry_multiplicity
 _atom_site_fract_x
 _atom_site_fract_y
 _atom_site_fract_z
 _atom_site_occupancy
  Zr  Zr0  1  0.000000  0.000000  0.500000  1
  Zr  Zr1  1  0.333333  0.666667  0.169648  1
  Zr  Zr2  1  0.666667  0.333333  0.830352  1
  C  C3  1  0.333333  0.666667  0.671396  1
  C  C4  1  0.666667  0.333333  0.328604  1
  N  N5  1  0.000000  0.000000  0.000000  1
