# generated using pymatgen
data_Tc2MoAs7
_symmetry_space_group_name_H-M   'P 1'
_cell_length_a   7.65403917
_cell_length_b   7.65180928
_cell_length_c   7.65180926
_cell_angle_alpha   109.18743194
_cell_angle_beta   109.60735511
_cell_angle_gamma   109.60735000
_symmetry_Int_Tables_number   1
_chemical_formula_structural   Tc2MoAs7
_chemical_formula_sum   'Tc4 Mo2 As14'
_cell_volume   345.02692815
_cell_formula_units_Z   2
loop_
 _symmetry_equiv_pos_site_id
 _symmetry_equiv_pos_as_xyz
  1  'x, y, z'
loop_
 _atom_site_type_symbol
 _atom_site_label
 _atom_site_symmetry_multiplicity
 _atom_site_fract_x
 _atom_site_fract_y
 _atom_site_fract_z
 _atom_site_occupancy
  Tc  Tc0  1  0.338123  0.338015  0.000107  1
  Tc  Tc1  1  0.000000  0.341078  0.341456  1
  Tc  Tc2  1  0.000000  0.658544  0.658922  1
  Tc  Tc3  1  0.661877  0.999893  0.661985  1
  Mo  Mo4  1  0.341335  0.999796  0.341540  1
  Mo  Mo5  1  0.658665  0.658460  0.000204  1
  As  As6  1  0.749524  0.250006  0.499519  1
  As  As7  1  0.500000  0.250491  0.749509  1
  As  As8  1  0.500000  0.750491  0.249509  1
  As  As9  1  0.250476  0.500481  0.749994  1
  As  As10  1  0.751737  0.500321  0.251416  1
  As  As11  1  0.248263  0.748584  0.499679  1
  As  As12  1  0.330697  0.331831  0.330739  1
  As  As13  1  0.000000  0.001100  0.330870  1
  As  As14  1  0.330697  0.999959  0.998867  1
  As  As15  1  0.000000  0.331319  0.999892  1
  As  As16  1  0.669303  0.001133  0.000041  1
  As  As17  1  0.000000  0.669130  0.998900  1
  As  As18  1  0.000000  0.000108  0.668681  1
  As  As19  1  0.669303  0.669261  0.668169  1
