# generated using pymatgen
data_Y4Al4Pd2RuPt
_symmetry_space_group_name_H-M   'P 1'
_cell_length_a   4.37966400
_cell_length_b   6.93566271
_cell_length_c   7.85533638
_cell_angle_alpha   89.82597601
_cell_angle_beta   90.00000000
_cell_angle_gamma   90.00000000
_symmetry_Int_Tables_number   1
_chemical_formula_structural   Y4Al4Pd2RuPt
_chemical_formula_sum   'Y4 Al4 Pd2 Ru1 Pt1'
_cell_volume   238.61159404
_cell_formula_units_Z   1
loop_
 _symmetry_equiv_pos_site_id
 _symmetry_equiv_pos_as_xyz
  1  'x, y, z'
loop_
 _atom_site_type_symbol
 _atom_site_label
 _atom_site_symmetry_multiplicity
 _atom_site_fract_x
 _atom_site_fract_y
 _atom_site_fract_z
 _atom_site_occupancy
  Y  Y0  1  0.250000  0.033513  0.679806  1
  Y  Y1  1  0.250000  0.524932  0.818635  1
  Y  Y2  1  0.750000  0.981802  0.319063  1
  Y  Y3  1  0.750000  0.467392  0.185923  1
  Al  Al4  1  0.250000  0.149300  0.063948  1
  Al  Al5  1  0.250000  0.638917  0.436508  1
  Al  Al6  1  0.750000  0.856678  0.936451  1
  Al  Al7  1  0.750000  0.350487  0.562721  1
  Pd  Pd8  1  0.250000  0.776796  0.115243  1
  Pd  Pd9  1  0.750000  0.725063  0.616454  1
  Ru  Ru10  1  0.250000  0.268424  0.383075  1
  Pt  Pt11  1  0.750000  0.226695  0.882175  1
