# generated using pymatgen
data_Dy2Y3SnSb2
_symmetry_space_group_name_H-M   'P 1'
_cell_length_a   6.39798807
_cell_length_b   8.94253512
_cell_length_c   8.95189900
_cell_angle_alpha   120.02471664
_cell_angle_beta   89.99151935
_cell_angle_gamma   90.00078366
_symmetry_Int_Tables_number   1
_chemical_formula_structural   Dy2Y3SnSb2
_chemical_formula_sum   'Dy4 Y6 Sn2 Sb4'
_cell_volume   443.44693742
_cell_formula_units_Z   2
loop_
 _symmetry_equiv_pos_site_id
 _symmetry_equiv_pos_as_xyz
  1  'x, y, z'
loop_
 _atom_site_type_symbol
 _atom_site_label
 _atom_site_symmetry_multiplicity
 _atom_site_fract_x
 _atom_site_fract_y
 _atom_site_fract_z
 _atom_site_occupancy
  Dy  Dy0  1  0.500256  0.334206  0.667089  1
  Dy  Dy1  1  0.500241  0.665796  0.332888  1
  Dy  Dy2  1  0.999711  0.665860  0.332936  1
  Dy  Dy3  1  0.999704  0.334140  0.667072  1
  Y  Y4  1  0.749996  0.244911  0.001481  1
  Y  Y5  1  0.749979  0.755052  0.756608  1
  Y  Y6  1  0.749976  0.999972  0.243315  1
  Y  Y7  1  0.249986  0.755743  0.999291  1
  Y  Y8  1  0.249999  0.244281  0.243590  1
  Y  Y9  1  0.249973  0.000022  0.754560  1
  Sn  Sn10  1  0.750134  0.608497  0.000495  1
  Sn  Sn11  1  0.750114  0.391501  0.391993  1
  Sb  Sb12  1  0.749941  0.999986  0.610288  1
  Sb  Sb13  1  0.249992  0.390529  0.999656  1
  Sb  Sb14  1  0.249993  0.609517  0.609153  1
  Sb  Sb15  1  0.250010  0.999989  0.389584  1
