# generated using pymatgen
data_SmNi2HgPt2
_symmetry_space_group_name_H-M   'P 1'
_cell_length_a   5.44211663
_cell_length_b   5.22104651
_cell_length_c   5.22104696
_cell_angle_alpha   58.92519236
_cell_angle_beta   58.58915992
_cell_angle_gamma   58.58916522
_symmetry_Int_Tables_number   1
_chemical_formula_structural   SmNi2HgPt2
_chemical_formula_sum   'Sm1 Ni2 Hg1 Pt2'
_cell_volume   101.78259063
_cell_formula_units_Z   1
loop_
 _symmetry_equiv_pos_site_id
 _symmetry_equiv_pos_as_xyz
  1  'x, y, z'
loop_
 _atom_site_type_symbol
 _atom_site_label
 _atom_site_symmetry_multiplicity
 _atom_site_fract_x
 _atom_site_fract_y
 _atom_site_fract_z
 _atom_site_occupancy
  Sm  Sm0  1  0.998535  0.001465  0.001465  1
  Ni  Ni1  1  0.621222  0.628703  0.128853  1
  Ni  Ni2  1  0.621222  0.128853  0.628703  1
  Hg  Hg3  1  0.260397  0.239603  0.239603  1
  Pt  Pt4  1  0.124436  0.625688  0.625688  1
  Pt  Pt5  1  0.624188  0.625688  0.625688  1
