# generated using pymatgen
data_Tl2Sn(S2O7)3
_symmetry_space_group_name_H-M   'P 1'
_cell_length_a   10.26343200
_cell_length_b   10.26343127
_cell_length_c   11.59083800
_cell_angle_alpha   90.00000000
_cell_angle_beta   90.00000000
_cell_angle_gamma   120.00000235
_symmetry_Int_Tables_number   1
_chemical_formula_structural   Tl2Sn(S2O7)3
_chemical_formula_sum   'Tl4 Sn2 S12 O42'
_cell_volume   1057.37891265
_cell_formula_units_Z   2
loop_
 _symmetry_equiv_pos_site_id
 _symmetry_equiv_pos_as_xyz
  1  'x, y, z'
loop_
 _atom_site_type_symbol
 _atom_site_label
 _atom_site_symmetry_multiplicity
 _atom_site_fract_x
 _atom_site_fract_y
 _atom_site_fract_z
 _atom_site_occupancy
  Tl  Tl0  1  0.333333  0.666667  0.876037  1
  Tl  Tl1  1  0.666667  0.333333  0.123963  1
  Tl  Tl2  1  0.333333  0.666667  0.436715  1
  Tl  Tl3  1  0.666667  0.333333  0.563285  1
  Sn  Sn4  1  0.000000  0.000000  0.241288  1
  Sn  Sn5  1  0.000000  0.000000  0.758712  1
  S  S6  1  0.739350  0.076423  0.339835  1
  S  S7  1  0.923577  0.662927  0.339835  1
  S  S8  1  0.337073  0.260650  0.339835  1
  S  S9  1  0.260650  0.923577  0.660165  1
  S  S10  1  0.076423  0.337073  0.660165  1
  S  S11  1  0.662927  0.739350  0.660165  1
  S  S12  1  0.652219  0.859501  0.149905  1
  S  S13  1  0.140499  0.792718  0.149905  1
  S  S14  1  0.207282  0.347781  0.149905  1
  S  S15  1  0.347781  0.140499  0.850095  1
  S  S16  1  0.859501  0.207282  0.850095  1
  S  S17  1  0.792718  0.652219  0.850095  1
  O  O18  1  0.680079  0.021573  0.204872  1
  O  O19  1  0.978427  0.658506  0.204872  1
  O  O20  1  0.341494  0.319921  0.204872  1
  O  O21  1  0.319921  0.978427  0.795128  1
  O  O22  1  0.021573  0.341494  0.795128  1
  O  O23  1  0.658506  0.680079  0.795128  1
  O  O24  1  0.878294  0.060183  0.350795  1
  O  O25  1  0.939817  0.818113  0.350795  1
  O  O26  1  0.181887  0.121706  0.350795  1
  O  O27  1  0.121706  0.939817  0.649205  1
  O  O28  1  0.060183  0.181887  0.649205  1
  O  O29  1  0.818113  0.878294  0.649205  1
  O  O30  1  0.777705  0.231672  0.334772  1
  O  O31  1  0.768328  0.546033  0.334772  1
  O  O32  1  0.453967  0.222295  0.334772  1
  O  O33  1  0.222295  0.768328  0.665228  1
  O  O34  1  0.231672  0.453967  0.665228  1
  O  O35  1  0.546033  0.777705  0.665228  1
  O  O36  1  0.569448  0.742493  0.232457  1
  O  O37  1  0.257507  0.826956  0.232457  1
  O  O38  1  0.173044  0.430552  0.232457  1
  O  O39  1  0.430552  0.257507  0.767543  1
  O  O40  1  0.742493  0.173044  0.767543  1
  O  O41  1  0.826956  0.569448  0.767543  1
  O  O42  1  0.588370  0.856451  0.039147  1
  O  O43  1  0.143549  0.731919  0.039147  1
  O  O44  1  0.268081  0.411630  0.039147  1
  O  O45  1  0.411630  0.143549  0.960853  1
  O  O46  1  0.856451  0.268081  0.960853  1
  O  O47  1  0.731919  0.588370  0.960853  1
  O  O48  1  0.813187  0.890307  0.133992  1
  O  O49  1  0.109693  0.922880  0.133992  1
  O  O50  1  0.077120  0.186813  0.133992  1
  O  O51  1  0.186813  0.109693  0.866008  1
  O  O52  1  0.890307  0.077120  0.866008  1
  O  O53  1  0.922880  0.813187  0.866008  1
  O  O54  1  0.624583  0.977369  0.418571  1
  O  O55  1  0.022631  0.647215  0.418571  1
  O  O56  1  0.352785  0.375417  0.418571  1
  O  O57  1  0.375417  0.022631  0.581429  1
  O  O58  1  0.977369  0.352785  0.581429  1
  O  O59  1  0.647215  0.624583  0.581429  1
