# generated using pymatgen
data_Dy2Y11Ho7Sn16
_symmetry_space_group_name_H-M   'P 1'
_cell_length_a   8.04224600
_cell_length_b   8.18061009
_cell_length_c   15.47388805
_cell_angle_alpha   89.99780478
_cell_angle_beta   89.99852507
_cell_angle_gamma   89.99198572
_symmetry_Int_Tables_number   1
_chemical_formula_structural   Dy2Y11Ho7Sn16
_chemical_formula_sum   'Dy2 Y11 Ho7 Sn16'
_cell_volume   1018.03449197
_cell_formula_units_Z   1
loop_
 _symmetry_equiv_pos_site_id
 _symmetry_equiv_pos_as_xyz
  1  'x, y, z'
loop_
 _atom_site_type_symbol
 _atom_site_label
 _atom_site_symmetry_multiplicity
 _atom_site_fract_x
 _atom_site_fract_y
 _atom_site_fract_z
 _atom_site_occupancy
  Dy  Dy0  1  0.367546  0.836386  0.877776  1
  Dy  Dy1  1  0.867523  0.663518  0.622135  1
  Y  Y2  1  0.367378  0.836570  0.622032  1
  Y  Y3  1  0.867335  0.663350  0.878052  1
  Y  Y4  1  0.522263  0.320903  0.902243  1
  Y  Y5  1  0.022218  0.179118  0.597772  1
  Y  Y6  1  0.477878  0.678777  0.402058  1
  Y  Y7  1  0.977666  0.820974  0.097929  1
  Y  Y8  1  0.478029  0.678904  0.097802  1
  Y  Y9  1  0.977812  0.820849  0.402206  1
  Y  Y10  1  0.522158  0.320848  0.597781  1
  Y  Y11  1  0.022108  0.179191  0.902215  1
  Y  Y12  1  0.301189  0.003015  0.249951  1
  Ho  Ho13  1  0.632789  0.163673  0.377927  1
  Ho  Ho14  1  0.132469  0.336646  0.122096  1
  Ho  Ho15  1  0.632669  0.163619  0.122211  1
  Ho  Ho16  1  0.132339  0.336697  0.377782  1
  Ho  Ho17  1  0.198823  0.502823  0.749950  1
  Ho  Ho18  1  0.698811  0.997203  0.750046  1
  Ho  Ho19  1  0.801183  0.496712  0.250040  1
  Sn  Sn20  1  0.292846  0.035990  0.041797  1
  Sn  Sn21  1  0.792808  0.464216  0.457904  1
  Sn  Sn22  1  0.707640  0.964788  0.541822  1
  Sn  Sn23  1  0.207704  0.535231  0.958178  1
  Sn  Sn24  1  0.706927  0.965177  0.958191  1
  Sn  Sn25  1  0.207045  0.534831  0.541807  1
  Sn  Sn26  1  0.292717  0.036230  0.457924  1
  Sn  Sn27  1  0.792681  0.463966  0.042358  1
  Sn  Sn28  1  0.565072  0.619507  0.750049  1
  Sn  Sn29  1  0.065013  0.880473  0.749943  1
  Sn  Sn30  1  0.434978  0.380409  0.250051  1
  Sn  Sn31  1  0.934412  0.120149  0.249974  1
  Sn  Sn32  1  0.330535  0.147382  0.750137  1
  Sn  Sn33  1  0.830584  0.352632  0.749865  1
  Sn  Sn34  1  0.669807  0.852866  0.249999  1
  Sn  Sn35  1  0.169045  0.646374  0.249996  1
