# generated using pymatgen
data_Ce3U(ReB6)2
_symmetry_space_group_name_H-M   'P 1'
_cell_length_a   3.70731500
_cell_length_b   9.40310866
_cell_length_c   11.51692904
_cell_angle_alpha   90.15917209
_cell_angle_beta   90.00000000
_cell_angle_gamma   90.00000000
_symmetry_Int_Tables_number   1
_chemical_formula_structural   Ce3U(ReB6)2
_chemical_formula_sum   'Ce6 U2 Re4 B24'
_cell_volume   401.48188841
_cell_formula_units_Z   2
loop_
 _symmetry_equiv_pos_site_id
 _symmetry_equiv_pos_as_xyz
  1  'x, y, z'
loop_
 _atom_site_type_symbol
 _atom_site_label
 _atom_site_symmetry_multiplicity
 _atom_site_fract_x
 _atom_site_fract_y
 _atom_site_fract_z
 _atom_site_occupancy
  Ce  Ce0  1  0.000000  0.336666  0.407141  1
  Ce  Ce1  1  0.000000  0.663334  0.592859  1
  Ce  Ce2  1  0.000000  0.834763  0.091765  1
  Ce  Ce3  1  0.000000  0.165237  0.908235  1
  Ce  Ce4  1  0.000000  0.954951  0.390047  1
  Ce  Ce5  1  0.000000  0.045049  0.609953  1
  U  U6  1  0.000000  0.457035  0.103451  1
  U  U7  1  0.000000  0.542965  0.896549  1
  Re  Re8  1  0.000000  0.642175  0.317070  1
  Re  Re9  1  0.000000  0.357825  0.682930  1
  Re  Re10  1  0.000000  0.149858  0.178020  1
  Re  Re11  1  0.000000  0.850142  0.821980  1
  B  B12  1  0.500000  0.552232  0.429010  1
  B  B13  1  0.500000  0.447768  0.570990  1
  B  B14  1  0.500000  0.054182  0.069401  1
  B  B15  1  0.500000  0.945818  0.930599  1
  B  B16  1  0.500000  0.740754  0.422229  1
  B  B17  1  0.500000  0.259246  0.577771  1
  B  B18  1  0.500000  0.245265  0.076602  1
  B  B19  1  0.500000  0.754735  0.923398  1
  B  B20  1  0.500000  0.798603  0.273965  1
  B  B21  1  0.500000  0.201397  0.726035  1
  B  B22  1  0.500000  0.303745  0.223810  1
  B  B23  1  0.500000  0.696255  0.776190  1
  B  B24  1  0.500000  0.642981  0.187916  1
  B  B25  1  0.500000  0.357019  0.812084  1
  B  B26  1  0.500000  0.147779  0.309657  1
  B  B27  1  0.500000  0.852221  0.690343  1
  B  B28  1  0.500000  0.993144  0.217297  1
  B  B29  1  0.500000  0.006856  0.782703  1
  B  B30  1  0.500000  0.489047  0.279564  1
  B  B31  1  0.500000  0.510953  0.720436  1
  B  B32  1  0.500000  0.638265  0.038682  1
  B  B33  1  0.500000  0.361735  0.961318  1
  B  B34  1  0.500000  0.149180  0.458758  1
  B  B35  1  0.500000  0.850820  0.541242  1
