# generated using pymatgen
data_Hf3Sc3SiAs5Ru6
_symmetry_space_group_name_H-M   'P 1'
_cell_length_a   7.66935436
_cell_length_b   7.67579519
_cell_length_c   7.66935398
_cell_angle_alpha   128.02617831
_cell_angle_beta   121.17018378
_cell_angle_gamma   82.29873472
_symmetry_Int_Tables_number   1
_chemical_formula_structural   Hf3Sc3SiAs5Ru6
_chemical_formula_sum   'Hf3 Sc3 Si1 As5 Ru6'
_cell_volume   292.63702177
_cell_formula_units_Z   1
loop_
 _symmetry_equiv_pos_site_id
 _symmetry_equiv_pos_as_xyz
  1  'x, y, z'
loop_
 _atom_site_type_symbol
 _atom_site_label
 _atom_site_symmetry_multiplicity
 _atom_site_fract_x
 _atom_site_fract_y
 _atom_site_fract_z
 _atom_site_occupancy
  Hf  Hf0  1  0.249615  0.837626  0.088010  1
  Hf  Hf1  1  0.052779  0.257125  0.704346  1
  Hf  Hf2  1  0.948513  0.651896  0.203383  1
  Sc  Sc3  1  0.468637  0.696239  0.727601  1
  Sc  Sc4  1  0.528080  0.256657  0.228576  1
  Sc  Sc5  1  0.749562  0.834913  0.585351  1
  Si  Si6  1  0.277798  0.268969  0.491173  1
  As  As7  1  0.725017  0.226802  0.001785  1
  As  As8  1  0.331746  0.586370  0.252266  1
  As  As9  1  0.669933  0.920817  0.258274  1
  As  As10  1  0.162543  0.920817  0.750884  1
  As  As11  1  0.834105  0.586370  0.754624  1
  Ru  Ru12  1  0.485772  0.493948  0.979163  1
  Ru  Ru13  1  0.014786  0.493948  0.508175  1
  Ru  Ru14  1  0.095942  0.252888  0.105661  1
  Ru  Ru15  1  0.913414  0.010664  0.166135  1
  Ru  Ru16  1  0.344529  0.010664  0.597249  1
  Ru  Ru17  1  0.647226  0.252888  0.656945  1
