# generated using pymatgen
data_Nd2GdEr(SeO3)6
_symmetry_space_group_name_H-M   'P 1'
_cell_length_a   7.24946327
_cell_length_b   8.29368854
_cell_length_c   9.22023769
_cell_angle_alpha   70.88626127
_cell_angle_beta   70.13095408
_cell_angle_gamma   66.22509180
_symmetry_Int_Tables_number   1
_chemical_formula_structural   Nd2GdEr(SeO3)6
_chemical_formula_sum   'Nd2 Gd1 Er1 Se6 O18'
_cell_volume   465.29447361
_cell_formula_units_Z   1
loop_
 _symmetry_equiv_pos_site_id
 _symmetry_equiv_pos_as_xyz
  1  'x, y, z'
loop_
 _atom_site_type_symbol
 _atom_site_label
 _atom_site_symmetry_multiplicity
 _atom_site_fract_x
 _atom_site_fract_y
 _atom_site_fract_z
 _atom_site_occupancy
  Nd  Nd0  1  0.332295  0.731763  0.589875  1
  Nd  Nd1  1  0.665370  0.271552  0.409628  1
  Gd  Gd2  1  0.740729  0.734042  0.801859  1
  Er  Er3  1  0.259114  0.263560  0.198805  1
  Se  Se4  1  0.425793  0.782353  0.194964  1
  Se  Se5  1  0.572259  0.222850  0.805725  1
  Se  Se6  1  0.150595  0.743430  0.969196  1
  Se  Se7  1  0.850405  0.248889  0.035606  1
  Se  Se8  1  0.887565  0.757644  0.416461  1
  Se  Se9  1  0.113346  0.244486  0.578707  1
  O  O10  1  0.646095  0.794043  0.052503  1
  O  O11  1  0.355530  0.209108  0.952649  1
  O  O12  1  0.360509  0.950178  0.296204  1
  O  O13  1  0.634066  0.056974  0.703340  1
  O  O14  1  0.513003  0.602543  0.346396  1
  O  O15  1  0.482416  0.402190  0.654792  1
  O  O16  1  0.172562  0.558377  0.120528  1
  O  O17  1  0.832340  0.430749  0.880857  1
  O  O18  1  0.404019  0.710172  0.853549  1
  O  O19  1  0.594863  0.288301  0.149134  1
  O  O20  1  0.340319  0.249488  0.431146  1
  O  O21  1  0.660367  0.749533  0.562628  1
  O  O22  1  0.974139  0.291945  0.439360  1
  O  O23  1  0.029623  0.707061  0.554733  1
  O  O24  1  0.152447  0.022130  0.656465  1
  O  O25  1  0.846359  0.980629  0.343607  1
  O  O26  1  0.940067  0.301464  0.162278  1
  O  O27  1  0.063805  0.694548  0.839002  1
