# generated using pymatgen
data_Tm9LuIrOs3
_symmetry_space_group_name_H-M   'P 1'
_cell_length_a   8.28232530
_cell_length_b   8.26615133
_cell_length_c   7.29740033
_cell_angle_alpha   83.23789230
_cell_angle_beta   83.35608850
_cell_angle_gamma   44.63568238
_symmetry_Int_Tables_number   1
_chemical_formula_structural   Tm9LuIrOs3
_chemical_formula_sum   'Tm9 Lu1 Ir1 Os3'
_cell_volume   348.21165153
_cell_formula_units_Z   1
loop_
 _symmetry_equiv_pos_site_id
 _symmetry_equiv_pos_as_xyz
  1  'x, y, z'
loop_
 _atom_site_type_symbol
 _atom_site_label
 _atom_site_symmetry_multiplicity
 _atom_site_fract_x
 _atom_site_fract_y
 _atom_site_fract_z
 _atom_site_occupancy
  Tm  Tm0  1  0.419276  0.580528  0.750505  1
  Tm  Tm1  1  0.350352  0.209070  0.318269  1
  Tm  Tm2  1  0.210885  0.969519  0.082699  1
  Tm  Tm3  1  0.791667  0.030091  0.918043  1
  Tm  Tm4  1  0.973401  0.211131  0.582200  1
  Tm  Tm5  1  0.648469  0.789442  0.680425  1
  Tm  Tm6  1  0.206380  0.352979  0.822698  1
  Tm  Tm7  1  0.789851  0.649410  0.179458  1
  Tm  Tm8  1  0.030902  0.791312  0.416110  1
  Lu  Lu9  1  0.580337  0.420536  0.248802  1
  Ir  Ir10  1  0.601521  0.176512  0.577336  1
  Os  Os11  1  0.395545  0.822194  0.423313  1
  Os  Os12  1  0.177589  0.604827  0.078213  1
  Os  Os13  1  0.823824  0.392450  0.921929  1
