# generated using pymatgen
data_Lu4Sb6Ru3Rh4
_symmetry_space_group_name_H-M   'P 1'
_cell_length_a   7.52689179
_cell_length_b   7.52098277
_cell_length_c   7.52689223
_cell_angle_alpha   109.45437795
_cell_angle_beta   109.53669592
_cell_angle_gamma   109.45438096
_symmetry_Int_Tables_number   1
_chemical_formula_structural   Lu4Sb6Ru3Rh4
_chemical_formula_sum   'Lu4 Sb6 Ru3 Rh4'
_cell_volume   327.87879391
_cell_formula_units_Z   1
loop_
 _symmetry_equiv_pos_site_id
 _symmetry_equiv_pos_as_xyz
  1  'x, y, z'
loop_
 _atom_site_type_symbol
 _atom_site_label
 _atom_site_symmetry_multiplicity
 _atom_site_fract_x
 _atom_site_fract_y
 _atom_site_fract_z
 _atom_site_occupancy
  Lu  Lu0  1  0.998913  0.997827  0.498913  1
  Lu  Lu1  1  0.003085  0.501877  0.003085  1
  Lu  Lu2  1  0.498913  0.997827  0.998913  1
  Lu  Lu3  1  0.498792  0.501877  0.498792  1
  Sb  Sb4  1  0.685993  0.686760  0.000767  1
  Sb  Sb5  1  0.313441  0.997581  0.313441  1
  Sb  Sb6  1  0.001032  0.315218  0.314185  1
  Sb  Sb7  1  0.314185  0.315218  0.001032  1
  Sb  Sb8  1  0.684140  0.997581  0.684140  1
  Sb  Sb9  1  0.000767  0.686760  0.685993  1
  Ru  Ru10  1  0.249369  0.749517  0.500148  1
  Ru  Ru11  1  0.500148  0.749517  0.249369  1
  Ru  Ru12  1  0.000110  0.000220  0.000110  1
  Rh  Rh13  1  0.750627  0.250405  0.499777  1
  Rh  Rh14  1  0.750353  0.500706  0.250353  1
  Rh  Rh15  1  0.499777  0.250405  0.750627  1
  Rh  Rh16  1  0.250353  0.500706  0.750353  1
