# generated using pymatgen
data_Ho4CdPt11
_symmetry_space_group_name_H-M   'P 1'
_cell_length_a   4.19137200
_cell_length_b   5.81747922
_cell_length_c   11.65855697
_cell_angle_alpha   88.21660521
_cell_angle_beta   90.00000000
_cell_angle_gamma   90.00000000
_symmetry_Int_Tables_number   1
_chemical_formula_structural   Ho4CdPt11
_chemical_formula_sum   'Ho4 Cd1 Pt11'
_cell_volume   284.13545826
_cell_formula_units_Z   1
loop_
 _symmetry_equiv_pos_site_id
 _symmetry_equiv_pos_as_xyz
  1  'x, y, z'
loop_
 _atom_site_type_symbol
 _atom_site_label
 _atom_site_symmetry_multiplicity
 _atom_site_fract_x
 _atom_site_fract_y
 _atom_site_fract_z
 _atom_site_occupancy
  Ho  Ho0  1  0.500000  0.752648  0.374846  1
  Ho  Ho1  1  0.500000  0.726475  0.865031  1
  Ho  Ho2  1  0.500000  0.273525  0.134969  1
  Ho  Ho3  1  0.500000  0.247352  0.625154  1
  Cd  Cd4  1  0.000000  0.000000  0.000000  1
  Pt  Pt5  1  0.000000  0.009604  0.250399  1
  Pt  Pt6  1  0.000000  0.990396  0.749601  1
  Pt  Pt7  1  0.000000  0.500000  0.000000  1
  Pt  Pt8  1  0.000000  0.500000  0.500000  1
  Pt  Pt9  1  0.000000  0.511802  0.250007  1
  Pt  Pt10  1  0.000000  0.488198  0.749993  1
  Pt  Pt11  1  0.500000  0.250575  0.377742  1
  Pt  Pt12  1  0.500000  0.236331  0.878174  1
  Pt  Pt13  1  0.500000  0.763669  0.121826  1
  Pt  Pt14  1  0.500000  0.749425  0.622258  1
  Pt  Pt15  1  0.000000  0.000000  0.500000  1
