# generated using pymatgen
data_Li4Y4Sn3Sb
_symmetry_space_group_name_H-M   'P 1'
_cell_length_a   9.37770189
_cell_length_b   9.37637252
_cell_length_c   7.30439963
_cell_angle_alpha   90.06439067
_cell_angle_beta   89.87124294
_cell_angle_gamma   120.00469014
_symmetry_Int_Tables_number   1
_chemical_formula_structural   Li4Y4Sn3Sb
_chemical_formula_sum   'Li8 Y8 Sn6 Sb2'
_cell_volume   556.19209232
_cell_formula_units_Z   2
loop_
 _symmetry_equiv_pos_site_id
 _symmetry_equiv_pos_as_xyz
  1  'x, y, z'
loop_
 _atom_site_type_symbol
 _atom_site_label
 _atom_site_symmetry_multiplicity
 _atom_site_fract_x
 _atom_site_fract_y
 _atom_site_fract_z
 _atom_site_occupancy
  Li  Li0  1  0.166395  0.832092  0.192949  1
  Li  Li1  1  0.334302  0.167908  0.692949  1
  Li  Li2  1  0.832238  0.665567  0.692677  1
  Li  Li3  1  0.166672  0.334433  0.192677  1
  Li  Li4  1  0.665996  0.832883  0.193401  1
  Li  Li5  1  0.833112  0.167117  0.693401  1
  Li  Li6  1  0.333695  0.666204  0.814335  1
  Li  Li7  1  0.667492  0.333796  0.314335  1
  Y  Y8  1  0.513470  0.488861  0.991378  1
  Y  Y9  1  0.024609  0.511139  0.491378  1
  Y  Y10  1  0.490436  0.974541  0.492205  1
  Y  Y11  1  0.515894  0.025459  0.992205  1
  Y  Y12  1  0.973128  0.484595  0.992527  1
  Y  Y13  1  0.488534  0.515405  0.492527  1
  Y  Y14  1  0.997074  0.999954  0.985605  1
  Y  Y15  1  0.997120  0.000046  0.485605  1
  Sn  Sn16  1  0.833531  0.667022  0.255721  1
  Sn  Sn17  1  0.166510  0.332978  0.755721  1
  Sn  Sn18  1  0.666934  0.833932  0.755589  1
  Sn  Sn19  1  0.833001  0.166068  0.255589  1
  Sn  Sn20  1  0.333623  0.667310  0.223773  1
  Sn  Sn21  1  0.666314  0.332690  0.723773  1
  Sb  Sb22  1  0.167013  0.834106  0.754843  1
  Sb  Sb23  1  0.332907  0.165894  0.254843  1
