# generated using pymatgen
data_Nd20Si15Ag
_symmetry_space_group_name_H-M   'P 1'
_cell_length_a   7.79994324
_cell_length_b   7.96098613
_cell_length_c   15.19375016
_cell_angle_alpha   89.82386753
_cell_angle_beta   89.54819169
_cell_angle_gamma   90.09382727
_symmetry_Int_Tables_number   1
_chemical_formula_structural   Nd20Si15Ag
_chemical_formula_sum   'Nd20 Si15 Ag1'
_cell_volume   943.42446886
_cell_formula_units_Z   1
loop_
 _symmetry_equiv_pos_site_id
 _symmetry_equiv_pos_as_xyz
  1  'x, y, z'
loop_
 _atom_site_type_symbol
 _atom_site_label
 _atom_site_symmetry_multiplicity
 _atom_site_fract_x
 _atom_site_fract_y
 _atom_site_fract_z
 _atom_site_occupancy
  Nd  Nd0  1  0.137439  0.513491  0.748617  1
  Nd  Nd1  1  0.814591  0.320529  0.622860  1
  Nd  Nd2  1  0.458767  0.686831  0.899177  1
  Nd  Nd3  1  0.958412  0.813398  0.898262  1
  Nd  Nd4  1  0.188076  0.682418  0.120817  1
  Nd  Nd5  1  0.690587  0.819489  0.121000  1
  Nd  Nd6  1  0.310534  0.180494  0.878604  1
  Nd  Nd7  1  0.191344  0.678502  0.379374  1
  Nd  Nd8  1  0.041519  0.185389  0.101097  1
  Nd  Nd9  1  0.313780  0.179259  0.622174  1
  Nd  Nd10  1  0.858711  0.489398  0.249180  1
  Nd  Nd11  1  0.361995  0.011031  0.250052  1
  Nd  Nd12  1  0.530263  0.311187  0.396382  1
  Nd  Nd13  1  0.810937  0.318120  0.878753  1
  Nd  Nd14  1  0.963484  0.819451  0.603080  1
  Nd  Nd15  1  0.462553  0.686126  0.602735  1
  Nd  Nd16  1  0.043250  0.179221  0.396990  1
  Nd  Nd17  1  0.683390  0.825796  0.377040  1
  Nd  Nd18  1  0.637180  0.990273  0.750024  1
  Nd  Nd19  1  0.540548  0.312983  0.100668  1
  Si  Si20  1  0.480805  0.600421  0.247896  1
  Si  Si21  1  0.248318  0.380018  0.248385  1
  Si  Si22  1  0.518535  0.400126  0.751213  1
  Si  Si23  1  0.633886  0.025606  0.959036  1
  Si  Si24  1  0.017694  0.099876  0.751018  1
  Si  Si25  1  0.748334  0.621583  0.750584  1
  Si  Si26  1  0.751782  0.121580  0.248866  1
  Si  Si27  1  0.364272  0.972627  0.460226  1
  Si  Si28  1  0.982192  0.898553  0.249144  1
  Si  Si29  1  0.365859  0.974012  0.040813  1
  Si  Si30  1  0.636773  0.026164  0.541353  1
  Si  Si31  1  0.135309  0.473085  0.959278  1
  Si  Si32  1  0.149399  0.473509  0.543627  1
  Si  Si33  1  0.866808  0.525498  0.039769  1
  Si  Si34  1  0.248696  0.878881  0.751315  1
  Ag  Ag35  1  0.853979  0.525077  0.460590  1
