# generated using pymatgen
data_NdZn2P6BrN12
_symmetry_space_group_name_H-M   'P 1'
_cell_length_a   7.35100584
_cell_length_b   7.34681096
_cell_length_c   7.35100542
_cell_angle_alpha   109.59244575
_cell_angle_beta   109.37621833
_cell_angle_gamma   109.59242263
_symmetry_Int_Tables_number   1
_chemical_formula_structural   NdZn2P6BrN12
_chemical_formula_sum   'Nd1 Zn2 P6 Br1 N12'
_cell_volume   305.05366964
_cell_formula_units_Z   1
loop_
 _symmetry_equiv_pos_site_id
 _symmetry_equiv_pos_as_xyz
  1  'x, y, z'
loop_
 _atom_site_type_symbol
 _atom_site_label
 _atom_site_symmetry_multiplicity
 _atom_site_fract_x
 _atom_site_fract_y
 _atom_site_fract_z
 _atom_site_occupancy
  Nd  Nd0  1  0.015164  0.332314  0.015164  1
  Zn  Zn1  1  0.998687  0.004673  0.403497  1
  Zn  Zn2  1  0.403497  0.004673  0.998687  1
  P  P3  1  0.496583  0.260611  0.744461  1
  P  P4  1  0.246736  0.756505  0.496464  1
  P  P5  1  0.741628  0.506905  0.259298  1
  P  P6  1  0.744461  0.260611  0.496583  1
  P  P7  1  0.496464  0.756505  0.246736  1
  P  P8  1  0.259298  0.506905  0.741628  1
  Br  Br9  1  0.019705  0.941332  0.019705  1
  N  N10  1  0.390995  0.690300  0.390995  1
  N  N11  1  0.703743  0.433304  0.429624  1
  N  N12  1  0.429624  0.433304  0.703743  1
  N  N13  1  0.711768  0.278658  0.711768  1
  N  N14  1  0.990623  0.576058  0.291251  1
  N  N15  1  0.291251  0.576058  0.990623  1
  N  N16  1  0.276733  0.006156  0.566470  1
  N  N17  1  0.998699  0.284847  0.569487  1
  N  N18  1  0.718365  0.729636  0.290014  1
  N  N19  1  0.566470  0.006156  0.276733  1
  N  N20  1  0.290014  0.729636  0.718365  1
  N  N21  1  0.569487  0.284847  0.998699  1
