# generated using pymatgen
data_Eu3PbO7
_symmetry_space_group_name_H-M   'P 1'
_cell_length_a   6.70376486
_cell_length_b   6.70376538
_cell_length_c   7.79449500
_cell_angle_alpha   90.00000000
_cell_angle_beta   90.00000000
_cell_angle_gamma   109.70798418
_symmetry_Int_Tables_number   1
_chemical_formula_structural   Eu3PbO7
_chemical_formula_sum   'Eu6 Pb2 O14'
_cell_volume   329.76960599
_cell_formula_units_Z   2
loop_
 _symmetry_equiv_pos_site_id
 _symmetry_equiv_pos_as_xyz
  1  'x, y, z'
loop_
 _atom_site_type_symbol
 _atom_site_label
 _atom_site_symmetry_multiplicity
 _atom_site_fract_x
 _atom_site_fract_y
 _atom_site_fract_z
 _atom_site_occupancy
  Eu  Eu0  1  0.000586  0.473077  0.749146  1
  Eu  Eu1  1  0.999414  0.526923  0.249146  1
  Eu  Eu2  1  0.526923  0.999414  0.750854  1
  Eu  Eu3  1  0.473077  0.000586  0.250854  1
  Eu  Eu4  1  0.500140  0.500140  0.500000  1
  Eu  Eu5  1  0.499860  0.499860  0.000000  1
  Pb  Pb6  1  0.999194  0.999194  0.500000  1
  Pb  Pb7  1  0.000806  0.000806  0.000000  1
  O  O8  1  0.635039  0.364961  0.750000  1
  O  O9  1  0.364961  0.635039  0.250000  1
  O  O10  1  0.911568  0.088432  0.750000  1
  O  O11  1  0.088432  0.911568  0.250000  1
  O  O12  1  0.905499  0.652850  0.526555  1
  O  O13  1  0.094501  0.347150  0.026555  1
  O  O14  1  0.347150  0.094501  0.973445  1
  O  O15  1  0.652850  0.905499  0.473445  1
  O  O16  1  0.367997  0.632003  0.750000  1
  O  O17  1  0.632003  0.367997  0.250000  1
  O  O18  1  0.908430  0.654968  0.971471  1
  O  O19  1  0.091570  0.345032  0.471471  1
  O  O20  1  0.345032  0.091570  0.528529  1
  O  O21  1  0.654968  0.908430  0.028529  1
