# generated using pymatgen
data_ErBi3Ir2(RhO7)2
_symmetry_space_group_name_H-M   'P 1'
_cell_length_a   7.29384489
_cell_length_b   7.32751790
_cell_length_c   7.33916112
_cell_angle_alpha   60.05246847
_cell_angle_beta   59.99873043
_cell_angle_gamma   59.84717282
_symmetry_Int_Tables_number   1
_chemical_formula_structural   ErBi3Ir2(RhO7)2
_chemical_formula_sum   'Er1 Bi3 Ir2 Rh2 O14'
_cell_volume   277.14565547
_cell_formula_units_Z   1
loop_
 _symmetry_equiv_pos_site_id
 _symmetry_equiv_pos_as_xyz
  1  'x, y, z'
loop_
 _atom_site_type_symbol
 _atom_site_label
 _atom_site_symmetry_multiplicity
 _atom_site_fract_x
 _atom_site_fract_y
 _atom_site_fract_z
 _atom_site_occupancy
  Er  Er0  1  0.625000  0.125000  0.125000  1
  Bi  Bi1  1  0.125000  0.125000  0.125000  1
  Bi  Bi2  1  0.125000  0.625000  0.125000  1
  Bi  Bi3  1  0.125000  0.125000  0.625000  1
  Ir  Ir4  1  0.625000  0.625000  0.625000  1
  Ir  Ir5  1  0.625000  0.125000  0.625000  1
  Rh  Rh6  1  0.625000  0.625000  0.125000  1
  Rh  Rh7  1  0.125000  0.625000  0.625000  1
  O  O8  1  0.260507  0.245810  0.247872  1
  O  O9  1  0.291066  0.708830  0.291273  1
  O  O10  1  0.954125  0.959689  0.544273  1
  O  O11  1  0.547479  0.959263  0.533994  1
  O  O12  1  0.702934  0.718675  0.291684  1
  O  O13  1  0.954125  0.541913  0.544273  1
  O  O14  1  0.702521  0.290737  0.716006  1
  O  O15  1  0.295875  0.290311  0.705727  1
  O  O16  1  0.702934  0.286709  0.291684  1
  O  O17  1  0.295875  0.708087  0.705727  1
  O  O18  1  0.958934  0.541170  0.958727  1
  O  O19  1  0.547066  0.531325  0.958316  1
  O  O20  1  0.989493  0.004190  0.002128  1
  O  O21  1  0.547066  0.963291  0.958316  1
