# generated using pymatgen
data_HoCo2P2Ir
_symmetry_space_group_name_H-M   'P 1'
_cell_length_a   3.74873500
_cell_length_b   10.75095000
_cell_length_c   12.44888700
_cell_angle_alpha   90.00000000
_cell_angle_beta   90.00000000
_cell_angle_gamma   90.00000000
_symmetry_Int_Tables_number   1
_chemical_formula_structural   HoCo2P2Ir
_chemical_formula_sum   'Ho6 Co12 P12 Ir6'
_cell_volume   501.72080208
_cell_formula_units_Z   6
loop_
 _symmetry_equiv_pos_site_id
 _symmetry_equiv_pos_as_xyz
  1  'x, y, z'
loop_
 _atom_site_type_symbol
 _atom_site_label
 _atom_site_symmetry_multiplicity
 _atom_site_fract_x
 _atom_site_fract_y
 _atom_site_fract_z
 _atom_site_occupancy
  Ho  Ho0  1  0.000000  0.500000  0.524032  1
  Ho  Ho1  1  0.500000  0.000000  0.483217  1
  Ho  Ho2  1  0.500000  0.814976  0.200219  1
  Ho  Ho3  1  0.500000  0.185024  0.200219  1
  Ho  Ho4  1  0.000000  0.686227  0.797699  1
  Ho  Ho5  1  0.000000  0.313773  0.797699  1
  Co  Co6  1  0.000000  0.500000  0.989479  1
  Co  Co7  1  0.500000  0.000000  0.009050  1
  Co  Co8  1  0.000000  0.200339  0.572320  1
  Co  Co9  1  0.000000  0.799661  0.572320  1
  Co  Co10  1  0.500000  0.880672  0.712830  1
  Co  Co11  1  0.500000  0.119328  0.712830  1
  Co  Co12  1  0.000000  0.620781  0.285620  1
  Co  Co13  1  0.000000  0.379219  0.285620  1
  Co  Co14  1  0.500000  0.332306  0.993607  1
  Co  Co15  1  0.500000  0.667694  0.993607  1
  Co  Co16  1  0.000000  0.167168  0.004743  1
  Co  Co17  1  0.000000  0.832832  0.004743  1
  P  P18  1  0.500000  0.301717  0.622384  1
  P  P19  1  0.500000  0.698283  0.622384  1
  P  P20  1  0.000000  0.187255  0.383384  1
  P  P21  1  0.000000  0.812745  0.383384  1
  P  P22  1  0.500000  0.500000  0.891414  1
  P  P23  1  0.000000  0.000000  0.107316  1
  P  P24  1  0.500000  0.844127  0.895032  1
  P  P25  1  0.500000  0.155873  0.895032  1
  P  P26  1  0.000000  0.656655  0.103242  1
  P  P27  1  0.000000  0.343345  0.103242  1
  P  P28  1  0.500000  0.500000  0.345677  1
  P  P29  1  0.000000  0.000000  0.650730  1
  Ir  Ir30  1  0.500000  0.298043  0.429619  1
  Ir  Ir31  1  0.500000  0.701957  0.429619  1
  Ir  Ir32  1  0.500000  0.500000  0.159721  1
  Ir  Ir33  1  0.000000  0.000000  0.839536  1
  Ir  Ir34  1  0.500000  0.500000  0.705374  1
  Ir  Ir35  1  0.000000  0.000000  0.293054  1
