# generated using pymatgen
data_Er10Tm2Co4SnRu
_symmetry_space_group_name_H-M   'P 1'
_cell_length_a   8.21283204
_cell_length_b   8.21786683
_cell_length_c   8.21283168
_cell_angle_alpha   111.38110301
_cell_angle_beta   110.73196170
_cell_angle_gamma   106.32216239
_symmetry_Int_Tables_number   1
_chemical_formula_structural   Er10Tm2Co4SnRu
_chemical_formula_sum   'Er10 Tm2 Co4 Sn1 Ru1'
_cell_volume   425.85744891
_cell_formula_units_Z   1
loop_
 _symmetry_equiv_pos_site_id
 _symmetry_equiv_pos_as_xyz
  1  'x, y, z'
loop_
 _atom_site_type_symbol
 _atom_site_label
 _atom_site_symmetry_multiplicity
 _atom_site_fract_x
 _atom_site_fract_y
 _atom_site_fract_z
 _atom_site_occupancy
  Er  Er0  1  0.411472  0.217047  0.193631  1
  Er  Er1  1  0.588528  0.782953  0.806369  1
  Er  Er2  1  0.023417  0.217047  0.805575  1
  Er  Er3  1  0.976583  0.782953  0.194425  1
  Er  Er4  1  0.183659  0.283826  0.468376  1
  Er  Er5  1  0.816341  0.716174  0.531624  1
  Er  Er6  1  0.184550  0.716174  0.899833  1
  Er  Er7  1  0.815450  0.283826  0.100167  1
  Er  Er8  1  0.313055  0.619861  0.306805  1
  Er  Er9  1  0.686945  0.380139  0.693195  1
  Tm  Tm10  1  0.313166  0.005851  0.692685  1
  Tm  Tm11  1  0.686834  0.994149  0.307315  1
  Co  Co12  1  0.376776  0.000000  0.376776  1
  Co  Co13  1  0.623224  0.000000  0.623224  1
  Co  Co14  1  0.112066  0.612360  0.500295  1
  Co  Co15  1  0.887934  0.387640  0.499705  1
  Sn  Sn16  1  0.500000  0.500000  0.000000  1
  Ru  Ru17  1  0.000000  0.000000  0.000000  1
