# generated using pymatgen
data_Tc2PSO10
_symmetry_space_group_name_H-M   'P 1'
_cell_length_a   5.33702540
_cell_length_b   5.33702462
_cell_length_c   7.46440034
_cell_angle_alpha   108.85929293
_cell_angle_beta   108.85930106
_cell_angle_gamma   99.52668534
_symmetry_Int_Tables_number   1
_chemical_formula_structural   Tc2PSO10
_chemical_formula_sum   'Tc2 P1 S1 O10'
_cell_volume   181.53934742
_cell_formula_units_Z   1
loop_
 _symmetry_equiv_pos_site_id
 _symmetry_equiv_pos_as_xyz
  1  'x, y, z'
loop_
 _atom_site_type_symbol
 _atom_site_label
 _atom_site_symmetry_multiplicity
 _atom_site_fract_x
 _atom_site_fract_y
 _atom_site_fract_z
 _atom_site_occupancy
  Tc  Tc0  1  0.008370  0.501746  0.496226  1
  Tc  Tc1  1  0.498254  0.991630  0.003774  1
  P  P2  1  0.084188  0.915812  0.250000  1
  S  S3  1  0.913666  0.086334  0.750000  1
  O  O4  1  0.691533  0.308467  0.250000  1
  O  O5  1  0.309918  0.690082  0.750000  1
  O  O6  1  0.765586  0.807016  0.121301  1
  O  O7  1  0.192984  0.234414  0.378699  1
  O  O8  1  0.221353  0.189970  0.871236  1
  O  O9  1  0.810030  0.778647  0.628764  1
  O  O10  1  0.162533  0.769302  0.398449  1
  O  O11  1  0.230698  0.837467  0.101551  1
  O  O12  1  0.838045  0.227157  0.606899  1
  O  O13  1  0.772843  0.161955  0.893101  1
