# generated using pymatgen
data_K3Ba(PPt)4
_symmetry_space_group_name_H-M   'P 1'
_cell_length_a   6.53607654
_cell_length_b   6.53607654
_cell_length_c   6.53607654
_cell_angle_alpha   90.46575289
_cell_angle_beta   89.53424711
_cell_angle_gamma   90.46575289
_symmetry_Int_Tables_number   1
_chemical_formula_structural   K3Ba(PPt)4
_chemical_formula_sum   'K3 Ba1 P4 Pt4'
_cell_volume   279.19560092
_cell_formula_units_Z   1
loop_
 _symmetry_equiv_pos_site_id
 _symmetry_equiv_pos_as_xyz
  1  'x, y, z'
loop_
 _atom_site_type_symbol
 _atom_site_label
 _atom_site_symmetry_multiplicity
 _atom_site_fract_x
 _atom_site_fract_y
 _atom_site_fract_z
 _atom_site_occupancy
  K  K0  1  0.625151  0.365440  0.870970  1
  K  K1  1  0.370970  0.874849  0.634560  1
  K  K2  1  0.134560  0.129030  0.125151  1
  Ba  Ba3  1  0.870926  0.629074  0.370926  1
  P  P4  1  0.594590  0.905410  0.094590  1
  P  P5  1  0.091772  0.594875  0.908047  1
  P  P6  1  0.905125  0.091953  0.591772  1
  P  P7  1  0.408047  0.408228  0.405125  1
  Pt  Pt8  1  0.148407  0.351593  0.648407  1
  Pt  Pt9  1  0.648671  0.150045  0.351826  1
  Pt  Pt10  1  0.851826  0.851329  0.849955  1
  Pt  Pt11  1  0.349955  0.648174  0.148671  1
