# generated using pymatgen
data_Sn14Ru5Pt
_symmetry_space_group_name_H-M   'P 1'
_cell_length_a   8.22247292
_cell_length_b   8.22247345
_cell_length_c   8.22247382
_cell_angle_alpha   109.60620593
_cell_angle_beta   109.60620972
_cell_angle_gamma   109.20158089
_symmetry_Int_Tables_number   1
_chemical_formula_structural   Sn14Ru5Pt
_chemical_formula_sum   'Sn14 Ru5 Pt1'
_cell_volume   427.93552186
_cell_formula_units_Z   1
loop_
 _symmetry_equiv_pos_site_id
 _symmetry_equiv_pos_as_xyz
  1  'x, y, z'
loop_
 _atom_site_type_symbol
 _atom_site_label
 _atom_site_symmetry_multiplicity
 _atom_site_fract_x
 _atom_site_fract_y
 _atom_site_fract_z
 _atom_site_occupancy
  Sn  Sn0  1  0.323805  0.992762  0.000000  1
  Sn  Sn1  1  0.675485  0.999560  0.000000  1
  Sn  Sn2  1  0.992762  0.323805  0.000000  1
  Sn  Sn3  1  0.999560  0.675485  0.000000  1
  Sn  Sn4  1  0.760516  0.506743  0.253773  1
  Sn  Sn5  1  0.506743  0.760516  0.253773  1
  Sn  Sn6  1  0.999560  0.999560  0.324076  1
  Sn  Sn7  1  0.323805  0.323805  0.331042  1
  Sn  Sn8  1  0.750530  0.250530  0.500000  1
  Sn  Sn9  1  0.250530  0.750530  0.500000  1
  Sn  Sn10  1  0.992762  0.992762  0.668959  1
  Sn  Sn11  1  0.675485  0.675485  0.675925  1
  Sn  Sn12  1  0.506743  0.252970  0.746227  1
  Sn  Sn13  1  0.252970  0.506743  0.746227  1
  Ru  Ru14  1  0.649757  0.649757  0.000000  1
  Ru  Ru15  1  0.343865  0.999651  0.344214  1
  Ru  Ru16  1  0.999651  0.343865  0.344214  1
  Ru  Ru17  1  0.655438  0.999651  0.655787  1
  Ru  Ru18  1  0.999651  0.655438  0.655787  1
  Pt  Pt19  1  0.340387  0.340387  0.000000  1
