# generated using pymatgen
data_Tm16Mg(ZrIr4)3
_symmetry_space_group_name_H-M   'P 1'
_cell_length_a   10.69433600
_cell_length_b   10.69433600
_cell_length_c   6.19665700
_cell_angle_alpha   90.00000000
_cell_angle_beta   90.00000000
_cell_angle_gamma   90.00000000
_symmetry_Int_Tables_number   1
_chemical_formula_structural   Tm16Mg(ZrIr4)3
_chemical_formula_sum   'Tm16 Mg1 Zr3 Ir12'
_cell_volume   708.70436441
_cell_formula_units_Z   1
loop_
 _symmetry_equiv_pos_site_id
 _symmetry_equiv_pos_as_xyz
  1  'x, y, z'
loop_
 _atom_site_type_symbol
 _atom_site_label
 _atom_site_symmetry_multiplicity
 _atom_site_fract_x
 _atom_site_fract_y
 _atom_site_fract_z
 _atom_site_occupancy
  Tm  Tm0  1  0.283804  0.083278  0.375655  1
  Tm  Tm1  1  0.290416  0.912214  0.876725  1
  Tm  Tm2  1  0.709584  0.087786  0.876725  1
  Tm  Tm3  1  0.716196  0.916722  0.375655  1
  Tm  Tm4  1  0.588089  0.790352  0.875092  1
  Tm  Tm5  1  0.585287  0.209044  0.373054  1
  Tm  Tm6  1  0.414713  0.790956  0.373054  1
  Tm  Tm7  1  0.411911  0.209648  0.875092  1
  Tm  Tm8  1  0.209044  0.414713  0.626946  1
  Tm  Tm9  1  0.209648  0.588089  0.124908  1
  Tm  Tm10  1  0.790352  0.411911  0.124908  1
  Tm  Tm11  1  0.790956  0.585287  0.626946  1
  Tm  Tm12  1  0.912214  0.709584  0.123275  1
  Tm  Tm13  1  0.916722  0.283804  0.624345  1
  Tm  Tm14  1  0.083278  0.716196  0.624345  1
  Tm  Tm15  1  0.087786  0.290416  0.123275  1
  Mg  Mg16  1  0.000000  0.000000  0.500000  1
  Zr  Zr17  1  0.000000  0.000000  0.000000  1
  Zr  Zr18  1  0.500000  0.500000  0.000000  1
  Zr  Zr19  1  0.500000  0.500000  0.500000  1
  Ir  Ir20  1  0.850425  0.152629  0.240384  1
  Ir  Ir21  1  0.847371  0.850425  0.759616  1
  Ir  Ir22  1  0.152629  0.149575  0.759616  1
  Ir  Ir23  1  0.149575  0.847371  0.240384  1
  Ir  Ir24  1  0.647309  0.352850  0.747141  1
  Ir  Ir25  1  0.647150  0.647309  0.252859  1
  Ir  Ir26  1  0.352850  0.352691  0.252859  1
  Ir  Ir27  1  0.352691  0.647150  0.747141  1
  Ir  Ir28  1  0.500000  0.000000  0.125627  1
  Ir  Ir29  1  0.500000  0.000000  0.621829  1
  Ir  Ir30  1  0.000000  0.500000  0.874373  1
  Ir  Ir31  1  0.000000  0.500000  0.378171  1
