# generated using pymatgen
data_Li12La7Tb5(WO6)8
_symmetry_space_group_name_H-M   'P 1'
_cell_length_a   10.92916169
_cell_length_b   10.90132251
_cell_length_c   10.90785956
_cell_angle_alpha   109.48148859
_cell_angle_beta   109.40113074
_cell_angle_gamma   109.37524765
_symmetry_Int_Tables_number   1
_chemical_formula_structural   Li12La7Tb5(WO6)8
_chemical_formula_sum   'Li12 La7 Tb5 W8 O48'
_cell_volume   1002.34125699
_cell_formula_units_Z   1
loop_
 _symmetry_equiv_pos_site_id
 _symmetry_equiv_pos_as_xyz
  1  'x, y, z'
loop_
 _atom_site_type_symbol
 _atom_site_label
 _atom_site_symmetry_multiplicity
 _atom_site_fract_x
 _atom_site_fract_y
 _atom_site_fract_z
 _atom_site_occupancy
  Li  Li0  1  0.748589  0.375509  0.124823  1
  Li  Li1  1  0.877683  0.749063  0.126223  1
  Li  Li2  1  0.125039  0.375491  0.248839  1
  Li  Li3  1  0.623961  0.874581  0.250627  1
  Li  Li4  1  0.623304  0.250863  0.373123  1
  Li  Li5  1  0.250499  0.122457  0.373578  1
  Li  Li6  1  0.373673  0.751803  0.623542  1
  Li  Li7  1  0.750081  0.873363  0.624535  1
  Li  Li8  1  0.374903  0.124132  0.750822  1
  Li  Li9  1  0.876068  0.626643  0.750232  1
  Li  Li10  1  0.126973  0.249129  0.876688  1
  Li  Li11  1  0.249000  0.627105  0.876866  1
  La  La12  1  0.747445  0.624351  0.371687  1
  La  La13  1  0.874548  0.247734  0.621294  1
  La  La14  1  0.247564  0.374437  0.621778  1
  La  La15  1  0.624552  0.374998  0.749288  1
  La  La16  1  0.127897  0.875848  0.752104  1
  La  La17  1  0.625161  0.752026  0.878733  1
  La  La18  1  0.752794  0.125917  0.878422  1
  Tb  Tb19  1  0.252385  0.875519  0.128562  1
  Tb  Tb20  1  0.373391  0.250899  0.127466  1
  Tb  Tb21  1  0.875907  0.124765  0.250822  1
  Tb  Tb22  1  0.372346  0.624430  0.248632  1
  Tb  Tb23  1  0.127061  0.748944  0.372090  1
  W  W24  1  0.005058  0.000832  0.007202  1
  W  W25  1  0.502449  0.006139  0.008189  1
  W  W26  1  0.494795  0.496834  0.000676  1
  W  W27  1  0.004903  0.504513  0.003743  1
  W  W28  1  0.495947  0.994991  0.495737  1
  W  W29  1  0.997730  0.498308  0.493200  1
  W  W30  1  0.002551  0.998023  0.495773  1
  W  W31  1  0.496555  0.500344  0.495478  1
  O  O32  1  0.326279  0.406558  0.029032  1
  O  O33  1  0.201186  0.621840  0.029737  1
  O  O34  1  0.887118  0.911014  0.086622  1
  O  O35  1  0.699069  0.175156  0.086526  1
  O  O36  1  0.622269  0.928844  0.100180  1
  O  O37  1  0.977156  0.170403  0.099001  1
  O  O38  1  0.031030  0.701543  0.122172  1
  O  O39  1  0.585304  0.413756  0.113718  1
  O  O40  1  0.202371  0.079083  0.174305  1
  O  O41  1  0.471388  0.094783  0.174786  1
  O  O42  1  0.122365  0.529864  0.200802  1
  O  O43  1  0.572401  0.669705  0.195509  1
  O  O44  1  0.326630  0.420662  0.298083  1
  O  O45  1  0.470011  0.877832  0.298595  1
  O  O46  1  0.926276  0.802062  0.327491  1
  O  O47  1  0.910752  0.525458  0.323292  1
  O  O48  1  0.573335  0.404878  0.377481  1
  O  O49  1  0.299526  0.969831  0.378132  1
  O  O50  1  0.830501  0.022199  0.401809  1
  O  O51  1  0.073414  0.376916  0.401342  1
  O  O52  1  0.089101  0.114096  0.413504  1
  O  O53  1  0.826401  0.301509  0.413610  1
  O  O54  1  0.585789  0.673232  0.472030  1
  O  O55  1  0.377816  0.798396  0.469544  1
  O  O56  1  0.611006  0.190185  0.517927  1
  O  O57  1  0.406530  0.327701  0.518947  1
  O  O58  1  0.169969  0.693377  0.571543  1
  O  O59  1  0.908924  0.887570  0.578760  1
  O  O60  1  0.174784  0.974604  0.587061  1
  O  O61  1  0.917756  0.611755  0.588527  1
  O  O62  1  0.417970  0.592731  0.612381  1
  O  O63  1  0.690393  0.017306  0.610464  1
  O  O64  1  0.081110  0.192037  0.670245  1
  O  O65  1  0.091309  0.480254  0.669358  1
  O  O66  1  0.670928  0.579907  0.689258  1
  O  O67  1  0.519003  0.111006  0.691129  1
  O  O68  1  0.889333  0.481861  0.809163  1
  O  O69  1  0.417879  0.326682  0.805721  1
  O  O70  1  0.519237  0.909729  0.831047  1
  O  O71  1  0.812244  0.921058  0.831018  1
  O  O72  1  0.982132  0.308968  0.888887  1
  O  O73  1  0.405493  0.579451  0.887077  1
  O  O74  1  0.387749  0.086819  0.915235  1
  O  O75  1  0.027248  0.827171  0.915013  1
  O  O76  1  0.121450  0.096851  0.929255  1
  O  O77  1  0.308605  0.832294  0.930112  1
  O  O78  1  0.810097  0.389418  0.981715  1
  O  O79  1  0.670557  0.591656  0.982077  1
