# generated using pymatgen
data_Tb2Hf3Sc(SnRh)6
_symmetry_space_group_name_H-M   'P 1'
_cell_length_a   7.46304210
_cell_length_b   7.46127247
_cell_length_c   7.45723500
_cell_angle_alpha   90.00000000
_cell_angle_beta   90.00000000
_cell_angle_gamma   120.02428126
_symmetry_Int_Tables_number   1
_chemical_formula_structural   Tb2Hf3Sc(SnRh)6
_chemical_formula_sum   'Tb2 Hf3 Sc1 Sn6 Rh6'
_cell_volume   359.52652694
_cell_formula_units_Z   1
loop_
 _symmetry_equiv_pos_site_id
 _symmetry_equiv_pos_as_xyz
  1  'x, y, z'
loop_
 _atom_site_type_symbol
 _atom_site_label
 _atom_site_symmetry_multiplicity
 _atom_site_fract_x
 _atom_site_fract_y
 _atom_site_fract_z
 _atom_site_occupancy
  Tb  Tb0  1  0.002371  0.408477  0.250000  1
  Tb  Tb1  1  0.594188  0.591356  0.250000  1
  Hf  Hf2  1  0.997119  0.390612  0.750000  1
  Hf  Hf3  1  0.606146  0.610116  0.750000  1
  Hf  Hf4  1  0.396018  0.999811  0.750000  1
  Sc  Sc5  1  0.401061  0.998598  0.250000  1
  Sn  Sn6  1  0.267774  0.264673  0.507673  1
  Sn  Sn7  1  0.002241  0.735038  0.507987  1
  Sn  Sn8  1  0.002241  0.735038  0.992013  1
  Sn  Sn9  1  0.729737  0.000288  0.497507  1
  Sn  Sn10  1  0.729737  0.000288  0.002493  1
  Sn  Sn11  1  0.267774  0.264673  0.992327  1
  Rh  Rh12  1  0.333854  0.668041  0.536861  1
  Rh  Rh13  1  0.666119  0.332355  0.538041  1
  Rh  Rh14  1  0.333854  0.668041  0.963139  1
  Rh  Rh15  1  0.995150  0.000363  0.750000  1
  Rh  Rh16  1  0.008493  0.999876  0.250000  1
  Rh  Rh17  1  0.666119  0.332355  0.961959  1
