# generated using pymatgen
data_SmEu3(GeN3)2
_symmetry_space_group_name_H-M   'P 1'
_cell_length_a   6.10139857
_cell_length_b   6.10139866
_cell_length_c   11.90075800
_cell_angle_alpha   90.65654861
_cell_angle_beta   89.34345138
_cell_angle_gamma   125.75255701
_symmetry_Int_Tables_number   1
_chemical_formula_structural   SmEu3(GeN3)2
_chemical_formula_sum   'Sm2 Eu6 Ge4 N12'
_cell_volume   359.51050764
_cell_formula_units_Z   2
loop_
 _symmetry_equiv_pos_site_id
 _symmetry_equiv_pos_as_xyz
  1  'x, y, z'
loop_
 _atom_site_type_symbol
 _atom_site_label
 _atom_site_symmetry_multiplicity
 _atom_site_fract_x
 _atom_site_fract_y
 _atom_site_fract_z
 _atom_site_occupancy
  Sm  Sm0  1  0.051205  0.948795  0.858054  1
  Sm  Sm1  1  0.948795  0.051205  0.141946  1
  Eu  Eu2  1  0.453139  0.546861  0.357817  1
  Eu  Eu3  1  0.546861  0.453139  0.642183  1
  Eu  Eu4  1  0.639931  0.360069  0.079082  1
  Eu  Eu5  1  0.360069  0.639931  0.920918  1
  Eu  Eu6  1  0.859384  0.140616  0.576411  1
  Eu  Eu7  1  0.140616  0.859384  0.423589  1
  Ge  Ge8  1  0.739458  0.260542  0.841086  1
  Ge  Ge9  1  0.260542  0.739458  0.158914  1
  Ge  Ge10  1  0.762592  0.237408  0.342351  1
  Ge  Ge11  1  0.237408  0.762592  0.657649  1
  N  N12  1  0.569511  0.430489  0.869595  1
  N  N13  1  0.430489  0.569511  0.130405  1
  N  N14  1  0.932572  0.067428  0.361421  1
  N  N15  1  0.067428  0.932572  0.638579  1
  N  N16  1  0.534694  0.958181  0.751413  1
  N  N17  1  0.958181  0.534694  0.248587  1
  N  N18  1  0.465306  0.041819  0.248587  1
  N  N19  1  0.041819  0.465306  0.751413  1
  N  N20  1  0.855582  0.144418  0.962263  1
  N  N21  1  0.144418  0.855582  0.037737  1
  N  N22  1  0.650973  0.349027  0.464810  1
  N  N23  1  0.349027  0.650973  0.535190  1
