# generated using pymatgen
data_Y3ErMg2(B2Rh5)2
_symmetry_space_group_name_H-M   'P 1'
_cell_length_a   9.65165698
_cell_length_b   9.65165698
_cell_length_c   3.18412500
_cell_angle_alpha   90.00000000
_cell_angle_beta   90.00000000
_cell_angle_gamma   89.80495463
_symmetry_Int_Tables_number   1
_chemical_formula_structural   Y3ErMg2(B2Rh5)2
_chemical_formula_sum   'Y3 Er1 Mg2 B4 Rh10'
_cell_volume   296.61379786
_cell_formula_units_Z   1
loop_
 _symmetry_equiv_pos_site_id
 _symmetry_equiv_pos_as_xyz
  1  'x, y, z'
loop_
 _atom_site_type_symbol
 _atom_site_label
 _atom_site_symmetry_multiplicity
 _atom_site_fract_x
 _atom_site_fract_y
 _atom_site_fract_z
 _atom_site_occupancy
  Y  Y0  1  0.676618  0.175765  0.000000  1
  Y  Y1  1  0.324235  0.823382  0.000000  1
  Y  Y2  1  0.175794  0.324206  0.000000  1
  Er  Er3  1  0.823849  0.676151  0.000000  1
  Mg  Mg4  1  0.000243  0.000627  0.000000  1
  Mg  Mg5  1  0.499373  0.499757  0.000000  1
  B  B6  1  0.121256  0.623285  0.000000  1
  B  B7  1  0.876715  0.378744  0.000000  1
  B  B8  1  0.623132  0.876868  0.000000  1
  B  B9  1  0.378238  0.121762  0.000000  1
  Rh  Rh10  1  0.500855  0.999145  0.500000  1
  Rh  Rh11  1  0.998616  0.501384  0.500000  1
  Rh  Rh12  1  0.225157  0.069862  0.500000  1
  Rh  Rh13  1  0.776499  0.927839  0.500000  1
  Rh  Rh14  1  0.068324  0.775764  0.500000  1
  Rh  Rh15  1  0.724236  0.431676  0.500000  1
  Rh  Rh16  1  0.929911  0.225348  0.500000  1
  Rh  Rh17  1  0.274652  0.570089  0.500000  1
  Rh  Rh18  1  0.572161  0.723501  0.500000  1
  Rh  Rh19  1  0.430138  0.274843  0.500000  1
