# generated using pymatgen
data_NaTb(BIr)4
_symmetry_space_group_name_H-M   'P 1'
_cell_length_a   7.13858357
_cell_length_b   6.16843659
_cell_length_c   5.47497490
_cell_angle_alpha   75.36511102
_cell_angle_beta   56.72668638
_cell_angle_gamma   47.90820665
_symmetry_Int_Tables_number   1
_chemical_formula_structural   NaTb(BIr)4
_chemical_formula_sum   'Na1 Tb1 B4 Ir4'
_cell_volume   146.97677006
_cell_formula_units_Z   1
loop_
 _symmetry_equiv_pos_site_id
 _symmetry_equiv_pos_as_xyz
  1  'x, y, z'
loop_
 _atom_site_type_symbol
 _atom_site_label
 _atom_site_symmetry_multiplicity
 _atom_site_fract_x
 _atom_site_fract_y
 _atom_site_fract_z
 _atom_site_occupancy
  Na  Na0  1  0.500000  0.500000  0.500000  1
  Tb  Tb1  1  0.750000  0.750000  0.750000  1
  B  B2  1  0.178843  0.821157  0.178843  1
  B  B3  1  0.073093  0.426907  0.073093  1
  B  B4  1  0.821157  0.178842  0.821157  1
  B  B5  1  0.426907  0.073093  0.426907  1
  Ir  Ir6  1  0.871911  0.871911  0.128089  1
  Ir  Ir7  1  0.128089  0.128089  0.871911  1
  Ir  Ir8  1  0.379782  0.379782  0.120218  1
  Ir  Ir9  1  0.120218  0.120218  0.379782  1
