# generated using pymatgen
data_Ta2Ni2B6Mo3W
_symmetry_space_group_name_H-M   'P 1'
_cell_length_a   3.20987600
_cell_length_b   4.54107645
_cell_length_c   10.88428589
_cell_angle_alpha   89.92587763
_cell_angle_beta   90.00000000
_cell_angle_gamma   110.69705576
_symmetry_Int_Tables_number   1
_chemical_formula_structural   Ta2Ni2B6Mo3W
_chemical_formula_sum   'Ta2 Ni2 B6 Mo3 W1'
_cell_volume   148.41330438
_cell_formula_units_Z   1
loop_
 _symmetry_equiv_pos_site_id
 _symmetry_equiv_pos_as_xyz
  1  'x, y, z'
loop_
 _atom_site_type_symbol
 _atom_site_label
 _atom_site_symmetry_multiplicity
 _atom_site_fract_x
 _atom_site_fract_y
 _atom_site_fract_z
 _atom_site_occupancy
  Ta  Ta0  1  0.791059  0.582119  0.606712  1
  Ta  Ta1  1  0.209225  0.418449  0.105679  1
  Ni  Ni2  1  0.502033  0.004066  0.498269  1
  Ni  Ni3  1  0.498180  0.996360  0.998786  1
  B  B4  1  0.913386  0.826771  0.395325  1
  B  B5  1  0.087059  0.174116  0.605693  1
  B  B6  1  0.913175  0.826350  0.106281  1
  B  B7  1  0.086507  0.173015  0.894682  1
  B  B8  1  0.791986  0.583970  0.250340  1
  B  B9  1  0.207270  0.414542  0.750562  1
  Mo  Mo10  1  0.787384  0.574768  0.892136  1
  Mo  Mo11  1  0.499758  0.999517  0.251762  1
  Mo  Mo12  1  0.500752  0.001504  0.751302  1
  W  W13  1  0.212226  0.424451  0.392471  1
