# generated using pymatgen
data_SmTe28
_symmetry_space_group_name_H-M   'P 1'
_cell_length_a   11.97726242
_cell_length_b   10.80100050
_cell_length_c   12.50182862
_cell_angle_alpha   115.09544448
_cell_angle_beta   122.68138700
_cell_angle_gamma   88.59922313
_symmetry_Int_Tables_number   1
_chemical_formula_structural   SmTe28
_chemical_formula_sum   'Sm1 Te28'
_cell_volume   1187.54553730
_cell_formula_units_Z   1
loop_
 _symmetry_equiv_pos_site_id
 _symmetry_equiv_pos_as_xyz
  1  'x, y, z'
loop_
 _atom_site_type_symbol
 _atom_site_label
 _atom_site_symmetry_multiplicity
 _atom_site_fract_x
 _atom_site_fract_y
 _atom_site_fract_z
 _atom_site_occupancy
  Sm  Sm0  1  0.500000  0.000000  0.000000  1
  Te  Te1  1  0.228954  0.102906  0.420436  1
  Te  Te2  1  0.594723  0.157045  0.427323  1
  Te  Te3  1  0.278004  0.267956  0.886596  1
  Te  Te4  1  0.916574  0.305210  0.890935  1
  Te  Te5  1  0.208829  0.552114  0.724727  1
  Te  Te6  1  0.804727  0.527617  0.637566  1
  Te  Te7  1  0.405277  0.842955  0.572677  1
  Te  Te8  1  0.771046  0.897094  0.579564  1
  Te  Te9  1  0.083426  0.694790  0.109065  1
  Te  Te10  1  0.721996  0.732044  0.113404  1
  Te  Te11  1  0.195273  0.472383  0.362434  1
  Te  Te12  1  0.791171  0.447886  0.275273  1
  Te  Te13  1  0.760006  0.075530  0.840924  1
  Te  Te14  1  0.224284  0.978211  0.719137  1
  Te  Te15  1  0.811878  0.680269  0.898937  1
  Te  Te16  1  0.374267  0.759882  0.026792  1
  Te  Te17  1  0.514510  0.275044  0.242245  1
  Te  Te18  1  0.039911  0.278415  0.357547  1
  Te  Te19  1  0.775716  0.021789  0.280863  1
  Te  Te20  1  0.239994  0.924470  0.159076  1
  Te  Te21  1  0.625733  0.240118  0.973208  1
  Te  Te22  1  0.188122  0.319731  0.101063  1
  Te  Te23  1  0.960089  0.721585  0.642453  1
  Te  Te24  1  0.485490  0.724956  0.757755  1
  Te  Te25  1  0.047731  0.376042  0.737669  1
  Te  Te26  1  0.487978  0.290036  0.584577  1
  Te  Te27  1  0.512022  0.709964  0.415423  1
  Te  Te28  1  0.952269  0.623958  0.262331  1
