# generated using pymatgen
data_YbHf3(B4Ru5)2
_symmetry_space_group_name_H-M   'P 1'
_cell_length_a   3.00401600
_cell_length_b   8.80265864
_cell_length_c   10.00040565
_cell_angle_alpha   89.66162714
_cell_angle_beta   90.00000000
_cell_angle_gamma   90.00000000
_symmetry_Int_Tables_number   1
_chemical_formula_structural   YbHf3(B4Ru5)2
_chemical_formula_sum   'Yb1 Hf3 B8 Ru10'
_cell_volume   264.43938899
_cell_formula_units_Z   1
loop_
 _symmetry_equiv_pos_site_id
 _symmetry_equiv_pos_as_xyz
  1  'x, y, z'
loop_
 _atom_site_type_symbol
 _atom_site_label
 _atom_site_symmetry_multiplicity
 _atom_site_fract_x
 _atom_site_fract_y
 _atom_site_fract_z
 _atom_site_occupancy
  Yb  Yb0  1  0.500000  0.836611  0.181006  1
  Hf  Hf1  1  0.500000  0.163450  0.820149  1
  Hf  Hf2  1  0.500000  0.664107  0.681732  1
  Hf  Hf3  1  0.500000  0.337584  0.318328  1
  B  B4  1  0.500000  0.966181  0.584889  1
  B  B5  1  0.500000  0.030557  0.416099  1
  B  B6  1  0.500000  0.857065  0.898790  1
  B  B7  1  0.500000  0.144020  0.103800  1
  B  B8  1  0.500000  0.643884  0.395650  1
  B  B9  1  0.500000  0.355393  0.602237  1
  B  B10  1  0.500000  0.468207  0.914325  1
  B  B11  1  0.500000  0.532561  0.083110  1
  Ru  Ru12  1  0.000000  0.671955  0.942751  1
  Ru  Ru13  1  0.000000  0.327117  0.050064  1
  Ru  Ru14  1  0.000000  0.824502  0.453141  1
  Ru  Ru15  1  0.000000  0.173725  0.554051  1
  Ru  Ru16  1  0.000000  0.005197  0.997367  1
  Ru  Ru17  1  0.000000  0.410735  0.764901  1
  Ru  Ru18  1  0.000000  0.580673  0.234450  1
  Ru  Ru19  1  0.000000  0.499893  0.500655  1
  Ru  Ru20  1  0.000000  0.912428  0.734775  1
  Ru  Ru21  1  0.000000  0.094155  0.267730  1
