# generated using pymatgen
data_Na3Ce(NdTe2)4
_symmetry_space_group_name_H-M   'P 1'
_cell_length_a   9.09089744
_cell_length_b   9.09089811
_cell_length_c   9.11107600
_cell_angle_alpha   60.07322924
_cell_angle_beta   60.07322679
_cell_angle_gamma   59.99999393
_symmetry_Int_Tables_number   1
_chemical_formula_structural   Na3Ce(NdTe2)4
_chemical_formula_sum   'Na3 Ce1 Nd4 Te8'
_cell_volume   533.02552861
_cell_formula_units_Z   1
loop_
 _symmetry_equiv_pos_site_id
 _symmetry_equiv_pos_as_xyz
  1  'x, y, z'
loop_
 _atom_site_type_symbol
 _atom_site_label
 _atom_site_symmetry_multiplicity
 _atom_site_fract_x
 _atom_site_fract_y
 _atom_site_fract_z
 _atom_site_occupancy
  Na  Na0  1  0.125000  0.625000  0.125000  1
  Na  Na1  1  0.625000  0.125000  0.125000  1
  Na  Na2  1  0.125000  0.125000  0.125000  1
  Ce  Ce3  1  0.125000  0.125000  0.625000  1
  Nd  Nd4  1  0.625000  0.125000  0.625000  1
  Nd  Nd5  1  0.625000  0.625000  0.625000  1
  Nd  Nd6  1  0.125000  0.625000  0.625000  1
  Nd  Nd7  1  0.625000  0.625000  0.125000  1
  Te  Te8  1  0.375583  0.872729  0.376104  1
  Te  Te9  1  0.874417  0.377271  0.873896  1
  Te  Te10  1  0.872813  0.872813  0.381563  1
  Te  Te11  1  0.874417  0.874417  0.873896  1
  Te  Te12  1  0.872729  0.375583  0.376104  1
  Te  Te13  1  0.377187  0.377187  0.868437  1
  Te  Te14  1  0.375583  0.375583  0.376104  1
  Te  Te15  1  0.377271  0.874417  0.873896  1
