# generated using pymatgen
data_La8Cd2TcAu
_symmetry_space_group_name_H-M   'P 1'
_cell_length_a   10.20820522
_cell_length_b   10.20820579
_cell_length_c   10.34890100
_cell_angle_alpha   59.54302282
_cell_angle_beta   59.54302094
_cell_angle_gamma   59.38346852
_symmetry_Int_Tables_number   1
_chemical_formula_structural   La8Cd2TcAu
_chemical_formula_sum   'La16 Cd4 Tc2 Au2'
_cell_volume   753.71490616
_cell_formula_units_Z   2
loop_
 _symmetry_equiv_pos_site_id
 _symmetry_equiv_pos_as_xyz
  1  'x, y, z'
loop_
 _atom_site_type_symbol
 _atom_site_label
 _atom_site_symmetry_multiplicity
 _atom_site_fract_x
 _atom_site_fract_y
 _atom_site_fract_z
 _atom_site_occupancy
  La  La0  1  0.346059  0.346059  0.365715  1
  La  La1  1  0.346059  0.346059  0.942166  1
  La  La2  1  0.340110  0.960113  0.349888  1
  La  La3  1  0.960113  0.340110  0.349888  1
  La  La4  1  0.822727  0.190882  0.190722  1
  La  La5  1  0.190882  0.822727  0.795670  1
  La  La6  1  0.190882  0.822727  0.190722  1
  La  La7  1  0.822727  0.190882  0.795670  1
  La  La8  1  0.187425  0.187425  0.812575  1
  La  La9  1  0.801132  0.801132  0.198868  1
  La  La10  1  0.936029  0.554699  0.567107  1
  La  La11  1  0.554699  0.936029  0.942164  1
  La  La12  1  0.554699  0.936029  0.567107  1
  La  La13  1  0.936029  0.554699  0.942164  1
  La  La14  1  0.562302  0.562302  0.937698  1
  La  La15  1  0.937073  0.937073  0.562927  1
  Cd  Cd16  1  0.579435  0.579435  0.579797  1
  Cd  Cd17  1  0.579435  0.579435  0.261335  1
  Cd  Cd18  1  0.581319  0.260770  0.578956  1
  Cd  Cd19  1  0.260770  0.581319  0.578956  1
  Tc  Tc20  1  0.141814  0.141814  0.131762  1
  Tc  Tc21  1  0.141814  0.141814  0.584610  1
  Au  Au22  1  0.151866  0.574601  0.136767  1
  Au  Au23  1  0.574601  0.151866  0.136767  1
