# generated using pymatgen
data_Hf6Zn22CoPd
_symmetry_space_group_name_H-M   'P 1'
_cell_length_a   8.73950482
_cell_length_b   8.73950354
_cell_length_c   8.73950500
_cell_angle_alpha   60.00000581
_cell_angle_beta   60.00001066
_cell_angle_gamma   60.00000226
_symmetry_Int_Tables_number   1
_chemical_formula_structural   Hf6Zn22CoPd
_chemical_formula_sum   'Hf6 Zn22 Co1 Pd1'
_cell_volume   472.00379152
_cell_formula_units_Z   1
loop_
 _symmetry_equiv_pos_site_id
 _symmetry_equiv_pos_as_xyz
  1  'x, y, z'
loop_
 _atom_site_type_symbol
 _atom_site_label
 _atom_site_symmetry_multiplicity
 _atom_site_fract_x
 _atom_site_fract_y
 _atom_site_fract_z
 _atom_site_occupancy
  Hf  Hf0  1  0.697260  0.302740  0.302740  1
  Hf  Hf1  1  0.302740  0.697260  0.697260  1
  Hf  Hf2  1  0.302740  0.697260  0.302740  1
  Hf  Hf3  1  0.697260  0.302740  0.697260  1
  Hf  Hf4  1  0.302740  0.302740  0.697260  1
  Hf  Hf5  1  0.697260  0.697260  0.302740  1
  Zn  Zn6  1  0.120890  0.120890  0.120890  1
  Zn  Zn7  1  0.879110  0.879110  0.879110  1
  Zn  Zn8  1  0.120890  0.120890  0.637331  1
  Zn  Zn9  1  0.120890  0.637331  0.120890  1
  Zn  Zn10  1  0.879110  0.879110  0.362669  1
  Zn  Zn11  1  0.879110  0.362669  0.879110  1
  Zn  Zn12  1  0.637331  0.120890  0.120890  1
  Zn  Zn13  1  0.362669  0.879110  0.879110  1
  Zn  Zn14  1  0.500000  0.000000  0.000000  1
  Zn  Zn15  1  0.000000  0.500000  0.500000  1
  Zn  Zn16  1  0.000000  0.500000  0.000000  1
  Zn  Zn17  1  0.500000  0.000000  0.500000  1
  Zn  Zn18  1  0.000000  0.000000  0.500000  1
  Zn  Zn19  1  0.500000  0.500000  0.000000  1
  Zn  Zn20  1  0.331084  0.331084  0.331084  1
  Zn  Zn21  1  0.668916  0.668916  0.668916  1
  Zn  Zn22  1  0.331084  0.331084  0.006749  1
  Zn  Zn23  1  0.331084  0.006749  0.331084  1
  Zn  Zn24  1  0.668916  0.668916  0.993251  1
  Zn  Zn25  1  0.668916  0.993251  0.668916  1
  Zn  Zn26  1  0.006749  0.331084  0.331084  1
  Zn  Zn27  1  0.993251  0.668916  0.668916  1
  Co  Co28  1  0.500000  0.500000  0.500000  1
  Pd  Pd29  1  0.000000  0.000000  0.000000  1
