# generated using pymatgen
data_Pr4Th(PtO6)2
_symmetry_space_group_name_H-M   'P 1'
_cell_length_a   7.18369023
_cell_length_b   7.18369051
_cell_length_c   7.58414113
_cell_angle_alpha   74.55743847
_cell_angle_beta   74.55743830
_cell_angle_gamma   50.86425595
_symmetry_Int_Tables_number   1
_chemical_formula_structural   Pr4Th(PtO6)2
_chemical_formula_sum   'Pr4 Th1 Pt2 O12'
_cell_volume   290.08166799
_cell_formula_units_Z   1
loop_
 _symmetry_equiv_pos_site_id
 _symmetry_equiv_pos_as_xyz
  1  'x, y, z'
loop_
 _atom_site_type_symbol
 _atom_site_label
 _atom_site_symmetry_multiplicity
 _atom_site_fract_x
 _atom_site_fract_y
 _atom_site_fract_z
 _atom_site_occupancy
  Pr  Pr0  1  0.694710  0.694710  0.645539  1
  Pr  Pr1  1  0.694898  0.694898  0.159222  1
  Pr  Pr2  1  0.303602  0.303602  0.841348  1
  Pr  Pr3  1  0.999853  0.999853  0.499167  1
  Th  Th4  1  0.304969  0.304969  0.355540  1
  Pt  Pt5  1  0.753116  0.246993  0.000805  1
  Pt  Pt6  1  0.246993  0.753116  0.000805  1
  O  O7  1  0.100859  0.591839  0.566198  1
  O  O8  1  0.000087  0.000087  0.178561  1
  O  O9  1  0.397483  0.915063  0.423807  1
  O  O10  1  0.499597  0.499597  0.181563  1
  O  O11  1  0.099067  0.570056  0.089480  1
  O  O12  1  0.915063  0.397483  0.423807  1
  O  O13  1  0.999252  0.999252  0.823777  1
  O  O14  1  0.591839  0.100858  0.566198  1
  O  O15  1  0.499305  0.499305  0.822122  1
  O  O16  1  0.570056  0.099067  0.089480  1
  O  O17  1  0.425845  0.903406  0.916291  1
  O  O18  1  0.903406  0.425845  0.916291  1
