# generated using pymatgen
data_YbEu4Ge3
_symmetry_space_group_name_H-M   'P 1'
_cell_length_a   9.30784495
_cell_length_b   9.30784520
_cell_length_c   9.30784596
_cell_angle_alpha   130.67483533
_cell_angle_beta   130.67483661
_cell_angle_gamma   72.33020714
_symmetry_Int_Tables_number   1
_chemical_formula_structural   YbEu4Ge3
_chemical_formula_sum   'Yb2 Eu8 Ge6'
_cell_volume   453.41415468
_cell_formula_units_Z   2
loop_
 _symmetry_equiv_pos_site_id
 _symmetry_equiv_pos_as_xyz
  1  'x, y, z'
loop_
 _atom_site_type_symbol
 _atom_site_label
 _atom_site_symmetry_multiplicity
 _atom_site_fract_x
 _atom_site_fract_y
 _atom_site_fract_z
 _atom_site_occupancy
  Yb  Yb0  1  0.500000  0.500000  0.000000  1
  Yb  Yb1  1  0.000000  0.000000  0.000000  1
  Eu  Eu2  1  0.530968  0.030968  0.851629  1
  Eu  Eu3  1  0.179338  0.679338  0.148371  1
  Eu  Eu4  1  0.030968  0.179338  0.500000  1
  Eu  Eu5  1  0.679338  0.530968  0.500000  1
  Eu  Eu6  1  0.469032  0.969032  0.148371  1
  Eu  Eu7  1  0.820662  0.320662  0.851629  1
  Eu  Eu8  1  0.969032  0.820662  0.500000  1
  Eu  Eu9  1  0.320662  0.469032  0.500000  1
  Ge  Ge10  1  0.882122  0.382122  0.264245  1
  Ge  Ge11  1  0.117878  0.617878  0.735755  1
  Ge  Ge12  1  0.382122  0.117878  0.500000  1
  Ge  Ge13  1  0.617878  0.882122  0.500000  1
  Ge  Ge14  1  0.250000  0.250000  0.000000  1
  Ge  Ge15  1  0.750000  0.750000  0.000000  1
