# generated using pymatgen
data_Ac2Ge3Au
_symmetry_space_group_name_H-M   'P 1'
_cell_length_a   4.50536901
_cell_length_b   4.50762385
_cell_length_c   8.96182600
_cell_angle_alpha   90.00000000
_cell_angle_beta   90.00000000
_cell_angle_gamma   120.00863305
_symmetry_Int_Tables_number   1
_chemical_formula_structural   Ac2Ge3Au
_chemical_formula_sum   'Ac2 Ge3 Au1'
_cell_volume   157.60405506
_cell_formula_units_Z   1
loop_
 _symmetry_equiv_pos_site_id
 _symmetry_equiv_pos_as_xyz
  1  'x, y, z'
loop_
 _atom_site_type_symbol
 _atom_site_label
 _atom_site_symmetry_multiplicity
 _atom_site_fract_x
 _atom_site_fract_y
 _atom_site_fract_z
 _atom_site_occupancy
  Ac  Ac0  1  0.999988  0.999985  0.004774  1
  Ac  Ac1  1  0.999988  0.999985  0.495226  1
  Ge  Ge2  1  0.333272  0.666651  0.750000  1
  Ge  Ge3  1  0.666512  0.333312  0.250000  1
  Ge  Ge4  1  0.666628  0.333330  0.750000  1
  Au  Au5  1  0.333413  0.666736  0.250000  1
