# generated using pymatgen
data_Li3Pr2HoAgSn4
_symmetry_space_group_name_H-M   'P 1'
_cell_length_a   8.82801583
_cell_length_b   8.83288576
_cell_length_c   8.83288460
_cell_angle_alpha   148.86111168
_cell_angle_beta   132.67535556
_cell_angle_gamma   57.74554183
_symmetry_Int_Tables_number   1
_chemical_formula_structural   Li3Pr2HoAgSn4
_chemical_formula_sum   'Li3 Pr2 Ho1 Ag1 Sn4'
_cell_volume   259.89118957
_cell_formula_units_Z   1
loop_
 _symmetry_equiv_pos_site_id
 _symmetry_equiv_pos_as_xyz
  1  'x, y, z'
loop_
 _atom_site_type_symbol
 _atom_site_label
 _atom_site_symmetry_multiplicity
 _atom_site_fract_x
 _atom_site_fract_y
 _atom_site_fract_z
 _atom_site_occupancy
  Li  Li0  1  0.481621  0.672445  0.809177  1
  Li  Li1  1  0.859592  0.671373  0.188218  1
  Li  Li2  1  0.140858  0.330479  0.810378  1
  Pr  Pr3  1  0.871361  0.869878  0.001483  1
  Pr  Pr4  1  0.133145  0.130038  0.003108  1
  Ho  Ho5  1  0.498172  0.998316  0.499857  1
  Ag  Ag6  1  0.518881  0.327288  0.191592  1
  Sn  Sn7  1  0.278342  0.788685  0.489657  1
  Sn  Sn8  1  0.712426  0.208191  0.504234  1
  Sn  Sn9  1  0.799651  0.502159  0.297492  1
  Sn  Sn10  1  0.205951  0.501148  0.704803  1
