# generated using pymatgen
data_Y6Sn7TePd16
_symmetry_space_group_name_H-M   'P 1'
_cell_length_a   9.34555025
_cell_length_b   9.34554952
_cell_length_c   9.34555000
_cell_angle_alpha   59.99999830
_cell_angle_beta   60.00000088
_cell_angle_gamma   59.99999801
_symmetry_Int_Tables_number   1
_chemical_formula_structural   Y6Sn7TePd16
_chemical_formula_sum   'Y6 Sn7 Te1 Pd16'
_cell_volume   577.16445677
_cell_formula_units_Z   1
loop_
 _symmetry_equiv_pos_site_id
 _symmetry_equiv_pos_as_xyz
  1  'x, y, z'
loop_
 _atom_site_type_symbol
 _atom_site_label
 _atom_site_symmetry_multiplicity
 _atom_site_fract_x
 _atom_site_fract_y
 _atom_site_fract_z
 _atom_site_occupancy
  Y  Y0  1  0.725816  0.274184  0.274184  1
  Y  Y1  1  0.274184  0.725816  0.725816  1
  Y  Y2  1  0.274184  0.725816  0.274184  1
  Y  Y3  1  0.725816  0.274184  0.725816  1
  Y  Y4  1  0.274184  0.274184  0.725816  1
  Y  Y5  1  0.725816  0.725816  0.274184  1
  Sn  Sn6  1  0.000000  0.000000  0.000000  1
  Sn  Sn7  1  0.500000  0.000000  0.000000  1
  Sn  Sn8  1  0.000000  0.500000  0.500000  1
  Sn  Sn9  1  0.000000  0.500000  0.000000  1
  Sn  Sn10  1  0.500000  0.000000  0.500000  1
  Sn  Sn11  1  0.000000  0.000000  0.500000  1
  Sn  Sn12  1  0.500000  0.500000  0.000000  1
  Te  Te13  1  0.500000  0.500000  0.500000  1
  Pd  Pd14  1  0.119586  0.119586  0.119586  1
  Pd  Pd15  1  0.880414  0.880414  0.880414  1
  Pd  Pd16  1  0.119586  0.119586  0.641241  1
  Pd  Pd17  1  0.119586  0.641241  0.119586  1
  Pd  Pd18  1  0.880414  0.880414  0.358759  1
  Pd  Pd19  1  0.880414  0.358759  0.880414  1
  Pd  Pd20  1  0.641241  0.119586  0.119586  1
  Pd  Pd21  1  0.358759  0.880414  0.880414  1
  Pd  Pd22  1  0.333299  0.333299  0.333299  1
  Pd  Pd23  1  0.666701  0.666701  0.666701  1
  Pd  Pd24  1  0.333299  0.333299  0.000101  1
  Pd  Pd25  1  0.333299  0.000101  0.333299  1
  Pd  Pd26  1  0.666701  0.666701  0.999899  1
  Pd  Pd27  1  0.666701  0.999899  0.666701  1
  Pd  Pd28  1  0.000101  0.333299  0.333299  1
  Pd  Pd29  1  0.999899  0.666701  0.666701  1
