# generated using pymatgen
data_Ta5Ga2SiB
_symmetry_space_group_name_H-M   'P 1'
_cell_length_a   7.72692300
_cell_length_b   7.74189073
_cell_length_c   5.32446800
_cell_angle_alpha   90.00000000
_cell_angle_beta   90.00000000
_cell_angle_gamma   119.93607039
_symmetry_Int_Tables_number   1
_chemical_formula_structural   Ta5Ga2SiB
_chemical_formula_sum   'Ta10 Ga4 Si2 B2'
_cell_volume   276.01957672
_cell_formula_units_Z   2
loop_
 _symmetry_equiv_pos_site_id
 _symmetry_equiv_pos_as_xyz
  1  'x, y, z'
loop_
 _atom_site_type_symbol
 _atom_site_label
 _atom_site_symmetry_multiplicity
 _atom_site_fract_x
 _atom_site_fract_y
 _atom_site_fract_z
 _atom_site_occupancy
  Ta  Ta0  1  0.249327  0.000000  0.250000  1
  Ta  Ta1  1  0.750673  0.000000  0.750000  1
  Ta  Ta2  1  0.994127  0.240120  0.250000  1
  Ta  Ta3  1  0.005873  0.759880  0.750000  1
  Ta  Ta4  1  0.754007  0.759880  0.250000  1
  Ta  Ta5  1  0.245993  0.240120  0.750000  1
  Ta  Ta6  1  0.337032  0.674064  0.000000  1
  Ta  Ta7  1  0.662968  0.325936  0.000000  1
  Ta  Ta8  1  0.662968  0.325936  0.500000  1
  Ta  Ta9  1  0.337032  0.674064  0.500000  1
  Ga  Ga10  1  0.997385  0.597206  0.250000  1
  Ga  Ga11  1  0.002615  0.402794  0.750000  1
  Ga  Ga12  1  0.400179  0.402794  0.250000  1
  Ga  Ga13  1  0.599821  0.597206  0.750000  1
  Si  Si14  1  0.598134  0.000000  0.250000  1
  Si  Si15  1  0.401866  0.000000  0.750000  1
  B  B16  1  0.000000  0.000000  0.000000  1
  B  B17  1  0.000000  0.000000  0.500000  1
