# generated using pymatgen
data_Tm3B6Ir7Os
_symmetry_space_group_name_H-M   'P 1'
_cell_length_a   9.96490217
_cell_length_b   9.15989487
_cell_length_c   5.53716825
_cell_angle_alpha   81.34528625
_cell_angle_beta   65.33299756
_cell_angle_gamma   33.32172651
_symmetry_Int_Tables_number   1
_chemical_formula_structural   Tm3B6Ir7Os
_chemical_formula_sum   'Tm3 B6 Ir7 Os1'
_cell_volume   231.56132007
_cell_formula_units_Z   1
loop_
 _symmetry_equiv_pos_site_id
 _symmetry_equiv_pos_as_xyz
  1  'x, y, z'
loop_
 _atom_site_type_symbol
 _atom_site_label
 _atom_site_symmetry_multiplicity
 _atom_site_fract_x
 _atom_site_fract_y
 _atom_site_fract_z
 _atom_site_occupancy
  Tm  Tm0  1  0.000000  0.000000  0.000000  1
  Tm  Tm1  1  0.178708  0.178708  0.821292  1
  Tm  Tm2  1  0.821292  0.821292  0.178708  1
  B  B3  1  0.819801  0.531723  0.480498  1
  B  B4  1  0.167978  0.480498  0.531723  1
  B  B5  1  0.480498  0.167978  0.819801  1
  B  B6  1  0.670446  0.329554  0.670446  1
  B  B7  1  0.531723  0.819801  0.167978  1
  B  B8  1  0.329554  0.670446  0.329554  1
  Ir  Ir9  1  0.414569  0.414569  0.585431  1
  Ir  Ir10  1  0.585666  0.585666  0.914334  1
  Ir  Ir11  1  0.086028  0.086028  0.413972  1
  Ir  Ir12  1  0.914334  0.914334  0.585666  1
  Ir  Ir13  1  0.585431  0.585431  0.414569  1
  Ir  Ir14  1  0.250000  0.250000  0.250000  1
  Ir  Ir15  1  0.413972  0.413972  0.086028  1
  Os  Os16  1  0.750000  0.750000  0.750000  1
