# generated using pymatgen
data_Hf3Mo2As2PRu
_symmetry_space_group_name_H-M   'P 1'
_cell_length_a   6.91798200
_cell_length_b   6.99800522
_cell_length_c   3.50970100
_cell_angle_alpha   90.00000000
_cell_angle_beta   90.00000000
_cell_angle_gamma   119.62245327
_symmetry_Int_Tables_number   1
_chemical_formula_structural   Hf3Mo2As2PRu
_chemical_formula_sum   'Hf3 Mo2 As2 P1 Ru1'
_cell_volume   147.70463909
_cell_formula_units_Z   1
loop_
 _symmetry_equiv_pos_site_id
 _symmetry_equiv_pos_as_xyz
  1  'x, y, z'
loop_
 _atom_site_type_symbol
 _atom_site_label
 _atom_site_symmetry_multiplicity
 _atom_site_fract_x
 _atom_site_fract_y
 _atom_site_fract_z
 _atom_site_occupancy
  Hf  Hf0  1  0.993752  0.597770  0.500000  1
  Hf  Hf1  1  0.395982  0.402230  0.500000  1
  Hf  Hf2  1  0.605312  0.000000  0.500000  1
  Mo  Mo3  1  0.756221  0.754818  0.000000  1
  Mo  Mo4  1  0.001403  0.245182  0.000000  1
  As  As5  1  0.661619  0.330497  0.000000  1
  As  As6  1  0.331121  0.669503  0.000000  1
  P  P7  1  0.010279  0.000000  0.500000  1
  Ru  Ru8  1  0.244311  0.000000  0.000000  1
