# generated using pymatgen
data_U4Fe5Si2Pt
_symmetry_space_group_name_H-M   'P 1'
_cell_length_a   5.28306790
_cell_length_b   5.16705917
_cell_length_c   7.59000400
_cell_angle_alpha   90.00000000
_cell_angle_beta   90.00000000
_cell_angle_gamma   59.24725092
_symmetry_Int_Tables_number   1
_chemical_formula_structural   U4Fe5Si2Pt
_chemical_formula_sum   'U4 Fe5 Si2 Pt1'
_cell_volume   178.05649620
_cell_formula_units_Z   1
loop_
 _symmetry_equiv_pos_site_id
 _symmetry_equiv_pos_as_xyz
  1  'x, y, z'
loop_
 _atom_site_type_symbol
 _atom_site_label
 _atom_site_symmetry_multiplicity
 _atom_site_fract_x
 _atom_site_fract_y
 _atom_site_fract_z
 _atom_site_occupancy
  U  U0  1  0.341645  0.316565  0.559853  1
  U  U1  1  0.653870  0.692506  0.426819  1
  U  U2  1  0.653870  0.692506  0.073181  1
  U  U3  1  0.341645  0.316565  0.940147  1
  Fe  Fe4  1  0.329902  0.834238  0.750000  1
  Fe  Fe5  1  0.835410  0.834487  0.750000  1
  Fe  Fe6  1  0.170312  0.659595  0.250000  1
  Fe  Fe7  1  0.666399  0.172544  0.250000  1
  Fe  Fe8  1  0.161164  0.172468  0.250000  1
  Si  Si9  1  0.008008  0.984093  0.492834  1
  Si  Si10  1  0.008008  0.984093  0.007166  1
  Pt  Pt11  1  0.829768  0.340341  0.750000  1
