# generated using pymatgen
data_LiEu4Ni
_symmetry_space_group_name_H-M   'P 1'
_cell_length_a   10.23312593
_cell_length_b   10.23312567
_cell_length_c   10.23312500
_cell_angle_alpha   59.99999894
_cell_angle_beta   59.99999979
_cell_angle_gamma   59.99999901
_symmetry_Int_Tables_number   1
_chemical_formula_structural   LiEu4Ni
_chemical_formula_sum   'Li4 Eu16 Ni4'
_cell_volume   757.72200624
_cell_formula_units_Z   4
loop_
 _symmetry_equiv_pos_site_id
 _symmetry_equiv_pos_as_xyz
  1  'x, y, z'
loop_
 _atom_site_type_symbol
 _atom_site_label
 _atom_site_symmetry_multiplicity
 _atom_site_fract_x
 _atom_site_fract_y
 _atom_site_fract_z
 _atom_site_occupancy
  Li  Li0  1  0.825430  0.825430  0.825430  1
  Li  Li1  1  0.825430  0.825430  0.523712  1
  Li  Li2  1  0.825430  0.523712  0.825430  1
  Li  Li3  1  0.523712  0.825430  0.825430  1
  Eu  Eu4  1  0.593363  0.593363  0.593363  1
  Eu  Eu5  1  0.593363  0.593363  0.219911  1
  Eu  Eu6  1  0.593363  0.219911  0.593363  1
  Eu  Eu7  1  0.219911  0.593363  0.593363  1
  Eu  Eu8  1  0.061251  0.438749  0.438749  1
  Eu  Eu9  1  0.438749  0.061251  0.061251  1
  Eu  Eu10  1  0.438749  0.061251  0.438749  1
  Eu  Eu11  1  0.061251  0.438749  0.061251  1
  Eu  Eu12  1  0.438749  0.438749  0.061251  1
  Eu  Eu13  1  0.061251  0.061251  0.438749  1
  Eu  Eu14  1  0.192829  0.807171  0.807171  1
  Eu  Eu15  1  0.807171  0.192829  0.192829  1
  Eu  Eu16  1  0.807171  0.192829  0.807171  1
  Eu  Eu17  1  0.192829  0.807171  0.192829  1
  Eu  Eu18  1  0.807171  0.807171  0.192829  1
  Eu  Eu19  1  0.192829  0.192829  0.807171  1
  Ni  Ni20  1  0.390301  0.390301  0.390301  1
  Ni  Ni21  1  0.390301  0.390301  0.829100  1
  Ni  Ni22  1  0.390301  0.829100  0.390301  1
  Ni  Ni23  1  0.829100  0.390301  0.390301  1
