# generated using pymatgen
data_Tb17Dy3(GaBi2)4
_symmetry_space_group_name_H-M   'P 1'
_cell_length_a   8.12176701
_cell_length_b   9.33408200
_cell_length_c   12.16194602
_cell_angle_alpha   90.00000000
_cell_angle_beta   89.99366665
_cell_angle_gamma   90.00000000
_symmetry_Int_Tables_number   1
_chemical_formula_structural   Tb17Dy3(GaBi2)4
_chemical_formula_sum   'Tb17 Dy3 Ga4 Bi8'
_cell_volume   921.98787018
_cell_formula_units_Z   1
loop_
 _symmetry_equiv_pos_site_id
 _symmetry_equiv_pos_as_xyz
  1  'x, y, z'
loop_
 _atom_site_type_symbol
 _atom_site_label
 _atom_site_symmetry_multiplicity
 _atom_site_fract_x
 _atom_site_fract_y
 _atom_site_fract_z
 _atom_site_occupancy
  Tb  Tb0  1  0.832465  0.750000  0.784712  1
  Tb  Tb1  1  0.167368  0.250000  0.215306  1
  Tb  Tb2  1  0.332575  0.250000  0.715351  1
  Tb  Tb3  1  0.667502  0.750000  0.284571  1
  Tb  Tb4  1  0.359588  0.750000  0.707121  1
  Tb  Tb5  1  0.640464  0.250000  0.292930  1
  Tb  Tb6  1  0.859577  0.250000  0.792955  1
  Tb  Tb7  1  0.140441  0.750000  0.206922  1
  Tb  Tb8  1  0.959774  0.750000  0.497873  1
  Tb  Tb9  1  0.681114  0.052761  0.563451  1
  Tb  Tb10  1  0.318871  0.947391  0.436591  1
  Tb  Tb11  1  0.181247  0.947250  0.936580  1
  Tb  Tb12  1  0.318871  0.552609  0.436591  1
  Tb  Tb13  1  0.818792  0.052641  0.063425  1
  Tb  Tb14  1  0.681114  0.447239  0.563451  1
  Tb  Tb15  1  0.818792  0.447359  0.063425  1
  Tb  Tb16  1  0.181247  0.552750  0.936580  1
  Dy  Dy17  1  0.040434  0.250000  0.502175  1
  Dy  Dy18  1  0.459589  0.250000  0.002166  1
  Dy  Dy19  1  0.540328  0.750000  0.997879  1
  Ga  Ga20  1  0.591044  0.750000  0.525459  1
  Ga  Ga21  1  0.408480  0.250000  0.474521  1
  Ga  Ga22  1  0.091501  0.250000  0.974538  1
  Ga  Ga23  1  0.908582  0.750000  0.025395  1
  Bi  Bi24  1  0.567018  0.490370  0.826294  1
  Bi  Bi25  1  0.433033  0.509683  0.173737  1
  Bi  Bi26  1  0.067108  0.509454  0.673882  1
  Bi  Bi27  1  0.433033  0.990317  0.173737  1
  Bi  Bi28  1  0.932960  0.490139  0.326102  1
  Bi  Bi29  1  0.567018  0.009630  0.826294  1
  Bi  Bi30  1  0.932960  0.009861  0.326102  1
  Bi  Bi31  1  0.067108  0.990546  0.673882  1
