# generated using pymatgen
data_KRb2Cr3F12
_symmetry_space_group_name_H-M   'P 1'
_cell_length_a   7.48255300
_cell_length_b   7.69696568
_cell_length_c   10.53325603
_cell_angle_alpha   88.39245460
_cell_angle_beta   90.00000000
_cell_angle_gamma   90.00000000
_symmetry_Int_Tables_number   1
_chemical_formula_structural   KRb2Cr3F12
_chemical_formula_sum   'K2 Rb4 Cr6 F24'
_cell_volume   606.40256998
_cell_formula_units_Z   2
loop_
 _symmetry_equiv_pos_site_id
 _symmetry_equiv_pos_as_xyz
  1  'x, y, z'
loop_
 _atom_site_type_symbol
 _atom_site_label
 _atom_site_symmetry_multiplicity
 _atom_site_fract_x
 _atom_site_fract_y
 _atom_site_fract_z
 _atom_site_occupancy
  K  K0  1  0.750000  0.224681  0.752857  1
  K  K1  1  0.250000  0.775319  0.247143  1
  Rb  Rb2  1  0.750000  0.991057  0.110759  1
  Rb  Rb3  1  0.250000  0.008943  0.889241  1
  Rb  Rb4  1  0.250000  0.469671  0.639383  1
  Rb  Rb5  1  0.750000  0.530329  0.360617  1
  Cr  Cr6  1  0.500000  0.000000  0.500000  1
  Cr  Cr7  1  0.000000  0.000000  0.500000  1
  Cr  Cr8  1  0.000000  0.500000  0.000000  1
  Cr  Cr9  1  0.500000  0.500000  0.000000  1
  Cr  Cr10  1  0.750000  0.709838  0.727575  1
  Cr  Cr11  1  0.250000  0.290162  0.272425  1
  F  F12  1  0.750000  0.085428  0.501332  1
  F  F13  1  0.250000  0.914572  0.498668  1
  F  F14  1  0.750000  0.512910  0.620051  1
  F  F15  1  0.250000  0.487090  0.379949  1
  F  F16  1  0.250000  0.498235  0.940954  1
  F  F17  1  0.750000  0.501765  0.059046  1
  F  F18  1  0.250000  0.097107  0.164944  1
  F  F19  1  0.750000  0.902893  0.835056  1
  F  F20  1  0.948925  0.854450  0.360444  1
  F  F21  1  0.448925  0.145550  0.639556  1
  F  F22  1  0.051075  0.145550  0.639556  1
  F  F23  1  0.551075  0.854450  0.360444  1
  F  F24  1  0.943402  0.807463  0.620492  1
  F  F25  1  0.443402  0.192537  0.379508  1
  F  F26  1  0.056598  0.192537  0.379508  1
  F  F27  1  0.556598  0.807463  0.620492  1
  F  F28  1  0.025912  0.731894  0.057785  1
  F  F29  1  0.525912  0.268106  0.942215  1
  F  F30  1  0.974088  0.268106  0.942215  1
  F  F31  1  0.474088  0.731894  0.057785  1
  F  F32  1  0.440676  0.407112  0.171461  1
  F  F33  1  0.940676  0.592888  0.828539  1
  F  F34  1  0.559324  0.592888  0.828539  1
  F  F35  1  0.059324  0.407112  0.171461  1
