# generated using pymatgen
data_Tb10Y6MgHg3Rh4
_symmetry_space_group_name_H-M   'P 1'
_cell_length_a   9.63434787
_cell_length_b   9.65822815
_cell_length_c   9.65822800
_cell_angle_alpha   60.00000053
_cell_angle_beta   59.91797315
_cell_angle_gamma   59.91796963
_symmetry_Int_Tables_number   1
_chemical_formula_structural   Tb10Y6MgHg3Rh4
_chemical_formula_sum   'Tb10 Y6 Mg1 Hg3 Rh4'
_cell_volume   634.69147021
_cell_formula_units_Z   1
loop_
 _symmetry_equiv_pos_site_id
 _symmetry_equiv_pos_as_xyz
  1  'x, y, z'
loop_
 _atom_site_type_symbol
 _atom_site_label
 _atom_site_symmetry_multiplicity
 _atom_site_fract_x
 _atom_site_fract_y
 _atom_site_fract_z
 _atom_site_occupancy
  Tb  Tb0  1  0.601327  0.598481  0.598481  1
  Tb  Tb1  1  0.601327  0.598481  0.201713  1
  Tb  Tb2  1  0.601327  0.201713  0.598481  1
  Tb  Tb3  1  0.191162  0.602947  0.602947  1
  Tb  Tb4  1  0.059777  0.439858  0.439858  1
  Tb  Tb5  1  0.435639  0.063129  0.063129  1
  Tb  Tb6  1  0.435639  0.063129  0.438102  1
  Tb  Tb7  1  0.059777  0.439858  0.060509  1
  Tb  Tb8  1  0.435639  0.438102  0.063129  1
  Tb  Tb9  1  0.059777  0.060509  0.439858  1
  Y  Y10  1  0.185096  0.814163  0.814163  1
  Y  Y11  1  0.813738  0.186034  0.186034  1
  Y  Y12  1  0.813738  0.186034  0.814193  1
  Y  Y13  1  0.185096  0.814163  0.186578  1
  Y  Y14  1  0.813738  0.814193  0.186034  1
  Y  Y15  1  0.185096  0.186578  0.814163  1
  Mg  Mg16  1  0.535109  0.821630  0.821630  1
  Hg  Hg17  1  0.831236  0.836484  0.836484  1
  Hg  Hg18  1  0.831236  0.836484  0.495796  1
  Hg  Hg19  1  0.831236  0.495796  0.836484  1
  Rh  Rh20  1  0.390294  0.394006  0.394006  1
  Rh  Rh21  1  0.390294  0.394006  0.821694  1
  Rh  Rh22  1  0.390294  0.821694  0.394006  1
  Rh  Rh23  1  0.822409  0.392531  0.392531  1
