# generated using pymatgen
data_Zr8Al14Rh7Se
_symmetry_space_group_name_H-M   'P 1'
_cell_length_a   8.89639084
_cell_length_b   8.89650578
_cell_length_c   8.89635400
_cell_angle_alpha   120.07710338
_cell_angle_beta   119.84611016
_cell_angle_gamma   90.06599198
_symmetry_Int_Tables_number   1
_chemical_formula_structural   Zr8Al14Rh7Se
_chemical_formula_sum   'Zr8 Al14 Rh7 Se1'
_cell_volume   498.17533808
_cell_formula_units_Z   1
loop_
 _symmetry_equiv_pos_site_id
 _symmetry_equiv_pos_as_xyz
  1  'x, y, z'
loop_
 _atom_site_type_symbol
 _atom_site_label
 _atom_site_symmetry_multiplicity
 _atom_site_fract_x
 _atom_site_fract_y
 _atom_site_fract_z
 _atom_site_occupancy
  Zr  Zr0  1  0.801890  0.296274  0.085784  1
  Zr  Zr1  1  0.210496  0.296359  0.494423  1
  Zr  Zr2  1  0.199418  0.699394  0.499978  1
  Zr  Zr3  1  0.210501  0.716093  0.914210  1
  Zr  Zr4  1  0.801928  0.716090  0.505597  1
  Zr  Zr5  1  0.785761  0.285766  0.499996  1
  Zr  Zr6  1  0.380119  0.120570  0.740416  1
  Zr  Zr7  1  0.380142  0.639693  0.259574  1
  Al  Al8  1  0.164506  0.328395  0.163882  1
  Al  Al9  1  0.164516  0.000571  0.836076  1
  Al  Al10  1  0.157164  0.333638  0.823496  1
  Al  Al11  1  0.510117  0.333661  0.176487  1
  Al  Al12  1  0.833154  0.665211  0.832064  1
  Al  Al13  1  0.833160  0.001088  0.167920  1
  Al  Al14  1  0.832920  0.666755  0.166142  1
  Al  Al15  1  0.500631  0.666806  0.833884  1
  Al  Al16  1  0.380831  0.119921  0.260910  1
  Al  Al17  1  0.859023  0.119912  0.739075  1
  Al  Al18  1  0.621302  0.878388  0.257092  1
  Al  Al19  1  0.621297  0.364211  0.742911  1
  Al  Al20  1  0.622707  0.879536  0.743132  1
  Al  Al21  1  0.136410  0.879590  0.256866  1
  Rh  Rh22  1  0.996454  0.998963  0.499114  1
  Rh  Rh23  1  0.499836  0.999005  0.002480  1
  Rh  Rh24  1  0.500730  0.500721  0.999989  1
  Rh  Rh25  1  0.499823  0.497378  0.500896  1
  Rh  Rh26  1  0.996562  0.497418  0.997593  1
  Rh  Rh27  1  0.999661  0.999656  0.999987  1
  Rh  Rh28  1  0.506016  0.005998  0.500003  1
  Se  Se29  1  0.992916  0.492936  0.500021  1
