# generated using pymatgen
data_Er2ReB2Ru5
_symmetry_space_group_name_H-M   'P 1'
_cell_length_a   9.58390100
_cell_length_b   9.58390100
_cell_length_c   3.08882100
_cell_angle_alpha   90.00000000
_cell_angle_beta   90.00000000
_cell_angle_gamma   90.00000000
_symmetry_Int_Tables_number   1
_chemical_formula_structural   Er2ReB2Ru5
_chemical_formula_sum   'Er4 Re2 B4 Ru10'
_cell_volume   283.71178687
_cell_formula_units_Z   2
loop_
 _symmetry_equiv_pos_site_id
 _symmetry_equiv_pos_as_xyz
  1  'x, y, z'
loop_
 _atom_site_type_symbol
 _atom_site_label
 _atom_site_symmetry_multiplicity
 _atom_site_fract_x
 _atom_site_fract_y
 _atom_site_fract_z
 _atom_site_occupancy
  Er  Er0  1  0.675358  0.175358  0.000000  1
  Er  Er1  1  0.324642  0.824642  0.000000  1
  Er  Er2  1  0.175358  0.324642  0.000000  1
  Er  Er3  1  0.824642  0.675358  0.000000  1
  Re  Re4  1  0.000000  0.000000  0.000000  1
  Re  Re5  1  0.500000  0.500000  0.000000  1
  B  B6  1  0.120081  0.620081  0.000000  1
  B  B7  1  0.879919  0.379919  0.000000  1
  B  B8  1  0.620081  0.879919  0.000000  1
  B  B9  1  0.379919  0.120081  0.000000  1
  Ru  Ru10  1  0.216223  0.069644  0.500000  1
  Ru  Ru11  1  0.783777  0.930356  0.500000  1
  Ru  Ru12  1  0.069644  0.783777  0.500000  1
  Ru  Ru13  1  0.716223  0.430356  0.500000  1
  Ru  Ru14  1  0.930356  0.216223  0.500000  1
  Ru  Ru15  1  0.283777  0.569644  0.500000  1
  Ru  Ru16  1  0.569644  0.716223  0.500000  1
  Ru  Ru17  1  0.430356  0.283777  0.500000  1
  Ru  Ru18  1  0.500000  0.000000  0.500000  1
  Ru  Ru19  1  0.000000  0.500000  0.500000  1
