# generated using pymatgen
data_Ce4Si7Ag
_symmetry_space_group_name_H-M   'P 1'
_cell_length_a   8.24985700
_cell_length_b   8.24985661
_cell_length_c   4.14534000
_cell_angle_alpha   90.00000000
_cell_angle_beta   90.00000000
_cell_angle_gamma   120.00000558
_symmetry_Int_Tables_number   1
_chemical_formula_structural   Ce4Si7Ag
_chemical_formula_sum   'Ce4 Si7 Ag1'
_cell_volume   244.33382017
_cell_formula_units_Z   1
loop_
 _symmetry_equiv_pos_site_id
 _symmetry_equiv_pos_as_xyz
  1  'x, y, z'
loop_
 _atom_site_type_symbol
 _atom_site_label
 _atom_site_symmetry_multiplicity
 _atom_site_fract_x
 _atom_site_fract_y
 _atom_site_fract_z
 _atom_site_occupancy
  Ce  Ce0  1  0.507951  0.492049  0.000000  1
  Ce  Ce1  1  0.984099  0.492049  0.000000  1
  Ce  Ce2  1  0.507951  0.015901  0.000000  1
  Ce  Ce3  1  0.000000  0.000000  0.000000  1
  Si  Si4  1  0.666667  0.333333  0.500000  1
  Si  Si5  1  0.832075  0.664151  0.500000  1
  Si  Si6  1  0.161463  0.838537  0.500000  1
  Si  Si7  1  0.677072  0.838537  0.500000  1
  Si  Si8  1  0.161463  0.322928  0.500000  1
  Si  Si9  1  0.832075  0.167925  0.500000  1
  Si  Si10  1  0.335849  0.167925  0.500000  1
  Ag  Ag11  1  0.333333  0.666667  0.500000  1
