# generated using pymatgen
data_Ho2Ga3Co14
_symmetry_space_group_name_H-M   'P 1'
_cell_length_a   6.33475781
_cell_length_b   6.33475777
_cell_length_c   6.33475758
_cell_angle_alpha   82.56975547
_cell_angle_beta   82.56975978
_cell_angle_gamma   82.56977256
_symmetry_Int_Tables_number   1
_chemical_formula_structural   Ho2Ga3Co14
_chemical_formula_sum   'Ho2 Ga3 Co14'
_cell_volume   248.31303967
_cell_formula_units_Z   1
loop_
 _symmetry_equiv_pos_site_id
 _symmetry_equiv_pos_as_xyz
  1  'x, y, z'
loop_
 _atom_site_type_symbol
 _atom_site_label
 _atom_site_symmetry_multiplicity
 _atom_site_fract_x
 _atom_site_fract_y
 _atom_site_fract_z
 _atom_site_occupancy
  Ho  Ho0  1  0.659238  0.659238  0.659238  1
  Ho  Ho1  1  0.332465  0.332465  0.332465  1
  Ga  Ga2  1  0.155588  0.652014  0.652014  1
  Ga  Ga3  1  0.652014  0.652014  0.155588  1
  Ga  Ga4  1  0.652014  0.155588  0.652014  1
  Co  Co5  1  0.907645  0.907645  0.907645  1
  Co  Co6  1  0.095379  0.095379  0.095379  1
  Co  Co7  1  0.005077  0.005077  0.495643  1
  Co  Co8  1  0.005077  0.495643  0.005077  1
  Co  Co9  1  0.495643  0.005077  0.005077  1
  Co  Co10  1  0.287484  0.713804  0.001616  1
  Co  Co11  1  0.713804  0.001616  0.287484  1
  Co  Co12  1  0.001616  0.287484  0.713804  1
  Co  Co13  1  0.287484  0.001616  0.713804  1
  Co  Co14  1  0.001616  0.713804  0.287484  1
  Co  Co15  1  0.713804  0.287484  0.001616  1
  Co  Co16  1  0.854826  0.339613  0.339613  1
  Co  Co17  1  0.339613  0.339613  0.854826  1
  Co  Co18  1  0.339613  0.854826  0.339613  1
