# generated using pymatgen
data_Sr3Np(ScSe2)8
_symmetry_space_group_name_H-M   'P 1'
_cell_length_a   3.94560400
_cell_length_b   12.22403951
_cell_length_c   14.30945084
_cell_angle_alpha   89.92118312
_cell_angle_beta   90.00000000
_cell_angle_gamma   90.00000000
_symmetry_Int_Tables_number   1
_chemical_formula_structural   Sr3Np(ScSe2)8
_chemical_formula_sum   'Sr3 Np1 Sc8 Se16'
_cell_volume   690.16160713
_cell_formula_units_Z   1
loop_
 _symmetry_equiv_pos_site_id
 _symmetry_equiv_pos_as_xyz
  1  'x, y, z'
loop_
 _atom_site_type_symbol
 _atom_site_label
 _atom_site_symmetry_multiplicity
 _atom_site_fract_x
 _atom_site_fract_y
 _atom_site_fract_z
 _atom_site_occupancy
  Sr  Sr0  1  0.250000  0.237879  0.330820  1
  Sr  Sr1  1  0.750000  0.259393  0.831075  1
  Sr  Sr2  1  0.250000  0.739008  0.170303  1
  Np  Np3  1  0.750000  0.762524  0.668990  1
  Sc  Sc4  1  0.250000  0.080108  0.596658  1
  Sc  Sc5  1  0.250000  0.057561  0.109430  1
  Sc  Sc6  1  0.750000  0.419867  0.096172  1
  Sc  Sc7  1  0.750000  0.938644  0.888259  1
  Sc  Sc8  1  0.750000  0.445096  0.612230  1
  Sc  Sc9  1  0.250000  0.558992  0.391465  1
  Sc  Sc10  1  0.750000  0.916347  0.405283  1
  Sc  Sc11  1  0.250000  0.582915  0.903034  1
  Se  Se12  1  0.250000  0.868951  0.534884  1
  Se  Se13  1  0.250000  0.794466  0.828566  1
  Se  Se14  1  0.250000  0.970284  0.286317  1
  Se  Se15  1  0.750000  0.411813  0.427969  1
  Se  Se16  1  0.250000  0.471831  0.215748  1
  Se  Se17  1  0.250000  0.087179  0.923381  1
  Se  Se18  1  0.750000  0.203903  0.159208  1
  Se  Se19  1  0.750000  0.020669  0.713430  1
  Se  Se20  1  0.250000  0.597778  0.579047  1
  Se  Se21  1  0.750000  0.703142  0.341402  1
  Se  Se22  1  0.250000  0.297120  0.660530  1
  Se  Se23  1  0.250000  0.376390  0.969088  1
  Se  Se24  1  0.750000  0.627293  0.027733  1
  Se  Se25  1  0.750000  0.538062  0.782134  1
  Se  Se26  1  0.750000  0.123149  0.472310  1
  Se  Se27  1  0.750000  0.909633  0.074540  1
