# generated using pymatgen
data_K2NpI6
_symmetry_space_group_name_H-M   'P 1'
_cell_length_a   8.58153200
_cell_length_b   8.25979424
_cell_length_c   14.35890943
_cell_angle_alpha   55.05887383
_cell_angle_beta   90.00000000
_cell_angle_gamma   90.00000000
_symmetry_Int_Tables_number   1
_chemical_formula_structural   K2NpI6
_chemical_formula_sum   'K4 Np2 I12'
_cell_volume   834.31905232
_cell_formula_units_Z   2
loop_
 _symmetry_equiv_pos_site_id
 _symmetry_equiv_pos_as_xyz
  1  'x, y, z'
loop_
 _atom_site_type_symbol
 _atom_site_label
 _atom_site_symmetry_multiplicity
 _atom_site_fract_x
 _atom_site_fract_y
 _atom_site_fract_z
 _atom_site_occupancy
  K  K0  1  0.576744  0.725882  0.252510  1
  K  K1  1  0.076744  0.274118  0.247490  1
  K  K2  1  0.423256  0.274118  0.747490  1
  K  K3  1  0.923256  0.725882  0.752510  1
  Np  Np4  1  0.000000  0.000000  0.000000  1
  Np  Np5  1  0.500000  0.000000  0.500000  1
  I  I6  1  0.993264  0.833836  0.248495  1
  I  I7  1  0.493264  0.166164  0.251505  1
  I  I8  1  0.006736  0.166164  0.751505  1
  I  I9  1  0.506736  0.833836  0.748495  1
  I  I10  1  0.695744  0.658168  0.546149  1
  I  I11  1  0.195744  0.341832  0.953851  1
  I  I12  1  0.304256  0.341832  0.453851  1
  I  I13  1  0.804256  0.658168  0.046149  1
  I  I14  1  0.706113  0.229214  0.963802  1
  I  I15  1  0.206113  0.770786  0.536198  1
  I  I16  1  0.293887  0.770786  0.036198  1
  I  I17  1  0.793887  0.229214  0.463802  1
