# generated using pymatgen
data_HoTm4In2Bi
_symmetry_space_group_name_H-M   'P 1'
_cell_length_a   6.56947500
_cell_length_b   8.93010106
_cell_length_c   8.89641456
_cell_angle_alpha   119.68091875
_cell_angle_beta   89.99940282
_cell_angle_gamma   90.00237539
_symmetry_Int_Tables_number   1
_chemical_formula_structural   HoTm4In2Bi
_chemical_formula_sum   'Ho2 Tm8 In4 Bi2'
_cell_volume   453.44028045
_cell_formula_units_Z   2
loop_
 _symmetry_equiv_pos_site_id
 _symmetry_equiv_pos_as_xyz
  1  'x, y, z'
loop_
 _atom_site_type_symbol
 _atom_site_label
 _atom_site_symmetry_multiplicity
 _atom_site_fract_x
 _atom_site_fract_y
 _atom_site_fract_z
 _atom_site_occupancy
  Ho  Ho0  1  0.749993  0.228462  0.991234  1
  Ho  Ho1  1  0.750017  0.771105  0.761516  1
  Tm  Tm2  1  0.492269  0.328611  0.667165  1
  Tm  Tm3  1  0.492468  0.671496  0.338783  1
  Tm  Tm4  1  0.007523  0.671487  0.338766  1
  Tm  Tm5  1  0.007736  0.328622  0.667186  1
  Tm  Tm6  1  0.749997  0.999863  0.238297  1
  Tm  Tm7  1  0.250006  0.765769  0.001027  1
  Tm  Tm8  1  0.250011  0.233909  0.234770  1
  Tm  Tm9  1  0.249985  0.000235  0.763347  1
  In  In10  1  0.749997  0.000214  0.594475  1
  In  In11  1  0.250020  0.398322  0.003992  1
  In  In12  1  0.249997  0.601032  0.604409  1
  In  In13  1  0.249995  0.000268  0.397892  1
  Bi  Bi14  1  0.749988  0.604246  0.000411  1
  Bi  Bi15  1  0.749998  0.396359  0.396732  1
