# generated using pymatgen
data_Tb3PrCo6Cu2(NiB)6
_symmetry_space_group_name_H-M   'P 1'
_cell_length_a   5.08113400
_cell_length_b   5.06341406
_cell_length_c   12.79143900
_cell_angle_alpha   89.99998868
_cell_angle_beta   89.99957151
_cell_angle_gamma   119.94349138
_symmetry_Int_Tables_number   1
_chemical_formula_structural   Tb3PrCo6Cu2(NiB)6
_chemical_formula_sum   'Tb3 Pr1 Co6 Cu2 Ni6 B6'
_cell_volume   285.16823080
_cell_formula_units_Z   1
loop_
 _symmetry_equiv_pos_site_id
 _symmetry_equiv_pos_as_xyz
  1  'x, y, z'
loop_
 _atom_site_type_symbol
 _atom_site_label
 _atom_site_symmetry_multiplicity
 _atom_site_fract_x
 _atom_site_fract_y
 _atom_site_fract_z
 _atom_site_occupancy
  Tb  Tb0  1  0.999992  0.000000  0.500006  1
  Tb  Tb1  1  0.999987  0.999999  0.264920  1
  Tb  Tb2  1  0.999996  0.999999  0.735057  1
  Pr  Pr3  1  0.999999  0.000004  0.000099  1
  Co  Co4  1  0.499989  0.000001  0.385329  1
  Co  Co5  1  0.499990  0.500000  0.385360  1
  Co  Co6  1  0.999988  0.499999  0.385345  1
  Co  Co7  1  0.499992  0.999997  0.614636  1
  Co  Co8  1  0.499992  0.499999  0.614637  1
  Co  Co9  1  0.999995  0.499999  0.614581  1
  Cu  Cu10  1  0.333528  0.666605  0.000013  1
  Cu  Cu11  1  0.666462  0.333415  0.000022  1
  Ni  Ni12  1  0.499993  0.000012  0.161454  1
  Ni  Ni13  1  0.499986  0.499987  0.161486  1
  Ni  Ni14  1  0.999985  0.500000  0.161477  1
  Ni  Ni15  1  0.499992  0.999990  0.838537  1
  Ni  Ni16  1  0.499998  0.499999  0.838473  1
  Ni  Ni17  1  0.999994  0.500001  0.838540  1
  B  B18  1  0.333488  0.666776  0.499996  1
  B  B19  1  0.666491  0.333221  0.499996  1
  B  B20  1  0.333370  0.666626  0.272725  1
  B  B21  1  0.666605  0.333373  0.272723  1
  B  B22  1  0.666872  0.333428  0.727292  1
  B  B23  1  0.333115  0.666570  0.727293  1
