# generated using pymatgen
data_Ac8Mg(SnAu4)5
_symmetry_space_group_name_H-M   'P 1'
_cell_length_a   9.14865206
_cell_length_b   9.14865138
_cell_length_c   10.66447400
_cell_angle_alpha   90.09304582
_cell_angle_beta   90.09304581
_cell_angle_gamma   108.57901134
_symmetry_Int_Tables_number   1
_chemical_formula_structural   Ac8Mg(SnAu4)5
_chemical_formula_sum   'Ac8 Mg1 Sn5 Au20'
_cell_volume   846.07270620
_cell_formula_units_Z   1
loop_
 _symmetry_equiv_pos_site_id
 _symmetry_equiv_pos_as_xyz
  1  'x, y, z'
loop_
 _atom_site_type_symbol
 _atom_site_label
 _atom_site_symmetry_multiplicity
 _atom_site_fract_x
 _atom_site_fract_y
 _atom_site_fract_z
 _atom_site_occupancy
  Ac  Ac0  1  0.706089  0.293911  0.000000  1
  Ac  Ac1  1  0.293911  0.706089  0.000000  1
  Ac  Ac2  1  0.793866  0.206134  0.500000  1
  Ac  Ac3  1  0.206134  0.793866  0.500000  1
  Ac  Ac4  1  0.297917  0.297917  0.199885  1
  Ac  Ac5  1  0.702083  0.702083  0.800115  1
  Ac  Ac6  1  0.200071  0.200071  0.701498  1
  Ac  Ac7  1  0.799929  0.799929  0.298502  1
  Mg  Mg8  1  0.500000  0.500000  0.500000  1
  Sn  Sn9  1  0.006227  0.505344  0.248770  1
  Sn  Sn10  1  0.993773  0.494656  0.751230  1
  Sn  Sn11  1  0.494656  0.993773  0.751230  1
  Sn  Sn12  1  0.505344  0.006227  0.248770  1
  Sn  Sn13  1  0.000000  0.000000  0.000000  1
  Au  Au14  1  0.094118  0.094118  0.407530  1
  Au  Au15  1  0.905882  0.905882  0.592470  1
  Au  Au16  1  0.407216  0.407216  0.905558  1
  Au  Au17  1  0.592784  0.592784  0.094442  1
  Au  Au18  1  0.904671  0.170998  0.208260  1
  Au  Au19  1  0.095329  0.829002  0.791740  1
  Au  Au20  1  0.588559  0.331683  0.699809  1
  Au  Au21  1  0.668317  0.411441  0.300191  1
  Au  Au22  1  0.411441  0.668317  0.300191  1
  Au  Au23  1  0.331683  0.588559  0.699809  1
  Au  Au24  1  0.829002  0.095329  0.791740  1
  Au  Au25  1  0.170998  0.904671  0.208260  1
  Au  Au26  1  0.925607  0.663858  0.035176  1
  Au  Au27  1  0.074393  0.336142  0.964824  1
  Au  Au28  1  0.571840  0.825595  0.536245  1
  Au  Au29  1  0.174405  0.428160  0.463755  1
  Au  Au30  1  0.428160  0.174405  0.463755  1
  Au  Au31  1  0.825595  0.571840  0.536245  1
  Au  Au32  1  0.336142  0.074393  0.964824  1
  Au  Au33  1  0.663858  0.925607  0.035176  1
