# generated using pymatgen
data_Tb2Dy8Ga3NiBi2
_symmetry_space_group_name_H-M   'P 1'
_cell_length_a   8.59073582
_cell_length_b   8.59073604
_cell_length_c   8.77549641
_cell_angle_alpha   124.17495457
_cell_angle_beta   124.17495581
_cell_angle_gamma   81.51180672
_symmetry_Int_Tables_number   1
_chemical_formula_structural   Tb2Dy8Ga3NiBi2
_chemical_formula_sum   'Tb2 Dy8 Ga3 Ni1 Bi2'
_cell_volume   429.74012265
_cell_formula_units_Z   1
loop_
 _symmetry_equiv_pos_site_id
 _symmetry_equiv_pos_as_xyz
  1  'x, y, z'
loop_
 _atom_site_type_symbol
 _atom_site_label
 _atom_site_symmetry_multiplicity
 _atom_site_fract_x
 _atom_site_fract_y
 _atom_site_fract_z
 _atom_site_occupancy
  Tb  Tb0  1  0.705220  0.515850  0.500000  1
  Tb  Tb1  1  0.984150  0.794780  0.500000  1
  Dy  Dy2  1  0.994205  0.996785  0.990992  1
  Dy  Dy3  1  0.503215  0.505795  0.009008  1
  Dy  Dy4  1  0.779716  0.296752  0.795277  1
  Dy  Dy5  1  0.203248  0.720284  0.204723  1
  Dy  Dy6  1  0.484439  0.001475  0.204723  1
  Dy  Dy7  1  0.303872  0.459196  0.500000  1
  Dy  Dy8  1  0.040804  0.196128  0.500000  1
  Dy  Dy9  1  0.498525  0.015561  0.795277  1
  Ga  Ga10  1  0.147423  0.644752  0.792173  1
  Ga  Ga11  1  0.855248  0.352577  0.207827  1
  Ga  Ga12  1  0.633763  0.866237  0.500000  1
  Ni  Ni13  1  0.377453  0.122547  0.500000  1
  Bi  Bi14  1  0.244359  0.255641  0.000000  1
  Bi  Bi15  1  0.744359  0.755641  0.000000  1
