# generated using pymatgen
data_Ca2CdInNi4
_symmetry_space_group_name_H-M   'P 1'
_cell_length_a   5.00611600
_cell_length_b   4.08138500
_cell_length_c   7.12288300
_cell_angle_alpha   90.00000000
_cell_angle_beta   90.00000000
_cell_angle_gamma   90.00000000
_symmetry_Int_Tables_number   1
_chemical_formula_structural   Ca2CdInNi4
_chemical_formula_sum   'Ca2 Cd1 In1 Ni4'
_cell_volume   145.53393879
_cell_formula_units_Z   1
loop_
 _symmetry_equiv_pos_site_id
 _symmetry_equiv_pos_as_xyz
  1  'x, y, z'
loop_
 _atom_site_type_symbol
 _atom_site_label
 _atom_site_symmetry_multiplicity
 _atom_site_fract_x
 _atom_site_fract_y
 _atom_site_fract_z
 _atom_site_occupancy
  Ca  Ca0  1  0.250000  0.000000  0.213101  1
  Ca  Ca1  1  0.750001  0.000000  0.787442  1
  Cd  Cd2  1  0.750001  0.500001  0.157235  1
  In  In3  1  0.250000  0.500001  0.837355  1
  Ni  Ni4  1  0.750001  0.000000  0.410410  1
  Ni  Ni5  1  0.997080  0.500001  0.499909  1
  Ni  Ni6  1  0.502919  0.500001  0.499909  1
  Ni  Ni7  1  0.250000  0.000000  0.594640  1
