# generated using pymatgen
data_Nd3SnBi2Rh3
_symmetry_space_group_name_H-M   'P 1'
_cell_length_a   7.66332400
_cell_length_b   7.74046750
_cell_length_c   4.11114300
_cell_angle_alpha   90.00000000
_cell_angle_beta   90.00000000
_cell_angle_gamma   119.67085430
_symmetry_Int_Tables_number   1
_chemical_formula_structural   Nd3SnBi2Rh3
_chemical_formula_sum   'Nd3 Sn1 Bi2 Rh3'
_cell_volume   211.88903384
_cell_formula_units_Z   1
loop_
 _symmetry_equiv_pos_site_id
 _symmetry_equiv_pos_as_xyz
  1  'x, y, z'
loop_
 _atom_site_type_symbol
 _atom_site_label
 _atom_site_symmetry_multiplicity
 _atom_site_fract_x
 _atom_site_fract_y
 _atom_site_fract_z
 _atom_site_occupancy
  Nd  Nd0  1  0.007769  0.599961  0.000000  1
  Nd  Nd1  1  0.407809  0.400039  0.000000  1
  Nd  Nd2  1  0.586900  0.000000  0.000000  1
  Sn  Sn3  1  0.258754  0.000000  0.500000  1
  Bi  Bi4  1  0.742252  0.739624  0.500000  1
  Bi  Bi5  1  0.002628  0.260376  0.500000  1
  Rh  Rh6  1  0.007202  0.000000  0.000000  1
  Rh  Rh7  1  0.656626  0.326565  0.500000  1
  Rh  Rh8  1  0.330060  0.673435  0.500000  1
