# generated using pymatgen
data_LiLa4ZnSi6
_symmetry_space_group_name_H-M   'P 1'
_cell_length_a   8.42796465
_cell_length_b   8.31911621
_cell_length_c   6.03956477
_cell_angle_alpha   69.82718459
_cell_angle_beta   67.90081483
_cell_angle_gamma   42.27200570
_symmetry_Int_Tables_number   1
_chemical_formula_structural   LiLa4ZnSi6
_chemical_formula_sum   'Li1 La4 Zn1 Si6'
_cell_volume   262.40517323
_cell_formula_units_Z   1
loop_
 _symmetry_equiv_pos_site_id
 _symmetry_equiv_pos_as_xyz
  1  'x, y, z'
loop_
 _atom_site_type_symbol
 _atom_site_label
 _atom_site_symmetry_multiplicity
 _atom_site_fract_x
 _atom_site_fract_y
 _atom_site_fract_z
 _atom_site_occupancy
  Li  Li0  1  0.333966  0.333966  0.666034  1
  La  La1  1  0.749741  0.749741  0.750259  1
  La  La2  1  0.756331  0.244702  0.755298  1
  La  La3  1  0.249741  0.249741  0.250259  1
  La  La4  1  0.244702  0.756331  0.243669  1
  Zn  Zn5  1  0.666340  0.666340  0.333660  1
  Si  Si6  1  0.833109  0.331177  0.166891  1
  Si  Si7  1  0.665345  0.168299  0.334655  1
  Si  Si8  1  0.168299  0.665345  0.831701  1
  Si  Si9  1  0.331177  0.833109  0.668823  1
  Si  Si10  1  0.166276  0.166276  0.833724  1
  Si  Si11  1  0.834973  0.834973  0.165027  1
