# generated using pymatgen
data_Hf5FeAsP2
_symmetry_space_group_name_H-M   'P 1'
_cell_length_a   3.65446200
_cell_length_b   10.23363500
_cell_length_c   17.09770500
_cell_angle_alpha   90.00000000
_cell_angle_beta   90.00000000
_cell_angle_gamma   90.00000000
_symmetry_Int_Tables_number   1
_chemical_formula_structural   Hf5FeAsP2
_chemical_formula_sum   'Hf20 Fe4 As4 P8'
_cell_volume   639.42732752
_cell_formula_units_Z   4
loop_
 _symmetry_equiv_pos_site_id
 _symmetry_equiv_pos_as_xyz
  1  'x, y, z'
loop_
 _atom_site_type_symbol
 _atom_site_label
 _atom_site_symmetry_multiplicity
 _atom_site_fract_x
 _atom_site_fract_y
 _atom_site_fract_z
 _atom_site_occupancy
  Hf  Hf0  1  0.250000  0.123743  0.476134  1
  Hf  Hf1  1  0.750000  0.876257  0.523866  1
  Hf  Hf2  1  0.750000  0.623743  0.023866  1
  Hf  Hf3  1  0.250000  0.376257  0.976134  1
  Hf  Hf4  1  0.250000  0.056574  0.073562  1
  Hf  Hf5  1  0.750000  0.943426  0.926438  1
  Hf  Hf6  1  0.750000  0.556574  0.426438  1
  Hf  Hf7  1  0.250000  0.443426  0.573562  1
  Hf  Hf8  1  0.250000  0.477450  0.272031  1
  Hf  Hf9  1  0.750000  0.522550  0.727969  1
  Hf  Hf10  1  0.750000  0.977450  0.227969  1
  Hf  Hf11  1  0.250000  0.022550  0.772031  1
  Hf  Hf12  1  0.250000  0.821304  0.370962  1
  Hf  Hf13  1  0.750000  0.178696  0.629038  1
  Hf  Hf14  1  0.750000  0.321304  0.129038  1
  Hf  Hf15  1  0.250000  0.678696  0.870962  1
  Hf  Hf16  1  0.250000  0.753801  0.164303  1
  Hf  Hf17  1  0.750000  0.246199  0.835697  1
  Hf  Hf18  1  0.750000  0.253801  0.335697  1
  Hf  Hf19  1  0.250000  0.746199  0.664303  1
  Fe  Fe20  1  0.250000  0.370699  0.410374  1
  Fe  Fe21  1  0.750000  0.629301  0.589626  1
  Fe  Fe22  1  0.750000  0.870699  0.089626  1
  Fe  Fe23  1  0.250000  0.129301  0.910374  1
  As  As24  1  0.250000  0.185661  0.218138  1
  As  As25  1  0.750000  0.814339  0.781862  1
  As  As26  1  0.750000  0.685661  0.281862  1
  As  As27  1  0.250000  0.314339  0.718138  1
  P  P28  1  0.250000  0.809414  0.008473  1
  P  P29  1  0.750000  0.190586  0.991527  1
  P  P30  1  0.750000  0.309414  0.491527  1
  P  P31  1  0.250000  0.690586  0.508473  1
  P  P32  1  0.250000  0.505235  0.115216  1
  P  P33  1  0.750000  0.494765  0.884784  1
  P  P34  1  0.750000  0.005235  0.384784  1
  P  P35  1  0.250000  0.994765  0.615216  1
