# generated using pymatgen
data_Np5PaAs8
_symmetry_space_group_name_H-M   'P 1'
_cell_length_a   7.38759850
_cell_length_b   7.38759879
_cell_length_c   7.38759931
_cell_angle_alpha   109.07434489
_cell_angle_beta   109.67001881
_cell_angle_gamma   109.67002469
_symmetry_Int_Tables_number   1
_chemical_formula_structural   Np5PaAs8
_chemical_formula_sum   'Np5 Pa1 As8'
_cell_volume   310.36476940
_cell_formula_units_Z   1
loop_
 _symmetry_equiv_pos_site_id
 _symmetry_equiv_pos_as_xyz
  1  'x, y, z'
loop_
 _atom_site_type_symbol
 _atom_site_label
 _atom_site_symmetry_multiplicity
 _atom_site_fract_x
 _atom_site_fract_y
 _atom_site_fract_z
 _atom_site_occupancy
  Np  Np0  1  0.125450  0.875425  0.249644  1
  Np  Np1  1  0.750000  0.375000  0.625000  1
  Np  Np2  1  0.874219  0.250025  0.124575  1
  Np  Np3  1  0.625781  0.750356  0.375806  1
  Np  Np4  1  0.374550  0.624194  0.749975  1
  Pa  Pa5  1  0.250000  0.125000  0.875000  1
  As  As6  1  0.499924  0.000001  0.659511  1
  As  As7  1  0.000076  0.659587  0.500077  1
  As  As8  1  0.659505  0.499966  0.000557  1
  As  As9  1  0.000591  0.159539  0.500034  1
  As  As10  1  0.840495  0.841052  0.840461  1
  As  As11  1  0.340490  0.340489  0.340413  1
  As  As12  1  0.159510  0.499923  0.999999  1
  As  As13  1  0.499409  0.999443  0.158948  1
