# generated using pymatgen
data_LaTh3(AlZn5)2
_symmetry_space_group_name_H-M   'P 1'
_cell_length_a   8.47907116
_cell_length_b   8.47907169
_cell_length_c   8.94874100
_cell_angle_alpha   90.11527316
_cell_angle_beta   89.88472684
_cell_angle_gamma   149.33170735
_symmetry_Int_Tables_number   1
_chemical_formula_structural   LaTh3(AlZn5)2
_chemical_formula_sum   'La1 Th3 Al2 Zn10'
_cell_volume   328.15936864
_cell_formula_units_Z   1
loop_
 _symmetry_equiv_pos_site_id
 _symmetry_equiv_pos_as_xyz
  1  'x, y, z'
loop_
 _atom_site_type_symbol
 _atom_site_label
 _atom_site_symmetry_multiplicity
 _atom_site_fract_x
 _atom_site_fract_y
 _atom_site_fract_z
 _atom_site_occupancy
  La  La0  1  0.000000  0.000000  0.000000  1
  Th  Th1  1  0.205203  0.794797  0.250236  1
  Th  Th2  1  0.794797  0.205203  0.749764  1
  Th  Th3  1  0.000000  0.000000  0.500000  1
  Al  Al4  1  0.558200  0.441800  0.252547  1
  Al  Al5  1  0.441800  0.558200  0.747453  1
  Zn  Zn6  1  0.813806  0.186194  0.393047  1
  Zn  Zn7  1  0.186194  0.813806  0.606953  1
  Zn  Zn8  1  0.813178  0.186822  0.106964  1
  Zn  Zn9  1  0.186822  0.813178  0.893036  1
  Zn  Zn10  1  0.651013  0.348987  0.479947  1
  Zn  Zn11  1  0.348987  0.651013  0.520053  1
  Zn  Zn12  1  0.651362  0.348638  0.020138  1
  Zn  Zn13  1  0.348638  0.651362  0.979862  1
  Zn  Zn14  1  0.403884  0.596116  0.251096  1
  Zn  Zn15  1  0.596116  0.403884  0.748904  1
