# generated using pymatgen
data_Sr2In3SnPt2
_symmetry_space_group_name_H-M   'P 1'
_cell_length_a   6.07197786
_cell_length_b   6.07197835
_cell_length_c   7.88558436
_cell_angle_alpha   90.41728089
_cell_angle_beta   89.58271703
_cell_angle_gamma   135.95383238
_symmetry_Int_Tables_number   1
_chemical_formula_structural   Sr2In3SnPt2
_chemical_formula_sum   'Sr2 In3 Sn1 Pt2'
_cell_volume   202.12230044
_cell_formula_units_Z   1
loop_
 _symmetry_equiv_pos_site_id
 _symmetry_equiv_pos_as_xyz
  1  'x, y, z'
loop_
 _atom_site_type_symbol
 _atom_site_label
 _atom_site_symmetry_multiplicity
 _atom_site_fract_x
 _atom_site_fract_y
 _atom_site_fract_z
 _atom_site_occupancy
  Sr  Sr0  1  0.937722  0.062278  0.748224  1
  Sr  Sr1  1  0.062508  0.937492  0.248731  1
  In  In2  1  0.650563  0.349437  0.553538  1
  In  In3  1  0.350832  0.649168  0.055417  1
  In  In4  1  0.348971  0.651029  0.447588  1
  Sn  Sn5  1  0.649635  0.350365  0.945205  1
  Pt  Pt6  1  0.218151  0.781849  0.754914  1
  Pt  Pt7  1  0.781616  0.218384  0.246383  1
