# generated using pymatgen
data_HoEr7Ti12Si15Ir
_symmetry_space_group_name_H-M   'P 1'
_cell_length_a   7.03962283
_cell_length_b   7.02522319
_cell_length_c   12.94323405
_cell_angle_alpha   89.88251864
_cell_angle_beta   89.79660458
_cell_angle_gamma   90.02054977
_symmetry_Int_Tables_number   1
_chemical_formula_structural   HoEr7Ti12Si15Ir
_chemical_formula_sum   'Ho1 Er7 Ti12 Si15 Ir1'
_cell_volume   640.10120302
_cell_formula_units_Z   1
loop_
 _symmetry_equiv_pos_site_id
 _symmetry_equiv_pos_as_xyz
  1  'x, y, z'
loop_
 _atom_site_type_symbol
 _atom_site_label
 _atom_site_symmetry_multiplicity
 _atom_site_fract_x
 _atom_site_fract_y
 _atom_site_fract_z
 _atom_site_occupancy
  Ho  Ho0  1  0.998993  0.659348  0.033254  1
  Er  Er1  1  0.338398  0.001746  0.466698  1
  Er  Er2  1  0.499274  0.841548  0.717056  1
  Er  Er3  1  0.501360  0.159763  0.216800  1
  Er  Er4  1  0.840885  0.497383  0.283465  1
  Er  Er5  1  0.157404  0.502405  0.783024  1
  Er  Er6  1  0.660514  0.998082  0.967406  1
  Er  Er7  1  0.002729  0.338868  0.534981  1
  Ti  Ti8  1  0.327553  0.326325  0.001310  1
  Ti  Ti9  1  0.172723  0.827637  0.249937  1
  Ti  Ti10  1  0.833523  0.171509  0.747358  1
  Ti  Ti11  1  0.672227  0.671547  0.498871  1
  Ti  Ti12  1  0.157829  0.010016  0.874817  1
  Ti  Ti13  1  0.492146  0.652251  0.126108  1
  Ti  Ti14  1  0.498703  0.342185  0.626966  1
  Ti  Ti15  1  0.656089  0.496747  0.874977  1
  Ti  Ti16  1  0.348203  0.506065  0.373550  1
  Ti  Ti17  1  0.846481  0.992444  0.374791  1
  Ti  Ti18  1  0.007758  0.152014  0.125794  1
  Ti  Ti19  1  0.992557  0.850340  0.619764  1
  Si  Si20  1  0.370657  0.702249  0.934744  1
  Si  Si21  1  0.631638  0.296820  0.433986  1
  Si  Si22  1  0.703596  0.369119  0.066677  1
  Si  Si23  1  0.301049  0.630894  0.564039  1
  Si  Si24  1  0.795877  0.868914  0.182635  1
  Si  Si25  1  0.130687  0.202840  0.316028  1
  Si  Si26  1  0.867719  0.799197  0.815713  1
  Si  Si27  1  0.292769  0.953816  0.065804  1
  Si  Si28  1  0.546032  0.791129  0.314832  1
  Si  Si29  1  0.458334  0.214535  0.817091  1
  Si  Si30  1  0.787350  0.548936  0.685162  1
  Si  Si31  1  0.208042  0.453583  0.185352  1
  Si  Si32  1  0.704886  0.044819  0.561839  1
  Si  Si33  1  0.952750  0.291147  0.937620  1
  Si  Si34  1  0.046515  0.707508  0.433379  1
  Ir  Ir35  1  0.196751  0.126274  0.688173  1
