# generated using pymatgen
data_Hf6Ga6PdPt2Rh3
_symmetry_space_group_name_H-M   'P 1'
_cell_length_a   7.27715300
_cell_length_b   7.27715243
_cell_length_c   6.76055100
_cell_angle_alpha   90.00000000
_cell_angle_beta   90.00000000
_cell_angle_gamma   119.99999803
_symmetry_Int_Tables_number   1
_chemical_formula_structural   Hf6Ga6PdPt2Rh3
_chemical_formula_sum   'Hf6 Ga6 Pd1 Pt2 Rh3'
_cell_volume   310.05283859
_cell_formula_units_Z   1
loop_
 _symmetry_equiv_pos_site_id
 _symmetry_equiv_pos_as_xyz
  1  'x, y, z'
loop_
 _atom_site_type_symbol
 _atom_site_label
 _atom_site_symmetry_multiplicity
 _atom_site_fract_x
 _atom_site_fract_y
 _atom_site_fract_z
 _atom_site_occupancy
  Hf  Hf0  1  0.615375  0.602542  0.250000  1
  Hf  Hf1  1  0.996107  0.399293  0.750000  1
  Hf  Hf2  1  0.397458  0.012834  0.250000  1
  Hf  Hf3  1  0.987166  0.384625  0.250000  1
  Hf  Hf4  1  0.403186  0.003893  0.750000  1
  Hf  Hf5  1  0.600707  0.596814  0.750000  1
  Ga  Ga6  1  0.269602  0.269213  0.498748  1
  Ga  Ga7  1  0.730787  0.000389  0.498748  1
  Ga  Ga8  1  0.999611  0.730398  0.498748  1
  Ga  Ga9  1  0.730787  0.000389  0.001252  1
  Ga  Ga10  1  0.269602  0.269213  0.001252  1
  Ga  Ga11  1  0.999611  0.730398  0.001252  1
  Pd  Pd12  1  0.000000  0.000000  0.750000  1
  Pt  Pt13  1  0.333333  0.666667  0.491228  1
  Pt  Pt14  1  0.333333  0.666667  0.008772  1
  Rh  Rh15  1  0.000000  0.000000  0.250000  1
  Rh  Rh16  1  0.666667  0.333333  0.505701  1
  Rh  Rh17  1  0.666667  0.333333  0.994299  1
