# generated using pymatgen
data_TmLuPaTc3
_symmetry_space_group_name_H-M   'P 1'
_cell_length_a   5.74852600
_cell_length_b   5.74852589
_cell_length_c   8.29055400
_cell_angle_alpha   90.00000000
_cell_angle_beta   90.00000000
_cell_angle_gamma   119.99998913
_symmetry_Int_Tables_number   1
_chemical_formula_structural   TmLuPaTc3
_chemical_formula_sum   'Tm2 Lu2 Pa2 Tc6'
_cell_volume   237.26147351
_cell_formula_units_Z   2
loop_
 _symmetry_equiv_pos_site_id
 _symmetry_equiv_pos_as_xyz
  1  'x, y, z'
loop_
 _atom_site_type_symbol
 _atom_site_label
 _atom_site_symmetry_multiplicity
 _atom_site_fract_x
 _atom_site_fract_y
 _atom_site_fract_z
 _atom_site_occupancy
  Tm  Tm0  1  0.333333  0.666667  0.438111  1
  Tm  Tm1  1  0.666667  0.333333  0.561889  1
  Lu  Lu2  1  0.666667  0.333333  0.938517  1
  Lu  Lu3  1  0.333333  0.666667  0.061483  1
  Pa  Pa4  1  0.000000  0.000000  0.500000  1
  Pa  Pa5  1  0.000000  0.000000  0.000000  1
  Tc  Tc6  1  0.829514  0.170486  0.249661  1
  Tc  Tc7  1  0.829514  0.659029  0.249661  1
  Tc  Tc8  1  0.340971  0.170486  0.249661  1
  Tc  Tc9  1  0.170486  0.829514  0.750339  1
  Tc  Tc10  1  0.170486  0.340971  0.750339  1
  Tc  Tc11  1  0.659029  0.829514  0.750339  1
