# generated using pymatgen
data_Yb12TmLu7Si16
_symmetry_space_group_name_H-M   'P 1'
_cell_length_a   7.32094023
_cell_length_b   7.75775915
_cell_length_c   14.95186718
_cell_angle_alpha   89.99732795
_cell_angle_beta   90.01734763
_cell_angle_gamma   90.02267002
_symmetry_Int_Tables_number   1
_chemical_formula_structural   Yb12TmLu7Si16
_chemical_formula_sum   'Yb12 Tm1 Lu7 Si16'
_cell_volume   849.17759960
_cell_formula_units_Z   1
loop_
 _symmetry_equiv_pos_site_id
 _symmetry_equiv_pos_as_xyz
  1  'x, y, z'
loop_
 _atom_site_type_symbol
 _atom_site_label
 _atom_site_symmetry_multiplicity
 _atom_site_fract_x
 _atom_site_fract_y
 _atom_site_fract_z
 _atom_site_occupancy
  Yb  Yb0  1  0.974015  0.817043  0.404042  1
  Yb  Yb1  1  0.474137  0.682890  0.095977  1
  Yb  Yb2  1  0.525946  0.317103  0.595979  1
  Yb  Yb3  1  0.025894  0.182947  0.903992  1
  Yb  Yb4  1  0.025972  0.182915  0.595980  1
  Yb  Yb5  1  0.526018  0.317113  0.903970  1
  Yb  Yb6  1  0.474048  0.682902  0.404042  1
  Yb  Yb7  1  0.973938  0.817016  0.095952  1
  Yb  Yb8  1  0.351662  0.019836  0.749999  1
  Yb  Yb9  1  0.851646  0.480140  0.750008  1
  Yb  Yb10  1  0.148283  0.519988  0.250065  1
  Yb  Yb11  1  0.648490  0.980077  0.250043  1
  Tm  Tm12  1  0.314918  0.176693  0.121095  1
  Lu  Lu13  1  0.814953  0.323566  0.378927  1
  Lu  Lu14  1  0.185057  0.676473  0.878878  1
  Lu  Lu15  1  0.685059  0.823516  0.621125  1
  Lu  Lu16  1  0.314903  0.176455  0.378976  1
  Lu  Lu17  1  0.814914  0.323628  0.121079  1
  Lu  Lu18  1  0.185067  0.676481  0.621121  1
  Lu  Lu19  1  0.685108  0.823487  0.878835  1
  Si  Si20  1  0.856004  0.534106  0.538337  1
  Si  Si21  1  0.356205  0.965586  0.961420  1
  Si  Si22  1  0.643952  0.034085  0.461643  1
  Si  Si23  1  0.143517  0.466204  0.038159  1
  Si  Si24  1  0.144006  0.465865  0.461656  1
  Si  Si25  1  0.644391  0.033879  0.038195  1
  Si  Si26  1  0.356002  0.965899  0.538346  1
  Si  Si27  1  0.855984  0.534221  0.961643  1
  Si  Si28  1  0.977168  0.877818  0.749993  1
  Si  Si29  1  0.477159  0.622174  0.749991  1
  Si  Si30  1  0.523214  0.378172  0.250104  1
  Si  Si31  1  0.022549  0.122047  0.250195  1
  Si  Si32  1  0.248494  0.397327  0.749998  1
  Si  Si33  1  0.748500  0.102663  0.749989  1
  Si  Si34  1  0.251299  0.897012  0.250209  1
  Si  Si35  1  0.751525  0.602673  0.250039  1
