# generated using pymatgen
data_RbH3Au
_symmetry_space_group_name_H-M   'P 1'
_cell_length_a   5.91305341
_cell_length_b   5.91305347
_cell_length_c   5.91305422
_cell_angle_alpha   114.95283401
_cell_angle_beta   114.95284204
_cell_angle_gamma   98.98963446
_symmetry_Int_Tables_number   1
_chemical_formula_structural   RbH3Au
_chemical_formula_sum   'Rb2 H6 Au2'
_cell_volume   155.26722667
_cell_formula_units_Z   2
loop_
 _symmetry_equiv_pos_site_id
 _symmetry_equiv_pos_as_xyz
  1  'x, y, z'
loop_
 _atom_site_type_symbol
 _atom_site_label
 _atom_site_symmetry_multiplicity
 _atom_site_fract_x
 _atom_site_fract_y
 _atom_site_fract_z
 _atom_site_occupancy
  Rb  Rb0  1  0.750000  0.750000  0.000000  1
  Rb  Rb1  1  0.250000  0.250000  0.000000  1
  H  H2  1  0.813312  0.313312  0.126624  1
  H  H3  1  0.750000  0.250000  0.500000  1
  H  H4  1  0.686688  0.813312  0.500000  1
  H  H5  1  0.250000  0.750000  0.500000  1
  H  H6  1  0.313312  0.186688  0.500000  1
  H  H7  1  0.186688  0.686688  0.873376  1
  Au  Au8  1  0.500000  0.000000  0.500000  1
  Au  Au9  1  0.000000  0.500000  0.500000  1
