# generated using pymatgen
data_Y4ZnGa23Pd9
_symmetry_space_group_name_H-M   'P 1'
_cell_length_a   7.57615355
_cell_length_b   7.58220470
_cell_length_c   13.27699600
_cell_angle_alpha   84.60279698
_cell_angle_beta   79.03047043
_cell_angle_gamma   60.11719374
_symmetry_Int_Tables_number   1
_chemical_formula_structural   Y4ZnGa23Pd9
_chemical_formula_sum   'Y4 Zn1 Ga23 Pd9'
_cell_volume   649.19867808
_cell_formula_units_Z   1
loop_
 _symmetry_equiv_pos_site_id
 _symmetry_equiv_pos_as_xyz
  1  'x, y, z'
loop_
 _atom_site_type_symbol
 _atom_site_label
 _atom_site_symmetry_multiplicity
 _atom_site_fract_x
 _atom_site_fract_y
 _atom_site_fract_z
 _atom_site_occupancy
  Y  Y0  1  0.393311  0.168671  0.811012  1
  Y  Y1  1  0.604950  0.832316  0.189367  1
  Y  Y2  1  0.729804  0.497905  0.811657  1
  Y  Y3  1  0.271115  0.500846  0.187440  1
  Zn  Zn4  1  0.687151  0.833599  0.941439  1
  Ga  Ga5  1  0.319934  0.161014  0.058555  1
  Ga  Ga6  1  0.145679  0.833205  0.559237  1
  Ga  Ga7  1  0.854056  0.166872  0.441116  1
  Ga  Ga8  1  0.479812  0.166358  0.556591  1
  Ga  Ga9  1  0.521145  0.833414  0.443299  1
  Ga  Ga10  1  0.219104  0.165610  0.324247  1
  Ga  Ga11  1  0.780863  0.834254  0.675312  1
  Ga  Ga12  1  0.434064  0.504857  0.676427  1
  Ga  Ga13  1  0.564739  0.495881  0.324406  1
  Ga  Ga14  1  0.106261  0.160094  0.675015  1
  Ga  Ga15  1  0.893509  0.838942  0.326287  1
  Ga  Ga16  1  0.356324  0.499333  0.938460  1
  Ga  Ga17  1  0.646347  0.506390  0.058473  1
  Ga  Ga18  1  0.019680  0.168001  0.944906  1
  Ga  Ga19  1  0.978509  0.832280  0.052757  1
  Ga  Ga20  1  0.186362  0.499224  0.443315  1
  Ga  Ga21  1  0.813931  0.501356  0.556811  1
  Ga  Ga22  1  0.735259  0.166476  0.181843  1
  Ga  Ga23  1  0.263191  0.835967  0.817662  1
  Ga  Ga24  1  0.052139  0.633419  0.818916  1
  Ga  Ga25  1  0.942928  0.367481  0.182355  1
  Ga  Ga26  1  0.851921  0.036677  0.818647  1
  Ga  Ga27  1  0.141741  0.958695  0.182976  1
  Pd  Pd28  1  0.119701  0.493446  0.639365  1
  Pd  Pd29  1  0.881510  0.506149  0.360524  1
  Pd  Pd30  1  0.659635  0.176462  0.999931  1
  Pd  Pd31  1  0.337312  0.829526  0.001075  1
  Pd  Pd32  1  0.538866  0.167531  0.360326  1
  Pd  Pd33  1  0.461267  0.832391  0.639263  1
  Pd  Pd34  1  0.780462  0.173514  0.637495  1
  Pd  Pd35  1  0.220030  0.827310  0.362913  1
  Pd  Pd36  1  0.007390  0.494533  0.000587  1
