# generated using pymatgen
data_La4Cd2Ag3Rh
_symmetry_space_group_name_H-M   'P 1'
_cell_length_a   8.16127612
_cell_length_b   8.16127612
_cell_length_c   4.02584300
_cell_angle_alpha   90.00000000
_cell_angle_beta   90.00000000
_cell_angle_gamma   90.01992402
_symmetry_Int_Tables_number   1
_chemical_formula_structural   La4Cd2Ag3Rh
_chemical_formula_sum   'La4 Cd2 Ag3 Rh1'
_cell_volume   268.14700555
_cell_formula_units_Z   1
loop_
 _symmetry_equiv_pos_site_id
 _symmetry_equiv_pos_as_xyz
  1  'x, y, z'
loop_
 _atom_site_type_symbol
 _atom_site_label
 _atom_site_symmetry_multiplicity
 _atom_site_fract_x
 _atom_site_fract_y
 _atom_site_fract_z
 _atom_site_occupancy
  La  La0  1  0.851739  0.679630  0.500000  1
  La  La1  1  0.307719  0.807719  0.500000  1
  La  La2  1  0.669088  0.169088  0.500000  1
  La  La3  1  0.179630  0.351739  0.500000  1
  Cd  Cd4  1  0.000747  0.000697  0.000000  1
  Cd  Cd5  1  0.500697  0.500747  0.000000  1
  Ag  Ag6  1  0.873115  0.373115  0.000000  1
  Ag  Ag7  1  0.367198  0.122049  0.000000  1
  Ag  Ag8  1  0.622049  0.867198  0.000000  1
  Rh  Rh9  1  0.128018  0.628018  0.000000  1
