# generated using pymatgen
data_Nd8Al3Si12Pd
_symmetry_space_group_name_H-M   'P 1'
_cell_length_a   8.28199300
_cell_length_b   8.28199419
_cell_length_c   8.48053300
_cell_angle_alpha   90.00000000
_cell_angle_beta   90.00000000
_cell_angle_gamma   119.99999123
_symmetry_Int_Tables_number   1
_chemical_formula_structural   Nd8Al3Si12Pd
_chemical_formula_sum   'Nd8 Al3 Si12 Pd1'
_cell_volume   503.75990609
_cell_formula_units_Z   1
loop_
 _symmetry_equiv_pos_site_id
 _symmetry_equiv_pos_as_xyz
  1  'x, y, z'
loop_
 _atom_site_type_symbol
 _atom_site_label
 _atom_site_symmetry_multiplicity
 _atom_site_fract_x
 _atom_site_fract_y
 _atom_site_fract_z
 _atom_site_occupancy
  Nd  Nd0  1  0.499178  0.500822  0.751117  1
  Nd  Nd1  1  0.500725  0.499275  0.248753  1
  Nd  Nd2  1  0.001644  0.500822  0.751117  1
  Nd  Nd3  1  0.998551  0.499275  0.248753  1
  Nd  Nd4  1  0.499178  0.998356  0.751117  1
  Nd  Nd5  1  0.500725  0.001449  0.248753  1
  Nd  Nd6  1  0.000000  0.000000  0.749217  1
  Nd  Nd7  1  0.000000  0.000000  0.250859  1
  Al  Al8  1  0.666667  0.333333  0.996900  1
  Al  Al9  1  0.333333  0.666667  0.003128  1
  Al  Al10  1  0.333333  0.666667  0.497119  1
  Si  Si11  1  0.836468  0.163532  0.999978  1
  Si  Si12  1  0.165658  0.834342  0.999859  1
  Si  Si13  1  0.327063  0.163532  0.999978  1
  Si  Si14  1  0.162265  0.837735  0.500083  1
  Si  Si15  1  0.668684  0.834342  0.999859  1
  Si  Si16  1  0.831885  0.168115  0.500034  1
  Si  Si17  1  0.836468  0.672937  0.999978  1
  Si  Si18  1  0.675470  0.837735  0.500083  1
  Si  Si19  1  0.165658  0.331316  0.999859  1
  Si  Si20  1  0.336230  0.168115  0.500034  1
  Si  Si21  1  0.162265  0.324530  0.500083  1
  Si  Si22  1  0.831885  0.663770  0.500034  1
  Pd  Pd23  1  0.666667  0.333333  0.503301  1
