# generated using pymatgen
data_Nd16MgCd3RuPt3
_symmetry_space_group_name_H-M   'P 1'
_cell_length_a   10.04162572
_cell_length_b   10.04162610
_cell_length_c   10.04162533
_cell_angle_alpha   59.70458344
_cell_angle_beta   59.70458241
_cell_angle_gamma   59.70458391
_symmetry_Int_Tables_number   1
_chemical_formula_structural   Nd16MgCd3RuPt3
_chemical_formula_sum   'Nd16 Mg1 Cd3 Ru1 Pt3'
_cell_volume   711.16943041
_cell_formula_units_Z   1
loop_
 _symmetry_equiv_pos_site_id
 _symmetry_equiv_pos_as_xyz
  1  'x, y, z'
loop_
 _atom_site_type_symbol
 _atom_site_label
 _atom_site_symmetry_multiplicity
 _atom_site_fract_x
 _atom_site_fract_y
 _atom_site_fract_z
 _atom_site_occupancy
  Nd  Nd0  1  0.350934  0.350934  0.350934  1
  Nd  Nd1  1  0.346899  0.346899  0.953086  1
  Nd  Nd2  1  0.346899  0.953086  0.346899  1
  Nd  Nd3  1  0.953086  0.346899  0.346899  1
  Nd  Nd4  1  0.815567  0.189749  0.189749  1
  Nd  Nd5  1  0.188360  0.809977  0.809977  1
  Nd  Nd6  1  0.189749  0.815567  0.189749  1
  Nd  Nd7  1  0.809977  0.188360  0.809977  1
  Nd  Nd8  1  0.189749  0.189749  0.815567  1
  Nd  Nd9  1  0.809977  0.809977  0.188360  1
  Nd  Nd10  1  0.937914  0.564081  0.564081  1
  Nd  Nd11  1  0.559646  0.937189  0.937189  1
  Nd  Nd12  1  0.564081  0.937914  0.564081  1
  Nd  Nd13  1  0.937189  0.559646  0.937189  1
  Nd  Nd14  1  0.564081  0.564081  0.937914  1
  Nd  Nd15  1  0.937189  0.937189  0.559646  1
  Mg  Mg16  1  0.575777  0.575777  0.575777  1
  Cd  Cd17  1  0.580952  0.580952  0.257170  1
  Cd  Cd18  1  0.580952  0.257170  0.580952  1
  Cd  Cd19  1  0.257170  0.580952  0.580952  1
  Ru  Ru20  1  0.142605  0.142605  0.142605  1
  Pt  Pt21  1  0.144587  0.144587  0.572075  1
  Pt  Pt22  1  0.144587  0.572075  0.144587  1
  Pt  Pt23  1  0.572075  0.144587  0.144587  1
