# generated using pymatgen
data_Ho4Lu2Al19Fe8Si5
_symmetry_space_group_name_H-M   'P 1'
_cell_length_a   8.48545700
_cell_length_b   8.48552241
_cell_length_c   9.32481200
_cell_angle_alpha   89.99899649
_cell_angle_beta   89.99911012
_cell_angle_gamma   119.99782537
_symmetry_Int_Tables_number   1
_chemical_formula_structural   Ho4Lu2Al19Fe8Si5
_chemical_formula_sum   'Ho4 Lu2 Al19 Fe8 Si5'
_cell_volume   581.47902600
_cell_formula_units_Z   1
loop_
 _symmetry_equiv_pos_site_id
 _symmetry_equiv_pos_as_xyz
  1  'x, y, z'
loop_
 _atom_site_type_symbol
 _atom_site_label
 _atom_site_symmetry_multiplicity
 _atom_site_fract_x
 _atom_site_fract_y
 _atom_site_fract_z
 _atom_site_occupancy
  Ho  Ho0  1  0.607563  0.806446  0.250059  1
  Ho  Ho1  1  0.390548  0.195793  0.750084  1
  Ho  Ho2  1  0.198860  0.806461  0.250024  1
  Ho  Ho3  1  0.805187  0.195781  0.750042  1
  Lu  Lu4  1  0.196903  0.393862  0.250091  1
  Lu  Lu5  1  0.803278  0.606608  0.750058  1
  Al  Al6  1  0.163307  0.326680  0.573641  1
  Al  Al7  1  0.836123  0.672309  0.425924  1
  Al  Al8  1  0.672986  0.836036  0.573509  1
  Al  Al9  1  0.836171  0.672441  0.074000  1
  Al  Al10  1  0.327398  0.164890  0.425034  1
  Al  Al11  1  0.163332  0.326770  0.926421  1
  Al  Al12  1  0.163016  0.836033  0.573527  1
  Al  Al13  1  0.327460  0.164918  0.074909  1
  Al  Al14  1  0.837480  0.164865  0.425027  1
  Al  Al15  1  0.673126  0.836080  0.926510  1
  Al  Al16  1  0.837642  0.164970  0.074930  1
  Al  Al17  1  0.163067  0.836074  0.926541  1
  Al  Al18  1  0.438767  0.877568  0.750021  1
  Al  Al19  1  0.877045  0.435995  0.249954  1
  Al  Al20  1  0.122592  0.562088  0.750081  1
  Al  Al21  1  0.558886  0.435985  0.249833  1
  Al  Al22  1  0.439444  0.562092  0.749917  1
  Al  Al23  1  0.001185  0.002480  0.249849  1
  Al  Al24  1  0.998716  0.997548  0.749898  1
  Fe  Fe25  1  0.501130  0.001200  0.007101  1
  Fe  Fe26  1  0.998141  0.498932  0.000480  1
  Fe  Fe27  1  0.501301  0.001790  0.493162  1
  Fe  Fe28  1  0.500198  0.499060  0.000356  1
  Fe  Fe29  1  0.997899  0.498207  0.499692  1
  Fe  Fe30  1  0.500509  0.498716  0.499430  1
  Fe  Fe31  1  0.000095  0.999852  0.999762  1
  Fe  Fe32  1  0.999763  0.999434  0.500001  1
  Si  Si33  1  0.332098  0.664211  0.028283  1
  Si  Si34  1  0.667831  0.335675  0.969530  1
  Si  Si35  1  0.667731  0.335610  0.530550  1
  Si  Si36  1  0.332054  0.664201  0.471790  1
  Si  Si37  1  0.561164  0.122333  0.249979  1
