# generated using pymatgen
data_Tb7Dy(B6Os)4
_symmetry_space_group_name_H-M   'P 1'
_cell_length_a   3.67115800
_cell_length_b   9.19059913
_cell_length_c   11.56959111
_cell_angle_alpha   90.02035690
_cell_angle_beta   90.00000000
_cell_angle_gamma   90.00000000
_symmetry_Int_Tables_number   1
_chemical_formula_structural   Tb7Dy(B6Os)4
_chemical_formula_sum   'Tb7 Dy1 B24 Os4'
_cell_volume   390.35961699
_cell_formula_units_Z   1
loop_
 _symmetry_equiv_pos_site_id
 _symmetry_equiv_pos_as_xyz
  1  'x, y, z'
loop_
 _atom_site_type_symbol
 _atom_site_label
 _atom_site_symmetry_multiplicity
 _atom_site_fract_x
 _atom_site_fract_y
 _atom_site_fract_z
 _atom_site_occupancy
  Tb  Tb0  1  0.000000  0.323103  0.413936  1
  Tb  Tb1  1  0.000000  0.676996  0.586278  1
  Tb  Tb2  1  0.000000  0.822757  0.086007  1
  Tb  Tb3  1  0.000000  0.177359  0.913715  1
  Tb  Tb4  1  0.000000  0.943980  0.372879  1
  Tb  Tb5  1  0.000000  0.056097  0.627254  1
  Tb  Tb6  1  0.000000  0.443869  0.127057  1
  Dy  Dy7  1  0.000000  0.556230  0.872679  1
  B  B8  1  0.500000  0.553892  0.432791  1
  B  B9  1  0.500000  0.446170  0.567495  1
  B  B10  1  0.500000  0.054043  0.066967  1
  B  B11  1  0.500000  0.945612  0.932786  1
  B  B12  1  0.500000  0.747003  0.419694  1
  B  B13  1  0.500000  0.253093  0.580541  1
  B  B14  1  0.500000  0.247409  0.080074  1
  B  B15  1  0.500000  0.752180  0.919668  1
  B  B16  1  0.500000  0.790338  0.266703  1
  B  B17  1  0.500000  0.209760  0.733455  1
  B  B18  1  0.500000  0.290458  0.232963  1
  B  B19  1  0.500000  0.709099  0.766995  1
  B  B20  1  0.500000  0.632017  0.185683  1
  B  B21  1  0.500000  0.368382  0.814376  1
  B  B22  1  0.500000  0.132351  0.314041  1
  B  B23  1  0.500000  0.867557  0.686029  1
  B  B24  1  0.500000  0.984132  0.212772  1
  B  B25  1  0.500000  0.015754  0.787225  1
  B  B26  1  0.500000  0.483986  0.287055  1
  B  B27  1  0.500000  0.516325  0.713266  1
  B  B28  1  0.500000  0.608384  0.029786  1
  B  B29  1  0.500000  0.391922  0.969605  1
  B  B30  1  0.500000  0.110194  0.469518  1
  B  B31  1  0.500000  0.889774  0.530622  1
  Os  Os32  1  0.000000  0.637269  0.321493  1
  Os  Os33  1  0.000000  0.362977  0.678737  1
  Os  Os34  1  0.000000  0.137305  0.178170  1
  Os  Os35  1  0.000000  0.862223  0.821688  1
