# generated using pymatgen
data_Li5B2Pt5
_symmetry_space_group_name_H-M   'P 1'
_cell_length_a   6.76677528
_cell_length_b   6.87868073
_cell_length_c   6.80478896
_cell_angle_alpha   90.38868465
_cell_angle_beta   90.21723862
_cell_angle_gamma   89.33932060
_symmetry_Int_Tables_number   1
_chemical_formula_structural   Li5B2Pt5
_chemical_formula_sum   'Li10 B4 Pt10'
_cell_volume   316.70849006
_cell_formula_units_Z   2
loop_
 _symmetry_equiv_pos_site_id
 _symmetry_equiv_pos_as_xyz
  1  'x, y, z'
loop_
 _atom_site_type_symbol
 _atom_site_label
 _atom_site_symmetry_multiplicity
 _atom_site_fract_x
 _atom_site_fract_y
 _atom_site_fract_z
 _atom_site_occupancy
  Li  Li0  1  0.303462  0.305052  0.271517  1
  Li  Li1  1  0.037807  0.457970  0.546150  1
  Li  Li2  1  0.576545  0.043183  0.427157  1
  Li  Li3  1  0.453678  0.564210  0.065918  1
  Li  Li4  1  0.186196  0.691885  0.818616  1
  Li  Li5  1  0.944203  0.951602  0.963198  1
  Li  Li6  1  0.809475  0.188261  0.691792  1
  Li  Li7  1  0.712130  0.785450  0.204839  1
  Li  Li8  1  0.209691  0.046530  0.616180  1
  Li  Li9  1  0.453682  0.378807  0.712933  1
  B  B10  1  0.869494  0.380161  0.126795  1
  B  B11  1  0.359421  0.122097  0.905880  1
  B  B12  1  0.629237  0.649011  0.611452  1
  B  B13  1  0.103070  0.868295  0.350071  1
  Pt  Pt14  1  0.069168  0.611865  0.178137  1
  Pt  Pt15  1  0.947190  0.134631  0.318746  1
  Pt  Pt16  1  0.323200  0.929577  0.137877  1
  Pt  Pt17  1  0.671247  0.432849  0.388433  1
  Pt  Pt18  1  0.547824  0.893636  0.796187  1
  Pt  Pt19  1  0.625783  0.195177  0.053871  1
  Pt  Pt20  1  0.351466  0.687848  0.467804  1
  Pt  Pt21  1  0.894019  0.821432  0.574883  1
  Pt  Pt22  1  0.123421  0.305038  0.908606  1
  Pt  Pt23  1  0.798594  0.555434  0.862957  1
