# generated using pymatgen
data_Hf10Zr6Ir3Pd5N4
_symmetry_space_group_name_H-M   'P 1'
_cell_length_a   8.79288246
_cell_length_b   8.79542618
_cell_length_c   8.79542700
_cell_angle_alpha   60.00000067
_cell_angle_beta   59.99043050
_cell_angle_gamma   59.99043422
_symmetry_Int_Tables_number   1
_chemical_formula_structural   Hf10Zr6Ir3Pd5N4
_chemical_formula_sum   'Hf10 Zr6 Ir3 Pd5 N4'
_cell_volume   480.91383144
_cell_formula_units_Z   1
loop_
 _symmetry_equiv_pos_site_id
 _symmetry_equiv_pos_as_xyz
  1  'x, y, z'
loop_
 _atom_site_type_symbol
 _atom_site_label
 _atom_site_symmetry_multiplicity
 _atom_site_fract_x
 _atom_site_fract_y
 _atom_site_fract_z
 _atom_site_occupancy
  Hf  Hf0  1  0.111170  0.629610  0.629610  1
  Hf  Hf1  1  0.630542  0.114838  0.627309  1
  Hf  Hf2  1  0.630542  0.627309  0.114838  1
  Hf  Hf3  1  0.630542  0.627309  0.627309  1
  Hf  Hf4  1  0.818560  0.819006  0.181217  1
  Hf  Hf5  1  0.177282  0.184301  0.819208  1
  Hf  Hf6  1  0.818560  0.181217  0.819006  1
  Hf  Hf7  1  0.177282  0.819208  0.184301  1
  Hf  Hf8  1  0.177282  0.819208  0.819208  1
  Hf  Hf9  1  0.818560  0.181217  0.181217  1
  Zr  Zr10  1  0.432988  0.432507  0.067253  1
  Zr  Zr11  1  0.065717  0.066379  0.433952  1
  Zr  Zr12  1  0.432988  0.067253  0.432507  1
  Zr  Zr13  1  0.065717  0.433952  0.066379  1
  Zr  Zr14  1  0.065717  0.433952  0.433952  1
  Zr  Zr15  1  0.432988  0.067253  0.067253  1
  Ir  Ir16  1  0.845315  0.464463  0.845111  1
  Ir  Ir17  1  0.845315  0.845111  0.464463  1
  Ir  Ir18  1  0.845315  0.845111  0.845111  1
  Pd  Pd19  1  0.760777  0.413074  0.413074  1
  Pd  Pd20  1  0.412961  0.761343  0.412848  1
  Pd  Pd21  1  0.412961  0.412848  0.761343  1
  Pd  Pd22  1  0.412961  0.412848  0.412848  1
  Pd  Pd23  1  0.473701  0.842099  0.842099  1
  N  N24  1  0.631276  0.122908  0.122908  1
  N  N25  1  0.124327  0.630229  0.122722  1
  N  N26  1  0.124327  0.122722  0.630229  1
  N  N27  1  0.124327  0.122722  0.122722  1
