# generated using pymatgen
data_Cs19Tl13(PS3)16
_symmetry_space_group_name_H-M   'P 1'
_cell_length_a   12.02069500
_cell_length_b   14.24371600
_cell_length_c   17.17680400
_cell_angle_alpha   90.00000000
_cell_angle_beta   90.00000000
_cell_angle_gamma   90.00000000
_symmetry_Int_Tables_number   1
_chemical_formula_structural   Cs19Tl13(PS3)16
_chemical_formula_sum   'Cs19 Tl13 P16 S48'
_cell_volume   2941.00148568
_cell_formula_units_Z   1
loop_
 _symmetry_equiv_pos_site_id
 _symmetry_equiv_pos_as_xyz
  1  'x, y, z'
loop_
 _atom_site_type_symbol
 _atom_site_label
 _atom_site_symmetry_multiplicity
 _atom_site_fract_x
 _atom_site_fract_y
 _atom_site_fract_z
 _atom_site_occupancy
  Cs  Cs0  1  0.614048  0.934962  0.428869  1
  Cs  Cs1  1  0.113928  0.064751  0.073015  1
  Cs  Cs2  1  0.886799  0.434908  0.576573  1
  Cs  Cs3  1  0.386991  0.565859  0.926521  1
  Cs  Cs4  1  0.387747  0.064006  0.574378  1
  Cs  Cs5  1  0.887828  0.934976  0.925436  1
  Cs  Cs6  1  0.112588  0.566420  0.427760  1
  Cs  Cs7  1  0.612996  0.434701  0.074663  1
  Cs  Cs8  1  0.666258  0.740219  0.181678  1
  Cs  Cs9  1  0.172309  0.258856  0.320998  1
  Cs  Cs10  1  0.827309  0.239340  0.820206  1
  Cs  Cs11  1  0.348504  0.755440  0.676308  1
  Cs  Cs12  1  0.366514  0.247946  0.820680  1
  Cs  Cs13  1  0.849021  0.750904  0.677592  1
  Cs  Cs14  1  0.135230  0.748120  0.176951  1
  Cs  Cs15  1  0.634114  0.251842  0.322351  1
  Cs  Cs16  1  0.409540  0.831320  0.055854  1
  Cs  Cs17  1  0.910179  0.169127  0.442819  1
  Cs  Cs18  1  0.090763  0.331108  0.940842  1
  Tl  Tl19  1  0.605366  0.650720  0.534708  1
  Tl  Tl20  1  0.601276  0.149128  0.969302  1
  Tl  Tl21  1  0.104440  0.850195  0.532754  1
  Tl  Tl22  1  0.896828  0.651665  0.031328  1
  Tl  Tl23  1  0.397203  0.350344  0.469385  1
  Tl  Tl24  1  0.558953  0.948508  0.808975  1
  Tl  Tl25  1  0.058330  0.050199  0.689813  1
  Tl  Tl26  1  0.945660  0.442619  0.187278  1
  Tl  Tl27  1  0.432198  0.549974  0.309214  1
  Tl  Tl28  1  0.434407  0.066547  0.192726  1
  Tl  Tl29  1  0.935556  0.934562  0.307883  1
  Tl  Tl30  1  0.067468  0.572462  0.806486  1
  Tl  Tl31  1  0.565464  0.446108  0.691422  1
  P  P32  1  0.289371  0.851903  0.374639  1
  P  P33  1  0.789919  0.147703  0.124864  1
  P  P34  1  0.210593  0.352722  0.623631  1
  P  P35  1  0.709474  0.647102  0.877475  1
  P  P36  1  0.707531  0.146644  0.621568  1
  P  P37  1  0.208072  0.853013  0.876598  1
  P  P38  1  0.790381  0.646805  0.380148  1
  P  P39  1  0.292184  0.354010  0.121946  1
  P  P40  1  0.753401  0.992067  0.634529  1
  P  P41  1  0.253079  0.008224  0.864754  1
  P  P42  1  0.745265  0.492679  0.366083  1
  P  P43  1  0.246268  0.508474  0.135127  1
  P  P44  1  0.245386  0.006390  0.364135  1
  P  P45  1  0.745072  0.993257  0.136084  1
  P  P46  1  0.256535  0.506949  0.635074  1
  P  P47  1  0.755476  0.493082  0.866523  1
  S  S48  1  0.612418  0.911189  0.634869  1
  S  S49  1  0.110943  0.088241  0.864215  1
  S  S50  1  0.886418  0.412869  0.366191  1
  S  S51  1  0.388480  0.588285  0.136239  1
  S  S52  1  0.387403  0.085807  0.365713  1
  S  S53  1  0.886357  0.913103  0.134670  1
  S  S54  1  0.116100  0.587929  0.632984  1
  S  S55  1  0.613593  0.413902  0.866294  1
  S  S56  1  0.360601  0.792606  0.868078  1
  S  S57  1  0.859689  0.207673  0.630876  1
  S  S58  1  0.139926  0.292727  0.131108  1
  S  S59  1  0.635760  0.706517  0.373733  1
  S  S60  1  0.634319  0.206679  0.129121  1
  S  S61  1  0.133252  0.793677  0.370650  1
  S  S62  1  0.864457  0.707151  0.871852  1
  S  S63  1  0.365816  0.293292  0.627785  1
  S  S64  1  0.387511  0.819625  0.284120  1
  S  S65  1  0.888781  0.180885  0.214688  1
  S  S66  1  0.110839  0.320468  0.712841  1
  S  S67  1  0.608561  0.677496  0.788582  1
  S  S68  1  0.602367  0.172974  0.710922  1
  S  S69  1  0.105022  0.824905  0.786357  1
  S  S70  1  0.893505  0.678554  0.291876  1
  S  S71  1  0.396920  0.327565  0.211795  1
  S  S72  1  0.662139  0.981532  0.238888  1
  S  S73  1  0.162734  0.019160  0.261304  1
  S  S74  1  0.839463  0.481650  0.764324  1
  S  S75  1  0.336040  0.516720  0.739385  1
  S  S76  1  0.331272  0.016482  0.759453  1
  S  S77  1  0.830647  0.984952  0.740412  1
  S  S78  1  0.168487  0.515824  0.241058  1
  S  S79  1  0.665534  0.485342  0.261781  1
  S  S80  1  0.357753  0.835090  0.481835  1
  S  S81  1  0.857610  0.163140  0.016945  1
  S  S82  1  0.142796  0.338299  0.515323  1
  S  S83  1  0.643438  0.663580  0.986191  1
  S  S84  1  0.636939  0.164234  0.514918  1
  S  S85  1  0.137267  0.836040  0.983386  1
  S  S86  1  0.857002  0.662554  0.488032  1
  S  S87  1  0.362827  0.336764  0.015663  1
  S  S88  1  0.646421  0.962999  0.042903  1
  S  S89  1  0.146753  0.036867  0.457194  1
  S  S90  1  0.853965  0.463166  0.960032  1
  S  S91  1  0.358748  0.537650  0.543524  1
  S  S92  1  0.354922  0.042631  0.954738  1
  S  S93  1  0.857046  0.958294  0.545435  1
  S  S94  1  0.143704  0.542635  0.046053  1
  S  S95  1  0.643634  0.461417  0.457714  1
