# generated using pymatgen
data_Dy(Y2Os)2
_symmetry_space_group_name_H-M   'P 1'
_cell_length_a   8.47533758
_cell_length_b   8.47533846
_cell_length_c   7.36075310
_cell_angle_alpha   83.20933086
_cell_angle_beta   83.20933125
_cell_angle_gamma   44.41962430
_symmetry_Int_Tables_number   1
_chemical_formula_structural   Dy(Y2Os)2
_chemical_formula_sum   'Dy2 Y8 Os4'
_cell_volume   367.03372645
_cell_formula_units_Z   2
loop_
 _symmetry_equiv_pos_site_id
 _symmetry_equiv_pos_as_xyz
  1  'x, y, z'
loop_
 _atom_site_type_symbol
 _atom_site_label
 _atom_site_symmetry_multiplicity
 _atom_site_fract_x
 _atom_site_fract_y
 _atom_site_fract_z
 _atom_site_occupancy
  Dy  Dy0  1  0.576079  0.423921  0.750000  1
  Dy  Dy1  1  0.423921  0.576079  0.250000  1
  Y  Y2  1  0.206472  0.976790  0.584159  1
  Y  Y3  1  0.023210  0.793528  0.915841  1
  Y  Y4  1  0.204249  0.360027  0.316149  1
  Y  Y5  1  0.639973  0.795751  0.183851  1
  Y  Y6  1  0.795751  0.639973  0.683851  1
  Y  Y7  1  0.360027  0.204249  0.816149  1
  Y  Y8  1  0.976790  0.206472  0.084159  1
  Y  Y9  1  0.793528  0.023210  0.415841  1
  Os  Os10  1  0.177511  0.603124  0.576450  1
  Os  Os11  1  0.396876  0.822489  0.923550  1
  Os  Os12  1  0.822489  0.396876  0.423550  1
  Os  Os13  1  0.603124  0.177511  0.076450  1
