# generated using pymatgen
data_Nb5Tc4(MoI8)3
_symmetry_space_group_name_H-M   'P 1'
_cell_length_a   10.91035540
_cell_length_b   10.91035626
_cell_length_c   12.86893100
_cell_angle_alpha   89.81414370
_cell_angle_beta   89.81413843
_cell_angle_gamma   108.01584784
_symmetry_Int_Tables_number   1
_chemical_formula_structural   Nb5Tc4(MoI8)3
_chemical_formula_sum   'Nb5 Tc4 Mo3 I24'
_cell_volume   1456.73636645
_cell_formula_units_Z   1
loop_
 _symmetry_equiv_pos_site_id
 _symmetry_equiv_pos_as_xyz
  1  'x, y, z'
loop_
 _atom_site_type_symbol
 _atom_site_label
 _atom_site_symmetry_multiplicity
 _atom_site_fract_x
 _atom_site_fract_y
 _atom_site_fract_z
 _atom_site_occupancy
  Nb  Nb0  1  0.434028  0.434028  0.367696  1
  Nb  Nb1  1  0.567376  0.567376  0.633199  1
  Nb  Nb2  1  0.065908  0.065908  0.865370  1
  Nb  Nb3  1  0.929147  0.929147  0.132261  1
  Nb  Nb4  1  0.139498  0.139498  0.069283  1
  Tc  Tc5  1  0.888171  0.109132  0.999316  1
  Tc  Tc6  1  0.109132  0.888171  0.999316  1
  Tc  Tc7  1  0.611214  0.389369  0.500502  1
  Tc  Tc8  1  0.389369  0.611214  0.500502  1
  Mo  Mo9  1  0.865911  0.865911  0.932665  1
  Mo  Mo10  1  0.366812  0.366812  0.567394  1
  Mo  Mo11  1  0.633899  0.633899  0.433531  1
  I  I12  1  0.731410  0.272535  0.001154  1
  I  I13  1  0.272535  0.731410  0.001154  1
  I  I14  1  0.770447  0.229244  0.500719  1
  I  I15  1  0.229244  0.770447  0.500719  1
  I  I16  1  0.950049  0.183654  0.203856  1
  I  I17  1  0.043732  0.812566  0.797382  1
  I  I18  1  0.544285  0.313109  0.702507  1
  I  I19  1  0.688314  0.456460  0.298732  1
  I  I20  1  0.456460  0.688314  0.298732  1
  I  I21  1  0.313109  0.544285  0.702507  1
  I  I22  1  0.812566  0.043732  0.797382  1
  I  I23  1  0.183654  0.950049  0.203856  1
  I  I24  1  0.351431  0.351431  0.153236  1
  I  I25  1  0.655353  0.655353  0.846728  1
  I  I26  1  0.156148  0.156148  0.652583  1
  I  I27  1  0.843482  0.843482  0.346851  1
  I  I28  1  0.909697  0.677417  0.062852  1
  I  I29  1  0.086935  0.322039  0.932240  1
  I  I30  1  0.588350  0.820952  0.563557  1
  I  I31  1  0.179979  0.411942  0.436785  1
  I  I32  1  0.411942  0.179979  0.436785  1
  I  I33  1  0.820952  0.588350  0.563557  1
  I  I34  1  0.322039  0.086935  0.932240  1
  I  I35  1  0.677417  0.909697  0.062852  1
