# generated using pymatgen
data_Er9Lu(Bi2Ru)2
_symmetry_space_group_name_H-M   'P 1'
_cell_length_a   7.90034042
_cell_length_b   8.96960175
_cell_length_c   12.41452135
_cell_angle_alpha   89.94812454
_cell_angle_beta   90.04777294
_cell_angle_gamma   89.95065521
_symmetry_Int_Tables_number   1
_chemical_formula_structural   Er9Lu(Bi2Ru)2
_chemical_formula_sum   'Er18 Lu2 Bi8 Ru4'
_cell_volume   879.72808210
_cell_formula_units_Z   2
loop_
 _symmetry_equiv_pos_site_id
 _symmetry_equiv_pos_as_xyz
  1  'x, y, z'
loop_
 _atom_site_type_symbol
 _atom_site_label
 _atom_site_symmetry_multiplicity
 _atom_site_fract_x
 _atom_site_fract_y
 _atom_site_fract_z
 _atom_site_occupancy
  Er  Er0  1  0.661363  0.749801  0.708099  1
  Er  Er1  1  0.338637  0.250199  0.291901  1
  Er  Er2  1  0.160865  0.250286  0.792417  1
  Er  Er3  1  0.839135  0.749714  0.207583  1
  Er  Er4  1  0.127216  0.749364  0.812754  1
  Er  Er5  1  0.872784  0.250636  0.187246  1
  Er  Er6  1  0.627607  0.250205  0.687955  1
  Er  Er7  1  0.372393  0.749795  0.312045  1
  Er  Er8  1  0.555259  0.749168  0.995141  1
  Er  Er9  1  0.444741  0.250832  0.004859  1
  Er  Er10  1  0.055158  0.250049  0.504700  1
  Er  Er11  1  0.944842  0.749951  0.495300  1
  Er  Er12  1  0.327136  0.541762  0.566238  1
  Er  Er13  1  0.172967  0.958237  0.066202  1
  Er  Er14  1  0.672864  0.458238  0.433762  1
  Er  Er15  1  0.827033  0.041763  0.933798  1
  Er  Er16  1  0.672896  0.041731  0.433828  1
  Er  Er17  1  0.327104  0.958269  0.566172  1
  Lu  Lu18  1  0.829478  0.458280  0.934134  1
  Lu  Lu19  1  0.170522  0.541720  0.065866  1
  Bi  Bi20  1  0.936249  0.005267  0.672851  1
  Bi  Bi21  1  0.063751  0.994733  0.327149  1
  Bi  Bi22  1  0.436074  0.994647  0.827342  1
  Bi  Bi23  1  0.063957  0.505301  0.327055  1
  Bi  Bi24  1  0.563926  0.005353  0.172658  1
  Bi  Bi25  1  0.936043  0.494699  0.672945  1
  Bi  Bi26  1  0.563098  0.494781  0.172526  1
  Bi  Bi27  1  0.436902  0.505219  0.827474  1
  Ru  Ru28  1  0.927704  0.748756  0.991363  1
  Ru  Ru29  1  0.072296  0.251244  0.008637  1
  Ru  Ru30  1  0.427029  0.249950  0.508811  1
  Ru  Ru31  1  0.572971  0.750050  0.491189  1
