# generated using pymatgen
data_Be8V2FeW
_symmetry_space_group_name_H-M   'P 1'
_cell_length_a   4.31143400
_cell_length_b   4.31143504
_cell_length_c   7.06506400
_cell_angle_alpha   90.00000000
_cell_angle_beta   90.00000000
_cell_angle_gamma   120.00000733
_symmetry_Int_Tables_number   1
_chemical_formula_structural   Be8V2FeW
_chemical_formula_sum   'Be8 V2 Fe1 W1'
_cell_volume   113.73399378
_cell_formula_units_Z   1
loop_
 _symmetry_equiv_pos_site_id
 _symmetry_equiv_pos_as_xyz
  1  'x, y, z'
loop_
 _atom_site_type_symbol
 _atom_site_label
 _atom_site_symmetry_multiplicity
 _atom_site_fract_x
 _atom_site_fract_y
 _atom_site_fract_z
 _atom_site_occupancy
  Be  Be0  1  0.000000  0.000000  0.003198  1
  Be  Be1  1  0.000000  0.000000  0.495828  1
  Be  Be2  1  0.830600  0.661199  0.245553  1
  Be  Be3  1  0.169662  0.830338  0.754601  1
  Be  Be4  1  0.660675  0.830338  0.754601  1
  Be  Be5  1  0.338801  0.169400  0.245553  1
  Be  Be6  1  0.830600  0.169400  0.245553  1
  Be  Be7  1  0.169662  0.339325  0.754601  1
  V  V8  1  0.666667  0.333333  0.941215  1
  V  V9  1  0.333333  0.666667  0.428615  1
  Fe  Fe10  1  0.333333  0.666667  0.066682  1
  W  W11  1  0.666667  0.333333  0.564003  1
