# generated using pymatgen
data_Ho2Ta(NbSi2)2
_symmetry_space_group_name_H-M   'P 1'
_cell_length_a   7.03898700
_cell_length_b   7.03898700
_cell_length_c   13.02014700
_cell_angle_alpha   90.00000000
_cell_angle_beta   90.00000000
_cell_angle_gamma   90.00000000
_symmetry_Int_Tables_number   1
_chemical_formula_structural   Ho2Ta(NbSi2)2
_chemical_formula_sum   'Ho8 Ta4 Nb8 Si16'
_cell_volume   645.11362404
_cell_formula_units_Z   4
loop_
 _symmetry_equiv_pos_site_id
 _symmetry_equiv_pos_as_xyz
  1  'x, y, z'
loop_
 _atom_site_type_symbol
 _atom_site_label
 _atom_site_symmetry_multiplicity
 _atom_site_fract_x
 _atom_site_fract_y
 _atom_site_fract_z
 _atom_site_occupancy
  Ho  Ho0  1  0.342724  0.003206  0.467165  1
  Ho  Ho1  1  0.496794  0.842724  0.717165  1
  Ho  Ho2  1  0.503206  0.157276  0.217165  1
  Ho  Ho3  1  0.842724  0.496794  0.282835  1
  Ho  Ho4  1  0.157276  0.503206  0.782835  1
  Ho  Ho5  1  0.657276  0.996794  0.967165  1
  Ho  Ho6  1  0.003206  0.342724  0.532835  1
  Ho  Ho7  1  0.996794  0.657276  0.032835  1
  Ta  Ta8  1  0.327345  0.327345  0.000000  1
  Ta  Ta9  1  0.172655  0.827345  0.250000  1
  Ta  Ta10  1  0.827345  0.172655  0.750000  1
  Ta  Ta11  1  0.672655  0.672655  0.500000  1
  Nb  Nb12  1  0.152812  0.006877  0.874230  1
  Nb  Nb13  1  0.493123  0.652812  0.124230  1
  Nb  Nb14  1  0.506877  0.347188  0.624230  1
  Nb  Nb15  1  0.652812  0.493123  0.875770  1
  Nb  Nb16  1  0.347188  0.506877  0.375770  1
  Nb  Nb17  1  0.847188  0.993123  0.374230  1
  Nb  Nb18  1  0.006877  0.152812  0.125770  1
  Nb  Nb19  1  0.993123  0.847188  0.625770  1
  Si  Si20  1  0.202473  0.134828  0.683144  1
  Si  Si21  1  0.365172  0.702473  0.933144  1
  Si  Si22  1  0.634828  0.297527  0.433144  1
  Si  Si23  1  0.702473  0.365172  0.066856  1
  Si  Si24  1  0.297527  0.634828  0.566856  1
  Si  Si25  1  0.797527  0.865172  0.183144  1
  Si  Si26  1  0.134828  0.202473  0.316856  1
  Si  Si27  1  0.865172  0.797527  0.816856  1
  Si  Si28  1  0.293534  0.953510  0.063846  1
  Si  Si29  1  0.546490  0.793534  0.313846  1
  Si  Si30  1  0.453510  0.206466  0.813846  1
  Si  Si31  1  0.793534  0.546490  0.686154  1
  Si  Si32  1  0.206466  0.453510  0.186154  1
  Si  Si33  1  0.706466  0.046490  0.563846  1
  Si  Si34  1  0.953510  0.293534  0.936154  1
  Si  Si35  1  0.046490  0.706466  0.436154  1
