# generated using pymatgen
data_HoEr7Sc12Si15Rh
_symmetry_space_group_name_H-M   'P 1'
_cell_length_a   7.08472909
_cell_length_b   7.34968662
_cell_length_c   13.95651200
_cell_angle_alpha   89.89446987
_cell_angle_beta   89.80724069
_cell_angle_gamma   90.21131246
_symmetry_Int_Tables_number   1
_chemical_formula_structural   HoEr7Sc12Si15Rh
_chemical_formula_sum   'Ho1 Er7 Sc12 Si15 Rh1'
_cell_volume   726.71279282
_cell_formula_units_Z   1
loop_
 _symmetry_equiv_pos_site_id
 _symmetry_equiv_pos_as_xyz
  1  'x, y, z'
loop_
 _atom_site_type_symbol
 _atom_site_label
 _atom_site_symmetry_multiplicity
 _atom_site_fract_x
 _atom_site_fract_y
 _atom_site_fract_z
 _atom_site_occupancy
  Ho  Ho0  1  0.013069  0.175805  0.096814  1
  Er  Er1  1  0.987945  0.824012  0.903097  1
  Er  Er2  1  0.486820  0.677363  0.903027  1
  Er  Er3  1  0.988754  0.822127  0.596312  1
  Er  Er4  1  0.512776  0.323581  0.096246  1
  Er  Er5  1  0.011521  0.180280  0.403490  1
  Er  Er6  1  0.508708  0.323479  0.402956  1
  Er  Er7  1  0.485481  0.671403  0.597804  1
  Sc  Sc8  1  0.162812  0.504020  0.744992  1
  Sc  Sc9  1  0.838473  0.496621  0.251989  1
  Sc  Sc10  1  0.339128  0.999699  0.250359  1
  Sc  Sc11  1  0.662771  0.996576  0.749366  1
  Sc  Sc12  1  0.330863  0.187591  0.621177  1
  Sc  Sc13  1  0.668068  0.823458  0.373691  1
  Sc  Sc14  1  0.170757  0.664115  0.378464  1
  Sc  Sc15  1  0.671937  0.824076  0.126579  1
  Sc  Sc16  1  0.833790  0.326889  0.623256  1
  Sc  Sc17  1  0.328357  0.177070  0.875616  1
  Sc  Sc18  1  0.831390  0.322166  0.875469  1
  Sc  Sc19  1  0.170388  0.676627  0.125181  1
  Si  Si20  1  0.033737  0.113765  0.749702  1
  Si  Si21  1  0.970465  0.883877  0.251615  1
  Si  Si22  1  0.467432  0.613080  0.248419  1
  Si  Si23  1  0.536915  0.385795  0.752940  1
  Si  Si24  1  0.286038  0.876255  0.750356  1
  Si  Si25  1  0.714457  0.129530  0.249390  1
  Si  Si26  1  0.215862  0.368588  0.247871  1
  Si  Si27  1  0.783752  0.628619  0.752736  1
  Si  Si28  1  0.834614  0.536378  0.460482  1
  Si  Si29  1  0.342821  0.963399  0.460834  1
  Si  Si30  1  0.843235  0.535900  0.038777  1
  Si  Si31  1  0.655910  0.033691  0.538649  1
  Si  Si32  1  0.156638  0.465892  0.961024  1
  Si  Si33  1  0.658173  0.034259  0.961836  1
  Si  Si34  1  0.344151  0.964716  0.039079  1
  Rh  Rh35  1  0.151994  0.469300  0.540404  1
