# generated using pymatgen
data_Ho8Hf12Si15Pb
_symmetry_space_group_name_H-M   'P 1'
_cell_length_a   7.33407528
_cell_length_b   7.29900836
_cell_length_c   13.40685447
_cell_angle_alpha   90.03336417
_cell_angle_beta   89.69770175
_cell_angle_gamma   89.80830649
_symmetry_Int_Tables_number   1
_chemical_formula_structural   Ho8Hf12Si15Pb
_chemical_formula_sum   'Ho8 Hf12 Si15 Pb1'
_cell_volume   717.67458336
_cell_formula_units_Z   1
loop_
 _symmetry_equiv_pos_site_id
 _symmetry_equiv_pos_as_xyz
  1  'x, y, z'
loop_
 _atom_site_type_symbol
 _atom_site_label
 _atom_site_symmetry_multiplicity
 _atom_site_fract_x
 _atom_site_fract_y
 _atom_site_fract_z
 _atom_site_occupancy
  Ho  Ho0  1  0.347451  0.000349  0.459291  1
  Ho  Ho1  1  0.504419  0.837187  0.717482  1
  Ho  Ho2  1  0.503565  0.155488  0.215391  1
  Ho  Ho3  1  0.844277  0.495509  0.283102  1
  Ho  Ho4  1  0.154503  0.512541  0.788402  1
  Ho  Ho5  1  0.658680  0.993876  0.968269  1
  Ho  Ho6  1  0.991053  0.354029  0.527647  1
  Ho  Ho7  1  0.996972  0.654739  0.035884  1
  Hf  Hf8  1  0.325357  0.325138  0.001172  1
  Hf  Hf9  1  0.175110  0.824462  0.249401  1
  Hf  Hf10  1  0.816143  0.173549  0.752696  1
  Hf  Hf11  1  0.672470  0.674682  0.498620  1
  Hf  Hf12  1  0.148820  0.003675  0.882182  1
  Hf  Hf13  1  0.497076  0.646715  0.125576  1
  Hf  Hf14  1  0.513846  0.360298  0.626610  1
  Hf  Hf15  1  0.651167  0.497608  0.877315  1
  Hf  Hf16  1  0.350642  0.506338  0.372993  1
  Hf  Hf17  1  0.849406  0.997194  0.374759  1
  Hf  Hf18  1  0.005442  0.147960  0.124493  1
  Hf  Hf19  1  0.982524  0.837880  0.619773  1
  Si  Si20  1  0.363175  0.704938  0.934219  1
  Si  Si21  1  0.634799  0.295541  0.431019  1
  Si  Si22  1  0.706497  0.360601  0.069210  1
  Si  Si23  1  0.295566  0.639901  0.566831  1
  Si  Si24  1  0.794954  0.861786  0.182137  1
  Si  Si25  1  0.137071  0.204912  0.317046  1
  Si  Si26  1  0.863462  0.796851  0.818497  1
  Si  Si27  1  0.298182  0.950857  0.066497  1
  Si  Si28  1  0.550966  0.794532  0.312897  1
  Si  Si29  1  0.460346  0.204306  0.821229  1
  Si  Si30  1  0.798699  0.546464  0.687846  1
  Si  Si31  1  0.204750  0.450762  0.185344  1
  Si  Si32  1  0.701169  0.050054  0.564300  1
  Si  Si33  1  0.951863  0.296353  0.935768  1
  Si  Si34  1  0.048383  0.706695  0.432312  1
  Pb  Pb35  1  0.201194  0.136228  0.673790  1
