# generated using pymatgen
data_Ho6Al24Pd3Ru5
_symmetry_space_group_name_H-M   'P 1'
_cell_length_a   8.81168980
_cell_length_b   8.83229510
_cell_length_c   9.53793308
_cell_angle_alpha   90.05488910
_cell_angle_beta   89.80219891
_cell_angle_gamma   119.54833748
_symmetry_Int_Tables_number   1
_chemical_formula_structural   Ho6Al24Pd3Ru5
_chemical_formula_sum   'Ho6 Al24 Pd3 Ru5'
_cell_volume   645.76361605
_cell_formula_units_Z   1
loop_
 _symmetry_equiv_pos_site_id
 _symmetry_equiv_pos_as_xyz
  1  'x, y, z'
loop_
 _atom_site_type_symbol
 _atom_site_label
 _atom_site_symmetry_multiplicity
 _atom_site_fract_x
 _atom_site_fract_y
 _atom_site_fract_z
 _atom_site_occupancy
  Ho  Ho0  1  0.189455  0.384699  0.250498  1
  Ho  Ho1  1  0.810545  0.615301  0.749502  1
  Ho  Ho2  1  0.613342  0.811803  0.252167  1
  Ho  Ho3  1  0.386658  0.188197  0.747833  1
  Ho  Ho4  1  0.193080  0.808230  0.251036  1
  Ho  Ho5  1  0.806920  0.191770  0.748964  1
  Al  Al6  1  0.335545  0.672220  0.027434  1
  Al  Al7  1  0.664455  0.327780  0.972566  1
  Al  Al8  1  0.669698  0.330712  0.527359  1
  Al  Al9  1  0.330302  0.669288  0.472641  1
  Al  Al10  1  0.157583  0.324744  0.575457  1
  Al  Al11  1  0.842417  0.675256  0.424543  1
  Al  Al12  1  0.674414  0.841688  0.576567  1
  Al  Al13  1  0.837282  0.677074  0.078946  1
  Al  Al14  1  0.325586  0.158312  0.423433  1
  Al  Al15  1  0.162718  0.322926  0.921054  1
  Al  Al16  1  0.163280  0.836056  0.577597  1
  Al  Al17  1  0.324332  0.157796  0.077454  1
  Al  Al18  1  0.836720  0.163944  0.422403  1
  Al  Al19  1  0.675668  0.842204  0.922546  1
  Al  Al20  1  0.831792  0.157821  0.079625  1
  Al  Al21  1  0.168208  0.842179  0.920375  1
  Al  Al22  1  0.560207  0.123114  0.249989  1
  Al  Al23  1  0.439793  0.876886  0.750011  1
  Al  Al24  1  0.875081  0.438161  0.253197  1
  Al  Al25  1  0.124919  0.561839  0.746803  1
  Al  Al26  1  0.562894  0.436377  0.249795  1
  Al  Al27  1  0.437106  0.563623  0.750205  1
  Al  Al28  1  0.998870  0.002711  0.250262  1
  Al  Al29  1  0.001130  0.997289  0.749738  1
  Pd  Pd30  1  0.000000  0.500000  0.000000  1
  Pd  Pd31  1  0.500000  0.500000  0.000000  1
  Pd  Pd32  1  0.500000  0.500000  0.500000  1
  Ru  Ru33  1  0.500000  0.000000  0.000000  1
  Ru  Ru34  1  0.500000  0.000000  0.500000  1
  Ru  Ru35  1  0.000000  0.500000  0.500000  1
  Ru  Ru36  1  0.000000  0.000000  0.000000  1
  Ru  Ru37  1  0.000000  0.000000  0.500000  1
