# generated using pymatgen
data_Zr3Sc2(TlSe5)2
_symmetry_space_group_name_H-M   'P 1'
_cell_length_a   6.65703394
_cell_length_b   11.31382672
_cell_length_c   9.08678600
_cell_angle_alpha   58.96207154
_cell_angle_beta   68.52755552
_cell_angle_gamma   89.97246480
_symmetry_Int_Tables_number   1
_chemical_formula_structural   Zr3Sc2(TlSe5)2
_chemical_formula_sum   'Zr3 Sc2 Tl2 Se10'
_cell_volume   530.27130718
_cell_formula_units_Z   1
loop_
 _symmetry_equiv_pos_site_id
 _symmetry_equiv_pos_as_xyz
  1  'x, y, z'
loop_
 _atom_site_type_symbol
 _atom_site_label
 _atom_site_symmetry_multiplicity
 _atom_site_fract_x
 _atom_site_fract_y
 _atom_site_fract_z
 _atom_site_occupancy
  Zr  Zr0  1  0.395990  0.792971  0.206579  1
  Zr  Zr1  1  0.604499  0.207144  0.796842  1
  Zr  Zr2  1  0.998567  0.000056  0.999315  1
  Sc  Sc3  1  0.800281  0.598273  0.402192  1
  Sc  Sc4  1  0.200563  0.401223  0.595078  1
  Tl  Tl5  1  0.788297  0.077220  0.423884  1
  Tl  Tl6  1  0.012233  0.523634  0.975874  1
  Se  Se7  1  0.991726  0.837784  0.351356  1
  Se  Se8  1  0.589926  0.037312  0.153099  1
  Se  Se9  1  0.188795  0.237316  0.953813  1
  Se  Se10  1  0.788446  0.436961  0.753748  1
  Se  Se11  1  0.391464  0.638276  0.549784  1
  Se  Se12  1  0.407227  0.962976  0.850062  1
  Se  Se13  1  0.008091  0.160453  0.648951  1
  Se  Se14  1  0.611872  0.359255  0.449248  1
  Se  Se15  1  0.212949  0.564064  0.244630  1
  Se  Se16  1  0.809076  0.765083  0.045545  1
