# generated using pymatgen
data_ScTa2(BOs)3
_symmetry_space_group_name_H-M   'P 1'
_cell_length_a   3.14426500
_cell_length_b   9.08067800
_cell_length_c   15.87704100
_cell_angle_alpha   90.00000000
_cell_angle_beta   90.00000000
_cell_angle_gamma   90.00000000
_symmetry_Int_Tables_number   1
_chemical_formula_structural   ScTa2(BOs)3
_chemical_formula_sum   'Sc4 Ta8 B12 Os12'
_cell_volume   453.32219569
_cell_formula_units_Z   4
loop_
 _symmetry_equiv_pos_site_id
 _symmetry_equiv_pos_as_xyz
  1  'x, y, z'
loop_
 _atom_site_type_symbol
 _atom_site_label
 _atom_site_symmetry_multiplicity
 _atom_site_fract_x
 _atom_site_fract_y
 _atom_site_fract_z
 _atom_site_occupancy
  Sc  Sc0  1  0.000000  0.679036  0.209339  1
  Sc  Sc1  1  0.000000  0.320964  0.790661  1
  Sc  Sc2  1  0.000000  0.179036  0.290661  1
  Sc  Sc3  1  0.000000  0.820964  0.709339  1
  Ta  Ta4  1  0.000000  0.803766  0.494852  1
  Ta  Ta5  1  0.000000  0.196234  0.505148  1
  Ta  Ta6  1  0.000000  0.303766  0.005148  1
  Ta  Ta7  1  0.000000  0.696234  0.994852  1
  Ta  Ta8  1  0.000000  0.515603  0.595078  1
  Ta  Ta9  1  0.000000  0.484397  0.404922  1
  Ta  Ta10  1  0.000000  0.015603  0.904922  1
  Ta  Ta11  1  0.000000  0.984397  0.095078  1
  B  B12  1  0.500000  0.604865  0.496118  1
  B  B13  1  0.500000  0.395135  0.503882  1
  B  B14  1  0.500000  0.104865  0.003882  1
  B  B15  1  0.500000  0.895135  0.996118  1
  B  B16  1  0.000000  0.607931  0.830621  1
  B  B17  1  0.000000  0.392069  0.169379  1
  B  B18  1  0.000000  0.107931  0.669379  1
  B  B19  1  0.000000  0.892069  0.330621  1
  B  B20  1  0.500000  0.716671  0.599141  1
  B  B21  1  0.500000  0.283329  0.400859  1
  B  B22  1  0.500000  0.216671  0.900859  1
  B  B23  1  0.500000  0.783329  0.099141  1
  Os  Os24  1  0.500000  0.720289  0.360926  1
  Os  Os25  1  0.500000  0.279711  0.639074  1
  Os  Os26  1  0.500000  0.220289  0.139074  1
  Os  Os27  1  0.500000  0.779711  0.860926  1
  Os  Os28  1  0.500000  0.515067  0.093754  1
  Os  Os29  1  0.500000  0.484933  0.906246  1
  Os  Os30  1  0.500000  0.015067  0.406246  1
  Os  Os31  1  0.500000  0.984933  0.593754  1
  Os  Os32  1  0.500000  0.567489  0.732690  1
  Os  Os33  1  0.500000  0.432511  0.267310  1
  Os  Os34  1  0.500000  0.067489  0.767310  1
  Os  Os35  1  0.500000  0.932511  0.232690  1
