# generated using pymatgen
data_Zr4Mn2Pt7Rh3
_symmetry_space_group_name_H-M   'P 1'
_cell_length_a   5.68413200
_cell_length_b   5.68413055
_cell_length_c   8.12636000
_cell_angle_alpha   90.00081525
_cell_angle_beta   90.00081685
_cell_angle_gamma   91.75330021
_symmetry_Int_Tables_number   1
_chemical_formula_structural   Zr4Mn2Pt7Rh3
_chemical_formula_sum   'Zr4 Mn2 Pt7 Rh3'
_cell_volume   262.43447461
_cell_formula_units_Z   1
loop_
 _symmetry_equiv_pos_site_id
 _symmetry_equiv_pos_as_xyz
  1  'x, y, z'
loop_
 _atom_site_type_symbol
 _atom_site_label
 _atom_site_symmetry_multiplicity
 _atom_site_fract_x
 _atom_site_fract_y
 _atom_site_fract_z
 _atom_site_occupancy
  Zr  Zr0  1  0.773120  0.228281  0.500024  1
  Zr  Zr1  1  0.227655  0.772410  0.999986  1
  Zr  Zr2  1  0.228281  0.773120  0.500024  1
  Zr  Zr3  1  0.772410  0.227655  0.999986  1
  Mn  Mn4  1  0.499962  0.499962  0.749079  1
  Mn  Mn5  1  0.497504  0.497504  0.251022  1
  Pt  Pt6  1  0.729103  0.729103  0.000456  1
  Pt  Pt7  1  0.728809  0.728809  0.499538  1
  Pt  Pt8  1  0.270804  0.270804  0.999568  1
  Pt  Pt9  1  0.500047  0.001597  0.749787  1
  Pt  Pt10  1  0.500154  0.001133  0.250206  1
  Pt  Pt11  1  0.001597  0.500047  0.749787  1
  Pt  Pt12  1  0.001133  0.500154  0.250206  1
  Rh  Rh13  1  0.268095  0.268095  0.500339  1
  Rh  Rh14  1  0.000757  0.000757  0.249307  1
  Rh  Rh15  1  0.000569  0.000569  0.750688  1
