# generated using pymatgen
data_TbLu3Mg2(ZnPt2)2
_symmetry_space_group_name_H-M   'P 1'
_cell_length_a   4.17612500
_cell_length_b   6.88042185
_cell_length_c   8.34484208
_cell_angle_alpha   89.32475373
_cell_angle_beta   90.00000000
_cell_angle_gamma   90.00000000
_symmetry_Int_Tables_number   1
_chemical_formula_structural   TbLu3Mg2(ZnPt2)2
_chemical_formula_sum   'Tb1 Lu3 Mg2 Zn2 Pt4'
_cell_volume   239.75988257
_cell_formula_units_Z   1
loop_
 _symmetry_equiv_pos_site_id
 _symmetry_equiv_pos_as_xyz
  1  'x, y, z'
loop_
 _atom_site_type_symbol
 _atom_site_label
 _atom_site_symmetry_multiplicity
 _atom_site_fract_x
 _atom_site_fract_y
 _atom_site_fract_z
 _atom_site_occupancy
  Tb  Tb0  1  0.250000  0.549046  0.174172  1
  Lu  Lu1  1  0.750000  0.455426  0.820369  1
  Lu  Lu2  1  0.750000  0.958322  0.679019  1
  Lu  Lu3  1  0.250000  0.052051  0.328909  1
  Mg  Mg4  1  0.250000  0.628586  0.554855  1
  Mg  Mg5  1  0.250000  0.124946  0.946024  1
  Zn  Zn6  1  0.750000  0.365551  0.440797  1
  Zn  Zn7  1  0.750000  0.866185  0.057737  1
  Pt  Pt8  1  0.250000  0.743154  0.864693  1
  Pt  Pt9  1  0.750000  0.249716  0.129840  1
  Pt  Pt10  1  0.750000  0.762791  0.372726  1
  Pt  Pt11  1  0.250000  0.244225  0.630859  1
