# generated using pymatgen
data_TbGd3Be4(GeO7)2
_symmetry_space_group_name_H-M   'P 1'
_cell_length_a   7.50611389
_cell_length_b   7.50611389
_cell_length_c   4.86162609
_cell_angle_alpha   89.90833789
_cell_angle_beta   89.90833789
_cell_angle_gamma   90.04051073
_symmetry_Int_Tables_number   1
_chemical_formula_structural   TbGd3Be4(GeO7)2
_chemical_formula_sum   'Tb1 Gd3 Be4 Ge2 O14'
_cell_volume   273.91173091
_cell_formula_units_Z   1
loop_
 _symmetry_equiv_pos_site_id
 _symmetry_equiv_pos_as_xyz
  1  'x, y, z'
loop_
 _atom_site_type_symbol
 _atom_site_label
 _atom_site_symmetry_multiplicity
 _atom_site_fract_x
 _atom_site_fract_y
 _atom_site_fract_z
 _atom_site_occupancy
  Tb  Tb0  1  0.340976  0.840976  0.504636  1
  Gd  Gd1  1  0.658270  0.158270  0.504884  1
  Gd  Gd2  1  0.840980  0.659039  0.495559  1
  Gd  Gd3  1  0.159039  0.340980  0.495559  1
  Be  Be4  1  0.135656  0.635656  0.954273  1
  Be  Be5  1  0.865732  0.365733  0.955098  1
  Be  Be6  1  0.633245  0.865349  0.045449  1
  Be  Be7  1  0.365350  0.133245  0.045449  1
  Ge  Ge8  1  0.000828  0.999652  0.999723  1
  Ge  Ge9  1  0.499652  0.500828  0.999723  1
  O  O10  1  0.082374  0.828557  0.785623  1
  O  O11  1  0.919750  0.172673  0.788074  1
  O  O12  1  0.579101  0.672477  0.214496  1
  O  O13  1  0.418833  0.327040  0.210271  1
  O  O14  1  0.328557  0.582374  0.785623  1
  O  O15  1  0.672673  0.419750  0.788074  1
  O  O16  1  0.172477  0.079101  0.214496  1
  O  O17  1  0.827040  0.918833  0.210271  1
  O  O18  1  0.143977  0.643977  0.281122  1
  O  O19  1  0.858345  0.358344  0.282269  1
  O  O20  1  0.639864  0.857518  0.718204  1
  O  O21  1  0.357517  0.139864  0.718204  1
  O  O22  1  0.000691  0.500691  0.819135  1
  O  O23  1  0.499078  0.999078  0.183787  1
