# generated using pymatgen
data_Gd13Tm3(HgRh)4
_symmetry_space_group_name_H-M   'P 1'
_cell_length_a   9.56285451
_cell_length_b   9.56285609
_cell_length_c   9.57493000
_cell_angle_alpha   60.04170936
_cell_angle_beta   60.04170391
_cell_angle_gamma   60.00000016
_symmetry_Int_Tables_number   1
_chemical_formula_structural   Gd13Tm3(HgRh)4
_chemical_formula_sum   'Gd13 Tm3 Hg4 Rh4'
_cell_volume   619.53988153
_cell_formula_units_Z   1
loop_
 _symmetry_equiv_pos_site_id
 _symmetry_equiv_pos_as_xyz
  1  'x, y, z'
loop_
 _atom_site_type_symbol
 _atom_site_label
 _atom_site_symmetry_multiplicity
 _atom_site_fract_x
 _atom_site_fract_y
 _atom_site_fract_z
 _atom_site_occupancy
  Gd  Gd0  1  0.936481  0.936481  0.561877  1
  Gd  Gd1  1  0.148526  0.148526  0.554421  1
  Gd  Gd2  1  0.565161  0.936481  0.561877  1
  Gd  Gd3  1  0.147158  0.147158  0.149366  1
  Gd  Gd4  1  0.311411  0.311411  0.687589  1
  Gd  Gd5  1  0.936481  0.565161  0.561877  1
  Gd  Gd6  1  0.563116  0.563116  0.938201  1
  Gd  Gd7  1  0.563116  0.935567  0.938201  1
  Gd  Gd8  1  0.935567  0.563116  0.938201  1
  Gd  Gd9  1  0.147158  0.556318  0.149366  1
  Gd  Gd10  1  0.311411  0.689590  0.687589  1
  Gd  Gd11  1  0.689590  0.311411  0.687589  1
  Gd  Gd12  1  0.556318  0.147158  0.149366  1
  Tm  Tm13  1  0.687570  0.313989  0.310872  1
  Tm  Tm14  1  0.687570  0.687570  0.310872  1
  Tm  Tm15  1  0.313989  0.687570  0.310872  1
  Hg  Hg16  1  0.916307  0.916307  0.251078  1
  Hg  Hg17  1  0.251445  0.915934  0.916688  1
  Hg  Hg18  1  0.915934  0.251445  0.916688  1
  Hg  Hg19  1  0.915934  0.915934  0.916688  1
  Rh  Rh20  1  0.358683  0.358683  0.357696  1
  Rh  Rh21  1  0.924940  0.358683  0.357696  1
  Rh  Rh22  1  0.357456  0.357456  0.927633  1
  Rh  Rh23  1  0.358683  0.924940  0.357696  1
