# generated using pymatgen
data_LaPu3(AsSe)4
_symmetry_space_group_name_H-M   'P 1'
_cell_length_a   4.00491300
_cell_length_b   4.01249132
_cell_length_c   17.54509493
_cell_angle_alpha   90.17904106
_cell_angle_beta   90.00000000
_cell_angle_gamma   90.00000000
_symmetry_Int_Tables_number   1
_chemical_formula_structural   LaPu3(AsSe)4
_chemical_formula_sum   'La1 Pu3 As4 Se4'
_cell_volume   281.94266121
_cell_formula_units_Z   1
loop_
 _symmetry_equiv_pos_site_id
 _symmetry_equiv_pos_as_xyz
  1  'x, y, z'
loop_
 _atom_site_type_symbol
 _atom_site_label
 _atom_site_symmetry_multiplicity
 _atom_site_fract_x
 _atom_site_fract_y
 _atom_site_fract_z
 _atom_site_occupancy
  La  La0  1  0.250000  0.743413  0.635552  1
  Pu  Pu1  1  0.750000  0.245325  0.868250  1
  Pu  Pu2  1  0.750000  0.257810  0.355587  1
  Pu  Pu3  1  0.250000  0.754786  0.138679  1
  As  As4  1  0.250000  0.226818  0.491481  1
  As  As5  1  0.250000  0.256823  0.004027  1
  As  As6  1  0.750000  0.772133  0.490802  1
  As  As7  1  0.750000  0.743006  0.003947  1
  Se  Se8  1  0.750000  0.244638  0.690193  1
  Se  Se9  1  0.750000  0.254487  0.180447  1
  Se  Se10  1  0.250000  0.755288  0.314902  1
  Se  Se11  1  0.250000  0.745473  0.826133  1
