# generated using pymatgen
data_LiTb4Mg3(B6Ir)4
_symmetry_space_group_name_H-M   'P 1'
_cell_length_a   3.55662800
_cell_length_b   8.91407200
_cell_length_c   11.32872420
_cell_angle_alpha   89.94965198
_cell_angle_beta   90.00000000
_cell_angle_gamma   90.00000000
_symmetry_Int_Tables_number   1
_chemical_formula_structural   LiTb4Mg3(B6Ir)4
_chemical_formula_sum   'Li1 Tb4 Mg3 B24 Ir4'
_cell_volume   359.16616478
_cell_formula_units_Z   1
loop_
 _symmetry_equiv_pos_site_id
 _symmetry_equiv_pos_as_xyz
  1  'x, y, z'
loop_
 _atom_site_type_symbol
 _atom_site_label
 _atom_site_symmetry_multiplicity
 _atom_site_fract_x
 _atom_site_fract_y
 _atom_site_fract_z
 _atom_site_occupancy
  Li  Li0  1  0.500000  0.946897  0.379607  1
  Tb  Tb1  1  0.500000  0.317900  0.412722  1
  Tb  Tb2  1  0.500000  0.681791  0.584507  1
  Tb  Tb3  1  0.500000  0.181115  0.915274  1
  Tb  Tb4  1  0.500000  0.819465  0.087806  1
  Mg  Mg5  1  0.500000  0.448061  0.119077  1
  Mg  Mg6  1  0.500000  0.551955  0.881750  1
  Mg  Mg7  1  0.500000  0.051067  0.615994  1
  B  B8  1  0.000000  0.095447  0.473248  1
  B  B9  1  0.000000  0.903887  0.524790  1
  B  B10  1  0.000000  0.400151  0.973215  1
  B  B11  1  0.000000  0.600304  0.027346  1
  B  B12  1  0.000000  0.124815  0.318954  1
  B  B13  1  0.000000  0.873416  0.680805  1
  B  B14  1  0.000000  0.372470  0.819186  1
  B  B15  1  0.000000  0.627999  0.181771  1
  B  B16  1  0.000000  0.055668  0.068507  1
  B  B17  1  0.000000  0.944315  0.932496  1
  B  B18  1  0.000000  0.443872  0.567414  1
  B  B19  1  0.000000  0.556310  0.432103  1
  B  B20  1  0.000000  0.481531  0.284971  1
  B  B21  1  0.000000  0.518506  0.715332  1
  B  B22  1  0.000000  0.018776  0.784823  1
  B  B23  1  0.000000  0.981057  0.216213  1
  B  B24  1  0.000000  0.255442  0.080827  1
  B  B25  1  0.000000  0.744598  0.920047  1
  B  B26  1  0.000000  0.243505  0.580429  1
  B  B27  1  0.000000  0.757977  0.418395  1
  B  B28  1  0.000000  0.292875  0.234839  1
  B  B29  1  0.000000  0.706815  0.765175  1
  B  B30  1  0.000000  0.206479  0.734875  1
  B  B31  1  0.000000  0.794383  0.266023  1
  Ir  Ir32  1  0.500000  0.140431  0.182978  1
  Ir  Ir33  1  0.500000  0.859642  0.817936  1
  Ir  Ir34  1  0.500000  0.360027  0.681722  1
  Ir  Ir35  1  0.500000  0.641053  0.318839  1
