# generated using pymatgen
data_NaNb3Co8(AsP2)2
_symmetry_space_group_name_H-M   'P 1'
_cell_length_a   12.15928950
_cell_length_b   12.17253227
_cell_length_c   3.61954900
_cell_angle_alpha   90.00000000
_cell_angle_beta   90.00000000
_cell_angle_gamma   120.08339940
_symmetry_Int_Tables_number   1
_chemical_formula_structural   NaNb3Co8(AsP2)2
_chemical_formula_sum   'Na2 Nb6 Co16 As4 P8'
_cell_volume   463.56286228
_cell_formula_units_Z   2
loop_
 _symmetry_equiv_pos_site_id
 _symmetry_equiv_pos_as_xyz
  1  'x, y, z'
loop_
 _atom_site_type_symbol
 _atom_site_label
 _atom_site_symmetry_multiplicity
 _atom_site_fract_x
 _atom_site_fract_y
 _atom_site_fract_z
 _atom_site_occupancy
  Na  Na0  1  0.332923  0.666301  0.000000  1
  Na  Na1  1  0.674061  0.339448  0.000000  1
  Nb  Nb2  1  0.822364  0.999797  0.500000  1
  Nb  Nb3  1  0.999024  0.821294  0.500000  1
  Nb  Nb4  1  0.176627  0.177485  0.500000  1
  Nb  Nb5  1  0.446492  0.001743  0.000000  1
  Nb  Nb6  1  0.993002  0.441158  0.000000  1
  Nb  Nb7  1  0.558478  0.553049  0.000000  1
  Co  Co8  1  0.270646  0.001598  0.500000  1
  Co  Co9  1  0.996403  0.270033  0.500000  1
  Co  Co10  1  0.729938  0.726010  0.500000  1
  Co  Co11  1  0.645006  0.815195  0.000000  1
  Co  Co12  1  0.183039  0.828459  0.000000  1
  Co  Co13  1  0.169920  0.355407  0.000000  1
  Co  Co14  1  0.357501  0.174198  0.000000  1
  Co  Co15  1  0.810387  0.637173  0.000000  1
  Co  Co16  1  0.827921  0.188668  0.000000  1
  Co  Co17  1  0.535386  0.883226  0.500000  1
  Co  Co18  1  0.113476  0.650906  0.500000  1
  Co  Co19  1  0.347647  0.464425  0.500000  1
  Co  Co20  1  0.477453  0.356482  0.500000  1
  Co  Co21  1  0.872597  0.522983  0.500000  1
  Co  Co22  1  0.656604  0.123036  0.500000  1
  Co  Co23  1  0.999406  0.999555  0.000000  1
  As  As24  1  0.514963  0.685588  0.500000  1
  As  As25  1  0.312701  0.828403  0.500000  1
  As  As26  1  0.169643  0.485106  0.500000  1
  As  As27  1  0.489381  0.175712  0.500000  1
  P  P28  1  0.170575  0.001371  0.000000  1
  P  P29  1  0.998049  0.169313  0.000000  1
  P  P30  1  0.830422  0.828066  0.000000  1
  P  P31  1  0.690087  0.519781  0.500000  1
  P  P32  1  0.830033  0.309578  0.500000  1
  P  P33  1  0.650534  0.001067  0.000000  1
  P  P34  1  0.996872  0.647596  0.000000  1
  P  P35  1  0.350436  0.350792  0.000000  1
