# generated using pymatgen
data_La5Tl3
_symmetry_space_group_name_H-M   'P 1'
_cell_length_a   9.53468612
_cell_length_b   9.53468619
_cell_length_c   9.53468600
_cell_angle_alpha   96.39601942
_cell_angle_beta   96.39601947
_cell_angle_gamma   141.00494353
_symmetry_Int_Tables_number   1
_chemical_formula_structural   La5Tl3
_chemical_formula_sum   'La10 Tl6'
_cell_volume   514.15954543
_cell_formula_units_Z   2
loop_
 _symmetry_equiv_pos_site_id
 _symmetry_equiv_pos_as_xyz
  1  'x, y, z'
loop_
 _atom_site_type_symbol
 _atom_site_label
 _atom_site_symmetry_multiplicity
 _atom_site_fract_x
 _atom_site_fract_y
 _atom_site_fract_z
 _atom_site_occupancy
  La  La0  1  0.586424  0.281034  0.867459  1
  La  La1  1  0.413576  0.718966  0.132541  1
  La  La2  1  0.281034  0.413576  0.694610  1
  La  La3  1  0.913576  0.781034  0.694610  1
  La  La4  1  0.781034  0.086424  0.867459  1
  La  La5  1  0.250000  0.750000  0.500000  1
  La  La6  1  0.750000  0.250000  0.500000  1
  La  La7  1  0.086424  0.218966  0.305390  1
  La  La8  1  0.718966  0.586424  0.305390  1
  La  La9  1  0.218966  0.913576  0.132541  1
  Tl  Tl10  1  0.338993  0.161007  0.500000  1
  Tl  Tl11  1  0.161007  0.661007  0.822014  1
  Tl  Tl12  1  0.750000  0.750000  0.000000  1
  Tl  Tl13  1  0.838993  0.338993  0.177986  1
  Tl  Tl14  1  0.661007  0.838993  0.500000  1
  Tl  Tl15  1  0.250000  0.250000  0.000000  1
