# generated using pymatgen
data_Er6Sc4In5Sb
_symmetry_space_group_name_H-M   'P 1'
_cell_length_a   8.83999800
_cell_length_b   8.80030171
_cell_length_c   6.25162200
_cell_angle_alpha   90.00000000
_cell_angle_beta   90.00000000
_cell_angle_gamma   120.14932816
_symmetry_Int_Tables_number   1
_chemical_formula_structural   Er6Sc4In5Sb
_chemical_formula_sum   'Er6 Sc4 In5 Sb1'
_cell_volume   420.54997044
_cell_formula_units_Z   1
loop_
 _symmetry_equiv_pos_site_id
 _symmetry_equiv_pos_as_xyz
  1  'x, y, z'
loop_
 _atom_site_type_symbol
 _atom_site_label
 _atom_site_symmetry_multiplicity
 _atom_site_fract_x
 _atom_site_fract_y
 _atom_site_fract_z
 _atom_site_occupancy
  Er  Er0  1  0.000271  0.765034  0.750000  1
  Er  Er1  1  0.002994  0.238364  0.250000  1
  Er  Er2  1  0.764631  0.761636  0.250000  1
  Er  Er3  1  0.760834  0.000000  0.750000  1
  Er  Er4  1  0.235237  0.234966  0.750000  1
  Er  Er5  1  0.236199  0.000000  0.250000  1
  Sc  Sc6  1  0.333890  0.667996  0.503292  1
  Sc  Sc7  1  0.665895  0.332004  0.996708  1
  Sc  Sc8  1  0.665895  0.332004  0.503292  1
  Sc  Sc9  1  0.333890  0.667996  0.996708  1
  In  In10  1  0.400321  0.000000  0.750000  1
  In  In11  1  0.406384  0.406455  0.250000  1
  In  In12  1  0.999929  0.593545  0.250000  1
  In  In13  1  0.998291  0.404796  0.750000  1
  In  In14  1  0.593496  0.595204  0.750000  1
  Sb  Sb15  1  0.601843  0.000000  0.250000  1
