# generated using pymatgen
data_Tb3Yb(TcB2)6
_symmetry_space_group_name_H-M   'P 1'
_cell_length_a   6.22195719
_cell_length_b   6.22444591
_cell_length_c   7.52132800
_cell_angle_alpha   90.53103258
_cell_angle_beta   90.77296006
_cell_angle_gamma   113.98510019
_symmetry_Int_Tables_number   1
_chemical_formula_structural   Tb3Yb(TcB2)6
_chemical_formula_sum   'Tb3 Yb1 Tc6 B12'
_cell_volume   266.07650276
_cell_formula_units_Z   1
loop_
 _symmetry_equiv_pos_site_id
 _symmetry_equiv_pos_as_xyz
  1  'x, y, z'
loop_
 _atom_site_type_symbol
 _atom_site_label
 _atom_site_symmetry_multiplicity
 _atom_site_fract_x
 _atom_site_fract_y
 _atom_site_fract_z
 _atom_site_occupancy
  Tb  Tb0  1  0.100438  0.442889  0.323328  1
  Tb  Tb1  1  0.559053  0.903625  0.173289  1
  Tb  Tb2  1  0.895813  0.552647  0.677641  1
  Yb  Yb3  1  0.437124  0.094576  0.823548  1
  Tc  Tc4  1  0.587654  0.414486  0.250824  1
  Tc  Tc5  1  0.412036  0.585722  0.748785  1
  Tc  Tc6  1  0.990662  0.805425  0.089153  1
  Tc  Tc7  1  0.194480  0.009744  0.410554  1
  Tc  Tc8  1  0.012078  0.197013  0.912562  1
  Tc  Tc9  1  0.805333  0.990967  0.590798  1
  B  B10  1  0.244912  0.153397  0.130292  1
  B  B11  1  0.848327  0.754135  0.370524  1
  B  B12  1  0.758363  0.847639  0.869205  1
  B  B13  1  0.152090  0.247768  0.629942  1
  B  B14  1  0.583493  0.157557  0.481936  1
  B  B15  1  0.842567  0.414818  0.019236  1
  B  B16  1  0.416727  0.842714  0.516560  1
  B  B17  1  0.158065  0.585126  0.982003  1
  B  B18  1  0.441659  0.350275  0.534748  1
  B  B19  1  0.649524  0.556801  0.965974  1
  B  B20  1  0.558324  0.650163  0.465989  1
  B  B21  1  0.351279  0.442508  0.033110  1
