# generated using pymatgen
data_Li(CaPd)2
_symmetry_space_group_name_H-M   'P 1'
_cell_length_a   5.68644168
_cell_length_b   5.68644099
_cell_length_c   5.68644197
_cell_angle_alpha   136.06206132
_cell_angle_beta   117.57665848
_cell_angle_gamma   79.45389063
_symmetry_Int_Tables_number   1
_chemical_formula_structural   Li(CaPd)2
_chemical_formula_sum   'Li1 Ca2 Pd2'
_cell_volume   109.66177102
_cell_formula_units_Z   1
loop_
 _symmetry_equiv_pos_site_id
 _symmetry_equiv_pos_as_xyz
  1  'x, y, z'
loop_
 _atom_site_type_symbol
 _atom_site_label
 _atom_site_symmetry_multiplicity
 _atom_site_fract_x
 _atom_site_fract_y
 _atom_site_fract_z
 _atom_site_occupancy
  Li  Li0  1  0.000000  0.000000  0.000000  1
  Ca  Ca1  1  0.699271  0.199271  0.500000  1
  Ca  Ca2  1  0.300729  0.800729  0.500000  1
  Pd  Pd3  1  0.738969  0.500000  0.238969  1
  Pd  Pd4  1  0.261031  0.500000  0.761031  1
