# generated using pymatgen
data_Tb16Ho(ErIr4)3
_symmetry_space_group_name_H-M   'P 1'
_cell_length_a   10.91967200
_cell_length_b   10.91967200
_cell_length_c   6.37800000
_cell_angle_alpha   90.00000000
_cell_angle_beta   90.00000000
_cell_angle_gamma   90.00000000
_symmetry_Int_Tables_number   1
_chemical_formula_structural   Tb16Ho(ErIr4)3
_chemical_formula_sum   'Tb16 Ho1 Er3 Ir12'
_cell_volume   760.50785096
_cell_formula_units_Z   1
loop_
 _symmetry_equiv_pos_site_id
 _symmetry_equiv_pos_as_xyz
  1  'x, y, z'
loop_
 _atom_site_type_symbol
 _atom_site_label
 _atom_site_symmetry_multiplicity
 _atom_site_fract_x
 _atom_site_fract_y
 _atom_site_fract_z
 _atom_site_occupancy
  Tb  Tb0  1  0.290630  0.087764  0.377961  1
  Tb  Tb1  1  0.290565  0.912249  0.878009  1
  Tb  Tb2  1  0.709435  0.087751  0.878009  1
  Tb  Tb3  1  0.709370  0.912236  0.377961  1
  Tb  Tb4  1  0.587752  0.790535  0.877976  1
  Tb  Tb5  1  0.587731  0.209467  0.377987  1
  Tb  Tb6  1  0.412269  0.790533  0.377987  1
  Tb  Tb7  1  0.412248  0.209465  0.877976  1
  Tb  Tb8  1  0.209467  0.412269  0.622013  1
  Tb  Tb9  1  0.209465  0.587752  0.122024  1
  Tb  Tb10  1  0.790535  0.412248  0.122024  1
  Tb  Tb11  1  0.790533  0.587731  0.622013  1
  Tb  Tb12  1  0.912249  0.709435  0.121991  1
  Tb  Tb13  1  0.912236  0.290630  0.622039  1
  Tb  Tb14  1  0.087764  0.709370  0.622039  1
  Tb  Tb15  1  0.087751  0.290565  0.121991  1
  Ho  Ho16  1  0.000000  0.000000  0.500000  1
  Er  Er17  1  0.000000  0.000000  0.000000  1
  Er  Er18  1  0.500000  0.500000  0.000000  1
  Er  Er19  1  0.500000  0.500000  0.500000  1
  Ir  Ir20  1  0.847509  0.152486  0.249788  1
  Ir  Ir21  1  0.847514  0.847509  0.750212  1
  Ir  Ir22  1  0.152486  0.152491  0.750212  1
  Ir  Ir23  1  0.152491  0.847514  0.249788  1
  Ir  Ir24  1  0.652354  0.347649  0.749998  1
  Ir  Ir25  1  0.652351  0.652354  0.250002  1
  Ir  Ir26  1  0.347649  0.347646  0.250002  1
  Ir  Ir27  1  0.347646  0.652351  0.749998  1
  Ir  Ir28  1  0.500000  0.000000  0.120927  1
  Ir  Ir29  1  0.500000  0.000000  0.620921  1
  Ir  Ir30  1  0.000000  0.500000  0.879073  1
  Ir  Ir31  1  0.000000  0.500000  0.379079  1
