# generated using pymatgen
data_Pr2NdTe4Cl
_symmetry_space_group_name_H-M   'P 1'
_cell_length_a   4.32334100
_cell_length_b   14.14750200
_cell_length_c   16.13943000
_cell_angle_alpha   90.00000000
_cell_angle_beta   90.00000000
_cell_angle_gamma   90.00000000
_symmetry_Int_Tables_number   1
_chemical_formula_structural   Pr2NdTe4Cl
_chemical_formula_sum   'Pr8 Nd4 Te16 Cl4'
_cell_volume   987.15976992
_cell_formula_units_Z   4
loop_
 _symmetry_equiv_pos_site_id
 _symmetry_equiv_pos_as_xyz
  1  'x, y, z'
loop_
 _atom_site_type_symbol
 _atom_site_label
 _atom_site_symmetry_multiplicity
 _atom_site_fract_x
 _atom_site_fract_y
 _atom_site_fract_z
 _atom_site_occupancy
  Pr  Pr0  1  0.250000  0.905420  0.627337  1
  Pr  Pr1  1  0.250000  0.594580  0.127337  1
  Pr  Pr2  1  0.750000  0.094580  0.372663  1
  Pr  Pr3  1  0.750000  0.405420  0.872663  1
  Pr  Pr4  1  0.750000  0.253063  0.615101  1
  Pr  Pr5  1  0.750000  0.246937  0.115101  1
  Pr  Pr6  1  0.250000  0.746937  0.384899  1
  Pr  Pr7  1  0.250000  0.753063  0.884899  1
  Nd  Nd8  1  0.750000  0.578463  0.631884  1
  Nd  Nd9  1  0.750000  0.921537  0.131884  1
  Nd  Nd10  1  0.250000  0.421537  0.368116  1
  Nd  Nd11  1  0.250000  0.078463  0.868116  1
  Te  Te12  1  0.250000  0.421584  0.570825  1
  Te  Te13  1  0.250000  0.078416  0.070825  1
  Te  Te14  1  0.750000  0.578416  0.429175  1
  Te  Te15  1  0.750000  0.921584  0.929175  1
  Te  Te16  1  0.750000  0.049810  0.715685  1
  Te  Te17  1  0.750000  0.450190  0.215685  1
  Te  Te18  1  0.250000  0.950190  0.284315  1
  Te  Te19  1  0.250000  0.549810  0.784315  1
  Te  Te20  1  0.750000  0.776015  0.733228  1
  Te  Te21  1  0.750000  0.723985  0.233228  1
  Te  Te22  1  0.250000  0.223985  0.266772  1
  Te  Te23  1  0.250000  0.276015  0.766772  1
  Te  Te24  1  0.250000  0.111176  0.525045  1
  Te  Te25  1  0.250000  0.388824  0.025045  1
  Te  Te26  1  0.750000  0.888824  0.474955  1
  Te  Te27  1  0.750000  0.611176  0.974955  1
  Cl  Cl28  1  0.250000  0.701039  0.569523  1
  Cl  Cl29  1  0.250000  0.798961  0.069523  1
  Cl  Cl30  1  0.750000  0.298961  0.430477  1
  Cl  Cl31  1  0.750000  0.201039  0.930477  1
