# generated using pymatgen
data_Rb4NpTeBr12
_symmetry_space_group_name_H-M   'P 1'
_cell_length_a   7.81714900
_cell_length_b   7.81714900
_cell_length_c   11.46420100
_cell_angle_alpha   90.00000000
_cell_angle_beta   90.00000000
_cell_angle_gamma   90.00000000
_symmetry_Int_Tables_number   1
_chemical_formula_structural   Rb4NpTeBr12
_chemical_formula_sum   'Rb4 Np1 Te1 Br12'
_cell_volume   700.55231383
_cell_formula_units_Z   1
loop_
 _symmetry_equiv_pos_site_id
 _symmetry_equiv_pos_as_xyz
  1  'x, y, z'
loop_
 _atom_site_type_symbol
 _atom_site_label
 _atom_site_symmetry_multiplicity
 _atom_site_fract_x
 _atom_site_fract_y
 _atom_site_fract_z
 _atom_site_occupancy
  Rb  Rb0  1  0.499999  0.000000  0.251882  1
  Rb  Rb1  1  0.000000  0.499999  0.251882  1
  Rb  Rb2  1  0.499999  0.000000  0.748118  1
  Rb  Rb3  1  0.000000  0.499999  0.748118  1
  Np  Np4  1  0.000000  0.000000  0.000000  1
  Te  Te5  1  0.499999  0.499999  0.500000  1
  Br  Br6  1  0.712988  0.207435  0.000000  1
  Br  Br7  1  0.207435  0.287012  0.000000  1
  Br  Br8  1  0.792565  0.712988  0.000000  1
  Br  Br9  1  0.287012  0.792565  0.000000  1
  Br  Br10  1  0.000000  0.000000  0.242529  1
  Br  Br11  1  0.499999  0.499999  0.261064  1
  Br  Br12  1  0.706203  0.216812  0.500000  1
  Br  Br13  1  0.216812  0.293796  0.500000  1
  Br  Br14  1  0.783188  0.706203  0.500000  1
  Br  Br15  1  0.293796  0.783188  0.500000  1
  Br  Br16  1  0.499999  0.499999  0.738936  1
  Br  Br17  1  0.000000  0.000000  0.757471  1
