# generated using pymatgen
data_FeMoP4(PbO8)2
_symmetry_space_group_name_H-M   'P 1'
_cell_length_a   10.15309129
_cell_length_b   10.15309204
_cell_length_c   6.59669099
_cell_angle_alpha   81.68498964
_cell_angle_beta   81.68499163
_cell_angle_gamma   89.79721669
_symmetry_Int_Tables_number   1
_chemical_formula_structural   FeMoP4(PbO8)2
_chemical_formula_sum   'Fe2 Mo2 P8 Pb4 O32'
_cell_volume   665.69512109
_cell_formula_units_Z   2
loop_
 _symmetry_equiv_pos_site_id
 _symmetry_equiv_pos_as_xyz
  1  'x, y, z'
loop_
 _atom_site_type_symbol
 _atom_site_label
 _atom_site_symmetry_multiplicity
 _atom_site_fract_x
 _atom_site_fract_y
 _atom_site_fract_z
 _atom_site_occupancy
  Fe  Fe0  1  0.282256  0.001039  0.681500  1
  Fe  Fe1  1  0.001039  0.282256  0.181500  1
  Mo  Mo2  1  0.726042  0.012017  0.312441  1
  Mo  Mo3  1  0.012017  0.726042  0.812441  1
  P  P4  1  0.984380  0.793433  0.301866  1
  P  P5  1  0.491025  0.765612  0.538164  1
  P  P6  1  0.505507  0.237475  0.466024  1
  P  P7  1  0.207927  0.017851  0.197331  1
  P  P8  1  0.237475  0.505507  0.966024  1
  P  P9  1  0.765612  0.491025  0.038164  1
  P  P10  1  0.017851  0.207927  0.697331  1
  P  P11  1  0.793433  0.984380  0.801866  1
  Pb  Pb12  1  0.489041  0.259493  0.953931  1
  Pb  Pb13  1  0.742484  0.506365  0.536402  1
  Pb  Pb14  1  0.259493  0.489041  0.453931  1
  Pb  Pb15  1  0.506365  0.742484  0.036402  1
  O  O16  1  0.156782  0.150861  0.672355  1
  O  O17  1  0.867007  0.117953  0.256128  1
  O  O18  1  0.841518  0.842318  0.329687  1
  O  O19  1  0.150861  0.156782  0.172355  1
  O  O20  1  0.288880  0.983447  0.997885  1
  O  O21  1  0.581636  0.675013  0.665513  1
  O  O22  1  0.417332  0.326733  0.333686  1
  O  O23  1  0.675013  0.581636  0.165513  1
  O  O24  1  0.011020  0.708789  0.126414  1
  O  O25  1  0.326733  0.417332  0.833686  1
  O  O26  1  0.285455  0.988619  0.379296  1
  O  O27  1  0.136498  0.427917  0.140353  1
  O  O28  1  0.076869  0.920318  0.250474  1
  O  O29  1  0.117953  0.867007  0.756128  1
  O  O30  1  0.159689  0.591922  0.804868  1
  O  O31  1  0.592459  0.319878  0.577847  1
  O  O32  1  0.871459  0.576941  0.872190  1
  O  O33  1  0.319878  0.592459  0.077847  1
  O  O34  1  0.706074  0.015815  0.000080  1
  O  O35  1  0.411873  0.685028  0.412640  1
  O  O36  1  0.015815  0.706074  0.500080  1
  O  O37  1  0.576941  0.871459  0.372190  1
  O  O38  1  0.401073  0.840875  0.692926  1
  O  O39  1  0.842318  0.841518  0.829687  1
  O  O40  1  0.840875  0.401073  0.192926  1
  O  O41  1  0.591922  0.159689  0.304868  1
  O  O42  1  0.920318  0.076869  0.750474  1
  O  O43  1  0.988619  0.285455  0.879296  1
  O  O44  1  0.427917  0.136498  0.640353  1
  O  O45  1  0.983447  0.288880  0.497885  1
  O  O46  1  0.685028  0.411873  0.912640  1
  O  O47  1  0.708789  0.011020  0.626414  1
