# generated using pymatgen
data_Nd4TaOsO12
_symmetry_space_group_name_H-M   'P 1'
_cell_length_a   5.44345200
_cell_length_b   9.42812700
_cell_length_c   10.32646655
_cell_angle_alpha   88.77288487
_cell_angle_beta   90.00000000
_cell_angle_gamma   90.00000000
_symmetry_Int_Tables_number   1
_chemical_formula_structural   Nd4TaOsO12
_chemical_formula_sum   'Nd8 Ta2 Os2 O24'
_cell_volume   529.84879612
_cell_formula_units_Z   2
loop_
 _symmetry_equiv_pos_site_id
 _symmetry_equiv_pos_as_xyz
  1  'x, y, z'
loop_
 _atom_site_type_symbol
 _atom_site_label
 _atom_site_symmetry_multiplicity
 _atom_site_fract_x
 _atom_site_fract_y
 _atom_site_fract_z
 _atom_site_occupancy
  Nd  Nd0  1  0.018266  0.102217  0.456388  1
  Nd  Nd1  1  0.518266  0.397783  0.543612  1
  Nd  Nd2  1  0.976926  0.603968  0.032848  1
  Nd  Nd3  1  0.476926  0.896032  0.967152  1
  Nd  Nd4  1  0.036539  0.228515  0.874861  1
  Nd  Nd5  1  0.536539  0.271485  0.125139  1
  Nd  Nd6  1  0.967606  0.709677  0.636474  1
  Nd  Nd7  1  0.467606  0.790323  0.363526  1
  Ta  Ta8  1  0.460252  0.505622  0.852710  1
  Ta  Ta9  1  0.960252  0.994378  0.147290  1
  Os  Os10  1  0.540094  0.002832  0.646627  1
  Os  Os11  1  0.040094  0.497168  0.353373  1
  O  O12  1  0.248983  0.409942  0.994066  1
  O  O13  1  0.748983  0.090058  0.005934  1
  O  O14  1  0.748664  0.909577  0.511681  1
  O  O15  1  0.248664  0.590423  0.488319  1
  O  O16  1  0.230426  0.112055  0.058482  1
  O  O17  1  0.730426  0.387945  0.941518  1
  O  O18  1  0.782841  0.608644  0.429608  1
  O  O19  1  0.282841  0.891356  0.570392  1
  O  O20  1  0.298482  0.369832  0.324305  1
  O  O21  1  0.798482  0.130168  0.675695  1
  O  O22  1  0.679200  0.861987  0.178484  1
  O  O23  1  0.179200  0.638013  0.821516  1
  O  O24  1  0.173504  0.952018  0.296680  1
  O  O25  1  0.673504  0.547982  0.703320  1
  O  O26  1  0.829805  0.449448  0.221003  1
  O  O27  1  0.329805  0.050552  0.778997  1
  O  O28  1  0.179337  0.635802  0.242584  1
  O  O29  1  0.679337  0.864198  0.757416  1
  O  O30  1  0.813659  0.140559  0.261525  1
  O  O31  1  0.313659  0.359441  0.738475  1
  O  O32  1  0.082526  0.843589  0.030944  1
  O  O33  1  0.582526  0.656411  0.969056  1
  O  O34  1  0.932889  0.351402  0.477061  1
  O  O35  1  0.432889  0.148598  0.522939  1
