# generated using pymatgen
data_LuCrP4Ru5
_symmetry_space_group_name_H-M   'P 1'
_cell_length_a   7.03668400
_cell_length_b   6.95905673
_cell_length_c   3.66574500
_cell_angle_alpha   90.00000000
_cell_angle_beta   90.00000000
_cell_angle_gamma   120.36970032
_symmetry_Int_Tables_number   1
_chemical_formula_structural   LuCrP4Ru5
_chemical_formula_sum   'Lu1 Cr1 P4 Ru5'
_cell_volume   154.87500253
_cell_formula_units_Z   1
loop_
 _symmetry_equiv_pos_site_id
 _symmetry_equiv_pos_as_xyz
  1  'x, y, z'
loop_
 _atom_site_type_symbol
 _atom_site_label
 _atom_site_symmetry_multiplicity
 _atom_site_fract_x
 _atom_site_fract_y
 _atom_site_fract_z
 _atom_site_occupancy
  Lu  Lu0  1  0.997719  0.995438  0.000000  1
  Cr  Cr1  1  0.463477  0.926951  0.000000  1
  P  P2  1  0.186435  0.372870  0.500000  1
  P  P3  1  0.628739  0.809573  0.500000  1
  P  P4  1  0.180834  0.809573  0.500000  1
  P  P5  1  0.668072  0.336143  0.000000  1
  Ru  Ru6  1  0.797568  0.595134  0.500000  1
  Ru  Ru7  1  0.396584  0.194490  0.500000  1
  Ru  Ru8  1  0.797905  0.194490  0.500000  1
  Ru  Ru9  1  0.079845  0.549336  0.000000  1
  Ru  Ru10  1  0.469492  0.549336  0.000000  1
