# generated using pymatgen
data_Dy4Sc2Al17Si7Os8
_symmetry_space_group_name_H-M   'P 1'
_cell_length_a   8.64896500
_cell_length_b   8.66656529
_cell_length_c   9.44339000
_cell_angle_alpha   90.00000000
_cell_angle_beta   90.00000000
_cell_angle_gamma   119.97432626
_symmetry_Int_Tables_number   1
_chemical_formula_structural   Dy4Sc2Al17Si7Os8
_chemical_formula_sum   'Dy4 Sc2 Al17 Si7 Os8'
_cell_volume   613.17156485
_cell_formula_units_Z   1
loop_
 _symmetry_equiv_pos_site_id
 _symmetry_equiv_pos_as_xyz
  1  'x, y, z'
loop_
 _atom_site_type_symbol
 _atom_site_label
 _atom_site_symmetry_multiplicity
 _atom_site_fract_x
 _atom_site_fract_y
 _atom_site_fract_z
 _atom_site_occupancy
  Dy  Dy0  1  0.614604  0.809884  0.250000  1
  Dy  Dy1  1  0.383987  0.188846  0.750000  1
  Dy  Dy2  1  0.194944  0.807900  0.250000  1
  Dy  Dy3  1  0.803715  0.189228  0.750000  1
  Sc  Sc4  1  0.196848  0.397885  0.250000  1
  Sc  Sc5  1  0.802350  0.606123  0.750000  1
  Al  Al6  1  0.164425  0.329656  0.575420  1
  Al  Al7  1  0.834048  0.670445  0.424056  1
  Al  Al8  1  0.671389  0.833066  0.578820  1
  Al  Al9  1  0.834048  0.670445  0.075944  1
  Al  Al10  1  0.330259  0.168111  0.421573  1
  Al  Al11  1  0.164425  0.329656  0.924580  1
  Al  Al12  1  0.161608  0.832018  0.577694  1
  Al  Al13  1  0.330259  0.168111  0.078427  1
  Al  Al14  1  0.837226  0.166222  0.420648  1
  Al  Al15  1  0.671389  0.833066  0.921180  1
  Al  Al16  1  0.837226  0.166222  0.079352  1
  Al  Al17  1  0.161608  0.832018  0.922306  1
  Al  Al18  1  0.122197  0.563648  0.750000  1
  Al  Al19  1  0.563215  0.436429  0.250000  1
  Al  Al20  1  0.439701  0.564833  0.750000  1
  Al  Al21  1  0.007307  0.013926  0.250000  1
  Al  Al22  1  0.992726  0.986403  0.750000  1
  Si  Si23  1  0.332773  0.663164  0.042097  1
  Si  Si24  1  0.667521  0.337457  0.956936  1
  Si  Si25  1  0.667521  0.337457  0.543064  1
  Si  Si26  1  0.332773  0.663164  0.457903  1
  Si  Si27  1  0.565616  0.126474  0.250000  1
  Si  Si28  1  0.435413  0.871531  0.750000  1
  Si  Si29  1  0.877042  0.435619  0.250000  1
  Os  Os30  1  0.501011  0.001031  0.000986  1
  Os  Os31  1  0.998705  0.499096  0.007209  1
  Os  Os32  1  0.501011  0.001031  0.499014  1
  Os  Os33  1  0.500598  0.500368  0.000488  1
  Os  Os34  1  0.998705  0.499096  0.492791  1
  Os  Os35  1  0.500598  0.500368  0.499512  1
  Os  Os36  1  0.000604  0.000001  0.000285  1
  Os  Os37  1  0.000604  0.000001  0.499715  1
