# generated using pymatgen
data_K4Hf3Ti5Se16
_symmetry_space_group_name_H-M   'P 1'
_cell_length_a   6.38548290
_cell_length_b   7.40870266
_cell_length_c   16.34016779
_cell_angle_alpha   90.04714157
_cell_angle_beta   90.14130088
_cell_angle_gamma   90.01184547
_symmetry_Int_Tables_number   1
_chemical_formula_structural   K4Hf3Ti5Se16
_chemical_formula_sum   'K4 Hf3 Ti5 Se16'
_cell_volume   773.02038409
_cell_formula_units_Z   1
loop_
 _symmetry_equiv_pos_site_id
 _symmetry_equiv_pos_as_xyz
  1  'x, y, z'
loop_
 _atom_site_type_symbol
 _atom_site_label
 _atom_site_symmetry_multiplicity
 _atom_site_fract_x
 _atom_site_fract_y
 _atom_site_fract_z
 _atom_site_occupancy
  K  K0  1  0.345495  0.999000  0.998575  1
  K  K1  1  0.654505  0.501000  0.501425  1
  K  K2  1  0.020272  0.999828  0.501891  1
  K  K3  1  0.979728  0.500172  0.998109  1
  Hf  Hf4  1  0.500000  0.250000  0.250000  1
  Hf  Hf5  1  0.500000  0.750000  0.750000  1
  Hf  Hf6  1  0.500000  0.750000  0.250000  1
  Ti  Ti7  1  0.000399  0.000024  0.249695  1
  Ti  Ti8  1  0.000312  0.010633  0.750656  1
  Ti  Ti9  1  0.999601  0.499976  0.250305  1
  Ti  Ti10  1  0.999688  0.489367  0.749344  1
  Ti  Ti11  1  0.500000  0.250000  0.750000  1
  Se  Se12  1  0.841898  0.250021  0.344753  1
  Se  Se13  1  0.843492  0.749776  0.657269  1
  Se  Se14  1  0.158105  0.749881  0.155276  1
  Se  Se15  1  0.166260  0.251003  0.843818  1
  Se  Se16  1  0.158102  0.249979  0.155247  1
  Se  Se17  1  0.156508  0.750224  0.842731  1
  Se  Se18  1  0.841895  0.750119  0.344724  1
  Se  Se19  1  0.833740  0.248997  0.656182  1
  Se  Se20  1  0.675979  0.999921  0.153331  1
  Se  Se21  1  0.672863  0.005860  0.844062  1
  Se  Se22  1  0.324021  0.500079  0.346669  1
  Se  Se23  1  0.327137  0.494140  0.655938  1
  Se  Se24  1  0.330353  0.000101  0.346220  1
  Se  Se25  1  0.334277  0.006669  0.656742  1
  Se  Se26  1  0.669647  0.499899  0.153780  1
  Se  Se27  1  0.665723  0.493331  0.843258  1
