# generated using pymatgen
data_Nd5Bi2Pb
_symmetry_space_group_name_H-M   'P 1'
_cell_length_a   6.63774200
_cell_length_b   9.51887136
_cell_length_c   9.49947748
_cell_angle_alpha   119.94722181
_cell_angle_beta   89.99995598
_cell_angle_gamma   89.99987194
_symmetry_Int_Tables_number   1
_chemical_formula_structural   Nd5Bi2Pb
_chemical_formula_sum   'Nd10 Bi4 Pb2'
_cell_volume   520.07610321
_cell_formula_units_Z   2
loop_
 _symmetry_equiv_pos_site_id
 _symmetry_equiv_pos_as_xyz
  1  'x, y, z'
loop_
 _atom_site_type_symbol
 _atom_site_label
 _atom_site_symmetry_multiplicity
 _atom_site_fract_x
 _atom_site_fract_y
 _atom_site_fract_z
 _atom_site_occupancy
  Nd  Nd0  1  0.500894  0.334759  0.666853  1
  Nd  Nd1  1  0.500895  0.665241  0.332123  1
  Nd  Nd2  1  0.999106  0.665242  0.332125  1
  Nd  Nd3  1  0.999104  0.334759  0.666854  1
  Nd  Nd4  1  0.749998  0.248113  0.003129  1
  Nd  Nd5  1  0.749999  0.752192  0.755250  1
  Nd  Nd6  1  0.750003  0.000073  0.243589  1
  Nd  Nd7  1  0.249999  0.754085  0.999487  1
  Nd  Nd8  1  0.250000  0.245584  0.245157  1
  Nd  Nd9  1  0.249998  0.999933  0.754530  1
  Bi  Bi10  1  0.750000  0.000035  0.611792  1
  Bi  Bi11  1  0.250000  0.388199  0.999381  1
  Bi  Bi12  1  0.250000  0.611642  0.611045  1
  Bi  Bi13  1  0.250000  0.999963  0.388166  1
  Pb  Pb14  1  0.749999  0.610872  0.000627  1
  Pb  Pb15  1  0.750001  0.389306  0.389891  1
