# generated using pymatgen
data_CaCe8Ho11Ge16
_symmetry_space_group_name_H-M   'P 1'
_cell_length_a   7.48863000
_cell_length_b   7.78061189
_cell_length_c   14.79714700
_cell_angle_alpha   90.00000000
_cell_angle_beta   90.00000000
_cell_angle_gamma   90.02742323
_symmetry_Int_Tables_number   1
_chemical_formula_structural   CaCe8Ho11Ge16
_chemical_formula_sum   'Ca1 Ce8 Ho11 Ge16'
_cell_volume   862.17229767
_cell_formula_units_Z   1
loop_
 _symmetry_equiv_pos_site_id
 _symmetry_equiv_pos_as_xyz
  1  'x, y, z'
loop_
 _atom_site_type_symbol
 _atom_site_label
 _atom_site_symmetry_multiplicity
 _atom_site_fract_x
 _atom_site_fract_y
 _atom_site_fract_z
 _atom_site_occupancy
  Ca  Ca0  1  0.660780  0.990043  0.250000  1
  Ce  Ce1  1  0.984687  0.823798  0.094993  1
  Ce  Ce2  1  0.483490  0.678968  0.403226  1
  Ce  Ce3  1  0.514801  0.323181  0.902018  1
  Ce  Ce4  1  0.013720  0.174618  0.596882  1
  Ce  Ce5  1  0.013720  0.174618  0.903118  1
  Ce  Ce6  1  0.514801  0.323181  0.597982  1
  Ce  Ce7  1  0.483490  0.678968  0.096774  1
  Ce  Ce8  1  0.984687  0.823798  0.405007  1
  Ho  Ho9  1  0.158667  0.511692  0.250000  1
  Ho  Ho10  1  0.840182  0.487694  0.750000  1
  Ho  Ho11  1  0.339515  0.009679  0.750000  1
  Ho  Ho12  1  0.676450  0.825504  0.876451  1
  Ho  Ho13  1  0.176683  0.671490  0.622716  1
  Ho  Ho14  1  0.824259  0.325580  0.121970  1
  Ho  Ho15  1  0.327535  0.174932  0.378688  1
  Ho  Ho16  1  0.327535  0.174932  0.121312  1
  Ho  Ho17  1  0.824259  0.325580  0.378030  1
  Ho  Ho18  1  0.176683  0.671490  0.877284  1
  Ho  Ho19  1  0.676450  0.825504  0.623549  1
  Ge  Ge20  1  0.787349  0.627325  0.250000  1
  Ge  Ge21  1  0.277209  0.869996  0.250000  1
  Ge  Ge22  1  0.711723  0.133259  0.750000  1
  Ge  Ge23  1  0.210813  0.364070  0.750000  1
  Ge  Ge24  1  0.032660  0.121198  0.250000  1
  Ge  Ge25  1  0.526071  0.388780  0.250000  1
  Ge  Ge26  1  0.474527  0.617309  0.750000  1
  Ge  Ge27  1  0.975794  0.879111  0.750000  1
  Ge  Ge28  1  0.838022  0.532793  0.959478  1
  Ge  Ge29  1  0.338837  0.966733  0.541273  1
  Ge  Ge30  1  0.663216  0.035707  0.036331  1
  Ge  Ge31  1  0.160654  0.466618  0.459166  1
  Ge  Ge32  1  0.160654  0.466618  0.040834  1
  Ge  Ge33  1  0.663216  0.035707  0.463669  1
  Ge  Ge34  1  0.338837  0.966733  0.958727  1
  Ge  Ge35  1  0.838022  0.532793  0.540522  1
