# generated using pymatgen
data_SmTmSc3Si7Pt9
_symmetry_space_group_name_H-M   'P 1'
_cell_length_a   10.05776800
_cell_length_b   10.05776699
_cell_length_c   3.98368800
_cell_angle_alpha   90.00000000
_cell_angle_beta   90.00000000
_cell_angle_gamma   119.99999676
_symmetry_Int_Tables_number   1
_chemical_formula_structural   SmTmSc3Si7Pt9
_chemical_formula_sum   'Sm1 Tm1 Sc3 Si7 Pt9'
_cell_volume   348.99495328
_cell_formula_units_Z   1
loop_
 _symmetry_equiv_pos_site_id
 _symmetry_equiv_pos_as_xyz
  1  'x, y, z'
loop_
 _atom_site_type_symbol
 _atom_site_label
 _atom_site_symmetry_multiplicity
 _atom_site_fract_x
 _atom_site_fract_y
 _atom_site_fract_z
 _atom_site_occupancy
  Sm  Sm0  1  0.000000  0.000000  0.000000  1
  Tm  Tm1  1  0.333333  0.666667  0.500000  1
  Sc  Sc2  1  0.895207  0.455777  0.500000  1
  Sc  Sc3  1  0.560570  0.104793  0.500000  1
  Sc  Sc4  1  0.544223  0.439430  0.500000  1
  Si  Si5  1  0.247053  0.195868  0.500000  1
  Si  Si6  1  0.804132  0.051188  0.500000  1
  Si  Si7  1  0.948812  0.752947  0.500000  1
  Si  Si8  1  0.555963  0.647241  0.000000  1
  Si  Si9  1  0.352759  0.908721  0.000000  1
  Si  Si10  1  0.091279  0.444037  0.000000  1
  Si  Si11  1  0.666667  0.333333  0.000000  1
  Pt  Pt12  1  0.220131  0.935405  0.500000  1
  Pt  Pt13  1  0.064595  0.284727  0.500000  1
  Pt  Pt14  1  0.715273  0.779869  0.500000  1
  Pt  Pt15  1  0.314407  0.414334  0.000000  1
  Pt  Pt16  1  0.585666  0.900072  0.000000  1
  Pt  Pt17  1  0.099928  0.685593  0.000000  1
  Pt  Pt18  1  0.384118  0.171703  0.000000  1
  Pt  Pt19  1  0.828297  0.212413  0.000000  1
  Pt  Pt20  1  0.787587  0.615882  0.000000  1
