# generated using pymatgen
data_Dy3Lu(ScSb5)4
_symmetry_space_group_name_H-M   'P 1'
_cell_length_a   4.19983600
_cell_length_b   13.03279989
_cell_length_c   14.20744133
_cell_angle_alpha   78.85059171
_cell_angle_beta   90.00000000
_cell_angle_gamma   90.00000000
_symmetry_Int_Tables_number   1
_chemical_formula_structural   Dy3Lu(ScSb5)4
_chemical_formula_sum   'Dy3 Lu1 Sc4 Sb20'
_cell_volume   762.97593292
_cell_formula_units_Z   1
loop_
 _symmetry_equiv_pos_site_id
 _symmetry_equiv_pos_as_xyz
  1  'x, y, z'
loop_
 _atom_site_type_symbol
 _atom_site_label
 _atom_site_symmetry_multiplicity
 _atom_site_fract_x
 _atom_site_fract_y
 _atom_site_fract_z
 _atom_site_occupancy
  Dy  Dy0  1  0.750000  0.330861  0.423923  1
  Dy  Dy1  1  0.250000  0.953403  0.354503  1
  Dy  Dy2  1  0.750000  0.046305  0.645350  1
  Lu  Lu3  1  0.250000  0.669602  0.576562  1
  Sc  Sc4  1  0.250000  0.396947  0.772871  1
  Sc  Sc5  1  0.750000  0.603157  0.227416  1
  Sc  Sc6  1  0.250000  0.657384  0.858364  1
  Sc  Sc7  1  0.750000  0.342666  0.141141  1
  Sb  Sb8  1  0.250000  0.148059  0.780512  1
  Sb  Sb9  1  0.750000  0.851958  0.219312  1
  Sb  Sb10  1  0.250000  0.142782  0.482876  1
  Sb  Sb11  1  0.750000  0.855406  0.517463  1
  Sb  Sb12  1  0.250000  0.163117  0.160548  1
  Sb  Sb13  1  0.750000  0.836875  0.839462  1
  Sb  Sb14  1  0.250000  0.422109  0.975137  1
  Sb  Sb15  1  0.750000  0.577766  0.024923  1
  Sb  Sb16  1  0.750000  0.028615  0.913679  1
  Sb  Sb17  1  0.250000  0.971449  0.086434  1
  Sb  Sb18  1  0.750000  0.142860  0.315437  1
  Sb  Sb19  1  0.250000  0.856065  0.684085  1
  Sb  Sb20  1  0.750000  0.279903  0.936578  1
  Sb  Sb21  1  0.250000  0.720095  0.063491  1
  Sb  Sb22  1  0.750000  0.289484  0.659119  1
  Sb  Sb23  1  0.250000  0.710681  0.341338  1
  Sb  Sb24  1  0.750000  0.574153  0.739887  1
  Sb  Sb25  1  0.250000  0.426712  0.258571  1
  Sb  Sb26  1  0.750000  0.571095  0.444606  1
  Sb  Sb27  1  0.250000  0.430491  0.556411  1
