# generated using pymatgen
data_Nb3ZnGaN
_symmetry_space_group_name_H-M   'P 1'
_cell_length_a   7.04990500
_cell_length_b   7.04990500
_cell_length_c   7.04990500
_cell_angle_alpha   90.00000000
_cell_angle_beta   90.00000000
_cell_angle_gamma   90.00000000
_symmetry_Int_Tables_number   1
_chemical_formula_structural   Nb3ZnGaN
_chemical_formula_sum   'Nb12 Zn4 Ga4 N4'
_cell_volume   350.38845998
_cell_formula_units_Z   4
loop_
 _symmetry_equiv_pos_site_id
 _symmetry_equiv_pos_as_xyz
  1  'x, y, z'
loop_
 _atom_site_type_symbol
 _atom_site_label
 _atom_site_symmetry_multiplicity
 _atom_site_fract_x
 _atom_site_fract_y
 _atom_site_fract_z
 _atom_site_occupancy
  Nb  Nb0  1  0.793482  0.956776  0.374434  1
  Nb  Nb1  1  0.706518  0.043224  0.874434  1
  Nb  Nb2  1  0.206518  0.456776  0.125566  1
  Nb  Nb3  1  0.293482  0.543224  0.625566  1
  Nb  Nb4  1  0.956776  0.374434  0.793482  1
  Nb  Nb5  1  0.043224  0.874434  0.706518  1
  Nb  Nb6  1  0.456776  0.125566  0.206518  1
  Nb  Nb7  1  0.543224  0.625566  0.293482  1
  Nb  Nb8  1  0.374434  0.793482  0.956776  1
  Nb  Nb9  1  0.874434  0.706518  0.043224  1
  Nb  Nb10  1  0.125566  0.206518  0.456776  1
  Nb  Nb11  1  0.625566  0.293482  0.543224  1
  Zn  Zn12  1  0.179785  0.820215  0.320215  1
  Zn  Zn13  1  0.320215  0.179785  0.820215  1
  Zn  Zn14  1  0.820215  0.320215  0.179785  1
  Zn  Zn15  1  0.679785  0.679785  0.679785  1
  Ga  Ga16  1  0.572412  0.427588  0.927588  1
  Ga  Ga17  1  0.427588  0.927588  0.572412  1
  Ga  Ga18  1  0.927588  0.572412  0.427588  1
  Ga  Ga19  1  0.072412  0.072412  0.072412  1
  N  N20  1  0.875815  0.124185  0.624185  1
  N  N21  1  0.624185  0.875815  0.124185  1
  N  N22  1  0.124185  0.624185  0.875815  1
  N  N23  1  0.375815  0.375815  0.375815  1
