# generated using pymatgen
data_TlSeO4F
_symmetry_space_group_name_H-M   'P 1'
_cell_length_a   5.69062074
_cell_length_b   5.76677885
_cell_length_c   8.16088992
_cell_angle_alpha   68.18310517
_cell_angle_beta   70.31093980
_cell_angle_gamma   85.81440129
_symmetry_Int_Tables_number   1
_chemical_formula_structural   TlSeO4F
_chemical_formula_sum   'Tl2 Se2 O8 F2'
_cell_volume   233.67615069
_cell_formula_units_Z   2
loop_
 _symmetry_equiv_pos_site_id
 _symmetry_equiv_pos_as_xyz
  1  'x, y, z'
loop_
 _atom_site_type_symbol
 _atom_site_label
 _atom_site_symmetry_multiplicity
 _atom_site_fract_x
 _atom_site_fract_y
 _atom_site_fract_z
 _atom_site_occupancy
  Tl  Tl0  1  0.500000  0.999999  0.500000  1
  Tl  Tl1  1  0.000000  0.000000  0.000000  1
  Se  Se2  1  0.067546  0.367886  0.265435  1
  Se  Se3  1  0.932453  0.632114  0.734564  1
  O  O4  1  0.180152  0.237830  0.103767  1
  O  O5  1  0.168094  0.671287  0.167390  1
  O  O6  1  0.752211  0.352687  0.351314  1
  O  O7  1  0.175815  0.239084  0.444757  1
  O  O8  1  0.824185  0.760914  0.555242  1
  O  O9  1  0.247789  0.647312  0.648686  1
  O  O10  1  0.831905  0.328713  0.832612  1
  O  O11  1  0.819848  0.762173  0.896231  1
  F  F12  1  0.640279  0.936435  0.232488  1
  F  F13  1  0.359722  0.063565  0.767513  1
