# generated using pymatgen
data_BaNaNi3N2
_symmetry_space_group_name_H-M   'P 1'
_cell_length_a   6.15164101
_cell_length_b   6.15164140
_cell_length_c   7.06180811
_cell_angle_alpha   91.76604051
_cell_angle_beta   88.23396105
_cell_angle_gamma   110.36640617
_symmetry_Int_Tables_number   1
_chemical_formula_structural   BaNaNi3N2
_chemical_formula_sum   'Ba2 Na2 Ni6 N4'
_cell_volume   250.35518376
_cell_formula_units_Z   2
loop_
 _symmetry_equiv_pos_site_id
 _symmetry_equiv_pos_as_xyz
  1  'x, y, z'
loop_
 _atom_site_type_symbol
 _atom_site_label
 _atom_site_symmetry_multiplicity
 _atom_site_fract_x
 _atom_site_fract_y
 _atom_site_fract_z
 _atom_site_occupancy
  Ba  Ba0  1  0.827492  0.172172  0.897057  1
  Ba  Ba1  1  0.172172  0.827492  0.102943  1
  Na  Na2  1  0.663926  0.342436  0.409670  1
  Na  Na3  1  0.342436  0.663926  0.590330  1
  Ni  Ni4  1  0.173221  0.329473  0.270405  1
  Ni  Ni5  1  0.329473  0.173221  0.729595  1
  Ni  Ni6  1  0.824664  0.674287  0.738852  1
  Ni  Ni7  1  0.674287  0.824664  0.261148  1
  Ni  Ni8  1  0.995919  0.995919  0.500000  1
  Ni  Ni9  1  0.540500  0.540500  0.000000  1
  N  N10  1  0.905744  0.093763  0.281141  1
  N  N11  1  0.093763  0.905744  0.718859  1
  N  N12  1  0.561576  0.435829  0.755449  1
  N  N13  1  0.435829  0.561576  0.244551  1
