# generated using pymatgen
data_Er3MgZn2Si2Au
_symmetry_space_group_name_H-M   'P 1'
_cell_length_a   6.95445731
_cell_length_b   6.95445734
_cell_length_c   4.28065800
_cell_angle_alpha   90.00000000
_cell_angle_beta   90.00000000
_cell_angle_gamma   119.87239865
_symmetry_Int_Tables_number   1
_chemical_formula_structural   Er3MgZn2Si2Au
_chemical_formula_sum   'Er3 Mg1 Zn2 Si2 Au1'
_cell_volume   179.52487607
_cell_formula_units_Z   1
loop_
 _symmetry_equiv_pos_site_id
 _symmetry_equiv_pos_as_xyz
  1  'x, y, z'
loop_
 _atom_site_type_symbol
 _atom_site_label
 _atom_site_symmetry_multiplicity
 _atom_site_fract_x
 _atom_site_fract_y
 _atom_site_fract_z
 _atom_site_occupancy
  Er  Er0  1  0.575516  0.000130  0.000000  1
  Er  Er1  1  0.000130  0.575516  0.000000  1
  Er  Er2  1  0.415613  0.415613  0.000000  1
  Mg  Mg3  1  0.763412  0.763412  0.500000  1
  Zn  Zn4  1  0.252951  0.000496  0.500000  1
  Zn  Zn5  1  0.000496  0.252951  0.500000  1
  Si  Si6  1  0.326378  0.663867  0.500000  1
  Si  Si7  1  0.663867  0.326378  0.500000  1
  Au  Au8  1  0.001638  0.001638  0.000000  1
