# generated using pymatgen
data_Na8TiBi4
_symmetry_space_group_name_H-M   'P 1'
_cell_length_a   10.61660458
_cell_length_b   10.61660718
_cell_length_c   10.61660800
_cell_angle_alpha   59.99973332
_cell_angle_beta   59.99970569
_cell_angle_gamma   59.99975441
_symmetry_Int_Tables_number   1
_chemical_formula_structural   Na8TiBi4
_chemical_formula_sum   'Na16 Ti2 Bi8'
_cell_volume   846.13474254
_cell_formula_units_Z   2
loop_
 _symmetry_equiv_pos_site_id
 _symmetry_equiv_pos_as_xyz
  1  'x, y, z'
loop_
 _atom_site_type_symbol
 _atom_site_label
 _atom_site_symmetry_multiplicity
 _atom_site_fract_x
 _atom_site_fract_y
 _atom_site_fract_z
 _atom_site_occupancy
  Na  Na0  1  0.625000  0.625000  0.125000  1
  Na  Na1  1  0.625000  0.125000  0.625000  1
  Na  Na2  1  0.125000  0.625000  0.625000  1
  Na  Na3  1  0.625000  0.625000  0.625000  1
  Na  Na4  1  0.028974  0.471027  0.471027  1
  Na  Na5  1  0.778974  0.221027  0.221027  1
  Na  Na6  1  0.471027  0.028974  0.471027  1
  Na  Na7  1  0.471027  0.471027  0.028974  1
  Na  Na8  1  0.028973  0.028973  0.471026  1
  Na  Na9  1  0.028973  0.471026  0.028973  1
  Na  Na10  1  0.471026  0.028973  0.028973  1
  Na  Na11  1  0.778973  0.221026  0.778973  1
  Na  Na12  1  0.221027  0.778974  0.221027  1
  Na  Na13  1  0.221027  0.221027  0.778974  1
  Na  Na14  1  0.778973  0.778973  0.221026  1
  Na  Na15  1  0.221026  0.778973  0.778973  1
  Ti  Ti16  1  0.750000  0.750000  0.750000  1
  Ti  Ti17  1  0.500000  0.500000  0.500000  1
  Bi  Bi18  1  0.856928  0.856928  0.429215  1
  Bi  Bi19  1  0.856928  0.429215  0.856929  1
  Bi  Bi20  1  0.393072  0.393072  0.820785  1
  Bi  Bi21  1  0.393072  0.820785  0.393071  1
  Bi  Bi22  1  0.820785  0.393072  0.393072  1
  Bi  Bi23  1  0.856929  0.856929  0.856928  1
  Bi  Bi24  1  0.429215  0.856928  0.856928  1
  Bi  Bi25  1  0.393071  0.393071  0.393072  1
