# generated using pymatgen
data_SrPa2O6
_symmetry_space_group_name_H-M   'P 1'
_cell_length_a   6.62335109
_cell_length_b   6.62334982
_cell_length_c   6.62335049
_cell_angle_alpha   145.53674828
_cell_angle_beta   130.23930421
_cell_angle_gamma   61.93513825
_symmetry_Int_Tables_number   1
_chemical_formula_structural   SrPa2O6
_chemical_formula_sum   'Sr1 Pa2 O6'
_cell_volume   124.20560436
_cell_formula_units_Z   1
loop_
 _symmetry_equiv_pos_site_id
 _symmetry_equiv_pos_as_xyz
  1  'x, y, z'
loop_
 _atom_site_type_symbol
 _atom_site_label
 _atom_site_symmetry_multiplicity
 _atom_site_fract_x
 _atom_site_fract_y
 _atom_site_fract_z
 _atom_site_occupancy
  Sr  Sr0  1  0.500000  0.500000  0.000000  1
  Pa  Pa1  1  0.835333  0.835333  0.000000  1
  Pa  Pa2  1  0.164667  0.164667  0.000000  1
  O  O3  1  0.945083  0.678340  0.266743  1
  O  O4  1  0.220457  0.000000  0.220457  1
  O  O5  1  0.054917  0.321660  0.733257  1
  O  O6  1  0.588402  0.321660  0.266743  1
  O  O7  1  0.411598  0.678340  0.733257  1
  O  O8  1  0.779543  0.000000  0.779543  1
