# generated using pymatgen
data_Ho3Tm(Fe2O7)2
_symmetry_space_group_name_H-M   'P 1'
_cell_length_a   7.14064058
_cell_length_b   7.13912466
_cell_length_c   7.13801871
_cell_angle_alpha   59.97214882
_cell_angle_beta   59.96786833
_cell_angle_gamma   60.00556613
_symmetry_Int_Tables_number   1
_chemical_formula_structural   Ho3Tm(Fe2O7)2
_chemical_formula_sum   'Ho3 Tm1 Fe4 O14'
_cell_volume   257.19708846
_cell_formula_units_Z   1
loop_
 _symmetry_equiv_pos_site_id
 _symmetry_equiv_pos_as_xyz
  1  'x, y, z'
loop_
 _atom_site_type_symbol
 _atom_site_label
 _atom_site_symmetry_multiplicity
 _atom_site_fract_x
 _atom_site_fract_y
 _atom_site_fract_z
 _atom_site_occupancy
  Ho  Ho0  1  0.500020  0.000004  0.499983  1
  Ho  Ho1  1  0.000003  0.500001  0.499994  1
  Ho  Ho2  1  0.499978  0.500004  0.500017  1
  Tm  Tm3  1  0.500003  0.500001  0.000003  1
  Fe  Fe4  1  0.000009  0.499994  0.000001  1
  Fe  Fe5  1  0.500001  0.999990  0.000000  1
  Fe  Fe6  1  0.000000  0.000003  0.500002  1
  Fe  Fe7  1  0.999998  0.000003  0.000002  1
  O  O8  1  0.624051  0.624006  0.627862  1
  O  O9  1  0.375948  0.375998  0.372138  1
  O  O10  1  0.334384  0.914494  0.916597  1
  O  O11  1  0.084221  0.665651  0.665951  1
  O  O12  1  0.914423  0.334536  0.916468  1
  O  O13  1  0.915966  0.915985  0.333876  1
  O  O14  1  0.334406  0.334368  0.916768  1
  O  O15  1  0.334486  0.915817  0.334019  1
  O  O16  1  0.915761  0.334349  0.334049  1
  O  O17  1  0.665596  0.665628  0.083241  1
  O  O18  1  0.084046  0.083999  0.666129  1
  O  O19  1  0.665608  0.085517  0.083397  1
  O  O20  1  0.665513  0.084188  0.665981  1
  O  O21  1  0.085580  0.665469  0.083524  1
