# generated using pymatgen
data_Ho4ScP12Ir10Ru9
_symmetry_space_group_name_H-M   'P 1'
_cell_length_a   12.62083700
_cell_length_b   12.62083722
_cell_length_c   3.93609000
_cell_angle_alpha   90.00000000
_cell_angle_beta   90.00000000
_cell_angle_gamma   120.00000135
_symmetry_Int_Tables_number   1
_chemical_formula_structural   Ho4ScP12Ir10Ru9
_chemical_formula_sum   'Ho4 Sc1 P12 Ir10 Ru9'
_cell_volume   542.96516701
_cell_formula_units_Z   1
loop_
 _symmetry_equiv_pos_site_id
 _symmetry_equiv_pos_as_xyz
  1  'x, y, z'
loop_
 _atom_site_type_symbol
 _atom_site_label
 _atom_site_symmetry_multiplicity
 _atom_site_fract_x
 _atom_site_fract_y
 _atom_site_fract_z
 _atom_site_occupancy
  Ho  Ho0  1  0.333333  0.666667  0.000000  1
  Ho  Ho1  1  0.811679  0.999912  0.500000  1
  Ho  Ho2  1  0.000088  0.811767  0.500000  1
  Ho  Ho3  1  0.188233  0.188321  0.500000  1
  Sc  Sc4  1  0.666667  0.333333  0.000000  1
  P  P5  1  0.181828  0.001188  0.000000  1
  P  P6  1  0.998812  0.180640  0.000000  1
  P  P7  1  0.819360  0.818172  0.000000  1
  P  P8  1  0.172248  0.480352  0.500000  1
  P  P9  1  0.519648  0.691895  0.500000  1
  P  P10  1  0.308105  0.827752  0.500000  1
  P  P11  1  0.692744  0.517281  0.500000  1
  P  P12  1  0.824536  0.307256  0.500000  1
  P  P13  1  0.482719  0.175464  0.500000  1
  P  P14  1  0.636295  0.999874  0.000000  1
  P  P15  1  0.000126  0.636421  0.000000  1
  P  P16  1  0.363579  0.363705  0.000000  1
  Ir  Ir17  1  0.363772  0.493523  0.500000  1
  Ir  Ir18  1  0.506477  0.870247  0.500000  1
  Ir  Ir19  1  0.129753  0.636228  0.500000  1
  Ir  Ir20  1  0.868347  0.503522  0.500000  1
  Ir  Ir21  1  0.635174  0.131653  0.500000  1
  Ir  Ir22  1  0.496478  0.364826  0.500000  1
  Ir  Ir23  1  0.286647  0.001274  0.500000  1
  Ir  Ir24  1  0.998726  0.285373  0.500000  1
  Ir  Ir25  1  0.714627  0.713353  0.500000  1
  Ir  Ir26  1  0.000000  0.000000  0.000000  1
  Ru  Ru27  1  0.452293  0.999813  0.000000  1
  Ru  Ru28  1  0.000187  0.452480  0.000000  1
  Ru  Ru29  1  0.547520  0.547707  0.000000  1
  Ru  Ru30  1  0.181589  0.377652  0.000000  1
  Ru  Ru31  1  0.622348  0.803938  0.000000  1
  Ru  Ru32  1  0.196062  0.818411  0.000000  1
  Ru  Ru33  1  0.803293  0.619665  0.000000  1
  Ru  Ru34  1  0.816373  0.196707  0.000000  1
  Ru  Ru35  1  0.380335  0.183627  0.000000  1
