# generated using pymatgen
data_Ca6Zn15PdN
_symmetry_space_group_name_H-M   'P 1'
_cell_length_a   8.23224707
_cell_length_b   8.09171842
_cell_length_c   8.23224661
_cell_angle_alpha   109.12579120
_cell_angle_beta   109.81443581
_cell_angle_gamma   109.12578933
_symmetry_Int_Tables_number   1
_chemical_formula_structural   Ca6Zn15PdN
_chemical_formula_sum   'Ca6 Zn15 Pd1 N1'
_cell_volume   423.92527439
_cell_formula_units_Z   1
loop_
 _symmetry_equiv_pos_site_id
 _symmetry_equiv_pos_as_xyz
  1  'x, y, z'
loop_
 _atom_site_type_symbol
 _atom_site_label
 _atom_site_symmetry_multiplicity
 _atom_site_fract_x
 _atom_site_fract_y
 _atom_site_fract_z
 _atom_site_occupancy
  Ca  Ca0  1  0.000000  0.258366  0.253047  1
  Ca  Ca1  1  0.253047  0.994681  0.253047  1
  Ca  Ca2  1  0.746953  0.005319  0.746953  1
  Ca  Ca3  1  0.746953  0.741634  0.000000  1
  Ca  Ca4  1  0.253047  0.258366  0.000000  1
  Ca  Ca5  1  0.000000  0.741634  0.746953  1
  Zn  Zn6  1  0.500000  0.500000  0.500000  1
  Zn  Zn7  1  0.500000  0.000000  0.000000  1
  Zn  Zn8  1  0.000000  0.000000  0.500000  1
  Zn  Zn9  1  0.682644  0.341322  0.341322  1
  Zn  Zn10  1  0.341322  0.000000  0.658678  1
  Zn  Zn11  1  0.341086  0.682561  0.341086  1
  Zn  Zn12  1  0.341322  0.341322  0.682644  1
  Zn  Zn13  1  0.341086  0.658524  0.000000  1
  Zn  Zn14  1  0.000000  0.341476  0.658914  1
  Zn  Zn15  1  0.000000  0.658524  0.341086  1
  Zn  Zn16  1  0.658678  0.658678  0.317356  1
  Zn  Zn17  1  0.658678  0.000000  0.341322  1
  Zn  Zn18  1  0.658914  0.341476  0.000000  1
  Zn  Zn19  1  0.658914  0.317439  0.658914  1
  Zn  Zn20  1  0.317356  0.658678  0.658678  1
  Pd  Pd21  1  0.000000  0.500000  0.000000  1
  N  N22  1  0.000000  0.000000  0.000000  1
