# generated using pymatgen
data_Er8Lu4TlCo4Os
_symmetry_space_group_name_H-M   'P 1'
_cell_length_a   8.17510653
_cell_length_b   8.17471454
_cell_length_c   8.17510495
_cell_angle_alpha   111.48768345
_cell_angle_beta   110.71747896
_cell_angle_gamma   106.25839307
_symmetry_Int_Tables_number   1
_chemical_formula_structural   Er8Lu4TlCo4Os
_chemical_formula_sum   'Er8 Lu4 Tl1 Co4 Os1'
_cell_volume   419.55417097
_cell_formula_units_Z   1
loop_
 _symmetry_equiv_pos_site_id
 _symmetry_equiv_pos_as_xyz
  1  'x, y, z'
loop_
 _atom_site_type_symbol
 _atom_site_label
 _atom_site_symmetry_multiplicity
 _atom_site_fract_x
 _atom_site_fract_y
 _atom_site_fract_z
 _atom_site_occupancy
  Er  Er0  1  0.417875  0.222965  0.194907  1
  Er  Er1  1  0.582125  0.777035  0.805093  1
  Er  Er2  1  0.028058  0.222965  0.805091  1
  Er  Er3  1  0.971942  0.777035  0.194909  1
  Er  Er4  1  0.181207  0.277663  0.458867  1
  Er  Er5  1  0.818793  0.722337  0.541133  1
  Er  Er6  1  0.181203  0.722337  0.903544  1
  Er  Er7  1  0.818797  0.277663  0.096456  1
  Lu  Lu8  1  0.315342  0.623496  0.308154  1
  Lu  Lu9  1  0.684658  0.376504  0.691846  1
  Lu  Lu10  1  0.315355  0.007207  0.691852  1
  Lu  Lu11  1  0.684645  0.992793  0.308148  1
  Tl  Tl12  1  0.500000  0.500000  0.000000  1
  Co  Co13  1  0.375510  0.000000  0.375510  1
  Co  Co14  1  0.624490  0.000000  0.624490  1
  Co  Co15  1  0.112111  0.612110  0.499999  1
  Co  Co16  1  0.887889  0.387890  0.500001  1
  Os  Os17  1  0.000000  0.000000  0.000000  1
