# generated using pymatgen
data_Y4Co5
_symmetry_space_group_name_H-M   'P 1'
_cell_length_a   5.53110358
_cell_length_b   5.53110395
_cell_length_c   8.69398009
_cell_angle_alpha   72.36522103
_cell_angle_beta   72.36521983
_cell_angle_gamma   42.47030780
_symmetry_Int_Tables_number   1
_chemical_formula_structural   Y4Co5
_chemical_formula_sum   'Y4 Co5'
_cell_volume   169.83886641
_cell_formula_units_Z   1
loop_
 _symmetry_equiv_pos_site_id
 _symmetry_equiv_pos_as_xyz
  1  'x, y, z'
loop_
 _atom_site_type_symbol
 _atom_site_label
 _atom_site_symmetry_multiplicity
 _atom_site_fract_x
 _atom_site_fract_y
 _atom_site_fract_z
 _atom_site_occupancy
  Y  Y0  1  0.739522  0.739522  0.661181  1
  Y  Y1  1  0.260478  0.260478  0.338819  1
  Y  Y2  1  0.390774  0.390774  0.880649  1
  Y  Y3  1  0.609226  0.609226  0.119351  1
  Co  Co4  1  0.500000  0.500000  0.500000  1
  Co  Co5  1  0.033648  0.033648  0.633726  1
  Co  Co6  1  0.966352  0.966352  0.366274  1
  Co  Co7  1  0.086055  0.086055  0.876293  1
  Co  Co8  1  0.913945  0.913945  0.123707  1
