# generated using pymatgen
data_TiSiPd4Pt
_symmetry_space_group_name_H-M   'P 1'
_cell_length_a   3.96064200
_cell_length_b   3.98073400
_cell_length_c   6.83853900
_cell_angle_alpha   90.00000000
_cell_angle_beta   90.00000000
_cell_angle_gamma   90.00000000
_symmetry_Int_Tables_number   1
_chemical_formula_structural   TiSiPd4Pt
_chemical_formula_sum   'Ti1 Si1 Pd4 Pt1'
_cell_volume   107.81819943
_cell_formula_units_Z   1
loop_
 _symmetry_equiv_pos_site_id
 _symmetry_equiv_pos_as_xyz
  1  'x, y, z'
loop_
 _atom_site_type_symbol
 _atom_site_label
 _atom_site_symmetry_multiplicity
 _atom_site_fract_x
 _atom_site_fract_y
 _atom_site_fract_z
 _atom_site_occupancy
  Ti  Ti0  1  0.500000  0.500000  0.996016  1
  Si  Si1  1  0.000000  0.000000  0.500724  1
  Pd  Pd2  1  0.000000  0.000000  0.001408  1
  Pd  Pd3  1  0.000000  0.500000  0.714162  1
  Pd  Pd4  1  0.500000  0.000000  0.285544  1
  Pd  Pd5  1  0.000000  0.500000  0.285769  1
  Pt  Pt6  1  0.500000  0.000000  0.716376  1
