# generated using pymatgen
data_Nd8Lu2Ir5Rh
_symmetry_space_group_name_H-M   'P 1'
_cell_length_a   11.15767600
_cell_length_b   11.15767600
_cell_length_c   6.53752900
_cell_angle_alpha   90.00000000
_cell_angle_beta   90.00000000
_cell_angle_gamma   90.00000000
_symmetry_Int_Tables_number   1
_chemical_formula_structural   Nd8Lu2Ir5Rh
_chemical_formula_sum   'Nd16 Lu4 Ir10 Rh2'
_cell_volume   813.88139452
_cell_formula_units_Z   2
loop_
 _symmetry_equiv_pos_site_id
 _symmetry_equiv_pos_as_xyz
  1  'x, y, z'
loop_
 _atom_site_type_symbol
 _atom_site_label
 _atom_site_symmetry_multiplicity
 _atom_site_fract_x
 _atom_site_fract_y
 _atom_site_fract_z
 _atom_site_occupancy
  Nd  Nd0  1  0.087544  0.288024  0.116184  1
  Nd  Nd1  1  0.788024  0.412456  0.116184  1
  Nd  Nd2  1  0.211976  0.587544  0.116184  1
  Nd  Nd3  1  0.912456  0.711976  0.116184  1
  Nd  Nd4  1  0.412459  0.788030  0.383792  1
  Nd  Nd5  1  0.587541  0.211970  0.383792  1
  Nd  Nd6  1  0.288030  0.087541  0.383792  1
  Nd  Nd7  1  0.711970  0.912459  0.383792  1
  Nd  Nd8  1  0.412490  0.212190  0.882102  1
  Nd  Nd9  1  0.712190  0.087510  0.882102  1
  Nd  Nd10  1  0.287810  0.912490  0.882102  1
  Nd  Nd11  1  0.587510  0.787810  0.882102  1
  Nd  Nd12  1  0.087511  0.712198  0.617893  1
  Nd  Nd13  1  0.912489  0.287802  0.617893  1
  Nd  Nd14  1  0.212198  0.412489  0.617893  1
  Nd  Nd15  1  0.787802  0.587511  0.617893  1
  Lu  Lu16  1  0.000000  0.000000  0.000068  1
  Lu  Lu17  1  0.500000  0.500000  0.000068  1
  Lu  Lu18  1  0.500000  0.500000  0.499911  1
  Lu  Lu19  1  0.000000  0.000000  0.499911  1
  Ir  Ir20  1  0.147081  0.852910  0.249999  1
  Ir  Ir21  1  0.352910  0.352919  0.249999  1
  Ir  Ir22  1  0.647090  0.647081  0.249999  1
  Ir  Ir23  1  0.852919  0.147090  0.249999  1
  Ir  Ir24  1  0.353011  0.646977  0.749999  1
  Ir  Ir25  1  0.146977  0.146989  0.749999  1
  Ir  Ir26  1  0.853023  0.853011  0.749999  1
  Ir  Ir27  1  0.646989  0.353023  0.749999  1
  Ir  Ir28  1  0.500000  0.000000  0.621639  1
  Ir  Ir29  1  0.000000  0.500000  0.878333  1
  Rh  Rh30  1  0.000000  0.500000  0.379968  1
  Rh  Rh31  1  0.500000  0.000000  0.120225  1
