# generated using pymatgen
data_Rb4ZrReBr12
_symmetry_space_group_name_H-M   'P 1'
_cell_length_a   7.74710800
_cell_length_b   7.74746700
_cell_length_c   10.93849000
_cell_angle_alpha   90.00000000
_cell_angle_beta   90.00000000
_cell_angle_gamma   90.00000000
_symmetry_Int_Tables_number   1
_chemical_formula_structural   Rb4ZrReBr12
_chemical_formula_sum   'Rb4 Zr1 Re1 Br12'
_cell_volume   656.53324062
_cell_formula_units_Z   1
loop_
 _symmetry_equiv_pos_site_id
 _symmetry_equiv_pos_as_xyz
  1  'x, y, z'
loop_
 _atom_site_type_symbol
 _atom_site_label
 _atom_site_symmetry_multiplicity
 _atom_site_fract_x
 _atom_site_fract_y
 _atom_site_fract_z
 _atom_site_occupancy
  Rb  Rb0  1  0.500000  0.000000  0.751134  1
  Rb  Rb1  1  0.000000  0.500000  0.248879  1
  Rb  Rb2  1  0.500000  0.000000  0.248866  1
  Rb  Rb3  1  0.000000  0.500000  0.751121  1
  Zr  Zr4  1  0.000000  0.000000  0.000000  1
  Re  Re5  1  0.500000  0.500000  0.500000  1
  Br  Br6  1  0.000000  0.000000  0.757598  1
  Br  Br7  1  0.500000  0.500000  0.267850  1
  Br  Br8  1  0.731917  0.731885  0.500000  1
  Br  Br9  1  0.242097  0.242089  0.000000  1
  Br  Br10  1  0.731917  0.268115  0.500000  1
  Br  Br11  1  0.242097  0.757911  0.000000  1
  Br  Br12  1  0.000000  0.000000  0.242402  1
  Br  Br13  1  0.500000  0.500000  0.732150  1
  Br  Br14  1  0.268083  0.268115  0.500000  1
  Br  Br15  1  0.757903  0.757911  0.000000  1
  Br  Br16  1  0.268083  0.731885  0.500000  1
  Br  Br17  1  0.757903  0.242089  0.000000  1
