# generated using pymatgen
data_Sr2In8CuNi
_symmetry_space_group_name_H-M   'P 1'
_cell_length_a   8.96222583
_cell_length_b   8.96222629
_cell_length_c   7.43822400
_cell_angle_alpha   90.00000000
_cell_angle_beta   90.00000000
_cell_angle_gamma   150.21961709
_symmetry_Int_Tables_number   1
_chemical_formula_structural   Sr2In8CuNi
_chemical_formula_sum   'Sr2 In8 Cu1 Ni1'
_cell_volume   296.73921053
_cell_formula_units_Z   1
loop_
 _symmetry_equiv_pos_site_id
 _symmetry_equiv_pos_as_xyz
  1  'x, y, z'
loop_
 _atom_site_type_symbol
 _atom_site_label
 _atom_site_symmetry_multiplicity
 _atom_site_fract_x
 _atom_site_fract_y
 _atom_site_fract_z
 _atom_site_occupancy
  Sr  Sr0  1  0.120534  0.879466  0.750000  1
  Sr  Sr1  1  0.878438  0.121562  0.250000  1
  In  In2  1  0.687628  0.312372  0.045030  1
  In  In3  1  0.312530  0.687470  0.946331  1
  In  In4  1  0.687628  0.312372  0.454970  1
  In  In5  1  0.074187  0.925813  0.250000  1
  In  In6  1  0.499948  0.500052  0.000144  1
  In  In7  1  0.312530  0.687470  0.553669  1
  In  In8  1  0.499948  0.500052  0.499856  1
  In  In9  1  0.923850  0.076150  0.750000  1
  Cu  Cu10  1  0.227826  0.772174  0.250000  1
  Ni  Ni11  1  0.774954  0.225046  0.750000  1
