# generated using pymatgen
data_TmPu3Ga12Ir
_symmetry_space_group_name_H-M   'P 1'
_cell_length_a   7.46015957
_cell_length_b   7.46016005
_cell_length_c   7.55221200
_cell_angle_alpha   109.72136987
_cell_angle_beta   109.72137119
_cell_angle_gamma   109.21991457
_symmetry_Int_Tables_number   1
_chemical_formula_structural   TmPu3Ga12Ir
_chemical_formula_sum   'Tm1 Pu3 Ga12 Ir1'
_cell_volume   322.55106806
_cell_formula_units_Z   1
loop_
 _symmetry_equiv_pos_site_id
 _symmetry_equiv_pos_as_xyz
  1  'x, y, z'
loop_
 _atom_site_type_symbol
 _atom_site_label
 _atom_site_symmetry_multiplicity
 _atom_site_fract_x
 _atom_site_fract_y
 _atom_site_fract_z
 _atom_site_occupancy
  Tm  Tm0  1  0.000000  0.000000  0.500000  1
  Pu  Pu1  1  0.000000  0.500000  0.000000  1
  Pu  Pu2  1  0.500000  0.000000  0.000000  1
  Pu  Pu3  1  0.500000  0.500000  0.500000  1
  Ga  Ga4  1  0.750585  0.249415  0.500000  1
  Ga  Ga5  1  0.750585  0.501170  0.250585  1
  Ga  Ga6  1  0.498830  0.249415  0.749415  1
  Ga  Ga7  1  0.249415  0.498830  0.749415  1
  Ga  Ga8  1  0.249415  0.750585  0.500000  1
  Ga  Ga9  1  0.501170  0.750585  0.250585  1
  Ga  Ga10  1  0.708660  0.708660  0.999931  1
  Ga  Ga11  1  0.291340  0.000000  0.291270  1
  Ga  Ga12  1  0.000000  0.291340  0.291270  1
  Ga  Ga13  1  0.291340  0.291340  0.000069  1
  Ga  Ga14  1  0.708660  0.000000  0.708730  1
  Ga  Ga15  1  0.000000  0.708660  0.708730  1
  Ir  Ir16  1  0.000000  0.000000  0.000000  1
