# generated using pymatgen
data_Lu4MnB12Ru
_symmetry_space_group_name_H-M   'P 1'
_cell_length_a   3.54351600
_cell_length_b   9.00542711
_cell_length_c   11.37148114
_cell_angle_alpha   89.98174413
_cell_angle_beta   90.00000000
_cell_angle_gamma   90.00000000
_symmetry_Int_Tables_number   1
_chemical_formula_structural   Lu4MnB12Ru
_chemical_formula_sum   'Lu8 Mn2 B24 Ru2'
_cell_volume   362.87389569
_cell_formula_units_Z   2
loop_
 _symmetry_equiv_pos_site_id
 _symmetry_equiv_pos_as_xyz
  1  'x, y, z'
loop_
 _atom_site_type_symbol
 _atom_site_label
 _atom_site_symmetry_multiplicity
 _atom_site_fract_x
 _atom_site_fract_y
 _atom_site_fract_z
 _atom_site_occupancy
  Lu  Lu0  1  0.000000  0.326469  0.416251  1
  Lu  Lu1  1  0.000000  0.673531  0.583749  1
  Lu  Lu2  1  0.000000  0.820050  0.087940  1
  Lu  Lu3  1  0.000000  0.179950  0.912060  1
  Lu  Lu4  1  0.000000  0.940105  0.371318  1
  Lu  Lu5  1  0.000000  0.059895  0.628682  1
  Lu  Lu6  1  0.000000  0.445609  0.131036  1
  Lu  Lu7  1  0.000000  0.554391  0.868964  1
  Mn  Mn8  1  0.000000  0.638153  0.320340  1
  Mn  Mn9  1  0.000000  0.361847  0.679660  1
  B  B10  1  0.500000  0.553525  0.432917  1
  B  B11  1  0.500000  0.446475  0.567083  1
  B  B12  1  0.500000  0.053088  0.066202  1
  B  B13  1  0.500000  0.946912  0.933798  1
  B  B14  1  0.500000  0.746849  0.418715  1
  B  B15  1  0.500000  0.253151  0.581285  1
  B  B16  1  0.500000  0.249855  0.080068  1
  B  B17  1  0.500000  0.750145  0.919932  1
  B  B18  1  0.500000  0.790482  0.265949  1
  B  B19  1  0.500000  0.209518  0.734051  1
  B  B20  1  0.500000  0.293014  0.235443  1
  B  B21  1  0.500000  0.706986  0.764557  1
  B  B22  1  0.500000  0.631264  0.186146  1
  B  B23  1  0.500000  0.368736  0.813854  1
  B  B24  1  0.500000  0.131100  0.315712  1
  B  B25  1  0.500000  0.868900  0.684288  1
  B  B26  1  0.500000  0.980796  0.212676  1
  B  B27  1  0.500000  0.019204  0.787324  1
  B  B28  1  0.500000  0.484088  0.288751  1
  B  B29  1  0.500000  0.515912  0.711249  1
  B  B30  1  0.500000  0.603450  0.028675  1
  B  B31  1  0.500000  0.396550  0.971325  1
  B  B32  1  0.500000  0.103925  0.471336  1
  B  B33  1  0.500000  0.896075  0.528664  1
  Ru  Ru34  1  0.000000  0.138163  0.178910  1
  Ru  Ru35  1  0.000000  0.861837  0.821090  1
