# generated using pymatgen
data_Tb3ZrSn2Ir3
_symmetry_space_group_name_H-M   'P 1'
_cell_length_a   7.28376300
_cell_length_b   7.39857463
_cell_length_c   4.21477000
_cell_angle_alpha   90.00000000
_cell_angle_beta   90.00000000
_cell_angle_gamma   119.48797585
_symmetry_Int_Tables_number   1
_chemical_formula_structural   Tb3ZrSn2Ir3
_chemical_formula_sum   'Tb3 Zr1 Sn2 Ir3'
_cell_volume   197.70883352
_cell_formula_units_Z   1
loop_
 _symmetry_equiv_pos_site_id
 _symmetry_equiv_pos_as_xyz
  1  'x, y, z'
loop_
 _atom_site_type_symbol
 _atom_site_label
 _atom_site_symmetry_multiplicity
 _atom_site_fract_x
 _atom_site_fract_y
 _atom_site_fract_z
 _atom_site_occupancy
  Tb  Tb0  1  0.604063  0.000000  0.000000  1
  Tb  Tb1  1  0.994175  0.583394  0.000000  1
  Tb  Tb2  1  0.410781  0.416606  0.000000  1
  Zr  Zr3  1  0.249497  0.000000  0.500000  1
  Sn  Sn4  1  0.001585  0.254381  0.500000  1
  Sn  Sn5  1  0.747204  0.745619  0.500000  1
  Ir  Ir6  1  0.327379  0.676909  0.500000  1
  Ir  Ir7  1  0.650471  0.323091  0.500000  1
  Ir  Ir8  1  0.014844  0.000000  0.000000  1
