# generated using pymatgen
data_Ce2Sm2In2CuRh3
_symmetry_space_group_name_H-M   'P 1'
_cell_length_a   7.68064706
_cell_length_b   7.68064806
_cell_length_c   3.75716200
_cell_angle_alpha   90.00000000
_cell_angle_beta   90.00000000
_cell_angle_gamma   87.09009637
_symmetry_Int_Tables_number   1
_chemical_formula_structural   Ce2Sm2In2CuRh3
_chemical_formula_sum   'Ce2 Sm2 In2 Cu1 Rh3'
_cell_volume   221.35801610
_cell_formula_units_Z   1
loop_
 _symmetry_equiv_pos_site_id
 _symmetry_equiv_pos_as_xyz
  1  'x, y, z'
loop_
 _atom_site_type_symbol
 _atom_site_label
 _atom_site_symmetry_multiplicity
 _atom_site_fract_x
 _atom_site_fract_y
 _atom_site_fract_z
 _atom_site_occupancy
  Ce  Ce0  1  0.167385  0.310790  0.500000  1
  Ce  Ce1  1  0.810790  0.667385  0.500000  1
  Sm  Sm2  1  0.676205  0.176205  0.500000  1
  Sm  Sm3  1  0.333472  0.833472  0.500000  1
  In  In4  1  0.997392  0.989641  0.000000  1
  In  In5  1  0.489641  0.497392  0.000000  1
  Cu  Cu6  1  0.129199  0.629199  0.000000  1
  Rh  Rh7  1  0.893150  0.393150  0.000000  1
  Rh  Rh8  1  0.642404  0.860362  0.000000  1
  Rh  Rh9  1  0.360362  0.142404  0.000000  1
