# generated using pymatgen
data_Er6TiAl23Os5Ru3
_symmetry_space_group_name_H-M   'P 1'
_cell_length_a   8.84594681
_cell_length_b   8.81254387
_cell_length_c   9.57025027
_cell_angle_alpha   89.99881401
_cell_angle_beta   89.98092162
_cell_angle_gamma   120.17096906
_symmetry_Int_Tables_number   1
_chemical_formula_structural   Er6TiAl23Os5Ru3
_chemical_formula_sum   'Er6 Ti1 Al23 Os5 Ru3'
_cell_volume   644.98367988
_cell_formula_units_Z   1
loop_
 _symmetry_equiv_pos_site_id
 _symmetry_equiv_pos_as_xyz
  1  'x, y, z'
loop_
 _atom_site_type_symbol
 _atom_site_label
 _atom_site_symmetry_multiplicity
 _atom_site_fract_x
 _atom_site_fract_y
 _atom_site_fract_z
 _atom_site_occupancy
  Er  Er0  1  0.194573  0.388979  0.249965  1
  Er  Er1  1  0.805744  0.612044  0.748877  1
  Er  Er2  1  0.612761  0.802663  0.250512  1
  Er  Er3  1  0.386712  0.195912  0.748659  1
  Er  Er4  1  0.190123  0.802803  0.249929  1
  Er  Er5  1  0.809704  0.195970  0.748959  1
  Ti  Ti6  1  0.334718  0.669838  0.996580  1
  Al  Al7  1  0.666504  0.332762  0.979083  1
  Al  Al8  1  0.666238  0.332343  0.519341  1
  Al  Al9  1  0.333727  0.667571  0.479552  1
  Al  Al10  1  0.162363  0.325467  0.575983  1
  Al  Al11  1  0.837235  0.674028  0.424973  1
  Al  Al12  1  0.675518  0.838695  0.576548  1
  Al  Al13  1  0.836640  0.673568  0.076661  1
  Al  Al14  1  0.325286  0.161977  0.423368  1
  Al  Al15  1  0.160534  0.320644  0.925453  1
  Al  Al16  1  0.162161  0.838349  0.577172  1
  Al  Al17  1  0.325691  0.162161  0.077676  1
  Al  Al18  1  0.837118  0.162002  0.423359  1
  Al  Al19  1  0.681063  0.840227  0.923916  1
  Al  Al20  1  0.836628  0.162027  0.077935  1
  Al  Al21  1  0.159049  0.840349  0.923506  1
  Al  Al22  1  0.560286  0.120637  0.251761  1
  Al  Al23  1  0.441511  0.882990  0.750033  1
  Al  Al24  1  0.874346  0.435754  0.252102  1
  Al  Al25  1  0.121049  0.561811  0.750696  1
  Al  Al26  1  0.561512  0.435800  0.251983  1
  Al  Al27  1  0.440439  0.561557  0.750739  1
  Al  Al28  1  0.999674  0.999562  0.252135  1
  Al  Al29  1  0.000297  0.000278  0.748391  1
  Os  Os30  1  0.002645  0.501526  0.002729  1
  Os  Os31  1  0.499074  0.501443  0.002591  1
  Os  Os32  1  0.000997  0.500537  0.502057  1
  Os  Os33  1  0.499624  0.500511  0.502065  1
  Os  Os34  1  0.000110  0.000198  0.001246  1
  Ru  Ru35  1  0.498903  0.997646  0.001603  1
  Ru  Ru36  1  0.499296  0.998992  0.502305  1
  Ru  Ru37  1  0.000147  0.000384  0.499557  1
