# generated using pymatgen
data_Sc3In2GaPt3
_symmetry_space_group_name_H-M   'P 1'
_cell_length_a   7.44092329
_cell_length_b   7.44092245
_cell_length_c   3.59024300
_cell_angle_alpha   90.00000000
_cell_angle_beta   90.00000000
_cell_angle_gamma   119.29382036
_symmetry_Int_Tables_number   1
_chemical_formula_structural   Sc3In2GaPt3
_chemical_formula_sum   'Sc3 In2 Ga1 Pt3'
_cell_volume   173.36232267
_cell_formula_units_Z   1
loop_
 _symmetry_equiv_pos_site_id
 _symmetry_equiv_pos_as_xyz
  1  'x, y, z'
loop_
 _atom_site_type_symbol
 _atom_site_label
 _atom_site_symmetry_multiplicity
 _atom_site_fract_x
 _atom_site_fract_y
 _atom_site_fract_z
 _atom_site_occupancy
  Sc  Sc0  1  0.601311  0.988370  0.000000  1
  Sc  Sc1  1  0.416791  0.416791  0.000000  1
  Sc  Sc2  1  0.988370  0.601311  0.000000  1
  In  In3  1  0.007308  0.272044  0.500000  1
  In  In4  1  0.272044  0.007308  0.500000  1
  Ga  Ga5  1  0.726468  0.726468  0.500000  1
  Pt  Pt6  1  0.670674  0.343838  0.500000  1
  Pt  Pt7  1  0.973197  0.973197  0.000000  1
  Pt  Pt8  1  0.343838  0.670674  0.500000  1
