# generated using pymatgen
data_Re3Tc5
_symmetry_space_group_name_H-M   'P 1'
_cell_length_a   2.76931441
_cell_length_b   4.79147532
_cell_length_c   9.32290531
_cell_angle_alpha   104.92159681
_cell_angle_beta   98.41805528
_cell_angle_gamma   90.23900057
_symmetry_Int_Tables_number   1
_chemical_formula_structural   Re3Tc5
_chemical_formula_sum   'Re3 Tc5'
_cell_volume   118.13375587
_cell_formula_units_Z   1
loop_
 _symmetry_equiv_pos_site_id
 _symmetry_equiv_pos_as_xyz
  1  'x, y, z'
loop_
 _atom_site_type_symbol
 _atom_site_label
 _atom_site_symmetry_multiplicity
 _atom_site_fract_x
 _atom_site_fract_y
 _atom_site_fract_z
 _atom_site_occupancy
  Re  Re0  1  0.716496  0.679392  0.064301  1
  Re  Re1  1  0.217306  0.180105  0.065957  1
  Re  Re2  1  0.467267  0.426851  0.565198  1
  Tc  Tc3  1  0.966679  0.923711  0.565119  1
  Tc  Tc4  1  0.090769  0.389565  0.814449  1
  Tc  Tc5  1  0.841535  0.136231  0.316068  1
  Tc  Tc6  1  0.591162  0.890733  0.814525  1
  Tc  Tc7  1  0.341939  0.637003  0.316198  1
