# generated using pymatgen
data_Y6Ho10Cd4IrRu3
_symmetry_space_group_name_H-M   'P 1'
_cell_length_a   9.60403344
_cell_length_b   9.64245078
_cell_length_c   9.64245100
_cell_angle_alpha   59.99999583
_cell_angle_beta   59.86758425
_cell_angle_gamma   59.86758693
_symmetry_Int_Tables_number   1
_chemical_formula_structural   Y6Ho10Cd4IrRu3
_chemical_formula_sum   'Y6 Ho10 Cd4 Ir1 Ru3'
_cell_volume   630.14631675
_cell_formula_units_Z   1
loop_
 _symmetry_equiv_pos_site_id
 _symmetry_equiv_pos_as_xyz
  1  'x, y, z'
loop_
 _atom_site_type_symbol
 _atom_site_label
 _atom_site_symmetry_multiplicity
 _atom_site_fract_x
 _atom_site_fract_y
 _atom_site_fract_z
 _atom_site_occupancy
  Y  Y0  1  0.938114  0.561416  0.561416  1
  Y  Y1  1  0.560807  0.939018  0.939018  1
  Y  Y2  1  0.560807  0.939018  0.561156  1
  Y  Y3  1  0.938114  0.561416  0.939054  1
  Y  Y4  1  0.560807  0.561156  0.939018  1
  Y  Y5  1  0.938114  0.939054  0.561416  1
  Ho  Ho6  1  0.346271  0.347761  0.347761  1
  Ho  Ho7  1  0.346271  0.347761  0.958207  1
  Ho  Ho8  1  0.346271  0.958207  0.347761  1
  Ho  Ho9  1  0.963003  0.345666  0.345666  1
  Ho  Ho10  1  0.811532  0.189019  0.189019  1
  Ho  Ho11  1  0.187811  0.811576  0.811576  1
  Ho  Ho12  1  0.187811  0.811576  0.189038  1
  Ho  Ho13  1  0.811532  0.189019  0.810429  1
  Ho  Ho14  1  0.187811  0.189038  0.811576  1
  Ho  Ho15  1  0.811532  0.810429  0.189019  1
  Cd  Cd16  1  0.580146  0.579703  0.579703  1
  Cd  Cd17  1  0.580146  0.579703  0.260449  1
  Cd  Cd18  1  0.580146  0.260449  0.579703  1
  Cd  Cd19  1  0.259062  0.580313  0.580313  1
  Ir  Ir20  1  0.576842  0.141053  0.141053  1
  Ru  Ru21  1  0.142350  0.138744  0.138744  1
  Ru  Ru22  1  0.142350  0.138744  0.580162  1
  Ru  Ru23  1  0.142350  0.580162  0.138744  1
