# generated using pymatgen
data_Er11TmFe4CuSn
_symmetry_space_group_name_H-M   'P 1'
_cell_length_a   8.25882465
_cell_length_b   8.25836179
_cell_length_c   8.25882535
_cell_angle_alpha   110.84356900
_cell_angle_beta   110.99525651
_cell_angle_gamma   106.61429762
_symmetry_Int_Tables_number   1
_chemical_formula_structural   Er11TmFe4CuSn
_chemical_formula_sum   'Er11 Tm1 Fe4 Cu1 Sn1'
_cell_volume   432.80288955
_cell_formula_units_Z   1
loop_
 _symmetry_equiv_pos_site_id
 _symmetry_equiv_pos_as_xyz
  1  'x, y, z'
loop_
 _atom_site_type_symbol
 _atom_site_label
 _atom_site_symmetry_multiplicity
 _atom_site_fract_x
 _atom_site_fract_y
 _atom_site_fract_z
 _atom_site_occupancy
  Er  Er0  1  0.687561  0.385990  0.698429  1
  Er  Er1  1  0.312394  0.010887  0.698492  1
  Er  Er2  1  0.687534  0.989041  0.301507  1
  Er  Er3  1  0.419337  0.217836  0.201879  1
  Er  Er4  1  0.580404  0.782205  0.797848  1
  Er  Er5  1  0.015957  0.217836  0.798498  1
  Er  Er6  1  0.984357  0.782205  0.201801  1
  Er  Er7  1  0.187082  0.289012  0.475679  1
  Er  Er8  1  0.812640  0.711129  0.524107  1
  Er  Er9  1  0.187022  0.711129  0.898488  1
  Er  Er10  1  0.813332  0.289012  0.101930  1
  Tm  Tm11  1  0.312583  0.614515  0.301931  1
  Fe  Fe12  1  0.108963  0.608856  0.499893  1
  Fe  Fe13  1  0.891567  0.391670  0.500103  1
  Fe  Fe14  1  0.383656  0.999413  0.383570  1
  Fe  Fe15  1  0.615844  0.999413  0.615757  1
  Cu  Cu16  1  0.999884  0.999735  0.999851  1
  Sn  Sn17  1  0.499882  0.500120  0.000238  1
