# generated using pymatgen
data_Nd9Er(Sn3Br)2
_symmetry_space_group_name_H-M   'P 1'
_cell_length_a   9.49384600
_cell_length_b   9.49384753
_cell_length_c   6.80718800
_cell_angle_alpha   90.00000000
_cell_angle_beta   90.00000000
_cell_angle_gamma   120.00000165
_symmetry_Int_Tables_number   1
_chemical_formula_structural   Nd9Er(Sn3Br)2
_chemical_formula_sum   'Nd9 Er1 Sn6 Br2'
_cell_volume   531.35259362
_cell_formula_units_Z   1
loop_
 _symmetry_equiv_pos_site_id
 _symmetry_equiv_pos_as_xyz
  1  'x, y, z'
loop_
 _atom_site_type_symbol
 _atom_site_label
 _atom_site_symmetry_multiplicity
 _atom_site_fract_x
 _atom_site_fract_y
 _atom_site_fract_z
 _atom_site_occupancy
  Nd  Nd0  1  0.267509  0.267893  0.749373  1
  Nd  Nd1  1  0.000385  0.732491  0.749373  1
  Nd  Nd2  1  0.732107  0.999615  0.749373  1
  Nd  Nd3  1  0.000385  0.267893  0.250627  1
  Nd  Nd4  1  0.732107  0.732491  0.250627  1
  Nd  Nd5  1  0.666667  0.333333  0.500000  1
  Nd  Nd6  1  0.267509  0.999615  0.250627  1
  Nd  Nd7  1  0.333333  0.666667  0.000000  1
  Nd  Nd8  1  0.666667  0.333333  0.000000  1
  Er  Er9  1  0.333333  0.666667  0.500000  1
  Sn  Sn10  1  0.610553  0.997259  0.251997  1
  Sn  Sn11  1  0.002741  0.389447  0.748003  1
  Sn  Sn12  1  0.386706  0.997259  0.748003  1
  Sn  Sn13  1  0.610553  0.613294  0.748003  1
  Sn  Sn14  1  0.002741  0.613294  0.251997  1
  Sn  Sn15  1  0.386706  0.389447  0.251997  1
  Br  Br16  1  0.000000  0.000000  0.000000  1
  Br  Br17  1  0.000000  0.000000  0.500000  1
