# generated using pymatgen
data_Nd16Tm4Ir11Rh
_symmetry_space_group_name_H-M   'P 1'
_cell_length_a   11.17894600
_cell_length_b   11.17894600
_cell_length_c   6.53451600
_cell_angle_alpha   90.00000000
_cell_angle_beta   90.00000000
_cell_angle_gamma   90.00000000
_symmetry_Int_Tables_number   1
_chemical_formula_structural   Nd16Tm4Ir11Rh
_chemical_formula_sum   'Nd16 Tm4 Ir11 Rh1'
_cell_volume   816.61084312
_cell_formula_units_Z   1
loop_
 _symmetry_equiv_pos_site_id
 _symmetry_equiv_pos_as_xyz
  1  'x, y, z'
loop_
 _atom_site_type_symbol
 _atom_site_label
 _atom_site_symmetry_multiplicity
 _atom_site_fract_x
 _atom_site_fract_y
 _atom_site_fract_z
 _atom_site_occupancy
  Nd  Nd0  1  0.288109  0.087265  0.383485  1
  Nd  Nd1  1  0.287761  0.912561  0.880600  1
  Nd  Nd2  1  0.712239  0.087439  0.880600  1
  Nd  Nd3  1  0.711891  0.912735  0.383485  1
  Nd  Nd4  1  0.587439  0.787761  0.880600  1
  Nd  Nd5  1  0.587265  0.211891  0.383485  1
  Nd  Nd6  1  0.412735  0.788109  0.383485  1
  Nd  Nd7  1  0.412561  0.212239  0.880600  1
  Nd  Nd8  1  0.211580  0.412685  0.618458  1
  Nd  Nd9  1  0.211668  0.587553  0.118412  1
  Nd  Nd10  1  0.788332  0.412447  0.118412  1
  Nd  Nd11  1  0.788420  0.587315  0.618458  1
  Nd  Nd12  1  0.912447  0.711668  0.118412  1
  Nd  Nd13  1  0.912685  0.288420  0.618458  1
  Nd  Nd14  1  0.087315  0.711580  0.618458  1
  Nd  Nd15  1  0.087553  0.288332  0.118412  1
  Tm  Tm16  1  0.000000  0.000000  0.500035  1
  Tm  Tm17  1  0.000000  0.000000  0.000136  1
  Tm  Tm18  1  0.500000  0.500000  0.000136  1
  Tm  Tm19  1  0.500000  0.500000  0.500035  1
  Ir  Ir20  1  0.851465  0.147377  0.249540  1
  Ir  Ir21  1  0.851819  0.852389  0.749419  1
  Ir  Ir22  1  0.148181  0.147611  0.749419  1
  Ir  Ir23  1  0.148535  0.852623  0.249540  1
  Ir  Ir24  1  0.647611  0.351819  0.749419  1
  Ir  Ir25  1  0.647377  0.648535  0.249540  1
  Ir  Ir26  1  0.352623  0.351465  0.249540  1
  Ir  Ir27  1  0.352389  0.648181  0.749419  1
  Ir  Ir28  1  0.500000  0.000000  0.620000  1
  Ir  Ir29  1  0.000000  0.500000  0.880772  1
  Ir  Ir30  1  0.000000  0.500000  0.380916  1
  Rh  Rh31  1  0.500000  0.000000  0.118317  1
