# generated using pymatgen
data_La3Al12(OsRu)2
_symmetry_space_group_name_H-M   'P 1'
_cell_length_a   8.95227641
_cell_length_b   8.96931556
_cell_length_c   9.74497500
_cell_angle_alpha   90.00000279
_cell_angle_beta   89.99976728
_cell_angle_gamma   120.06298537
_symmetry_Int_Tables_number   1
_chemical_formula_structural   La3Al12(OsRu)2
_chemical_formula_sum   'La6 Al24 Os4 Ru4'
_cell_volume   677.21747853
_cell_formula_units_Z   2
loop_
 _symmetry_equiv_pos_site_id
 _symmetry_equiv_pos_as_xyz
  1  'x, y, z'
loop_
 _atom_site_type_symbol
 _atom_site_label
 _atom_site_symmetry_multiplicity
 _atom_site_fract_x
 _atom_site_fract_y
 _atom_site_fract_z
 _atom_site_occupancy
  La  La0  1  0.194001  0.385801  0.250005  1
  La  La1  1  0.805999  0.614199  0.749995  1
  La  La2  1  0.612892  0.806446  0.250011  1
  La  La3  1  0.387108  0.193554  0.749989  1
  La  La4  1  0.194001  0.808200  0.250005  1
  La  La5  1  0.805999  0.191800  0.749995  1
  Al  Al6  1  0.333597  0.666799  0.000742  1
  Al  Al7  1  0.666403  0.333201  0.999258  1
  Al  Al8  1  0.666402  0.333201  0.500740  1
  Al  Al9  1  0.333598  0.666799  0.499260  1
  Al  Al10  1  0.162356  0.324141  0.576653  1
  Al  Al11  1  0.837644  0.675859  0.423347  1
  Al  Al12  1  0.675363  0.837681  0.576159  1
  Al  Al13  1  0.837644  0.675859  0.076651  1
  Al  Al14  1  0.324637  0.162319  0.423841  1
  Al  Al15  1  0.162356  0.324141  0.923349  1
  Al  Al16  1  0.162356  0.838215  0.576653  1
  Al  Al17  1  0.324636  0.162318  0.076156  1
  Al  Al18  1  0.837644  0.161785  0.423347  1
  Al  Al19  1  0.675364  0.837682  0.923844  1
  Al  Al20  1  0.837644  0.161784  0.076651  1
  Al  Al21  1  0.162356  0.838216  0.923349  1
  Al  Al22  1  0.562682  0.125354  0.250000  1
  Al  Al23  1  0.437318  0.874646  0.750000  1
  Al  Al24  1  0.874756  0.437378  0.249998  1
  Al  Al25  1  0.125244  0.562622  0.750002  1
  Al  Al26  1  0.562682  0.437329  0.250000  1
  Al  Al27  1  0.437318  0.562671  0.750000  1
  Al  Al28  1  0.999743  0.999872  0.249997  1
  Al  Al29  1  0.000257  0.000128  0.750003  1
  Os  Os30  1  0.500000  0.000000  0.000000  1
  Os  Os31  1  0.500000  0.000000  0.500000  1
  Os  Os32  1  0.500000  0.500000  0.000000  1
  Os  Os33  1  0.500000  0.500000  0.500000  1
  Ru  Ru34  1  0.000000  0.500000  0.000000  1
  Ru  Ru35  1  0.000000  0.500000  0.500000  1
  Ru  Ru36  1  0.000000  0.000000  0.000000  1
  Ru  Ru37  1  0.000000  0.000000  0.500000  1
