# generated using pymatgen
data_Dy4PSe4
_symmetry_space_group_name_H-M   'P 1'
_cell_length_a   4.07152961
_cell_length_b   7.10594172
_cell_length_c   9.08666200
_cell_angle_alpha   96.77375056
_cell_angle_beta   102.99978513
_cell_angle_gamma   106.50867031
_symmetry_Int_Tables_number   1
_chemical_formula_structural   Dy4PSe4
_chemical_formula_sum   'Dy4 P1 Se4'
_cell_volume   240.89928738
_cell_formula_units_Z   1
loop_
 _symmetry_equiv_pos_site_id
 _symmetry_equiv_pos_as_xyz
  1  'x, y, z'
loop_
 _atom_site_type_symbol
 _atom_site_label
 _atom_site_symmetry_multiplicity
 _atom_site_fract_x
 _atom_site_fract_y
 _atom_site_fract_z
 _atom_site_occupancy
  Dy  Dy0  1  0.438017  0.742424  0.763721  1
  Dy  Dy1  1  0.651192  0.563541  0.365136  1
  Dy  Dy2  1  0.033701  0.127367  0.565645  1
  Dy  Dy3  1  0.243297  0.948745  0.166907  1
  P  P4  1  0.342320  0.845483  0.465292  1
  Se  Se5  1  0.946325  0.253065  0.268244  1
  Se  Se6  1  0.736888  0.437943  0.662688  1
  Se  Se7  1  0.130583  0.032467  0.862570  1
  Se  Se8  1  0.550542  0.658882  0.068137  1
