# generated using pymatgen
data_Ho16MgIn3(RuPt)2
_symmetry_space_group_name_H-M   'P 1'
_cell_length_a   9.64372728
_cell_length_b   9.64343765
_cell_length_c   9.64758300
_cell_angle_alpha   59.98576896
_cell_angle_beta   59.98676300
_cell_angle_gamma   60.06094610
_symmetry_Int_Tables_number   1
_chemical_formula_structural   Ho16MgIn3(RuPt)2
_chemical_formula_sum   'Ho16 Mg1 In3 Ru2 Pt2'
_cell_volume   634.58483616
_cell_formula_units_Z   1
loop_
 _symmetry_equiv_pos_site_id
 _symmetry_equiv_pos_as_xyz
  1  'x, y, z'
loop_
 _atom_site_type_symbol
 _atom_site_label
 _atom_site_symmetry_multiplicity
 _atom_site_fract_x
 _atom_site_fract_y
 _atom_site_fract_z
 _atom_site_occupancy
  Ho  Ho0  1  0.350200  0.349060  0.343786  1
  Ho  Ho1  1  0.350200  0.349060  0.956953  1
  Ho  Ho2  1  0.356101  0.949850  0.347024  1
  Ho  Ho3  1  0.945925  0.356806  0.348634  1
  Ho  Ho4  1  0.802533  0.191190  0.192571  1
  Ho  Ho5  1  0.188097  0.805772  0.815835  1
  Ho  Ho6  1  0.188097  0.805772  0.190295  1
  Ho  Ho7  1  0.802533  0.191190  0.813707  1
  Ho  Ho8  1  0.189104  0.189585  0.810655  1
  Ho  Ho9  1  0.809341  0.809437  0.190611  1
  Ho  Ho10  1  0.939126  0.565207  0.559372  1
  Ho  Ho11  1  0.565293  0.938710  0.937379  1
  Ho  Ho12  1  0.565293  0.938710  0.558617  1
  Ho  Ho13  1  0.939126  0.565207  0.936295  1
  Ho  Ho14  1  0.563056  0.561265  0.937839  1
  Ho  Ho15  1  0.937546  0.937229  0.562613  1
  Mg  Mg16  1  0.268812  0.576990  0.577099  1
  In  In17  1  0.582189  0.583741  0.583813  1
  In  In18  1  0.582189  0.583741  0.250258  1
  In  In19  1  0.580845  0.252141  0.583508  1
  Ru  Ru20  1  0.138992  0.575469  0.142769  1
  Ru  Ru21  1  0.575668  0.141117  0.141607  1
  Pt  Pt22  1  0.139866  0.141372  0.144466  1
  Pt  Pt23  1  0.139866  0.141372  0.574294  1
