# generated using pymatgen
data_Ho4GaSi7Tc6
_symmetry_space_group_name_H-M   'P 1'
_cell_length_a   6.80323701
_cell_length_b   6.73412827
_cell_length_c   6.81480454
_cell_angle_alpha   70.17480469
_cell_angle_beta   90.31419296
_cell_angle_gamma   90.07805133
_symmetry_Int_Tables_number   1
_chemical_formula_structural   Ho4GaSi7Tc6
_chemical_formula_sum   'Ho4 Ga1 Si7 Tc6'
_cell_volume   293.70381479
_cell_formula_units_Z   1
loop_
 _symmetry_equiv_pos_site_id
 _symmetry_equiv_pos_as_xyz
  1  'x, y, z'
loop_
 _atom_site_type_symbol
 _atom_site_label
 _atom_site_symmetry_multiplicity
 _atom_site_fract_x
 _atom_site_fract_y
 _atom_site_fract_z
 _atom_site_occupancy
  Ho  Ho0  1  0.669358  0.444699  0.193516  1
  Ho  Ho1  1  0.166771  0.056723  0.806256  1
  Ho  Ho2  1  0.331909  0.559599  0.806071  1
  Ho  Ho3  1  0.832022  0.942649  0.190556  1
  Ga  Ga4  1  0.448918  0.128518  0.100045  1
  Si  Si5  1  0.950494  0.377513  0.898801  1
  Si  Si6  1  0.550696  0.878068  0.897885  1
  Si  Si7  1  0.048873  0.623137  0.101094  1
  Si  Si8  1  0.858478  0.129594  0.510336  1
  Si  Si9  1  0.360374  0.365470  0.489773  1
  Si  Si10  1  0.143450  0.868325  0.484125  1
  Si  Si11  1  0.641078  0.633107  0.511620  1
  Tc  Tc12  1  0.498155  0.992317  0.508479  1
  Tc  Tc13  1  0.001395  0.504933  0.500388  1
  Tc  Tc14  1  0.144006  0.246423  0.246336  1
  Tc  Tc15  1  0.658953  0.258854  0.750656  1
  Tc  Tc16  1  0.847945  0.756827  0.763471  1
  Tc  Tc17  1  0.347126  0.733244  0.240593  1
