# generated using pymatgen
data_Pr3Ho5Cd2PdRu
_symmetry_space_group_name_H-M   'P 1'
_cell_length_a   9.76694438
_cell_length_b   9.76694447
_cell_length_c   9.79431300
_cell_angle_alpha   59.90726535
_cell_angle_beta   59.90726504
_cell_angle_gamma   59.88763336
_symmetry_Int_Tables_number   1
_chemical_formula_structural   Pr3Ho5Cd2PdRu
_chemical_formula_sum   'Pr6 Ho10 Cd4 Pd2 Ru2'
_cell_volume   659.16951723
_cell_formula_units_Z   2
loop_
 _symmetry_equiv_pos_site_id
 _symmetry_equiv_pos_as_xyz
  1  'x, y, z'
loop_
 _atom_site_type_symbol
 _atom_site_label
 _atom_site_symmetry_multiplicity
 _atom_site_fract_x
 _atom_site_fract_y
 _atom_site_fract_z
 _atom_site_occupancy
  Pr  Pr0  1  0.938706  0.555846  0.563625  1
  Pr  Pr1  1  0.555846  0.938706  0.941824  1
  Pr  Pr2  1  0.555846  0.938706  0.563625  1
  Pr  Pr3  1  0.938706  0.555846  0.941824  1
  Pr  Pr4  1  0.560243  0.560243  0.939757  1
  Pr  Pr5  1  0.940682  0.940682  0.559318  1
  Ho  Ho6  1  0.347593  0.347593  0.355491  1
  Ho  Ho7  1  0.347593  0.347593  0.949324  1
  Ho  Ho8  1  0.342333  0.960289  0.348689  1
  Ho  Ho9  1  0.960289  0.342333  0.348689  1
  Ho  Ho10  1  0.820016  0.184588  0.187172  1
  Ho  Ho11  1  0.184588  0.820016  0.808224  1
  Ho  Ho12  1  0.184588  0.820016  0.187172  1
  Ho  Ho13  1  0.820016  0.184588  0.808224  1
  Ho  Ho14  1  0.184593  0.184593  0.815407  1
  Ho  Ho15  1  0.813514  0.813514  0.186486  1
  Cd  Cd16  1  0.578805  0.578805  0.578737  1
  Cd  Cd17  1  0.578805  0.578805  0.263652  1
  Cd  Cd18  1  0.579915  0.260459  0.579812  1
  Cd  Cd19  1  0.260459  0.579915  0.579812  1
  Pd  Pd20  1  0.146298  0.572036  0.140833  1
  Pd  Pd21  1  0.572036  0.146298  0.140833  1
  Ru  Ru22  1  0.144264  0.144264  0.137820  1
  Ru  Ru23  1  0.144264  0.144264  0.573653  1
