# generated using pymatgen
data_Dy5Y3(ErGa5)4
_symmetry_space_group_name_H-M   'P 1'
_cell_length_a   6.08696613
_cell_length_b   9.63530500
_cell_length_c   11.49906600
_cell_angle_alpha   89.99859664
_cell_angle_beta   89.98795154
_cell_angle_gamma   89.99975590
_symmetry_Int_Tables_number   1
_chemical_formula_structural   Dy5Y3(ErGa5)4
_chemical_formula_sum   'Dy5 Y3 Er4 Ga20'
_cell_volume   674.41762136
_cell_formula_units_Z   1
loop_
 _symmetry_equiv_pos_site_id
 _symmetry_equiv_pos_as_xyz
  1  'x, y, z'
loop_
 _atom_site_type_symbol
 _atom_site_label
 _atom_site_symmetry_multiplicity
 _atom_site_fract_x
 _atom_site_fract_y
 _atom_site_fract_z
 _atom_site_occupancy
  Dy  Dy0  1  0.390474  0.490369  0.148300  1
  Dy  Dy1  1  0.109425  0.490371  0.648487  1
  Dy  Dy2  1  0.390474  0.009637  0.148481  1
  Dy  Dy3  1  0.890495  0.990344  0.351498  1
  Dy  Dy4  1  0.609402  0.509654  0.851664  1
  Y  Y5  1  0.890335  0.509641  0.351609  1
  Y  Y6  1  0.609655  0.990350  0.851715  1
  Y  Y7  1  0.109678  0.009653  0.648309  1
  Er  Er8  1  0.848680  0.749914  0.074407  1
  Er  Er9  1  0.651140  0.749986  0.574295  1
  Er  Er10  1  0.151208  0.250076  0.925744  1
  Er  Er11  1  0.348819  0.250043  0.425604  1
  Ga  Ga12  1  0.874765  0.052685  0.090334  1
  Ga  Ga13  1  0.625072  0.447205  0.590518  1
  Ga  Ga14  1  0.125488  0.552839  0.909698  1
  Ga  Ga15  1  0.374870  0.947222  0.409555  1
  Ga  Ga16  1  0.125324  0.946945  0.909955  1
  Ga  Ga17  1  0.374673  0.552936  0.409724  1
  Ga  Ga18  1  0.874668  0.447016  0.090084  1
  Ga  Ga19  1  0.625372  0.053138  0.590009  1
  Ga  Ga20  1  0.173585  0.750203  0.251623  1
  Ga  Ga21  1  0.326663  0.749566  0.751762  1
  Ga  Ga22  1  0.826723  0.250511  0.748263  1
  Ga  Ga23  1  0.673246  0.249679  0.248092  1
  Ga  Ga24  1  0.372263  0.749876  0.005070  1
  Ga  Ga25  1  0.127582  0.750009  0.504906  1
  Ga  Ga26  1  0.627455  0.250131  0.995198  1
  Ga  Ga27  1  0.872471  0.250031  0.495104  1
  Ga  Ga28  1  0.602725  0.750183  0.299375  1
  Ga  Ga29  1  0.896909  0.749621  0.799357  1
  Ga  Ga30  1  0.396920  0.250378  0.700613  1
  Ga  Ga31  1  0.103437  0.249784  0.200649  1
