# generated using pymatgen
data_Zr16Ir3Pd4PtN4
_symmetry_space_group_name_H-M   'P 1'
_cell_length_a   8.86441195
_cell_length_b   8.87656238
_cell_length_c   8.87656200
_cell_angle_alpha   60.00000140
_cell_angle_beta   59.95464874
_cell_angle_gamma   59.95465283
_symmetry_Int_Tables_number   1
_chemical_formula_structural   Zr16Ir3Pd4PtN4
_chemical_formula_sum   'Zr16 Ir3 Pd4 Pt1 N4'
_cell_volume   493.54471813
_cell_formula_units_Z   1
loop_
 _symmetry_equiv_pos_site_id
 _symmetry_equiv_pos_as_xyz
  1  'x, y, z'
loop_
 _atom_site_type_symbol
 _atom_site_label
 _atom_site_symmetry_multiplicity
 _atom_site_fract_x
 _atom_site_fract_y
 _atom_site_fract_z
 _atom_site_occupancy
  Zr  Zr0  1  0.109218  0.630260  0.630260  1
  Zr  Zr1  1  0.630185  0.114051  0.627881  1
  Zr  Zr2  1  0.630185  0.627881  0.114051  1
  Zr  Zr3  1  0.630185  0.627881  0.627881  1
  Zr  Zr4  1  0.817197  0.817705  0.182549  1
  Zr  Zr5  1  0.177959  0.184585  0.818728  1
  Zr  Zr6  1  0.817197  0.182549  0.817705  1
  Zr  Zr7  1  0.177959  0.818728  0.184585  1
  Zr  Zr8  1  0.177959  0.818728  0.818728  1
  Zr  Zr9  1  0.817197  0.182549  0.182549  1
  Zr  Zr10  1  0.431655  0.430848  0.068748  1
  Zr  Zr11  1  0.065985  0.067625  0.433195  1
  Zr  Zr12  1  0.431655  0.068748  0.430848  1
  Zr  Zr13  1  0.065985  0.433195  0.067625  1
  Zr  Zr14  1  0.065985  0.433195  0.433195  1
  Zr  Zr15  1  0.431655  0.068748  0.068748  1
  Ir  Ir16  1  0.844985  0.463060  0.845978  1
  Ir  Ir17  1  0.844985  0.845978  0.463060  1
  Ir  Ir18  1  0.844985  0.845978  0.845978  1
  Pd  Pd19  1  0.412102  0.763197  0.412351  1
  Pd  Pd20  1  0.412102  0.412351  0.763197  1
  Pd  Pd21  1  0.412102  0.412351  0.412351  1
  Pd  Pd22  1  0.473579  0.842140  0.842140  1
  Pt  Pt23  1  0.770890  0.409703  0.409703  1
  N  N24  1  0.625005  0.124999  0.124999  1
  N  N25  1  0.127035  0.622758  0.125104  1
  N  N26  1  0.127035  0.125104  0.622758  1
  N  N27  1  0.127035  0.125104  0.125104  1
