# generated using pymatgen
data_K6Ba6AlGaSb8
_symmetry_space_group_name_H-M   'P 1'
_cell_length_a   11.10038400
_cell_length_b   11.10038404
_cell_length_c   8.46004300
_cell_angle_alpha   90.00000000
_cell_angle_beta   90.00000000
_cell_angle_gamma   120.00000585
_symmetry_Int_Tables_number   1
_chemical_formula_structural   K6Ba6AlGaSb8
_chemical_formula_sum   'K6 Ba6 Al1 Ga1 Sb8'
_cell_volume   902.77429230
_cell_formula_units_Z   1
loop_
 _symmetry_equiv_pos_site_id
 _symmetry_equiv_pos_as_xyz
  1  'x, y, z'
loop_
 _atom_site_type_symbol
 _atom_site_label
 _atom_site_symmetry_multiplicity
 _atom_site_fract_x
 _atom_site_fract_y
 _atom_site_fract_z
 _atom_site_occupancy
  K  K0  1  0.860610  0.721220  0.960883  1
  K  K1  1  0.860610  0.139390  0.960883  1
  K  K2  1  0.139188  0.278374  0.461088  1
  K  K3  1  0.278780  0.139390  0.960883  1
  K  K4  1  0.139188  0.860812  0.461088  1
  K  K5  1  0.721626  0.860812  0.461088  1
  Ba  Ba6  1  0.479667  0.959332  0.776828  1
  Ba  Ba7  1  0.479667  0.520333  0.776828  1
  Ba  Ba8  1  0.519911  0.039824  0.276658  1
  Ba  Ba9  1  0.040668  0.520333  0.776828  1
  Ba  Ba10  1  0.519911  0.480089  0.276658  1
  Ba  Ba11  1  0.960176  0.480089  0.276658  1
  Al  Al12  1  0.666667  0.333333  0.655122  1
  Ga  Ga13  1  0.333333  0.666667  0.154970  1
  Sb  Sb14  1  0.666667  0.333333  0.991838  1
  Sb  Sb15  1  0.333333  0.666667  0.493237  1
  Sb  Sb16  1  0.803042  0.606086  0.555341  1
  Sb  Sb17  1  0.803042  0.196958  0.555341  1
  Sb  Sb18  1  0.196518  0.393035  0.055081  1
  Sb  Sb19  1  0.393914  0.196958  0.555341  1
  Sb  Sb20  1  0.196518  0.803482  0.055081  1
  Sb  Sb21  1  0.606965  0.803482  0.055081  1
