# generated using pymatgen
data_KMnTlBr4
_symmetry_space_group_name_H-M   'P 1'
_cell_length_a   7.72578500
_cell_length_b   7.46740037
_cell_length_c   9.40294800
_cell_angle_alpha   72.61507834
_cell_angle_beta   90.00000000
_cell_angle_gamma   90.00000000
_symmetry_Int_Tables_number   1
_chemical_formula_structural   KMnTlBr4
_chemical_formula_sum   'K2 Mn2 Tl2 Br8'
_cell_volume   517.68985771
_cell_formula_units_Z   2
loop_
 _symmetry_equiv_pos_site_id
 _symmetry_equiv_pos_as_xyz
  1  'x, y, z'
loop_
 _atom_site_type_symbol
 _atom_site_label
 _atom_site_symmetry_multiplicity
 _atom_site_fract_x
 _atom_site_fract_y
 _atom_site_fract_z
 _atom_site_occupancy
  K  K0  1  0.750000  0.780563  0.550756  1
  K  K1  1  0.250000  0.219437  0.449244  1
  Mn  Mn2  1  0.750000  0.223422  0.694825  1
  Mn  Mn3  1  0.250000  0.776578  0.305175  1
  Tl  Tl4  1  0.750000  0.735728  0.069888  1
  Tl  Tl5  1  0.250000  0.264272  0.930112  1
  Br  Br6  1  0.750000  0.409260  0.426161  1
  Br  Br7  1  0.250000  0.590740  0.573839  1
  Br  Br8  1  0.998838  0.999172  0.246729  1
  Br  Br9  1  0.001162  0.000828  0.753271  1
  Br  Br10  1  0.498838  0.000828  0.753271  1
  Br  Br11  1  0.501162  0.999172  0.246729  1
  Br  Br12  1  0.750000  0.423416  0.863760  1
  Br  Br13  1  0.250000  0.576584  0.136240  1
