# generated using pymatgen
data_CaPrTh(Si3Pd10)2
_symmetry_space_group_name_H-M   'P 1'
_cell_length_a   8.76393805
_cell_length_b   8.76393877
_cell_length_c   8.76393800
_cell_angle_alpha   60.00000292
_cell_angle_beta   60.00000018
_cell_angle_gamma   59.99999632
_symmetry_Int_Tables_number   1
_chemical_formula_structural   CaPrTh(Si3Pd10)2
_chemical_formula_sum   'Ca1 Pr1 Th1 Si6 Pd20'
_cell_volume   475.97367162
_cell_formula_units_Z   1
loop_
 _symmetry_equiv_pos_site_id
 _symmetry_equiv_pos_as_xyz
  1  'x, y, z'
loop_
 _atom_site_type_symbol
 _atom_site_label
 _atom_site_symmetry_multiplicity
 _atom_site_fract_x
 _atom_site_fract_y
 _atom_site_fract_z
 _atom_site_occupancy
  Ca  Ca0  1  0.000000  0.000000  0.000000  1
  Pr  Pr1  1  0.750000  0.750000  0.750000  1
  Th  Th2  1  0.250000  0.250000  0.250000  1
  Si  Si3  1  0.734711  0.265289  0.265289  1
  Si  Si4  1  0.265289  0.734711  0.734711  1
  Si  Si5  1  0.265289  0.734711  0.265289  1
  Si  Si6  1  0.734711  0.265289  0.734711  1
  Si  Si7  1  0.265289  0.265289  0.734711  1
  Si  Si8  1  0.734711  0.734711  0.265289  1
  Pd  Pd9  1  0.383974  0.383974  0.383974  1
  Pd  Pd10  1  0.614019  0.614019  0.614019  1
  Pd  Pd11  1  0.383974  0.383974  0.848078  1
  Pd  Pd12  1  0.383974  0.848078  0.383974  1
  Pd  Pd13  1  0.614019  0.614019  0.157941  1
  Pd  Pd14  1  0.614019  0.157941  0.614019  1
  Pd  Pd15  1  0.848078  0.383974  0.383974  1
  Pd  Pd16  1  0.157941  0.614019  0.614019  1
  Pd  Pd17  1  0.345170  0.001732  0.001732  1
  Pd  Pd18  1  0.651366  0.001732  0.001732  1
  Pd  Pd19  1  0.001732  0.345170  0.651366  1
  Pd  Pd20  1  0.001732  0.651366  0.345170  1
  Pd  Pd21  1  0.001732  0.345170  0.001732  1
  Pd  Pd22  1  0.651366  0.001732  0.345170  1
  Pd  Pd23  1  0.001732  0.651366  0.001732  1
  Pd  Pd24  1  0.345170  0.001732  0.651366  1
  Pd  Pd25  1  0.001732  0.001732  0.345170  1
  Pd  Pd26  1  0.001732  0.001732  0.651366  1
  Pd  Pd27  1  0.651366  0.345170  0.001732  1
  Pd  Pd28  1  0.345170  0.651366  0.001732  1
