# generated using pymatgen
data_TbTm11(Si3Au)4
_symmetry_space_group_name_H-M   'P 1'
_cell_length_a   4.19067700
_cell_length_b   10.84697204
_cell_length_c   12.19751000
_cell_angle_alpha   90.00477510
_cell_angle_beta   90.00000000
_cell_angle_gamma   90.00000000
_symmetry_Int_Tables_number   1
_chemical_formula_structural   TbTm11(Si3Au)4
_chemical_formula_sum   'Tb1 Tm11 Si12 Au4'
_cell_volume   554.45191835
_cell_formula_units_Z   1
loop_
 _symmetry_equiv_pos_site_id
 _symmetry_equiv_pos_as_xyz
  1  'x, y, z'
loop_
 _atom_site_type_symbol
 _atom_site_label
 _atom_site_symmetry_multiplicity
 _atom_site_fract_x
 _atom_site_fract_y
 _atom_site_fract_z
 _atom_site_occupancy
  Tb  Tb0  1  0.750000  0.162997  0.696969  1
  Tm  Tm1  1  0.250000  0.874839  0.020657  1
  Tm  Tm2  1  0.250000  0.624997  0.519881  1
  Tm  Tm3  1  0.750000  0.124878  0.980425  1
  Tm  Tm4  1  0.750000  0.375375  0.479152  1
  Tm  Tm5  1  0.250000  0.922761  0.600716  1
  Tm  Tm6  1  0.250000  0.576696  0.101136  1
  Tm  Tm7  1  0.750000  0.076184  0.398519  1
  Tm  Tm8  1  0.750000  0.423762  0.900047  1
  Tm  Tm9  1  0.250000  0.663444  0.802706  1
  Tm  Tm10  1  0.250000  0.836819  0.302605  1
  Tm  Tm11  1  0.750000  0.336646  0.197423  1
  Si  Si12  1  0.250000  0.026259  0.827788  1
  Si  Si13  1  0.250000  0.473058  0.326339  1
  Si  Si14  1  0.750000  0.973091  0.173622  1
  Si  Si15  1  0.750000  0.526603  0.673489  1
  Si  Si16  1  0.250000  0.248766  0.848388  1
  Si  Si17  1  0.250000  0.251772  0.346833  1
  Si  Si18  1  0.750000  0.751765  0.152691  1
  Si  Si19  1  0.750000  0.747986  0.652336  1
  Si  Si20  1  0.250000  0.183393  0.534530  1
  Si  Si21  1  0.250000  0.316936  0.036924  1
  Si  Si22  1  0.750000  0.816546  0.463294  1
  Si  Si23  1  0.750000  0.683481  0.963581  1
  Au  Au24  1  0.250000  0.391429  0.681304  1
  Au  Au25  1  0.250000  0.110072  0.181408  1
  Au  Au26  1  0.750000  0.610176  0.318652  1
  Au  Au27  1  0.750000  0.889270  0.818583  1
