# generated using pymatgen
data_KTbSiS4
_symmetry_space_group_name_H-M   'P 1'
_cell_length_a   6.65068400
_cell_length_b   6.43364349
_cell_length_c   8.71642471
_cell_angle_alpha   72.05083251
_cell_angle_beta   90.00000000
_cell_angle_gamma   90.00000000
_symmetry_Int_Tables_number   1
_chemical_formula_structural   KTbSiS4
_chemical_formula_sum   'K2 Tb2 Si2 S8'
_cell_volume   354.80768490
_cell_formula_units_Z   2
loop_
 _symmetry_equiv_pos_site_id
 _symmetry_equiv_pos_as_xyz
  1  'x, y, z'
loop_
 _atom_site_type_symbol
 _atom_site_label
 _atom_site_symmetry_multiplicity
 _atom_site_fract_x
 _atom_site_fract_y
 _atom_site_fract_z
 _atom_site_occupancy
  K  K0  1  0.978119  0.729970  0.064498  1
  K  K1  1  0.478119  0.270030  0.935502  1
  Tb  Tb2  1  0.498641  0.230036  0.450643  1
  Tb  Tb3  1  0.998641  0.769964  0.549357  1
  Si  Si4  1  0.462299  0.781145  0.325878  1
  Si  Si5  1  0.962299  0.218855  0.674122  1
  S  S6  1  0.463549  0.586272  0.170783  1
  S  S7  1  0.230387  0.022820  0.279436  1
  S  S8  1  0.727259  0.978991  0.298463  1
  S  S9  1  0.906747  0.420646  0.433204  1
  S  S10  1  0.406747  0.579354  0.566796  1
  S  S11  1  0.227259  0.021009  0.701537  1
  S  S12  1  0.730387  0.977180  0.720564  1
  S  S13  1  0.963549  0.413728  0.829217  1
