# generated using pymatgen
data_Ca20Cd2Si9Hg
_symmetry_space_group_name_H-M   'P 1'
_cell_length_a   7.75727400
_cell_length_b   7.75727400
_cell_length_c   15.12454700
_cell_angle_alpha   90.00000000
_cell_angle_beta   90.00000000
_cell_angle_gamma   90.00000000
_symmetry_Int_Tables_number   1
_chemical_formula_structural   Ca20Cd2Si9Hg
_chemical_formula_sum   'Ca20 Cd2 Si9 Hg1'
_cell_volume   910.12415174
_cell_formula_units_Z   1
loop_
 _symmetry_equiv_pos_site_id
 _symmetry_equiv_pos_as_xyz
  1  'x, y, z'
loop_
 _atom_site_type_symbol
 _atom_site_label
 _atom_site_symmetry_multiplicity
 _atom_site_fract_x
 _atom_site_fract_y
 _atom_site_fract_z
 _atom_site_occupancy
  Ca  Ca0  1  0.684028  0.167220  0.108331  1
  Ca  Ca1  1  0.172884  0.675563  0.614452  1
  Ca  Ca2  1  0.315972  0.832780  0.108331  1
  Ca  Ca3  1  0.827116  0.324437  0.614452  1
  Ca  Ca4  1  0.832780  0.684028  0.108331  1
  Ca  Ca5  1  0.324437  0.172884  0.614452  1
  Ca  Ca6  1  0.167220  0.315972  0.108331  1
  Ca  Ca7  1  0.675563  0.827116  0.614452  1
  Ca  Ca8  1  0.832780  0.315972  0.891669  1
  Ca  Ca9  1  0.324437  0.827116  0.385548  1
  Ca  Ca10  1  0.167220  0.684028  0.891669  1
  Ca  Ca11  1  0.675563  0.172884  0.385548  1
  Ca  Ca12  1  0.684028  0.832780  0.891669  1
  Ca  Ca13  1  0.172884  0.324437  0.385548  1
  Ca  Ca14  1  0.315972  0.167220  0.891669  1
  Ca  Ca15  1  0.827116  0.675563  0.385548  1
  Ca  Ca16  1  0.500000  0.500000  0.754923  1
  Ca  Ca17  1  0.000000  0.000000  0.247484  1
  Ca  Ca18  1  0.000000  0.000000  0.752516  1
  Ca  Ca19  1  0.500000  0.500000  0.245077  1
  Cd  Cd20  1  0.500000  0.500000  0.500000  1
  Cd  Cd21  1  0.500000  0.500000  0.000000  1
  Si  Si22  1  0.609874  0.114032  0.752637  1
  Si  Si23  1  0.114032  0.609874  0.247363  1
  Si  Si24  1  0.885968  0.390126  0.247363  1
  Si  Si25  1  0.390126  0.885968  0.752637  1
  Si  Si26  1  0.885968  0.609874  0.752637  1
  Si  Si27  1  0.390126  0.114032  0.247363  1
  Si  Si28  1  0.114032  0.390126  0.752637  1
  Si  Si29  1  0.609874  0.885968  0.247363  1
  Si  Si30  1  0.000000  0.000000  0.000000  1
  Hg  Hg31  1  0.000000  0.000000  0.500000  1
