# generated using pymatgen
data_Ba20Sb13
_symmetry_space_group_name_H-M   'P 1'
_cell_length_a   9.19907341
_cell_length_b   9.19907347
_cell_length_c   46.07456600
_cell_angle_alpha   109.35914586
_cell_angle_beta   109.35914601
_cell_angle_gamma   109.62613787
_symmetry_Int_Tables_number   1
_chemical_formula_structural   Ba20Sb13
_chemical_formula_sum   'Ba40 Sb26'
_cell_volume   3003.97067742
_cell_formula_units_Z   2
loop_
 _symmetry_equiv_pos_site_id
 _symmetry_equiv_pos_as_xyz
  1  'x, y, z'
loop_
 _atom_site_type_symbol
 _atom_site_label
 _atom_site_symmetry_multiplicity
 _atom_site_fract_x
 _atom_site_fract_y
 _atom_site_fract_z
 _atom_site_occupancy
  Ba  Ba0  1  0.003640  0.871705  0.899214  1
  Ba  Ba1  1  0.007570  0.375637  0.900786  1
  Ba  Ba2  1  0.485323  0.006616  0.968662  1
  Ba  Ba3  1  0.989647  0.860707  0.696803  1
  Ba  Ba4  1  0.142006  0.163298  0.831336  1
  Ba  Ba5  1  0.989516  0.326730  0.694864  1
  Ba  Ba6  1  0.365506  0.486255  0.800092  1
  Ba  Ba7  1  0.987545  0.837339  0.499212  1
  Ba  Ba8  1  0.639949  0.630858  0.922803  1
  Ba  Ba9  1  0.525932  0.016842  0.877196  1
  Ba  Ba10  1  0.142264  0.133155  0.626618  1
  Ba  Ba11  1  0.985799  0.365053  0.499908  1
  Ba  Ba12  1  0.352410  0.515199  0.605136  1
  Ba  Ba13  1  0.512546  0.000289  0.769022  1
  Ba  Ba14  1  0.986255  0.865506  0.300092  1
  Ba  Ba15  1  0.617832  0.628490  0.725336  1
  Ba  Ba16  1  0.841284  0.491486  0.800787  1
  Ba  Ba17  1  0.500070  0.009176  0.673383  1
  Ba  Ba18  1  0.991486  0.341284  0.300787  1
  Ba  Ba19  1  0.130858  0.139949  0.422803  1
  Ba  Ba20  1  0.371705  0.503640  0.399214  1
  Ba  Ba21  1  0.501810  0.991153  0.574665  1
  Ba  Ba22  1  0.655181  0.667444  0.530978  1
  Ba  Ba23  1  0.876695  0.505636  0.603198  1
  Ba  Ba24  1  0.506616  0.985323  0.468662  1
  Ba  Ba25  1  0.128490  0.117832  0.225336  1
  Ba  Ba26  1  0.005636  0.376695  0.103198  1
  Ba  Ba27  1  0.360707  0.489647  0.196803  1
  Ba  Ba28  1  0.516842  0.025932  0.377196  1
  Ba  Ba29  1  0.663298  0.642006  0.331336  1
  Ba  Ba30  1  0.875637  0.507570  0.400786  1
  Ba  Ba31  1  0.500289  0.012546  0.269022  1
  Ba  Ba32  1  0.167444  0.155181  0.030978  1
  Ba  Ba33  1  0.337339  0.487545  0.999212  1
  Ba  Ba34  1  0.509176  0.000070  0.173383  1
  Ba  Ba35  1  0.633155  0.642264  0.126618  1
  Ba  Ba36  1  0.826730  0.489516  0.194864  1
  Ba  Ba37  1  0.491153  0.001810  0.074665  1
  Ba  Ba38  1  0.015199  0.852410  0.105136  1
  Ba  Ba39  1  0.865053  0.485799  0.999908  1
  Sb  Sb40  1  0.131186  0.753001  0.977018  1
  Sb  Sb41  1  0.248353  0.632130  0.873022  1
  Sb  Sb42  1  0.383242  0.267018  0.926978  1
  Sb  Sb43  1  0.248158  0.631402  0.677708  1
  Sb  Sb44  1  0.125788  0.748899  0.575735  1
  Sb  Sb45  1  0.610139  0.349009  0.846807  1
  Sb  Sb46  1  0.370225  0.247115  0.724266  1
  Sb  Sb47  1  0.746093  0.867912  0.822982  1
  Sb  Sb48  1  0.876103  0.114972  0.953192  1
  Sb  Sb49  1  0.253001  0.631186  0.477018  1
  Sb  Sb50  1  0.132130  0.748353  0.373022  1
  Sb  Sb51  1  0.742865  0.859618  0.622293  1
  Sb  Sb52  1  0.630387  0.380388  0.650000  1
  Sb  Sb53  1  0.884676  0.134789  0.750853  1
  Sb  Sb54  1  0.131402  0.748158  0.177708  1
  Sb  Sb55  1  0.767018  0.883242  0.426978  1
  Sb  Sb56  1  0.367912  0.246093  0.322982  1
  Sb  Sb57  1  0.614972  0.376103  0.453192  1
  Sb  Sb58  1  0.880524  0.130411  0.549147  1
  Sb  Sb59  1  0.248899  0.625788  0.075735  1
  Sb  Sb60  1  0.747115  0.870225  0.224266  1
  Sb  Sb61  1  0.359618  0.242865  0.122293  1
  Sb  Sb62  1  0.634789  0.384676  0.250853  1
  Sb  Sb63  1  0.849009  0.110139  0.346807  1
  Sb  Sb64  1  0.630411  0.380524  0.049147  1
  Sb  Sb65  1  0.880388  0.130387  0.150000  1
