# generated using pymatgen
data_PrFeAg2(NO3)8
_symmetry_space_group_name_H-M   'P 1'
_cell_length_a   7.86446395
_cell_length_b   8.14648629
_cell_length_c   7.98678558
_cell_angle_alpha   88.33871557
_cell_angle_beta   87.65199754
_cell_angle_gamma   86.92454850
_symmetry_Int_Tables_number   1
_chemical_formula_structural   PrFeAg2(NO3)8
_chemical_formula_sum   'Pr1 Fe1 Ag2 N8 O24'
_cell_volume   510.34529044
_cell_formula_units_Z   1
loop_
 _symmetry_equiv_pos_site_id
 _symmetry_equiv_pos_as_xyz
  1  'x, y, z'
loop_
 _atom_site_type_symbol
 _atom_site_label
 _atom_site_symmetry_multiplicity
 _atom_site_fract_x
 _atom_site_fract_y
 _atom_site_fract_z
 _atom_site_occupancy
  Pr  Pr0  1  0.000000  0.000000  0.000000  1
  Fe  Fe1  1  0.000000  0.500000  0.500000  1
  Ag  Ag2  1  0.500000  0.500000  0.000000  1
  Ag  Ag3  1  0.500000  0.000000  0.500000  1
  N  N4  1  0.329278  0.369141  0.324542  1
  N  N5  1  0.305762  0.164986  0.848761  1
  N  N6  1  0.175316  0.801039  0.355770  1
  N  N7  1  0.905972  0.307180  0.202610  1
  N  N8  1  0.670722  0.630859  0.675458  1
  N  N9  1  0.094028  0.692820  0.797390  1
  N  N10  1  0.824684  0.198961  0.644230  1
  N  N11  1  0.694238  0.835014  0.151239  1
  O  O12  1  0.833790  0.290998  0.066489  1
  O  O13  1  0.189039  0.904528  0.236073  1
  O  O14  1  0.277011  0.789898  0.470367  1
  O  O15  1  0.219436  0.217146  0.978684  1
  O  O16  1  0.227551  0.369001  0.457629  1
  O  O17  1  0.440078  0.255810  0.308116  1
  O  O18  1  0.310436  0.485668  0.218380  1
  O  O19  1  0.120046  0.558676  0.718282  1
  O  O20  1  0.952492  0.293571  0.645702  1
  O  O21  1  0.748217  0.963104  0.219237  1
  O  O22  1  0.996918  0.807529  0.741066  1
  O  O23  1  0.566530  0.767069  0.207259  1
  O  O24  1  0.810961  0.095472  0.763927  1
  O  O25  1  0.722989  0.210102  0.529633  1
  O  O26  1  0.780564  0.782854  0.021316  1
  O  O27  1  0.166210  0.709002  0.933511  1
  O  O28  1  0.772449  0.630999  0.542371  1
  O  O29  1  0.559922  0.744190  0.691884  1
  O  O30  1  0.689564  0.514332  0.781620  1
  O  O31  1  0.879954  0.441324  0.281718  1
  O  O32  1  0.047508  0.706429  0.354298  1
  O  O33  1  0.251783  0.036896  0.780763  1
  O  O34  1  0.003082  0.192471  0.258934  1
  O  O35  1  0.433470  0.232931  0.792741  1
