# generated using pymatgen
data_Zr5Nb5Ge6N
_symmetry_space_group_name_H-M   'P 1'
_cell_length_a   7.90496276
_cell_length_b   7.88974800
_cell_length_c   5.44973400
_cell_angle_alpha   89.82658809
_cell_angle_beta   90.34615060
_cell_angle_gamma   120.06380385
_symmetry_Int_Tables_number   1
_chemical_formula_structural   Zr5Nb5Ge6N
_chemical_formula_sum   'Zr5 Nb5 Ge6 N1'
_cell_volume   294.15849276
_cell_formula_units_Z   1
loop_
 _symmetry_equiv_pos_site_id
 _symmetry_equiv_pos_as_xyz
  1  'x, y, z'
loop_
 _atom_site_type_symbol
 _atom_site_label
 _atom_site_symmetry_multiplicity
 _atom_site_fract_x
 _atom_site_fract_y
 _atom_site_fract_z
 _atom_site_occupancy
  Zr  Zr0  1  0.001327  0.761601  0.256579  1
  Zr  Zr1  1  0.239726  0.238399  0.256579  1
  Zr  Zr2  1  0.759256  0.000000  0.262385  1
  Zr  Zr3  1  0.000328  0.239872  0.745209  1
  Zr  Zr4  1  0.760456  0.760128  0.745209  1
  Nb  Nb5  1  0.240740  0.000000  0.734427  1
  Nb  Nb6  1  0.332624  0.665984  0.000606  1
  Nb  Nb7  1  0.666641  0.334016  0.000606  1
  Nb  Nb8  1  0.666132  0.332994  0.498410  1
  Nb  Nb9  1  0.333138  0.667006  0.498410  1
  Ge  Ge10  1  0.999401  0.400112  0.244909  1
  Ge  Ge11  1  0.599289  0.599888  0.244909  1
  Ge  Ge12  1  0.401483  0.000000  0.240359  1
  Ge  Ge13  1  0.001566  0.602543  0.755085  1
  Ge  Ge14  1  0.399023  0.397457  0.755085  1
  Ge  Ge15  1  0.595208  0.000000  0.757575  1
  N  N16  1  0.003660  0.000000  0.503657  1
