# generated using pymatgen
data_Li3Er4ZnPt4
_symmetry_space_group_name_H-M   'P 1'
_cell_length_a   4.00620300
_cell_length_b   6.96879611
_cell_length_c   8.35038110
_cell_angle_alpha   89.98070288
_cell_angle_beta   90.00000000
_cell_angle_gamma   90.00000000
_symmetry_Int_Tables_number   1
_chemical_formula_structural   Li3Er4ZnPt4
_chemical_formula_sum   'Li3 Er4 Zn1 Pt4'
_cell_volume   233.12936588
_cell_formula_units_Z   1
loop_
 _symmetry_equiv_pos_site_id
 _symmetry_equiv_pos_as_xyz
  1  'x, y, z'
loop_
 _atom_site_type_symbol
 _atom_site_label
 _atom_site_symmetry_multiplicity
 _atom_site_fract_x
 _atom_site_fract_y
 _atom_site_fract_z
 _atom_site_occupancy
  Li  Li0  1  0.250000  0.632125  0.561121  1
  Li  Li1  1  0.250000  0.129246  0.940904  1
  Li  Li2  1  0.750000  0.369263  0.439384  1
  Er  Er3  1  0.250000  0.040304  0.315995  1
  Er  Er4  1  0.250000  0.546558  0.180338  1
  Er  Er5  1  0.750000  0.954921  0.683958  1
  Er  Er6  1  0.750000  0.458364  0.816645  1
  Zn  Zn7  1  0.750000  0.870695  0.062246  1
  Pt  Pt8  1  0.250000  0.245087  0.622248  1
  Pt  Pt9  1  0.250000  0.749823  0.878235  1
  Pt  Pt10  1  0.750000  0.751510  0.377304  1
  Pt  Pt11  1  0.750000  0.252106  0.121622  1
