# generated using pymatgen
data_Er2Tm18(IrRh3)3
_symmetry_space_group_name_H-M   'P 1'
_cell_length_a   10.74759760
_cell_length_b   10.74659101
_cell_length_c   6.30094408
_cell_angle_alpha   90.00572165
_cell_angle_beta   90.00635904
_cell_angle_gamma   89.85672688
_symmetry_Int_Tables_number   1
_chemical_formula_structural   Er2Tm18(IrRh3)3
_chemical_formula_sum   'Er2 Tm18 Ir3 Rh9'
_cell_volume   727.75698318
_cell_formula_units_Z   1
loop_
 _symmetry_equiv_pos_site_id
 _symmetry_equiv_pos_as_xyz
  1  'x, y, z'
loop_
 _atom_site_type_symbol
 _atom_site_label
 _atom_site_symmetry_multiplicity
 _atom_site_fract_x
 _atom_site_fract_y
 _atom_site_fract_z
 _atom_site_occupancy
  Er  Er0  1  0.290942  0.089223  0.377219  1
  Er  Er1  1  0.291295  0.910548  0.877158  1
  Tm  Tm2  1  0.708672  0.087692  0.877126  1
  Tm  Tm3  1  0.708597  0.910620  0.377025  1
  Tm  Tm4  1  0.586927  0.789924  0.878159  1
  Tm  Tm5  1  0.586463  0.209093  0.376859  1
  Tm  Tm6  1  0.413516  0.790336  0.377414  1
  Tm  Tm7  1  0.411288  0.209294  0.878141  1
  Tm  Tm8  1  0.210014  0.413222  0.621831  1
  Tm  Tm9  1  0.209514  0.586585  0.122594  1
  Tm  Tm10  1  0.790953  0.413678  0.123138  1
  Tm  Tm11  1  0.790841  0.588799  0.621844  1
  Tm  Tm12  1  0.910841  0.708913  0.122576  1
  Tm  Tm13  1  0.912324  0.291328  0.622848  1
  Tm  Tm14  1  0.089221  0.708448  0.622613  1
  Tm  Tm15  1  0.089267  0.291478  0.122907  1
  Tm  Tm16  1  0.999663  0.999939  0.499831  1
  Tm  Tm17  1  0.999876  0.000216  0.000223  1
  Tm  Tm18  1  0.499952  0.499848  0.999826  1
  Tm  Tm19  1  0.500186  0.500091  0.500234  1
  Ir  Ir20  1  0.654562  0.653671  0.249937  1
  Ir  Ir21  1  0.346382  0.345653  0.249943  1
  Ir  Ir22  1  0.345353  0.654460  0.749898  1
  Rh  Rh23  1  0.845739  0.154285  0.249977  1
  Rh  Rh24  1  0.846375  0.846954  0.750151  1
  Rh  Rh25  1  0.152846  0.153847  0.750077  1
  Rh  Rh26  1  0.153282  0.846299  0.250295  1
  Rh  Rh27  1  0.655080  0.344909  0.750000  1
  Rh  Rh28  1  0.500556  0.000491  0.122681  1
  Rh  Rh29  1  0.500634  0.000628  0.623348  1
  Rh  Rh30  1  0.999362  0.499697  0.876756  1
  Rh  Rh31  1  0.999476  0.499834  0.377371  1
