# generated using pymatgen
data_Ti11Nb8Si16Mo
_symmetry_space_group_name_H-M   'P 1'
_cell_length_a   6.47645405
_cell_length_b   6.59704187
_cell_length_c   12.83583400
_cell_angle_alpha   90.00000000
_cell_angle_beta   90.00000000
_cell_angle_gamma   89.85587920
_symmetry_Int_Tables_number   1
_chemical_formula_structural   Ti11Nb8Si16Mo
_chemical_formula_sum   'Ti11 Nb8 Si16 Mo1'
_cell_volume   548.41490176
_cell_formula_units_Z   1
loop_
 _symmetry_equiv_pos_site_id
 _symmetry_equiv_pos_as_xyz
  1  'x, y, z'
loop_
 _atom_site_type_symbol
 _atom_site_label
 _atom_site_symmetry_multiplicity
 _atom_site_fract_x
 _atom_site_fract_y
 _atom_site_fract_z
 _atom_site_occupancy
  Ti  Ti0  1  0.162647  0.492925  0.750000  1
  Ti  Ti1  1  0.835726  0.505805  0.250000  1
  Ti  Ti2  1  0.335889  0.993083  0.250000  1
  Ti  Ti3  1  0.336395  0.170588  0.625175  1
  Ti  Ti4  1  0.661968  0.829197  0.375315  1
  Ti  Ti5  1  0.162548  0.671120  0.375085  1
  Ti  Ti6  1  0.661968  0.829197  0.124685  1
  Ti  Ti7  1  0.839284  0.330096  0.624993  1
  Ti  Ti8  1  0.336395  0.170588  0.874825  1
  Ti  Ti9  1  0.839284  0.330096  0.875007  1
  Ti  Ti10  1  0.162548  0.671120  0.124915  1
  Nb  Nb11  1  0.993881  0.175747  0.092801  1
  Nb  Nb12  1  0.008466  0.825657  0.909041  1
  Nb  Nb13  1  0.505367  0.672863  0.909323  1
  Nb  Nb14  1  0.008466  0.825657  0.590959  1
  Nb  Nb15  1  0.494836  0.324547  0.092751  1
  Nb  Nb16  1  0.993881  0.175747  0.407199  1
  Nb  Nb17  1  0.494836  0.324547  0.407249  1
  Nb  Nb18  1  0.505367  0.672863  0.590677  1
  Si  Si19  1  0.037487  0.109575  0.750000  1
  Si  Si20  1  0.961455  0.888894  0.250000  1
  Si  Si21  1  0.462364  0.610653  0.250000  1
  Si  Si22  1  0.536750  0.391332  0.750000  1
  Si  Si23  1  0.301109  0.854176  0.750000  1
  Si  Si24  1  0.699856  0.141915  0.250000  1
  Si  Si25  1  0.200490  0.357874  0.250000  1
  Si  Si26  1  0.801175  0.646897  0.750000  1
  Si  Si27  1  0.173911  0.462929  0.536691  1
  Si  Si28  1  0.825441  0.536568  0.462224  1
  Si  Si29  1  0.325114  0.962702  0.462957  1
  Si  Si30  1  0.825441  0.536568  0.037776  1
  Si  Si31  1  0.673968  0.037270  0.537926  1
  Si  Si32  1  0.173911  0.462929  0.963309  1
  Si  Si33  1  0.673968  0.037270  0.962074  1
  Si  Si34  1  0.325114  0.962702  0.037043  1
  Mo  Mo35  1  0.662689  0.008302  0.750000  1
