# generated using pymatgen
data_SmDy(Si2Rh3)2
_symmetry_space_group_name_H-M   'P 1'
_cell_length_a   6.63787801
_cell_length_b   6.63787783
_cell_length_c   6.63787607
_cell_angle_alpha   130.41008251
_cell_angle_beta   114.19909070
_cell_angle_gamma   86.66565956
_symmetry_Int_Tables_number   1
_chemical_formula_structural   SmDy(Si2Rh3)2
_chemical_formula_sum   'Sm1 Dy1 Si4 Rh6'
_cell_volume   193.84433760
_cell_formula_units_Z   1
loop_
 _symmetry_equiv_pos_site_id
 _symmetry_equiv_pos_as_xyz
  1  'x, y, z'
loop_
 _atom_site_type_symbol
 _atom_site_label
 _atom_site_symmetry_multiplicity
 _atom_site_fract_x
 _atom_site_fract_y
 _atom_site_fract_z
 _atom_site_occupancy
  Sm  Sm0  1  0.750000  0.039397  0.289397  1
  Dy  Dy1  1  0.250000  0.953189  0.703189  1
  Si  Si2  1  0.578119  0.383227  0.805108  1
  Si  Si3  1  0.921881  0.726989  0.805108  1
  Si  Si4  1  0.421012  0.615160  0.194147  1
  Si  Si5  1  0.078988  0.273134  0.194147  1
  Rh  Rh6  1  0.215989  0.503749  0.716759  1
  Rh  Rh7  1  0.786991  0.503749  0.287761  1
  Rh  Rh8  1  0.499013  0.499933  0.498946  1
  Rh  Rh9  1  0.000987  0.499933  0.000921  1
  Rh  Rh10  1  0.713009  0.000770  0.716759  1
  Rh  Rh11  1  0.284011  0.000770  0.287761  1
