# generated using pymatgen
data_Nd4HgPt
_symmetry_space_group_name_H-M   'P 1'
_cell_length_a   10.00148381
_cell_length_b   10.00148339
_cell_length_c   10.00148300
_cell_angle_alpha   59.99999797
_cell_angle_beta   59.99999937
_cell_angle_gamma   60.00000200
_symmetry_Int_Tables_number   1
_chemical_formula_structural   Nd4HgPt
_chemical_formula_sum   'Nd16 Hg4 Pt4'
_cell_volume   707.42150072
_cell_formula_units_Z   4
loop_
 _symmetry_equiv_pos_site_id
 _symmetry_equiv_pos_as_xyz
  1  'x, y, z'
loop_
 _atom_site_type_symbol
 _atom_site_label
 _atom_site_symmetry_multiplicity
 _atom_site_fract_x
 _atom_site_fract_y
 _atom_site_fract_z
 _atom_site_occupancy
  Nd  Nd0  1  0.352141  0.352141  0.352141  1
  Nd  Nd1  1  0.352141  0.352141  0.943578  1
  Nd  Nd2  1  0.352141  0.943578  0.352141  1
  Nd  Nd3  1  0.943578  0.352141  0.352141  1
  Nd  Nd4  1  0.807880  0.192120  0.192120  1
  Nd  Nd5  1  0.192120  0.807880  0.807880  1
  Nd  Nd6  1  0.192120  0.807880  0.192120  1
  Nd  Nd7  1  0.807880  0.192120  0.807880  1
  Nd  Nd8  1  0.192120  0.192120  0.807880  1
  Nd  Nd9  1  0.807880  0.807880  0.192120  1
  Nd  Nd10  1  0.936265  0.563735  0.563735  1
  Nd  Nd11  1  0.563735  0.936265  0.936265  1
  Nd  Nd12  1  0.563735  0.936265  0.563735  1
  Nd  Nd13  1  0.936265  0.563735  0.936265  1
  Nd  Nd14  1  0.563735  0.563735  0.936265  1
  Nd  Nd15  1  0.936265  0.936265  0.563735  1
  Hg  Hg16  1  0.584804  0.584804  0.584804  1
  Hg  Hg17  1  0.584804  0.584804  0.245587  1
  Hg  Hg18  1  0.584804  0.245587  0.584804  1
  Hg  Hg19  1  0.245587  0.584804  0.584804  1
  Pt  Pt20  1  0.143438  0.143438  0.143438  1
  Pt  Pt21  1  0.143438  0.143438  0.569685  1
  Pt  Pt22  1  0.143438  0.569685  0.143438  1
  Pt  Pt23  1  0.569685  0.143438  0.143438  1
