# generated using pymatgen
data_LaY5(WO7)2
_symmetry_space_group_name_H-M   'P 1'
_cell_length_a   6.52085047
_cell_length_b   6.52084711
_cell_length_c   7.57694140
_cell_angle_alpha   89.89893987
_cell_angle_beta   90.10105919
_cell_angle_gamma   108.93962406
_symmetry_Int_Tables_number   1
_chemical_formula_structural   LaY5(WO7)2
_chemical_formula_sum   'La1 Y5 W2 O14'
_cell_volume   304.73935359
_cell_formula_units_Z   1
loop_
 _symmetry_equiv_pos_site_id
 _symmetry_equiv_pos_as_xyz
  1  'x, y, z'
loop_
 _atom_site_type_symbol
 _atom_site_label
 _atom_site_symmetry_multiplicity
 _atom_site_fract_x
 _atom_site_fract_y
 _atom_site_fract_z
 _atom_site_occupancy
  La  La0  1  0.502728  0.502728  0.250000  1
  Y  Y1  1  0.479131  0.479131  0.750000  1
  Y  Y2  1  0.997800  0.467989  0.501332  1
  Y  Y3  1  0.533624  0.000670  0.505597  1
  Y  Y4  1  0.000670  0.533624  0.994403  1
  Y  Y5  1  0.467989  0.997800  0.998668  1
  W  W6  1  0.000431  0.000431  0.250000  1
  W  W7  1  0.999422  0.999422  0.750000  1
  O  O8  1  0.068890  0.319472  0.218200  1
  O  O9  1  0.684380  0.935411  0.781594  1
  O  O10  1  0.935412  0.684380  0.718406  1
  O  O11  1  0.319472  0.068891  0.281800  1
  O  O12  1  0.678864  0.928501  0.221496  1
  O  O13  1  0.079311  0.323146  0.777788  1
  O  O14  1  0.323146  0.079312  0.722212  1
  O  O15  1  0.928502  0.678864  0.278504  1
  O  O16  1  0.364762  0.634388  0.511113  1
  O  O17  1  0.634389  0.364763  0.988887  1
  O  O18  1  0.360476  0.639317  0.989834  1
  O  O19  1  0.639317  0.360476  0.510166  1
  O  O20  1  0.928174  0.073110  0.499804  1
  O  O21  1  0.073110  0.928174  0.000196  1
