# generated using pymatgen
data_Ho6Tm2In3PbAu8
_symmetry_space_group_name_H-M   'P 1'
_cell_length_a   8.02084713
_cell_length_b   8.01907813
_cell_length_c   7.30275200
_cell_angle_alpha   90.00000000
_cell_angle_beta   90.00000000
_cell_angle_gamma   89.79261963
_symmetry_Int_Tables_number   1
_chemical_formula_structural   Ho6Tm2In3PbAu8
_chemical_formula_sum   'Ho6 Tm2 In3 Pb1 Au8'
_cell_volume   469.70847030
_cell_formula_units_Z   1
loop_
 _symmetry_equiv_pos_site_id
 _symmetry_equiv_pos_as_xyz
  1  'x, y, z'
loop_
 _atom_site_type_symbol
 _atom_site_label
 _atom_site_symmetry_multiplicity
 _atom_site_fract_x
 _atom_site_fract_y
 _atom_site_fract_z
 _atom_site_occupancy
  Ho  Ho0  1  0.843696  0.158635  0.501579  1
  Ho  Ho1  1  0.156304  0.841365  0.501579  1
  Ho  Ho2  1  0.341321  0.343605  0.998457  1
  Ho  Ho3  1  0.658679  0.656395  0.998457  1
  Ho  Ho4  1  0.682406  0.680317  0.501324  1
  Ho  Ho5  1  0.317594  0.319683  0.501324  1
  Tm  Tm6  1  0.179986  0.817786  0.998627  1
  Tm  Tm7  1  0.820014  0.182214  0.998627  1
  In  In8  1  0.000000  0.500000  0.750202  1
  In  In9  1  0.500000  0.000000  0.750271  1
  In  In10  1  0.000000  0.500000  0.249806  1
  Pb  Pb11  1  0.500000  0.000000  0.249746  1
  Au  Au12  1  0.632445  0.375881  0.273820  1
  Au  Au13  1  0.367555  0.624119  0.273820  1
  Au  Au14  1  0.128765  0.127985  0.774927  1
  Au  Au15  1  0.871235  0.872015  0.774927  1
  Au  Au16  1  0.371252  0.629525  0.726721  1
  Au  Au17  1  0.628748  0.370475  0.726721  1
  Au  Au18  1  0.876717  0.868264  0.224533  1
  Au  Au19  1  0.123283  0.131736  0.224533  1
