# generated using pymatgen
data_Tb2Tm6Cd2OsPt
_symmetry_space_group_name_H-M   'P 1'
_cell_length_a   9.58140337
_cell_length_b   9.57285980
_cell_length_c   9.63525783
_cell_angle_alpha   59.84294165
_cell_angle_beta   59.75512313
_cell_angle_gamma   59.68553301
_symmetry_Int_Tables_number   1
_chemical_formula_structural   Tb2Tm6Cd2OsPt
_chemical_formula_sum   'Tb4 Tm12 Cd4 Os2 Pt2'
_cell_volume   621.52160673
_cell_formula_units_Z   2
loop_
 _symmetry_equiv_pos_site_id
 _symmetry_equiv_pos_as_xyz
  1  'x, y, z'
loop_
 _atom_site_type_symbol
 _atom_site_label
 _atom_site_symmetry_multiplicity
 _atom_site_fract_x
 _atom_site_fract_y
 _atom_site_fract_z
 _atom_site_occupancy
  Tb  Tb0  1  0.555789  0.938779  0.566186  1
  Tb  Tb1  1  0.938779  0.555789  0.939246  1
  Tb  Tb2  1  0.563913  0.563913  0.936087  1
  Tb  Tb3  1  0.940414  0.940414  0.559586  1
  Tm  Tm4  1  0.350632  0.350038  0.350129  1
  Tm  Tm5  1  0.350038  0.350632  0.949202  1
  Tm  Tm6  1  0.346256  0.955353  0.348988  1
  Tm  Tm7  1  0.955353  0.346256  0.349401  1
  Tm  Tm8  1  0.816161  0.185594  0.189515  1
  Tm  Tm9  1  0.185594  0.816161  0.808730  1
  Tm  Tm10  1  0.186052  0.816171  0.189988  1
  Tm  Tm11  1  0.816171  0.186052  0.807789  1
  Tm  Tm12  1  0.187108  0.187108  0.812892  1
  Tm  Tm13  1  0.809221  0.809221  0.190779  1
  Tm  Tm14  1  0.940805  0.553831  0.564782  1
  Tm  Tm15  1  0.553831  0.940805  0.940582  1
  Cd  Cd16  1  0.580813  0.578555  0.580922  1
  Cd  Cd17  1  0.578555  0.580813  0.259710  1
  Cd  Cd18  1  0.579868  0.255996  0.582671  1
  Cd  Cd19  1  0.255996  0.579868  0.581465  1
  Os  Os20  1  0.145982  0.144339  0.136801  1
  Os  Os21  1  0.144339  0.145982  0.572878  1
  Pt  Pt22  1  0.143630  0.574700  0.141794  1
  Pt  Pt23  1  0.574700  0.143630  0.139878  1
