# generated using pymatgen
data_Dy5Pa3(CoB14)2
_symmetry_space_group_name_H-M   'P 1'
_cell_length_a   7.21269500
_cell_length_b   7.21314527
_cell_length_c   7.49937600
_cell_angle_alpha   90.00000000
_cell_angle_beta   90.00000000
_cell_angle_gamma   89.96605851
_symmetry_Int_Tables_number   1
_chemical_formula_structural   Dy5Pa3(CoB14)2
_chemical_formula_sum   'Dy5 Pa3 Co2 B28'
_cell_volume   390.16409312
_cell_formula_units_Z   1
loop_
 _symmetry_equiv_pos_site_id
 _symmetry_equiv_pos_as_xyz
  1  'x, y, z'
loop_
 _atom_site_type_symbol
 _atom_site_label
 _atom_site_symmetry_multiplicity
 _atom_site_fract_x
 _atom_site_fract_y
 _atom_site_fract_z
 _atom_site_occupancy
  Dy  Dy0  1  0.694125  0.168895  0.500000  1
  Dy  Dy1  1  0.306445  0.831600  0.500000  1
  Dy  Dy2  1  0.809103  0.666261  0.000000  1
  Dy  Dy3  1  0.832164  0.692990  0.500000  1
  Dy  Dy4  1  0.168458  0.306573  0.500000  1
  Pa  Pa5  1  0.192278  0.327239  0.000000  1
  Pa  Pa6  1  0.670185  0.190122  0.000000  1
  Pa  Pa7  1  0.328810  0.808697  0.000000  1
  Co  Co8  1  0.999516  0.000911  0.000000  1
  Co  Co9  1  0.500762  0.500979  0.500000  1
  B  B10  1  0.172859  0.040040  0.232637  1
  B  B11  1  0.960299  0.173749  0.233513  1
  B  B12  1  0.039932  0.826004  0.230632  1
  B  B13  1  0.674602  0.459962  0.271333  1
  B  B14  1  0.326352  0.540379  0.270395  1
  B  B15  1  0.825597  0.960160  0.230181  1
  B  B16  1  0.539904  0.674704  0.271513  1
  B  B17  1  0.460556  0.326684  0.270678  1
  B  B18  1  0.825597  0.960160  0.769819  1
  B  B19  1  0.039932  0.826004  0.769368  1
  B  B20  1  0.960299  0.173749  0.766487  1
  B  B21  1  0.326352  0.540379  0.729605  1
  B  B22  1  0.674602  0.459962  0.728667  1
  B  B23  1  0.172859  0.040040  0.767363  1
  B  B24  1  0.460556  0.326684  0.729322  1
  B  B25  1  0.539904  0.674704  0.728487  1
  B  B26  1  0.090379  0.589777  0.242453  1
  B  B27  1  0.409542  0.091009  0.241198  1
  B  B28  1  0.589157  0.911031  0.243395  1
  B  B29  1  0.910786  0.410507  0.244289  1
  B  B30  1  0.910786  0.410507  0.755711  1
  B  B31  1  0.589157  0.911031  0.756605  1
  B  B32  1  0.409542  0.091009  0.758802  1
  B  B33  1  0.090379  0.589777  0.757547  1
  B  B34  1  0.998785  0.998037  0.390955  1
  B  B35  1  0.500327  0.500821  0.110924  1
  B  B36  1  0.998785  0.998037  0.609045  1
  B  B37  1  0.500327  0.500821  0.889076  1
