# generated using pymatgen
data_SnAs4PdO14
_symmetry_space_group_name_H-M   'P 1'
_cell_length_a   5.09336501
_cell_length_b   8.34556930
_cell_length_c   7.39323222
_cell_angle_alpha   90.43890306
_cell_angle_beta   106.32759219
_cell_angle_gamma   90.53402688
_symmetry_Int_Tables_number   1
_chemical_formula_structural   SnAs4PdO14
_chemical_formula_sum   'Sn1 As4 Pd1 O14'
_cell_volume   301.55966742
_cell_formula_units_Z   1
loop_
 _symmetry_equiv_pos_site_id
 _symmetry_equiv_pos_as_xyz
  1  'x, y, z'
loop_
 _atom_site_type_symbol
 _atom_site_label
 _atom_site_symmetry_multiplicity
 _atom_site_fract_x
 _atom_site_fract_y
 _atom_site_fract_z
 _atom_site_occupancy
  Sn  Sn0  1  0.222792  0.505956  0.734372  1
  As  As1  1  0.394493  0.180552  0.501041  1
  As  As2  1  0.216088  0.783484  0.103898  1
  As  As3  1  0.771735  0.264680  0.903540  1
  As  As4  1  0.612498  0.689715  0.491301  1
  Pd  Pd5  1  0.779338  0.005796  0.270700  1
  O  O6  1  0.049286  0.310980  0.827065  1
  O  O7  1  0.106715  0.677503  0.898244  1
  O  O8  1  0.152185  0.030203  0.459401  1
  O  O9  1  0.293334  0.373875  0.511650  1
  O  O10  1  0.421617  0.693966  0.647170  1
  O  O11  1  0.586574  0.430169  0.926304  1
  O  O12  1  0.571198  0.124170  0.738048  1
  O  O13  1  0.412228  0.637486  0.258722  1
  O  O14  1  0.404417  0.953955  0.089264  1
  O  O15  1  0.616313  0.197717  0.362796  1
  O  O16  1  0.702896  0.888992  0.486736  1
  O  O17  1  0.858802  0.549143  0.528067  1
  O  O18  1  0.915444  0.155506  0.100732  1
  O  O19  1  0.917347  0.809713  0.165552  1
