# generated using pymatgen
data_Y3Ho3Al24Os7Ru
_symmetry_space_group_name_H-M   'P 1'
_cell_length_a   8.82674903
_cell_length_b   8.82795609
_cell_length_c   9.55357900
_cell_angle_alpha   90.00175732
_cell_angle_beta   89.99897149
_cell_angle_gamma   119.98643659
_symmetry_Int_Tables_number   1
_chemical_formula_structural   Y3Ho3Al24Os7Ru
_chemical_formula_sum   'Y3 Ho3 Al24 Os7 Ru1'
_cell_volume   644.78810062
_cell_formula_units_Z   1
loop_
 _symmetry_equiv_pos_site_id
 _symmetry_equiv_pos_as_xyz
  1  'x, y, z'
loop_
 _atom_site_type_symbol
 _atom_site_label
 _atom_site_symmetry_multiplicity
 _atom_site_fract_x
 _atom_site_fract_y
 _atom_site_fract_z
 _atom_site_occupancy
  Y  Y0  1  0.386231  0.193163  0.750421  1
  Y  Y1  1  0.193168  0.806868  0.249576  1
  Y  Y2  1  0.806947  0.193187  0.750426  1
  Ho  Ho3  1  0.193310  0.386543  0.249534  1
  Ho  Ho4  1  0.806776  0.613532  0.750451  1
  Ho  Ho5  1  0.613441  0.806697  0.249525  1
  Al  Al6  1  0.333411  0.666634  0.014821  1
  Al  Al7  1  0.666744  0.333440  0.985261  1
  Al  Al8  1  0.666743  0.333437  0.514760  1
  Al  Al9  1  0.333410  0.666635  0.485160  1
  Al  Al10  1  0.162459  0.324964  0.575741  1
  Al  Al11  1  0.837456  0.675104  0.424176  1
  Al  Al12  1  0.675076  0.837465  0.575811  1
  Al  Al13  1  0.837456  0.675104  0.075824  1
  Al  Al14  1  0.324904  0.162523  0.424052  1
  Al  Al15  1  0.162465  0.324968  0.924267  1
  Al  Al16  1  0.162372  0.837437  0.575936  1
  Al  Al17  1  0.324902  0.162525  0.075948  1
  Al  Al18  1  0.837546  0.162407  0.423981  1
  Al  Al19  1  0.675075  0.837460  0.924196  1
  Al  Al20  1  0.837551  0.162407  0.076021  1
  Al  Al21  1  0.162369  0.837436  0.924073  1
  Al  Al22  1  0.560440  0.120583  0.249865  1
  Al  Al23  1  0.439620  0.879237  0.750140  1
  Al  Al24  1  0.879396  0.439550  0.249862  1
  Al  Al25  1  0.120598  0.560444  0.750144  1
  Al  Al26  1  0.560216  0.439786  0.249857  1
  Al  Al27  1  0.439839  0.560453  0.750148  1
  Al  Al28  1  0.999811  0.000176  0.248260  1
  Al  Al29  1  0.999810  0.999629  0.751744  1
  Os  Os30  1  0.500067  0.999871  0.000182  1
  Os  Os31  1  0.000072  0.500036  0.000056  1
  Os  Os32  1  0.500064  0.999865  0.499827  1
  Os  Os33  1  0.500062  0.500182  0.000175  1
  Os  Os34  1  0.000079  0.500041  0.499948  1
  Os  Os35  1  0.500060  0.500186  0.499830  1
  Os  Os36  1  0.000035  0.000016  0.499989  1
  Ru  Ru37  1  0.000018  0.000010  0.000013  1
