# generated using pymatgen
data_Dy5Ho11(LuPb4)4
_symmetry_space_group_name_H-M   'P 1'
_cell_length_a   8.14831601
_cell_length_b   8.23333201
_cell_length_c   15.57565702
_cell_angle_alpha   90.00338312
_cell_angle_beta   89.99447402
_cell_angle_gamma   89.99776862
_symmetry_Int_Tables_number   1
_chemical_formula_structural   Dy5Ho11(LuPb4)4
_chemical_formula_sum   'Dy5 Ho11 Lu4 Pb16'
_cell_volume   1044.93641572
_cell_formula_units_Z   1
loop_
 _symmetry_equiv_pos_site_id
 _symmetry_equiv_pos_as_xyz
  1  'x, y, z'
loop_
 _atom_site_type_symbol
 _atom_site_label
 _atom_site_symmetry_multiplicity
 _atom_site_fract_x
 _atom_site_fract_y
 _atom_site_fract_z
 _atom_site_occupancy
  Dy  Dy0  1  0.963993  0.823486  0.099895  1
  Dy  Dy1  1  0.463985  0.676512  0.099875  1
  Dy  Dy2  1  0.963982  0.823469  0.400115  1
  Dy  Dy3  1  0.536022  0.323475  0.599874  1
  Dy  Dy4  1  0.036020  0.176524  0.900120  1
  Ho  Ho5  1  0.376611  0.841445  0.879110  1
  Ho  Ho6  1  0.876623  0.658576  0.620893  1
  Ho  Ho7  1  0.623380  0.158570  0.379109  1
  Ho  Ho8  1  0.123387  0.341411  0.120889  1
  Ho  Ho9  1  0.623380  0.158592  0.120875  1
  Ho  Ho10  1  0.123391  0.341429  0.379124  1
  Ho  Ho11  1  0.376607  0.841435  0.620874  1
  Ho  Ho12  1  0.876593  0.658558  0.879106  1
  Ho  Ho13  1  0.536032  0.323494  0.900092  1
  Ho  Ho14  1  0.036034  0.176501  0.599914  1
  Ho  Ho15  1  0.463959  0.676499  0.400091  1
  Lu  Lu16  1  0.208481  0.504386  0.750010  1
  Lu  Lu17  1  0.708467  0.995614  0.749995  1
  Lu  Lu18  1  0.791503  0.495601  0.250022  1
  Lu  Lu19  1  0.291550  0.004405  0.250000  1
  Pb  Pb20  1  0.281251  0.032777  0.043529  1
  Pb  Pb21  1  0.781189  0.467278  0.456459  1
  Pb  Pb22  1  0.718801  0.967282  0.543548  1
  Pb  Pb23  1  0.218801  0.532726  0.956464  1
  Pb  Pb24  1  0.718696  0.967265  0.956476  1
  Pb  Pb25  1  0.218745  0.532769  0.543496  1
  Pb  Pb26  1  0.281264  0.032763  0.456508  1
  Pb  Pb27  1  0.781223  0.467185  0.043488  1
  Pb  Pb28  1  0.571007  0.626208  0.750004  1
  Pb  Pb29  1  0.071020  0.873790  0.750000  1
  Pb  Pb30  1  0.428989  0.373795  0.249999  1
  Pb  Pb31  1  0.928992  0.126235  0.249998  1
  Pb  Pb32  1  0.347773  0.154911  0.750028  1
  Pb  Pb33  1  0.847771  0.345079  0.749968  1
  Pb  Pb34  1  0.652197  0.845091  0.250042  1
  Pb  Pb35  1  0.152283  0.654864  0.250010  1
