# generated using pymatgen
data_HfCr3(CuS4)2
_symmetry_space_group_name_H-M   'P 1'
_cell_length_a   7.02998100
_cell_length_b   7.13020900
_cell_length_c   9.97601000
_cell_angle_alpha   90.00000000
_cell_angle_beta   90.00000000
_cell_angle_gamma   90.00000000
_symmetry_Int_Tables_number   1
_chemical_formula_structural   HfCr3(CuS4)2
_chemical_formula_sum   'Hf2 Cr6 Cu4 S16'
_cell_volume   500.04983360
_cell_formula_units_Z   2
loop_
 _symmetry_equiv_pos_site_id
 _symmetry_equiv_pos_as_xyz
  1  'x, y, z'
loop_
 _atom_site_type_symbol
 _atom_site_label
 _atom_site_symmetry_multiplicity
 _atom_site_fract_x
 _atom_site_fract_y
 _atom_site_fract_z
 _atom_site_occupancy
  Hf  Hf0  1  0.500000  0.744837  0.250000  1
  Hf  Hf1  1  0.500000  0.255163  0.750000  1
  Cr  Cr2  1  0.000000  0.748935  0.250000  1
  Cr  Cr3  1  0.742667  0.500000  0.500000  1
  Cr  Cr4  1  0.257333  0.500000  0.000000  1
  Cr  Cr5  1  0.742235  0.000000  0.500000  1
  Cr  Cr6  1  0.000000  0.251065  0.750000  1
  Cr  Cr7  1  0.257765  0.000000  0.000000  1
  Cu  Cu8  1  0.768292  0.753673  0.876321  1
  Cu  Cu9  1  0.231708  0.246327  0.376321  1
  Cu  Cu10  1  0.768292  0.246327  0.123679  1
  Cu  Cu11  1  0.231708  0.753673  0.623679  1
  S  S12  1  0.972475  0.750211  0.489039  1
  S  S13  1  0.763628  0.504662  0.259130  1
  S  S14  1  0.509922  0.749900  0.504148  1
  S  S15  1  0.236372  0.495338  0.759130  1
  S  S16  1  0.509922  0.250100  0.495852  1
  S  S17  1  0.761586  0.010647  0.741104  1
  S  S18  1  0.972475  0.249789  0.510961  1
  S  S19  1  0.763628  0.495338  0.740870  1
  S  S20  1  0.490078  0.250100  0.004148  1
  S  S21  1  0.238414  0.010647  0.758896  1
  S  S22  1  0.027525  0.249789  0.989039  1
  S  S23  1  0.761586  0.989353  0.258896  1
  S  S24  1  0.027525  0.750211  0.010961  1
  S  S25  1  0.236372  0.504662  0.240870  1
  S  S26  1  0.490078  0.749900  0.995852  1
  S  S27  1  0.238414  0.989353  0.241104  1
