# generated using pymatgen
data_La17Nd3(Ir5Rh)2
_symmetry_space_group_name_H-M   'P 1'
_cell_length_a   11.38757023
_cell_length_b   11.39002323
_cell_length_c   6.70024500
_cell_angle_alpha   90.00000000
_cell_angle_beta   90.00000000
_cell_angle_gamma   90.02325277
_symmetry_Int_Tables_number   1
_chemical_formula_structural   La17Nd3(Ir5Rh)2
_chemical_formula_sum   'La17 Nd3 Ir10 Rh2'
_cell_volume   869.05312610
_cell_formula_units_Z   1
loop_
 _symmetry_equiv_pos_site_id
 _symmetry_equiv_pos_as_xyz
  1  'x, y, z'
loop_
 _atom_site_type_symbol
 _atom_site_label
 _atom_site_symmetry_multiplicity
 _atom_site_fract_x
 _atom_site_fract_y
 _atom_site_fract_z
 _atom_site_occupancy
  La  La0  1  0.091200  0.291666  0.110958  1
  La  La1  1  0.791079  0.408966  0.109712  1
  La  La2  1  0.208921  0.591034  0.109712  1
  La  La3  1  0.908800  0.708334  0.110958  1
  La  La4  1  0.408388  0.790994  0.389540  1
  La  La5  1  0.591612  0.209006  0.389540  1
  La  La6  1  0.291289  0.091805  0.390359  1
  La  La7  1  0.708711  0.908195  0.390359  1
  La  La8  1  0.409386  0.209310  0.888009  1
  La  La9  1  0.708499  0.090826  0.886658  1
  La  La10  1  0.291501  0.909174  0.886658  1
  La  La11  1  0.590614  0.790690  0.888009  1
  La  La12  1  0.091446  0.708920  0.611944  1
  La  La13  1  0.908554  0.291080  0.611944  1
  La  La14  1  0.209253  0.408659  0.612592  1
  La  La15  1  0.790747  0.591341  0.612592  1
  La  La16  1  0.000000  0.000000  0.000121  1
  Nd  Nd17  1  0.500000  0.500000  0.000079  1
  Nd  Nd18  1  0.500000  0.500000  0.500044  1
  Nd  Nd19  1  0.000000  0.000000  0.500011  1
  Ir  Ir20  1  0.153748  0.846164  0.249801  1
  Ir  Ir21  1  0.346522  0.346363  0.250077  1
  Ir  Ir22  1  0.653478  0.653637  0.250077  1
  Ir  Ir23  1  0.846252  0.153836  0.249801  1
  Ir  Ir24  1  0.346371  0.653638  0.749940  1
  Ir  Ir25  1  0.153981  0.153756  0.750261  1
  Ir  Ir26  1  0.846019  0.846244  0.750261  1
  Ir  Ir27  1  0.653629  0.346362  0.749940  1
  Ir  Ir28  1  0.500000  0.000000  0.621915  1
  Ir  Ir29  1  0.000000  0.500000  0.877885  1
  Rh  Rh30  1  0.000000  0.500000  0.381574  1
  Rh  Rh31  1  0.500000  0.000000  0.118665  1
