# generated using pymatgen
data_Tm4NpUTc6
_symmetry_space_group_name_H-M   'P 1'
_cell_length_a   5.72972700
_cell_length_b   5.72972663
_cell_length_c   8.18383200
_cell_angle_alpha   90.00000000
_cell_angle_beta   90.00000000
_cell_angle_gamma   119.99999636
_symmetry_Int_Tables_number   1
_chemical_formula_structural   Tm4NpUTc6
_chemical_formula_sum   'Tm4 Np1 U1 Tc6'
_cell_volume   232.67792650
_cell_formula_units_Z   1
loop_
 _symmetry_equiv_pos_site_id
 _symmetry_equiv_pos_as_xyz
  1  'x, y, z'
loop_
 _atom_site_type_symbol
 _atom_site_label
 _atom_site_symmetry_multiplicity
 _atom_site_fract_x
 _atom_site_fract_y
 _atom_site_fract_z
 _atom_site_occupancy
  Tm  Tm0  1  0.333333  0.666667  0.440833  1
  Tm  Tm1  1  0.666667  0.333333  0.559167  1
  Tm  Tm2  1  0.666667  0.333333  0.941549  1
  Tm  Tm3  1  0.333333  0.666667  0.058451  1
  Np  Np4  1  0.000000  0.000000  0.500000  1
  U  U5  1  0.000000  0.000000  0.000000  1
  Tc  Tc6  1  0.835502  0.164498  0.252842  1
  Tc  Tc7  1  0.835502  0.671003  0.252842  1
  Tc  Tc8  1  0.328997  0.164498  0.252842  1
  Tc  Tc9  1  0.164498  0.835502  0.747158  1
  Tc  Tc10  1  0.164498  0.328997  0.747158  1
  Tc  Tc11  1  0.671003  0.835502  0.747158  1
