# generated using pymatgen
data_Rb8HfSb4
_symmetry_space_group_name_H-M   'P 1'
_cell_length_a   12.10593517
_cell_length_b   12.10592349
_cell_length_c   12.10593900
_cell_angle_alpha   59.99995490
_cell_angle_beta   59.99998680
_cell_angle_gamma   59.99994510
_symmetry_Int_Tables_number   1
_chemical_formula_structural   Rb8HfSb4
_chemical_formula_sum   'Rb16 Hf2 Sb8'
_cell_volume   1254.52517443
_cell_formula_units_Z   2
loop_
 _symmetry_equiv_pos_site_id
 _symmetry_equiv_pos_as_xyz
  1  'x, y, z'
loop_
 _atom_site_type_symbol
 _atom_site_label
 _atom_site_symmetry_multiplicity
 _atom_site_fract_x
 _atom_site_fract_y
 _atom_site_fract_z
 _atom_site_occupancy
  Rb  Rb0  1  0.625000  0.125000  0.625000  1
  Rb  Rb1  1  0.625000  0.625000  0.125000  1
  Rb  Rb2  1  0.125000  0.625000  0.625000  1
  Rb  Rb3  1  0.625000  0.625000  0.625000  1
  Rb  Rb4  1  0.024608  0.024608  0.475392  1
  Rb  Rb5  1  0.774609  0.225392  0.225391  1
  Rb  Rb6  1  0.225392  0.774608  0.774608  1
  Rb  Rb7  1  0.774609  0.774608  0.225392  1
  Rb  Rb8  1  0.774609  0.225392  0.774608  1
  Rb  Rb9  1  0.225392  0.774608  0.225392  1
  Rb  Rb10  1  0.475391  0.024608  0.475392  1
  Rb  Rb11  1  0.475391  0.024608  0.024609  1
  Rb  Rb12  1  0.024608  0.475392  0.475392  1
  Rb  Rb13  1  0.024608  0.475392  0.024608  1
  Rb  Rb14  1  0.225392  0.225392  0.774608  1
  Rb  Rb15  1  0.475391  0.475392  0.024608  1
  Hf  Hf16  1  0.750000  0.750000  0.750000  1
  Hf  Hf17  1  0.500000  0.500000  0.500000  1
  Sb  Sb18  1  0.402447  0.792659  0.402447  1
  Sb  Sb19  1  0.847553  0.847553  0.457342  1
  Sb  Sb20  1  0.457342  0.847553  0.847553  1
  Sb  Sb21  1  0.847553  0.847553  0.847553  1
  Sb  Sb22  1  0.792658  0.402447  0.402447  1
  Sb  Sb23  1  0.402447  0.402447  0.402447  1
  Sb  Sb24  1  0.402447  0.402447  0.792658  1
  Sb  Sb25  1  0.847553  0.457341  0.847553  1
