# generated using pymatgen
data_Rb3Sb(PS4)2
_symmetry_space_group_name_H-M   'P 1'
_cell_length_a   9.96012591
_cell_length_b   6.96060000
_cell_length_c   12.04021800
_cell_angle_alpha   90.00000000
_cell_angle_beta   88.47692266
_cell_angle_gamma   90.00000000
_symmetry_Int_Tables_number   1
_chemical_formula_structural   Rb3Sb(PS4)2
_chemical_formula_sum   'Rb6 Sb2 P4 S16'
_cell_volume   834.43477082
_cell_formula_units_Z   2
loop_
 _symmetry_equiv_pos_site_id
 _symmetry_equiv_pos_as_xyz
  1  'x, y, z'
loop_
 _atom_site_type_symbol
 _atom_site_label
 _atom_site_symmetry_multiplicity
 _atom_site_fract_x
 _atom_site_fract_y
 _atom_site_fract_z
 _atom_site_occupancy
  Rb  Rb0  1  0.346738  0.808092  0.109086  1
  Rb  Rb1  1  0.402363  0.308785  0.347533  1
  Rb  Rb2  1  0.843858  0.310389  0.414561  1
  Rb  Rb3  1  0.156142  0.810389  0.585440  1
  Rb  Rb4  1  0.597637  0.808785  0.652467  1
  Rb  Rb5  1  0.653263  0.308092  0.890914  1
  Sb  Sb6  1  0.868446  0.762340  0.126518  1
  Sb  Sb7  1  0.131554  0.262340  0.873482  1
  P  P8  1  0.089761  0.333893  0.160910  1
  P  P9  1  0.639515  0.813842  0.318200  1
  P  P10  1  0.360485  0.313841  0.681800  1
  P  P11  1  0.910239  0.833893  0.839090  1
  S  S12  1  0.938251  0.394233  0.047691  1
  S  S13  1  0.263874  0.307599  0.055294  1
  S  S14  1  0.672111  0.035651  0.206771  1
  S  S15  1  0.663994  0.568809  0.214742  1
  S  S16  1  0.067543  0.088251  0.245955  1
  S  S17  1  0.105185  0.567435  0.259473  1
  S  S18  1  0.450180  0.813907  0.382628  1
  S  S19  1  0.788600  0.809053  0.428827  1
  S  S20  1  0.211401  0.309052  0.571173  1
  S  S21  1  0.549819  0.313906  0.617372  1
  S  S22  1  0.894815  0.067434  0.740527  1
  S  S23  1  0.932457  0.588251  0.754045  1
  S  S24  1  0.336006  0.068810  0.785258  1
  S  S25  1  0.327889  0.535649  0.793229  1
  S  S26  1  0.736125  0.807600  0.944706  1
  S  S27  1  0.061749  0.894233  0.952308  1
