# generated using pymatgen
data_Y7Er(Sc3Ga4)4
_symmetry_space_group_name_H-M   'P 1'
_cell_length_a   7.28780206
_cell_length_b   7.54459969
_cell_length_c   14.51130004
_cell_angle_alpha   89.97674523
_cell_angle_beta   90.00879028
_cell_angle_gamma   90.01182588
_symmetry_Int_Tables_number   1
_chemical_formula_structural   Y7Er(Sc3Ga4)4
_chemical_formula_sum   'Y7 Er1 Sc12 Ga16'
_cell_volume   797.88268768
_cell_formula_units_Z   1
loop_
 _symmetry_equiv_pos_site_id
 _symmetry_equiv_pos_as_xyz
  1  'x, y, z'
loop_
 _atom_site_type_symbol
 _atom_site_label
 _atom_site_symmetry_multiplicity
 _atom_site_fract_x
 _atom_site_fract_y
 _atom_site_fract_z
 _atom_site_occupancy
  Y  Y0  1  0.011389  0.177356  0.095550  1
  Y  Y1  1  0.988639  0.822618  0.904312  1
  Y  Y2  1  0.488608  0.677321  0.904584  1
  Y  Y3  1  0.988634  0.822357  0.595557  1
  Y  Y4  1  0.511358  0.322637  0.095546  1
  Y  Y5  1  0.011554  0.177291  0.404565  1
  Y  Y6  1  0.511428  0.322854  0.404811  1
  Er  Er7  1  0.488708  0.678227  0.595939  1
  Sc  Sc8  1  0.162083  0.502761  0.749724  1
  Sc  Sc9  1  0.838107  0.497542  0.250036  1
  Sc  Sc10  1  0.338248  0.002372  0.250052  1
  Sc  Sc11  1  0.661620  0.997218  0.749770  1
  Sc  Sc12  1  0.330401  0.175340  0.624259  1
  Sc  Sc13  1  0.669352  0.824483  0.375993  1
  Sc  Sc14  1  0.169728  0.675267  0.375804  1
  Sc  Sc15  1  0.669676  0.824734  0.124213  1
  Sc  Sc16  1  0.829930  0.325026  0.624162  1
  Sc  Sc17  1  0.330405  0.175312  0.875582  1
  Sc  Sc18  1  0.830217  0.324790  0.875588  1
  Sc  Sc19  1  0.169666  0.675314  0.124203  1
  Ga  Ga20  1  0.031526  0.117478  0.749947  1
  Ga  Ga21  1  0.968399  0.882265  0.250047  1
  Ga  Ga22  1  0.468458  0.617622  0.250031  1
  Ga  Ga23  1  0.531206  0.383025  0.749699  1
  Ga  Ga24  1  0.284675  0.872321  0.749529  1
  Ga  Ga25  1  0.715760  0.127085  0.250052  1
  Ga  Ga26  1  0.215728  0.372829  0.250064  1
  Ga  Ga27  1  0.783581  0.627422  0.749611  1
  Ga  Ga28  1  0.161414  0.465728  0.540469  1
  Ga  Ga29  1  0.839716  0.535187  0.459917  1
  Ga  Ga30  1  0.339864  0.963884  0.460114  1
  Ga  Ga31  1  0.839778  0.535248  0.040146  1
  Ga  Ga32  1  0.659982  0.034232  0.540509  1
  Ga  Ga33  1  0.160141  0.464710  0.959715  1
  Ga  Ga34  1  0.660245  0.035393  0.959725  1
  Ga  Ga35  1  0.339774  0.964752  0.040175  1
