# generated using pymatgen
data_ZnGa3Co2
_symmetry_space_group_name_H-M   'P 1'
_cell_length_a   5.87036199
_cell_length_b   5.87036219
_cell_length_c   5.30218200
_cell_angle_alpha   90.00000000
_cell_angle_beta   90.00000000
_cell_angle_gamma   88.61475187
_symmetry_Int_Tables_number   1
_chemical_formula_structural   ZnGa3Co2
_chemical_formula_sum   'Zn2 Ga6 Co4'
_cell_volume   182.66589454
_cell_formula_units_Z   2
loop_
 _symmetry_equiv_pos_site_id
 _symmetry_equiv_pos_as_xyz
  1  'x, y, z'
loop_
 _atom_site_type_symbol
 _atom_site_label
 _atom_site_symmetry_multiplicity
 _atom_site_fract_x
 _atom_site_fract_y
 _atom_site_fract_z
 _atom_site_occupancy
  Zn  Zn0  1  0.505108  0.494892  0.250000  1
  Zn  Zn1  1  0.494892  0.505108  0.749999  1
  Ga  Ga2  1  0.003189  0.502676  0.250000  1
  Ga  Ga3  1  0.497324  0.996811  0.250000  1
  Ga  Ga4  1  0.997163  0.002837  0.250000  1
  Ga  Ga5  1  0.002837  0.997163  0.749999  1
  Ga  Ga6  1  0.502676  0.003189  0.749999  1
  Ga  Ga7  1  0.996811  0.497324  0.749999  1
  Co  Co8  1  0.242509  0.242509  0.000000  1
  Co  Co9  1  0.757491  0.757491  0.000000  1
  Co  Co10  1  0.242509  0.242509  0.500001  1
  Co  Co11  1  0.757491  0.757491  0.500001  1
