# generated using pymatgen
data_EuAl3Ga
_symmetry_space_group_name_H-M   'P 1'
_cell_length_a   6.31221093
_cell_length_b   6.31221113
_cell_length_c   6.31221195
_cell_angle_alpha   139.64335977
_cell_angle_beta   139.64336306
_cell_angle_gamma   58.39520264
_symmetry_Int_Tables_number   1
_chemical_formula_structural   EuAl3Ga
_chemical_formula_sum   'Eu1 Al3 Ga1'
_cell_volume   104.49247543
_cell_formula_units_Z   1
loop_
 _symmetry_equiv_pos_site_id
 _symmetry_equiv_pos_as_xyz
  1  'x, y, z'
loop_
 _atom_site_type_symbol
 _atom_site_label
 _atom_site_symmetry_multiplicity
 _atom_site_fract_x
 _atom_site_fract_y
 _atom_site_fract_z
 _atom_site_occupancy
  Eu  Eu0  1  0.998954  0.998954  0.000000  1
  Al  Al1  1  0.613879  0.613879  0.000000  1
  Al  Al2  1  0.751045  0.251045  0.500000  1
  Al  Al3  1  0.251045  0.751045  0.500000  1
  Ga  Ga4  1  0.385077  0.385077  0.000000  1
