# generated using pymatgen
data_DyHo7Ti12Si15Sn
_symmetry_space_group_name_H-M   'P 1'
_cell_length_a   7.09976769
_cell_length_b   7.06483684
_cell_length_c   13.00018601
_cell_angle_alpha   89.98892297
_cell_angle_beta   89.73688212
_cell_angle_gamma   89.91840515
_symmetry_Int_Tables_number   1
_chemical_formula_structural   DyHo7Ti12Si15Sn
_chemical_formula_sum   'Dy1 Ho7 Ti12 Si15 Sn1'
_cell_volume   652.06488608
_cell_formula_units_Z   1
loop_
 _symmetry_equiv_pos_site_id
 _symmetry_equiv_pos_as_xyz
  1  'x, y, z'
loop_
 _atom_site_type_symbol
 _atom_site_label
 _atom_site_symmetry_multiplicity
 _atom_site_fract_x
 _atom_site_fract_y
 _atom_site_fract_z
 _atom_site_occupancy
  Dy  Dy0  1  0.343316  0.999693  0.461603  1
  Ho  Ho1  1  0.505561  0.835213  0.718172  1
  Ho  Ho2  1  0.502328  0.159701  0.216524  1
  Ho  Ho3  1  0.840944  0.497345  0.282356  1
  Ho  Ho4  1  0.159008  0.510045  0.786087  1
  Ho  Ho5  1  0.661067  0.996359  0.968563  1
  Ho  Ho6  1  0.993206  0.348464  0.527701  1
  Ho  Ho7  1  0.998617  0.659075  0.034180  1
  Ti  Ti8  1  0.326076  0.326673  0.001079  1
  Ti  Ti9  1  0.173932  0.826013  0.249693  1
  Ti  Ti10  1  0.816690  0.175121  0.751955  1
  Ti  Ti11  1  0.672890  0.672985  0.499515  1
  Ti  Ti12  1  0.152112  0.007409  0.883156  1
  Ti  Ti13  1  0.492278  0.650491  0.126727  1
  Ti  Ti14  1  0.515414  0.353977  0.626464  1
  Ti  Ti15  1  0.653857  0.493248  0.875445  1
  Ti  Ti16  1  0.347855  0.509066  0.372810  1
  Ti  Ti17  1  0.847246  0.992140  0.375753  1
  Ti  Ti18  1  0.009208  0.151494  0.123441  1
  Ti  Ti19  1  0.979978  0.835435  0.619027  1
  Si  Si20  1  0.370638  0.702920  0.935756  1
  Si  Si21  1  0.628730  0.297497  0.432779  1
  Si  Si22  1  0.703317  0.369407  0.066425  1
  Si  Si23  1  0.296997  0.630571  0.565751  1
  Si  Si24  1  0.797451  0.869607  0.184176  1
  Si  Si25  1  0.129990  0.202987  0.314903  1
  Si  Si26  1  0.870206  0.799856  0.816220  1
  Si  Si27  1  0.292186  0.951904  0.066735  1
  Si  Si28  1  0.549526  0.789260  0.313538  1
  Si  Si29  1  0.459147  0.210466  0.819964  1
  Si  Si30  1  0.793743  0.544984  0.686735  1
  Si  Si31  1  0.209349  0.452668  0.185204  1
  Si  Si32  1  0.707347  0.048441  0.564678  1
  Si  Si33  1  0.952454  0.291341  0.935194  1
  Si  Si34  1  0.048141  0.710642  0.432890  1
  Sn  Sn35  1  0.199190  0.127502  0.678802  1
