# generated using pymatgen
data_Ho10Ir3Pt2Au
_symmetry_space_group_name_H-M   'P 1'
_cell_length_a   11.05378832
_cell_length_b   11.03285500
_cell_length_c   6.33774000
_cell_angle_alpha   90.00000000
_cell_angle_beta   89.88081617
_cell_angle_gamma   90.00000000
_symmetry_Int_Tables_number   1
_chemical_formula_structural   Ho10Ir3Pt2Au
_chemical_formula_sum   'Ho20 Ir6 Pt4 Au2'
_cell_volume   772.91641914
_cell_formula_units_Z   2
loop_
 _symmetry_equiv_pos_site_id
 _symmetry_equiv_pos_as_xyz
  1  'x, y, z'
loop_
 _atom_site_type_symbol
 _atom_site_label
 _atom_site_symmetry_multiplicity
 _atom_site_fract_x
 _atom_site_fract_y
 _atom_site_fract_z
 _atom_site_occupancy
  Ho  Ho0  1  0.295643  0.090312  0.371228  1
  Ho  Ho1  1  0.295643  0.909688  0.871228  1
  Ho  Ho2  1  0.697061  0.089339  0.865811  1
  Ho  Ho3  1  0.697061  0.910661  0.365811  1
  Ho  Ho4  1  0.577084  0.791210  0.873734  1
  Ho  Ho5  1  0.577084  0.208790  0.373734  1
  Ho  Ho6  1  0.408496  0.792706  0.377859  1
  Ho  Ho7  1  0.408496  0.207294  0.877859  1
  Ho  Ho8  1  0.210124  0.413838  0.621452  1
  Ho  Ho9  1  0.210124  0.586162  0.121452  1
  Ho  Ho10  1  0.794569  0.417624  0.125737  1
  Ho  Ho11  1  0.794569  0.582376  0.625737  1
  Ho  Ho12  1  0.917679  0.702602  0.137094  1
  Ho  Ho13  1  0.917679  0.297398  0.637094  1
  Ho  Ho14  1  0.095671  0.700363  0.626257  1
  Ho  Ho15  1  0.095671  0.299637  0.126257  1
  Ho  Ho16  1  0.006008  0.998102  0.500192  1
  Ho  Ho17  1  0.006008  0.001898  0.000192  1
  Ho  Ho18  1  0.497316  0.498213  0.000301  1
  Ho  Ho19  1  0.497316  0.501787  0.500301  1
  Ir  Ir20  1  0.347359  0.345491  0.251062  1
  Ir  Ir21  1  0.347359  0.654509  0.751062  1
  Ir  Ir22  1  0.499304  0.000294  0.118409  1
  Ir  Ir23  1  0.499304  0.999706  0.618409  1
  Ir  Ir24  1  0.999292  0.500980  0.881894  1
  Ir  Ir25  1  0.999292  0.499020  0.381894  1
  Pt  Pt26  1  0.154576  0.154685  0.749201  1
  Pt  Pt27  1  0.154576  0.845315  0.249201  1
  Pt  Pt28  1  0.655637  0.347105  0.748596  1
  Pt  Pt29  1  0.655637  0.652895  0.248596  1
  Au  Au30  1  0.844179  0.155666  0.251174  1
  Au  Au31  1  0.844179  0.844334  0.751174  1
