# generated using pymatgen
data_Ac11YGa12
_symmetry_space_group_name_H-M   'P 1'
_cell_length_a   4.29180100
_cell_length_b   14.19123004
_cell_length_c   11.96687604
_cell_angle_alpha   89.99142960
_cell_angle_beta   90.00000000
_cell_angle_gamma   90.00000000
_symmetry_Int_Tables_number   1
_chemical_formula_structural   Ac11YGa12
_chemical_formula_sum   'Ac11 Y1 Ga12'
_cell_volume   728.85376900
_cell_formula_units_Z   1
loop_
 _symmetry_equiv_pos_site_id
 _symmetry_equiv_pos_as_xyz
  1  'x, y, z'
loop_
 _atom_site_type_symbol
 _atom_site_label
 _atom_site_symmetry_multiplicity
 _atom_site_fract_x
 _atom_site_fract_y
 _atom_site_fract_z
 _atom_site_occupancy
  Ac  Ac0  1  0.250000  0.663076  0.853941  1
  Ac  Ac1  1  0.250000  0.829634  0.358618  1
  Ac  Ac2  1  0.750000  0.333873  0.142034  1
  Ac  Ac3  1  0.750000  0.167553  0.643257  1
  Ac  Ac4  1  0.250000  0.336141  0.855511  1
  Ac  Ac5  1  0.250000  0.170943  0.359752  1
  Ac  Ac6  1  0.750000  0.666342  0.140719  1
  Ac  Ac7  1  0.750000  0.832351  0.642034  1
  Ac  Ac8  1  0.250000  0.000236  0.858712  1
  Ac  Ac9  1  0.250000  0.499805  0.358081  1
  Ac  Ac10  1  0.750000  0.999495  0.142999  1
  Y  Y11  1  0.750000  0.500339  0.627427  1
  Ga  Ga12  1  0.250000  0.343965  0.574893  1
  Ga  Ga13  1  0.250000  0.166702  0.066515  1
  Ga  Ga14  1  0.750000  0.662744  0.440317  1
  Ga  Ga15  1  0.750000  0.831503  0.931941  1
  Ga  Ga16  1  0.250000  0.656501  0.572765  1
  Ga  Ga17  1  0.250000  0.832766  0.063976  1
  Ga  Ga18  1  0.750000  0.337530  0.442550  1
  Ga  Ga19  1  0.750000  0.168253  0.934496  1
  Ga  Ga20  1  0.250000  0.000109  0.564283  1
  Ga  Ga21  1  0.250000  0.500008  0.062610  1
  Ga  Ga22  1  0.750000  0.000316  0.432837  1
  Ga  Ga23  1  0.750000  0.499820  0.929732  1
