# generated using pymatgen
data_Ho3Lu9Tc3Ru
_symmetry_space_group_name_H-M   'P 1'
_cell_length_a   6.17353947
_cell_length_b   7.35084643
_cell_length_c   8.89960000
_cell_angle_alpha   90.00000000
_cell_angle_beta   90.00000000
_cell_angle_gamma   89.95802936
_symmetry_Int_Tables_number   1
_chemical_formula_structural   Ho3Lu9Tc3Ru
_chemical_formula_sum   'Ho3 Lu9 Tc3 Ru1'
_cell_volume   403.87033046
_cell_formula_units_Z   1
loop_
 _symmetry_equiv_pos_site_id
 _symmetry_equiv_pos_as_xyz
  1  'x, y, z'
loop_
 _atom_site_type_symbol
 _atom_site_label
 _atom_site_symmetry_multiplicity
 _atom_site_fract_x
 _atom_site_fract_y
 _atom_site_fract_z
 _atom_site_occupancy
  Ho  Ho0  1  0.875629  0.539819  0.250000  1
  Ho  Ho1  1  0.624430  0.039016  0.250000  1
  Ho  Ho2  1  0.128726  0.458168  0.750000  1
  Lu  Lu3  1  0.339928  0.676115  0.062392  1
  Lu  Lu4  1  0.157203  0.174835  0.438133  1
  Lu  Lu5  1  0.658157  0.325491  0.563216  1
  Lu  Lu6  1  0.841498  0.824628  0.936898  1
  Lu  Lu7  1  0.658157  0.325491  0.936784  1
  Lu  Lu8  1  0.841498  0.824628  0.563102  1
  Lu  Lu9  1  0.339928  0.676115  0.437608  1
  Lu  Lu10  1  0.157203  0.174835  0.061867  1
  Lu  Lu11  1  0.375473  0.958873  0.750000  1
  Tc  Tc12  1  0.043509  0.882764  0.250000  1
  Tc  Tc13  1  0.458142  0.384471  0.250000  1
  Tc  Tc14  1  0.959197  0.116098  0.750000  1
  Ru  Ru15  1  0.541321  0.618650  0.750000  1
