# generated using pymatgen
data_MgBe8CrIr2
_symmetry_space_group_name_H-M   'P 1'
_cell_length_a   4.35495800
_cell_length_b   4.35495777
_cell_length_c   7.14885000
_cell_angle_alpha   90.00000000
_cell_angle_beta   90.00000000
_cell_angle_gamma   120.00000171
_symmetry_Int_Tables_number   1
_chemical_formula_structural   MgBe8CrIr2
_chemical_formula_sum   'Mg1 Be8 Cr1 Ir2'
_cell_volume   117.41801339
_cell_formula_units_Z   1
loop_
 _symmetry_equiv_pos_site_id
 _symmetry_equiv_pos_as_xyz
  1  'x, y, z'
loop_
 _atom_site_type_symbol
 _atom_site_label
 _atom_site_symmetry_multiplicity
 _atom_site_fract_x
 _atom_site_fract_y
 _atom_site_fract_z
 _atom_site_occupancy
  Mg  Mg0  1  0.333333  0.666667  0.063856  1
  Be  Be1  1  0.166883  0.333766  0.744538  1
  Be  Be2  1  0.166883  0.833117  0.744538  1
  Be  Be3  1  0.340544  0.170273  0.256011  1
  Be  Be4  1  0.829727  0.659456  0.256011  1
  Be  Be5  1  0.000000  0.000000  0.997465  1
  Be  Be6  1  0.666234  0.833117  0.744538  1
  Be  Be7  1  0.829727  0.170273  0.256011  1
  Be  Be8  1  0.000000  0.000000  0.497686  1
  Cr  Cr9  1  0.666667  0.333333  0.563393  1
  Ir  Ir10  1  0.333333  0.666667  0.444188  1
  Ir  Ir11  1  0.666667  0.333333  0.931763  1
