# generated using pymatgen
data_Ho3Co2Sn3Hg
_symmetry_space_group_name_H-M   'P 1'
_cell_length_a   7.61761400
_cell_length_b   7.61761193
_cell_length_c   3.81560700
_cell_angle_alpha   90.00000000
_cell_angle_beta   90.00000000
_cell_angle_gamma   119.99999164
_symmetry_Int_Tables_number   1
_chemical_formula_structural   Ho3Co2Sn3Hg
_chemical_formula_sum   'Ho3 Co2 Sn3 Hg1'
_cell_volume   191.74856016
_cell_formula_units_Z   1
loop_
 _symmetry_equiv_pos_site_id
 _symmetry_equiv_pos_as_xyz
  1  'x, y, z'
loop_
 _atom_site_type_symbol
 _atom_site_label
 _atom_site_symmetry_multiplicity
 _atom_site_fract_x
 _atom_site_fract_y
 _atom_site_fract_z
 _atom_site_occupancy
  Ho  Ho0  1  0.388843  0.415029  0.500000  1
  Ho  Ho1  1  0.584971  0.973814  0.500000  1
  Ho  Ho2  1  0.026186  0.611157  0.500000  1
  Co  Co3  1  0.333333  0.666667  0.000000  1
  Co  Co4  1  0.000000  0.000000  0.500000  1
  Sn  Sn5  1  0.745878  0.756350  0.000000  1
  Sn  Sn6  1  0.243650  0.989528  0.000000  1
  Sn  Sn7  1  0.010472  0.254122  0.000000  1
  Hg  Hg8  1  0.666667  0.333333  0.000000  1
