# generated using pymatgen
data_Rb3La(AsS4)2
_symmetry_space_group_name_H-M   'P 1'
_cell_length_a   9.41322595
_cell_length_b   10.31489985
_cell_length_c   11.02821200
_cell_angle_alpha   107.00518789
_cell_angle_beta   103.57752659
_cell_angle_gamma   114.23976075
_symmetry_Int_Tables_number   1
_chemical_formula_structural   Rb3La(AsS4)2
_chemical_formula_sum   'Rb6 La2 As4 S16'
_cell_volume   852.90033032
_cell_formula_units_Z   2
loop_
 _symmetry_equiv_pos_site_id
 _symmetry_equiv_pos_as_xyz
  1  'x, y, z'
loop_
 _atom_site_type_symbol
 _atom_site_label
 _atom_site_symmetry_multiplicity
 _atom_site_fract_x
 _atom_site_fract_y
 _atom_site_fract_z
 _atom_site_occupancy
  Rb  Rb0  1  0.499992  0.499990  0.999986  1
  Rb  Rb1  1  0.000006  0.499995  0.999989  1
  Rb  Rb2  1  0.259168  0.009093  0.018235  1
  Rb  Rb3  1  0.486897  0.736900  0.473767  1
  Rb  Rb4  1  0.513109  0.263102  0.526239  1
  Rb  Rb5  1  0.740860  0.990925  0.981796  1
  La  La6  1  0.993167  0.243154  0.486327  1
  La  La7  1  0.006834  0.756847  0.513672  1
  As  As8  1  0.007640  0.907103  0.246632  1
  As  As9  1  0.739032  0.339718  0.246725  1
  As  As10  1  0.260967  0.660285  0.753273  1
  As  As11  1  0.992362  0.092903  0.753365  1
  S  S12  1  0.886019  0.760630  0.026288  1
  S  S13  1  0.640191  0.265744  0.026421  1
  S  S14  1  0.134298  0.157567  0.287615  1
  S  S15  1  0.653366  0.130080  0.287686  1
  S  S16  1  0.020403  0.467829  0.340918  1
  S  S17  1  0.820399  0.873102  0.340897  1
  S  S18  1  0.198576  0.861090  0.351421  1
  S  S19  1  0.652727  0.490385  0.351544  1
  S  S20  1  0.347262  0.509614  0.648456  1
  S  S21  1  0.801421  0.138905  0.648573  1
  S  S22  1  0.179581  0.126891  0.659095  1
  S  S23  1  0.979587  0.532164  0.659078  1
  S  S24  1  0.346642  0.869929  0.712327  1
  S  S25  1  0.865701  0.842428  0.712388  1
  S  S26  1  0.359804  0.734255  0.973578  1
  S  S27  1  0.113992  0.239370  0.973708  1
