# generated using pymatgen
data_Rb3LaSi2O7
_symmetry_space_group_name_H-M   'P 1'
_cell_length_a   10.16324200
_cell_length_b   10.16324221
_cell_length_c   14.73957700
_cell_angle_alpha   90.00000000
_cell_angle_beta   90.00000000
_cell_angle_gamma   119.99999931
_symmetry_Int_Tables_number   1
_chemical_formula_structural   Rb3LaSi2O7
_chemical_formula_sum   'Rb18 La6 Si12 O42'
_cell_volume   1318.50019252
_cell_formula_units_Z   6
loop_
 _symmetry_equiv_pos_site_id
 _symmetry_equiv_pos_as_xyz
  1  'x, y, z'
loop_
 _atom_site_type_symbol
 _atom_site_label
 _atom_site_symmetry_multiplicity
 _atom_site_fract_x
 _atom_site_fract_y
 _atom_site_fract_z
 _atom_site_occupancy
  Rb  Rb0  1  0.330674  0.000000  0.407918  1
  Rb  Rb1  1  0.000000  0.330674  0.407918  1
  Rb  Rb2  1  0.669326  0.669326  0.407918  1
  Rb  Rb3  1  0.330674  0.330674  0.907918  1
  Rb  Rb4  1  0.669326  0.669326  0.092082  1
  Rb  Rb5  1  0.669326  0.000000  0.907918  1
  Rb  Rb6  1  0.000000  0.669326  0.907918  1
  Rb  Rb7  1  0.000000  0.669326  0.592082  1
  Rb  Rb8  1  0.669326  0.000000  0.592082  1
  Rb  Rb9  1  0.330674  0.000000  0.092082  1
  Rb  Rb10  1  0.000000  0.330674  0.092082  1
  Rb  Rb11  1  0.330674  0.330674  0.592082  1
  Rb  Rb12  1  0.000000  0.000000  0.500000  1
  Rb  Rb13  1  0.000000  0.000000  0.000000  1
  Rb  Rb14  1  0.666667  0.333333  0.750000  1
  Rb  Rb15  1  0.333333  0.666667  0.250000  1
  Rb  Rb16  1  0.333333  0.666667  0.750000  1
  Rb  Rb17  1  0.666667  0.333333  0.250000  1
  La  La18  1  0.666667  0.333333  0.500000  1
  La  La19  1  0.333333  0.666667  0.000000  1
  La  La20  1  0.333333  0.666667  0.500000  1
  La  La21  1  0.666667  0.333333  0.000000  1
  La  La22  1  0.000000  0.000000  0.750000  1
  La  La23  1  0.000000  0.000000  0.250000  1
  Si  Si24  1  0.658749  0.000000  0.355566  1
  Si  Si25  1  0.000000  0.658749  0.355566  1
  Si  Si26  1  0.341251  0.341251  0.355566  1
  Si  Si27  1  0.658749  0.658749  0.855566  1
  Si  Si28  1  0.341251  0.341251  0.144434  1
  Si  Si29  1  0.341251  0.000000  0.855566  1
  Si  Si30  1  0.000000  0.341251  0.855566  1
  Si  Si31  1  0.000000  0.341251  0.644434  1
  Si  Si32  1  0.341251  0.000000  0.644434  1
  Si  Si33  1  0.658749  0.000000  0.144434  1
  Si  Si34  1  0.000000  0.658749  0.144434  1
  Si  Si35  1  0.658749  0.658749  0.644434  1
  O  O36  1  0.323085  0.474730  0.095112  1
  O  O37  1  0.525270  0.848356  0.095112  1
  O  O38  1  0.151644  0.676915  0.095112  1
  O  O39  1  0.848356  0.323085  0.595112  1
  O  O40  1  0.676915  0.151644  0.404888  1
  O  O41  1  0.676915  0.525270  0.595112  1
  O  O42  1  0.474730  0.151644  0.595112  1
  O  O43  1  0.525270  0.676915  0.904888  1
  O  O44  1  0.151644  0.474730  0.904888  1
  O  O45  1  0.848356  0.525270  0.404888  1
  O  O46  1  0.474730  0.323085  0.404888  1
  O  O47  1  0.323085  0.848356  0.904888  1
  O  O48  1  0.676915  0.525270  0.904888  1
  O  O49  1  0.474730  0.151644  0.904888  1
  O  O50  1  0.848356  0.323085  0.904888  1
  O  O51  1  0.151644  0.676915  0.404888  1
  O  O52  1  0.323085  0.848356  0.595112  1
  O  O53  1  0.323085  0.474730  0.404888  1
  O  O54  1  0.525270  0.848356  0.404888  1
  O  O55  1  0.474730  0.323085  0.095112  1
  O  O56  1  0.848356  0.525270  0.095112  1
  O  O57  1  0.151644  0.474730  0.595112  1
  O  O58  1  0.525270  0.676915  0.595112  1
  O  O59  1  0.676915  0.151644  0.095112  1
  O  O60  1  0.403031  0.403031  0.250000  1
  O  O61  1  0.000000  0.403031  0.750000  1
  O  O62  1  0.403031  0.000000  0.750000  1
  O  O63  1  0.596969  0.000000  0.250000  1
  O  O64  1  0.000000  0.596969  0.250000  1
  O  O65  1  0.596969  0.596969  0.750000  1
  O  O66  1  0.180809  0.000000  0.854271  1
  O  O67  1  0.000000  0.180809  0.854271  1
  O  O68  1  0.819191  0.819191  0.854271  1
  O  O69  1  0.180809  0.180809  0.354271  1
  O  O70  1  0.819191  0.819191  0.645729  1
  O  O71  1  0.819191  0.000000  0.354271  1
  O  O72  1  0.180809  0.180809  0.145729  1
  O  O73  1  0.000000  0.180809  0.645729  1
  O  O74  1  0.180809  0.000000  0.645729  1
  O  O75  1  0.819191  0.000000  0.145729  1
  O  O76  1  0.000000  0.819191  0.145729  1
  O  O77  1  0.000000  0.819191  0.354271  1
