# generated using pymatgen
data_Sr2Ho3Pb4
_symmetry_space_group_name_H-M   'P 1'
_cell_length_a   8.12589300
_cell_length_b   8.69191900
_cell_length_c   16.26589900
_cell_angle_alpha   90.00000000
_cell_angle_beta   90.00000000
_cell_angle_gamma   90.00000000
_symmetry_Int_Tables_number   1
_chemical_formula_structural   Sr2Ho3Pb4
_chemical_formula_sum   'Sr8 Ho12 Pb16'
_cell_volume   1148.85400115
_cell_formula_units_Z   4
loop_
 _symmetry_equiv_pos_site_id
 _symmetry_equiv_pos_as_xyz
  1  'x, y, z'
loop_
 _atom_site_type_symbol
 _atom_site_label
 _atom_site_symmetry_multiplicity
 _atom_site_fract_x
 _atom_site_fract_y
 _atom_site_fract_z
 _atom_site_occupancy
  Sr  Sr0  1  0.491756  0.681784  0.591147  1
  Sr  Sr1  1  0.991756  0.818216  0.908853  1
  Sr  Sr2  1  0.508244  0.318216  0.091147  1
  Sr  Sr3  1  0.008244  0.181784  0.408853  1
  Sr  Sr4  1  0.508244  0.318216  0.408853  1
  Sr  Sr5  1  0.008244  0.181784  0.091147  1
  Sr  Sr6  1  0.491756  0.681784  0.908853  1
  Sr  Sr7  1  0.991756  0.818216  0.591147  1
  Ho  Ho8  1  0.664479  0.156669  0.624201  1
  Ho  Ho9  1  0.164479  0.343331  0.875799  1
  Ho  Ho10  1  0.335521  0.843331  0.124201  1
  Ho  Ho11  1  0.835521  0.656669  0.375799  1
  Ho  Ho12  1  0.335521  0.843331  0.375799  1
  Ho  Ho13  1  0.835521  0.656669  0.124201  1
  Ho  Ho14  1  0.664479  0.156669  0.875799  1
  Ho  Ho15  1  0.164479  0.343331  0.624201  1
  Ho  Ho16  1  0.824175  0.503875  0.750000  1
  Ho  Ho17  1  0.324175  0.996125  0.750000  1
  Ho  Ho18  1  0.175825  0.496125  0.250000  1
  Ho  Ho19  1  0.675825  0.003875  0.250000  1
  Pb  Pb20  1  0.677147  0.956047  0.455347  1
  Pb  Pb21  1  0.177147  0.543953  0.044653  1
  Pb  Pb22  1  0.322853  0.043953  0.955347  1
  Pb  Pb23  1  0.822853  0.456047  0.544653  1
  Pb  Pb24  1  0.322853  0.043953  0.544653  1
  Pb  Pb25  1  0.822853  0.456047  0.955347  1
  Pb  Pb26  1  0.677147  0.956047  0.044653  1
  Pb  Pb27  1  0.177147  0.543953  0.455347  1
  Pb  Pb28  1  0.466026  0.361520  0.750000  1
  Pb  Pb29  1  0.966026  0.138480  0.750000  1
  Pb  Pb30  1  0.533974  0.638480  0.250000  1
  Pb  Pb31  1  0.033974  0.861520  0.250000  1
  Pb  Pb32  1  0.691234  0.857324  0.750000  1
  Pb  Pb33  1  0.191234  0.642676  0.750000  1
  Pb  Pb34  1  0.308766  0.142676  0.250000  1
  Pb  Pb35  1  0.808766  0.357324  0.250000  1
