# generated using pymatgen
data_TmThInGa2
_symmetry_space_group_name_H-M   'P 1'
_cell_length_a   7.32849700
_cell_length_b   7.33612200
_cell_length_c   4.45405300
_cell_angle_alpha   90.00000000
_cell_angle_beta   90.00000000
_cell_angle_gamma   90.00000000
_symmetry_Int_Tables_number   1
_chemical_formula_structural   TmThInGa2
_chemical_formula_sum   'Tm2 Th2 In2 Ga4'
_cell_volume   239.46212932
_cell_formula_units_Z   2
loop_
 _symmetry_equiv_pos_site_id
 _symmetry_equiv_pos_as_xyz
  1  'x, y, z'
loop_
 _atom_site_type_symbol
 _atom_site_label
 _atom_site_symmetry_multiplicity
 _atom_site_fract_x
 _atom_site_fract_y
 _atom_site_fract_z
 _atom_site_occupancy
  Tm  Tm0  1  0.674719  0.176892  0.500000  1
  Tm  Tm1  1  0.174719  0.323108  0.500000  1
  Th  Th2  1  0.827494  0.671393  0.500000  1
  Th  Th3  1  0.327494  0.828607  0.500000  1
  In  In4  1  0.999427  0.004681  0.000000  1
  In  In5  1  0.499427  0.495319  0.000000  1
  Ga  Ga6  1  0.875223  0.370691  0.000000  1
  Ga  Ga7  1  0.375223  0.129309  0.000000  1
  Ga  Ga8  1  0.623137  0.883253  0.000000  1
  Ga  Ga9  1  0.123137  0.616747  0.000000  1
