# generated using pymatgen
data_Tc3Bi4PtF28
_symmetry_space_group_name_H-M   'P 1'
_cell_length_a   5.68853233
_cell_length_b   9.21047063
_cell_length_c   12.27518170
_cell_angle_alpha   61.84552035
_cell_angle_beta   89.99503802
_cell_angle_gamma   89.94118255
_symmetry_Int_Tables_number   1
_chemical_formula_structural   Tc3Bi4PtF28
_chemical_formula_sum   'Tc3 Bi4 Pt1 F28'
_cell_volume   567.04824631
_cell_formula_units_Z   1
loop_
 _symmetry_equiv_pos_site_id
 _symmetry_equiv_pos_as_xyz
  1  'x, y, z'
loop_
 _atom_site_type_symbol
 _atom_site_label
 _atom_site_symmetry_multiplicity
 _atom_site_fract_x
 _atom_site_fract_y
 _atom_site_fract_z
 _atom_site_occupancy
  Tc  Tc0  1  0.756708  0.272664  0.958634  1
  Tc  Tc1  1  0.256827  0.726499  0.542099  1
  Tc  Tc2  1  0.243153  0.726973  0.041753  1
  Bi  Bi3  1  0.760829  0.815803  0.761790  1
  Bi  Bi4  1  0.260564  0.184455  0.736989  1
  Bi  Bi5  1  0.237747  0.183738  0.239880  1
  Bi  Bi6  1  0.739231  0.814058  0.262719  1
  Pt  Pt7  1  0.742050  0.271776  0.458480  1
  F  F8  1  0.441742  0.709408  0.918095  1
  F  F9  1  0.931047  0.293587  0.584926  1
  F  F10  1  0.556049  0.290257  0.081396  1
  F  F11  1  0.058942  0.709953  0.417960  1
  F  F12  1  0.446903  0.281340  0.540568  1
  F  F13  1  0.953830  0.719331  0.955222  1
  F  F14  1  0.546286  0.719107  0.455991  1
  F  F15  1  0.044868  0.280264  0.046125  1
  F  F16  1  0.767426  0.511896  0.861842  1
  F  F17  1  0.267051  0.487242  0.638389  1
  F  F18  1  0.232424  0.488131  0.138477  1
  F  F19  1  0.733581  0.512867  0.360933  1
  F  F20  1  0.759026  0.029335  0.054060  1
  F  F21  1  0.259358  0.969828  0.447362  1
  F  F22  1  0.241006  0.970554  0.945659  1
  F  F23  1  0.741617  0.027328  0.550939  1
  F  F24  1  0.976506  0.730298  0.634356  1
  F  F25  1  0.478305  0.268661  0.865218  1
  F  F26  1  0.031115  0.271344  0.369906  1
  F  F27  1  0.523014  0.731530  0.133720  1
  F  F28  1  0.050840  0.744724  0.168836  1
  F  F29  1  0.558996  0.257648  0.326817  1
  F  F30  1  0.952080  0.255842  0.832007  1
  F  F31  1  0.449574  0.742894  0.669592  1
  F  F32  1  0.406601  0.970033  0.229858  1
  F  F33  1  0.907207  0.029825  0.271139  1
  F  F34  1  0.593431  0.031851  0.769600  1
  F  F35  1  0.094068  0.968957  0.728662  1
