# generated using pymatgen
data_Dy7Er(AlRh)2
_symmetry_space_group_name_H-M   'P 1'
_cell_length_a   9.52322082
_cell_length_b   9.52897348
_cell_length_c   9.52765041
_cell_angle_alpha   59.99539873
_cell_angle_beta   60.03969660
_cell_angle_gamma   59.98001436
_symmetry_Int_Tables_number   1
_chemical_formula_structural   Dy7Er(AlRh)2
_chemical_formula_sum   'Dy14 Er2 Al4 Rh4'
_cell_volume   611.43475767
_cell_formula_units_Z   2
loop_
 _symmetry_equiv_pos_site_id
 _symmetry_equiv_pos_as_xyz
  1  'x, y, z'
loop_
 _atom_site_type_symbol
 _atom_site_label
 _atom_site_symmetry_multiplicity
 _atom_site_fract_x
 _atom_site_fract_y
 _atom_site_fract_z
 _atom_site_occupancy
  Dy  Dy0  1  0.308717  0.691883  0.307516  1
  Dy  Dy1  1  0.935876  0.937472  0.562863  1
  Dy  Dy2  1  0.145802  0.147568  0.559062  1
  Dy  Dy3  1  0.563179  0.937327  0.562166  1
  Dy  Dy4  1  0.146832  0.148925  0.147664  1
  Dy  Dy5  1  0.308741  0.307338  0.692201  1
  Dy  Dy6  1  0.935876  0.563789  0.562863  1
  Dy  Dy7  1  0.563043  0.562890  0.937054  1
  Dy  Dy8  1  0.563043  0.937012  0.937054  1
  Dy  Dy9  1  0.935759  0.563484  0.937273  1
  Dy  Dy10  1  0.146832  0.556580  0.147664  1
  Dy  Dy11  1  0.308741  0.691720  0.692201  1
  Dy  Dy12  1  0.691768  0.308493  0.691246  1
  Dy  Dy13  1  0.559954  0.147040  0.145967  1
  Er  Er14  1  0.692624  0.307939  0.308054  1
  Er  Er15  1  0.692624  0.691384  0.308054  1
  Al  Al16  1  0.923080  0.922486  0.231948  1
  Al  Al17  1  0.231672  0.922509  0.923310  1
  Al  Al18  1  0.922679  0.232318  0.922990  1
  Al  Al19  1  0.922679  0.922012  0.922990  1
  Rh  Rh20  1  0.357857  0.356664  0.356883  1
  Rh  Rh21  1  0.927604  0.357695  0.357006  1
  Rh  Rh22  1  0.357159  0.356877  0.929088  1
  Rh  Rh23  1  0.357857  0.928597  0.356883  1
