# generated using pymatgen
data_LiCa2DyCd2Sn3
_symmetry_space_group_name_H-M   'P 1'
_cell_length_a   7.53114292
_cell_length_b   7.56900780
_cell_length_c   4.67620600
_cell_angle_alpha   90.00000000
_cell_angle_beta   90.00000000
_cell_angle_gamma   119.68114920
_symmetry_Int_Tables_number   1
_chemical_formula_structural   LiCa2DyCd2Sn3
_chemical_formula_sum   'Li1 Ca2 Dy1 Cd2 Sn3'
_cell_volume   231.58505461
_cell_formula_units_Z   1
loop_
 _symmetry_equiv_pos_site_id
 _symmetry_equiv_pos_as_xyz
  1  'x, y, z'
loop_
 _atom_site_type_symbol
 _atom_site_label
 _atom_site_symmetry_multiplicity
 _atom_site_fract_x
 _atom_site_fract_y
 _atom_site_fract_z
 _atom_site_occupancy
  Li  Li0  1  0.237646  0.999628  0.000000  1
  Ca  Ca1  1  0.568775  0.000192  0.500000  1
  Ca  Ca2  1  0.431814  0.434069  0.500000  1
  Dy  Dy3  1  0.998541  0.569477  0.500000  1
  Cd  Cd4  1  0.754699  0.754086  0.000000  1
  Cd  Cd5  1  0.003082  0.243799  0.000000  1
  Sn  Sn6  1  0.015570  0.994840  0.500000  1
  Sn  Sn7  1  0.664087  0.329588  0.000000  1
  Sn  Sn8  1  0.325784  0.674320  0.000000  1
