# generated using pymatgen
data_Eu2Ho2Al18CuIr5
_symmetry_space_group_name_H-M   'P 1'
_cell_length_a   7.59651136
_cell_length_b   7.60024726
_cell_length_c   9.55194663
_cell_angle_alpha   90.04726469
_cell_angle_beta   90.13005206
_cell_angle_gamma   119.50645663
_symmetry_Int_Tables_number   1
_chemical_formula_structural   Eu2Ho2Al18CuIr5
_chemical_formula_sum   'Eu2 Ho2 Al18 Cu1 Ir5'
_cell_volume   479.95517888
_cell_formula_units_Z   1
loop_
 _symmetry_equiv_pos_site_id
 _symmetry_equiv_pos_as_xyz
  1  'x, y, z'
loop_
 _atom_site_type_symbol
 _atom_site_label
 _atom_site_symmetry_multiplicity
 _atom_site_fract_x
 _atom_site_fract_y
 _atom_site_fract_z
 _atom_site_occupancy
  Eu  Eu0  1  0.994318  0.671471  0.249617  1
  Eu  Eu1  1  0.005682  0.328529  0.750383  1
  Ho  Ho2  1  0.672546  0.996651  0.250459  1
  Ho  Ho3  1  0.327454  0.003349  0.749541  1
  Al  Al4  1  0.129554  0.131661  0.251412  1
  Al  Al5  1  0.870446  0.868339  0.748588  1
  Al  Al6  1  0.001687  0.338379  0.075370  1
  Al  Al7  1  0.998313  0.661621  0.924630  1
  Al  Al8  1  0.999467  0.664901  0.571865  1
  Al  Al9  1  0.335021  0.000255  0.427692  1
  Al  Al10  1  0.000533  0.335099  0.428135  1
  Al  Al11  1  0.664979  0.999745  0.572308  1
  Al  Al12  1  0.661200  0.998587  0.924441  1
  Al  Al13  1  0.338800  0.001413  0.075559  1
  Al  Al14  1  0.333198  0.332858  0.548190  1
  Al  Al15  1  0.666802  0.667142  0.451810  1
  Al  Al16  1  0.663644  0.663978  0.050843  1
  Al  Al17  1  0.336356  0.336022  0.949157  1
  Al  Al18  1  0.341796  0.550166  0.250395  1
  Al  Al19  1  0.658204  0.449834  0.749605  1
  Al  Al20  1  0.546634  0.336582  0.250143  1
  Al  Al21  1  0.453366  0.663418  0.749857  1
  Cu  Cu22  1  0.000000  0.000000  0.000000  1
  Ir  Ir23  1  0.669109  0.326624  0.999971  1
  Ir  Ir24  1  0.330891  0.673376  0.000029  1
  Ir  Ir25  1  0.331144  0.673217  0.500340  1
  Ir  Ir26  1  0.668856  0.326783  0.499660  1
  Ir  Ir27  1  0.000000  0.000000  0.500000  1
