# generated using pymatgen
data_PrEr2IrO7
_symmetry_space_group_name_H-M   'P 1'
_cell_length_a   6.43913778
_cell_length_b   6.43913727
_cell_length_c   7.49106100
_cell_angle_alpha   90.00000000
_cell_angle_beta   90.00000000
_cell_angle_gamma   109.62857342
_symmetry_Int_Tables_number   1
_chemical_formula_structural   PrEr2IrO7
_chemical_formula_sum   'Pr2 Er4 Ir2 O14'
_cell_volume   292.54921824
_cell_formula_units_Z   2
loop_
 _symmetry_equiv_pos_site_id
 _symmetry_equiv_pos_as_xyz
  1  'x, y, z'
loop_
 _atom_site_type_symbol
 _atom_site_label
 _atom_site_symmetry_multiplicity
 _atom_site_fract_x
 _atom_site_fract_y
 _atom_site_fract_z
 _atom_site_occupancy
  Pr  Pr0  1  0.000000  0.000000  0.500000  1
  Pr  Pr1  1  0.000000  0.000000  0.000000  1
  Er  Er2  1  0.485538  0.938675  0.750000  1
  Er  Er3  1  0.514462  0.061325  0.250000  1
  Er  Er4  1  0.938675  0.485538  0.750000  1
  Er  Er5  1  0.061325  0.514462  0.250000  1
  Ir  Ir6  1  0.500000  0.500000  0.500000  1
  Ir  Ir7  1  0.500000  0.500000  0.000000  1
  O  O8  1  0.592424  0.592424  0.750000  1
  O  O9  1  0.407576  0.407576  0.250000  1
  O  O10  1  0.837543  0.123538  0.750000  1
  O  O11  1  0.162457  0.876462  0.250000  1
  O  O12  1  0.123538  0.837543  0.750000  1
  O  O13  1  0.876462  0.162457  0.250000  1
  O  O14  1  0.439897  0.178888  0.965837  1
  O  O15  1  0.560103  0.821112  0.465837  1
  O  O16  1  0.178888  0.439897  0.965837  1
  O  O17  1  0.821112  0.560103  0.465837  1
  O  O18  1  0.439897  0.178888  0.534163  1
  O  O19  1  0.560103  0.821112  0.034163  1
  O  O20  1  0.821112  0.560103  0.034163  1
  O  O21  1  0.178888  0.439897  0.534163  1
