# generated using pymatgen
data_Ti5Al6ReRu12
_symmetry_space_group_name_H-M   'P 1'
_cell_length_a   4.31212200
_cell_length_b   6.10867400
_cell_length_c   12.89062900
_cell_angle_alpha   89.99842541
_cell_angle_beta   90.00053242
_cell_angle_gamma   89.99803192
_symmetry_Int_Tables_number   1
_chemical_formula_structural   Ti5Al6ReRu12
_chemical_formula_sum   'Ti5 Al6 Re1 Ru12'
_cell_volume   339.55653841
_cell_formula_units_Z   1
loop_
 _symmetry_equiv_pos_site_id
 _symmetry_equiv_pos_as_xyz
  1  'x, y, z'
loop_
 _atom_site_type_symbol
 _atom_site_label
 _atom_site_symmetry_multiplicity
 _atom_site_fract_x
 _atom_site_fract_y
 _atom_site_fract_z
 _atom_site_occupancy
  Ti  Ti0  1  0.499823  0.000004  0.169744  1
  Ti  Ti1  1  0.999837  0.500003  0.334701  1
  Ti  Ti2  1  0.500000  0.000000  0.500000  1
  Ti  Ti3  1  0.000164  0.499995  0.665299  1
  Ti  Ti4  1  0.500178  0.999996  0.830256  1
  Al  Al5  1  0.000000  0.000000  0.000000  1
  Al  Al6  1  0.499815  0.499999  0.168705  1
  Al  Al7  1  0.999815  0.000001  0.333636  1
  Al  Al8  1  0.500000  0.499999  0.500000  1
  Al  Al9  1  0.000186  0.999999  0.666364  1
  Al  Al10  1  0.500185  0.499999  0.831295  1
  Re  Re11  1  0.000000  0.499999  0.000000  1
  Ru  Ru12  1  0.499997  0.254285  0.000000  1
  Ru  Ru13  1  0.500003  0.745714  0.000000  1
  Ru  Ru14  1  0.999867  0.250472  0.164063  1
  Ru  Ru15  1  0.999852  0.749536  0.164067  1
  Ru  Ru16  1  0.499840  0.250349  0.332536  1
  Ru  Ru17  1  0.499846  0.749655  0.332529  1
  Ru  Ru18  1  0.000004  0.249218  0.500000  1
  Ru  Ru19  1  0.999996  0.750782  0.500000  1
  Ru  Ru20  1  0.500152  0.250346  0.667471  1
  Ru  Ru21  1  0.500158  0.749652  0.667464  1
  Ru  Ru22  1  0.000149  0.250464  0.835933  1
  Ru  Ru23  1  0.000134  0.749528  0.835937  1
