# generated using pymatgen
data_HfZr3Ir2C
_symmetry_space_group_name_H-M   'P 1'
_cell_length_a   8.84706248
_cell_length_b   8.84706326
_cell_length_c   8.84706200
_cell_angle_alpha   60.00000472
_cell_angle_beta   60.00000181
_cell_angle_gamma   59.99999764
_symmetry_Int_Tables_number   1
_chemical_formula_structural   HfZr3Ir2C
_chemical_formula_sum   'Hf4 Zr12 Ir8 C4'
_cell_volume   489.64611605
_cell_formula_units_Z   4
loop_
 _symmetry_equiv_pos_site_id
 _symmetry_equiv_pos_as_xyz
  1  'x, y, z'
loop_
 _atom_site_type_symbol
 _atom_site_label
 _atom_site_symmetry_multiplicity
 _atom_site_fract_x
 _atom_site_fract_y
 _atom_site_fract_z
 _atom_site_occupancy
  Hf  Hf0  1  0.125000  0.625000  0.625000  1
  Hf  Hf1  1  0.625000  0.125000  0.625000  1
  Hf  Hf2  1  0.625000  0.625000  0.125000  1
  Hf  Hf3  1  0.625000  0.625000  0.625000  1
  Zr  Zr4  1  0.814606  0.814606  0.185394  1
  Zr  Zr5  1  0.185394  0.185394  0.814606  1
  Zr  Zr6  1  0.814606  0.185394  0.814606  1
  Zr  Zr7  1  0.185394  0.814606  0.185394  1
  Zr  Zr8  1  0.185394  0.814606  0.814606  1
  Zr  Zr9  1  0.814606  0.185394  0.185394  1
  Zr  Zr10  1  0.435394  0.435394  0.064606  1
  Zr  Zr11  1  0.064606  0.064606  0.435394  1
  Zr  Zr12  1  0.435394  0.064606  0.435394  1
  Zr  Zr13  1  0.064606  0.435394  0.064606  1
  Zr  Zr14  1  0.064606  0.435394  0.435394  1
  Zr  Zr15  1  0.435394  0.064606  0.064606  1
  Ir  Ir16  1  0.755592  0.414803  0.414803  1
  Ir  Ir17  1  0.414803  0.755592  0.414803  1
  Ir  Ir18  1  0.414803  0.414803  0.755592  1
  Ir  Ir19  1  0.414803  0.414803  0.414803  1
  Ir  Ir20  1  0.494408  0.835197  0.835197  1
  Ir  Ir21  1  0.835197  0.494408  0.835197  1
  Ir  Ir22  1  0.835197  0.835197  0.494408  1
  Ir  Ir23  1  0.835197  0.835197  0.835197  1
  C  C24  1  0.625000  0.125000  0.125000  1
  C  C25  1  0.125000  0.625000  0.125000  1
  C  C26  1  0.125000  0.125000  0.625000  1
  C  C27  1  0.125000  0.125000  0.125000  1
