# generated using pymatgen
data_AsH4F7
_symmetry_space_group_name_H-M   'P 1'
_cell_length_a   4.71088392
_cell_length_b   6.64106231
_cell_length_c   7.08933841
_cell_angle_alpha   88.19348495
_cell_angle_beta   89.51065020
_cell_angle_gamma   125.03870928
_symmetry_Int_Tables_number   1
_chemical_formula_structural   AsH4F7
_chemical_formula_sum   'As1 H4 F7'
_cell_volume   181.40884358
_cell_formula_units_Z   1
loop_
 _symmetry_equiv_pos_site_id
 _symmetry_equiv_pos_as_xyz
  1  'x, y, z'
loop_
 _atom_site_type_symbol
 _atom_site_label
 _atom_site_symmetry_multiplicity
 _atom_site_fract_x
 _atom_site_fract_y
 _atom_site_fract_z
 _atom_site_occupancy
  As  As0  1  0.600743  0.641788  0.564395  1
  H  H1  1  0.276259  0.681893  0.219509  1
  H  H2  1  0.311610  0.268883  0.895715  1
  H  H3  1  0.754738  0.420795  0.261725  1
  H  H4  1  0.802737  0.006445  0.856249  1
  F  F5  1  0.153337  0.506280  0.589156  1
  F  F6  1  0.599577  0.923107  0.774818  1
  F  F7  1  0.511576  0.382646  0.423404  1
  F  F8  1  0.499970  0.809304  0.271569  1
  F  F9  1  0.927692  0.471779  0.159916  1
  F  F10  1  0.117694  0.122803  0.965171  1
  F  F11  1  0.597861  0.488495  0.784029  1
