# generated using pymatgen
data_Co4Ni4MoW15C4
_symmetry_space_group_name_H-M   'P 1'
_cell_length_a   8.01158228
_cell_length_b   8.01408934
_cell_length_c   8.01348400
_cell_angle_alpha   60.00249037
_cell_angle_beta   59.99213927
_cell_angle_gamma   59.98625488
_symmetry_Int_Tables_number   1
_chemical_formula_structural   Co4Ni4MoW15C4
_chemical_formula_sum   'Co4 Ni4 Mo1 W15 C4'
_cell_volume   363.76096055
_cell_formula_units_Z   1
loop_
 _symmetry_equiv_pos_site_id
 _symmetry_equiv_pos_as_xyz
  1  'x, y, z'
loop_
 _atom_site_type_symbol
 _atom_site_label
 _atom_site_symmetry_multiplicity
 _atom_site_fract_x
 _atom_site_fract_y
 _atom_site_fract_z
 _atom_site_occupancy
  Co  Co0  1  0.240098  0.919843  0.920029  1
  Co  Co1  1  0.920005  0.919475  0.920333  1
  Co  Co2  1  0.920005  0.919475  0.240185  1
  Co  Co3  1  0.330851  0.007593  0.330779  1
  Ni  Ni4  1  0.916775  0.250901  0.916162  1
  Ni  Ni5  1  0.333208  0.333242  0.000192  1
  Ni  Ni6  1  0.000013  0.333414  0.333287  1
  Ni  Ni7  1  0.333208  0.333242  0.333359  1
  Mo  Mo8  1  0.557509  0.563092  0.939699  1
  W  W9  1  0.124595  0.626711  0.124348  1
  W  W10  1  0.126986  0.120308  0.625746  1
  W  W11  1  0.625504  0.120261  0.127118  1
  W  W12  1  0.126986  0.120308  0.126960  1
  W  W13  1  0.935862  0.936650  0.563744  1
  W  W14  1  0.690414  0.310197  0.309072  1
  W  W15  1  0.313514  0.689034  0.684795  1
  W  W16  1  0.685153  0.689428  0.312709  1
  W  W17  1  0.690414  0.310197  0.690317  1
  W  W18  1  0.313514  0.689034  0.312657  1
  W  W19  1  0.563403  0.936497  0.563759  1
  W  W20  1  0.563403  0.936497  0.936341  1
  W  W21  1  0.939206  0.563090  0.557814  1
  W  W22  1  0.939206  0.563090  0.939890  1
  W  W23  1  0.309281  0.309658  0.690530  1
  C  C24  1  0.624036  0.128009  0.623978  1
  C  C25  1  0.625643  0.623647  0.125355  1
  C  C26  1  0.125566  0.623462  0.625486  1
  C  C27  1  0.625643  0.623647  0.625355  1
