# generated using pymatgen
data_SmGd(HoB5)2
_symmetry_space_group_name_H-M   'P 1'
_cell_length_a   7.12793300
_cell_length_b   7.11640052
_cell_length_c   7.14817178
_cell_angle_alpha   76.68589503
_cell_angle_beta   90.00000000
_cell_angle_gamma   90.00000000
_symmetry_Int_Tables_number   1
_chemical_formula_structural   SmGd(HoB5)2
_chemical_formula_sum   'Sm2 Gd2 Ho4 B20'
_cell_volume   352.84694125
_cell_formula_units_Z   2
loop_
 _symmetry_equiv_pos_site_id
 _symmetry_equiv_pos_as_xyz
  1  'x, y, z'
loop_
 _atom_site_type_symbol
 _atom_site_label
 _atom_site_symmetry_multiplicity
 _atom_site_fract_x
 _atom_site_fract_y
 _atom_site_fract_z
 _atom_site_occupancy
  Sm  Sm0  1  0.690599  0.773938  0.624782  1
  Sm  Sm1  1  0.190599  0.226062  0.875218  1
  Gd  Gd2  1  0.308215  0.229109  0.373817  1
  Gd  Gd3  1  0.808215  0.770891  0.126183  1
  Ho  Ho4  1  0.315154  0.754745  0.253169  1
  Ho  Ho5  1  0.815154  0.245255  0.246831  1
  Ho  Ho6  1  0.684631  0.245736  0.746962  1
  Ho  Ho7  1  0.184631  0.754264  0.753038  1
  B  B8  1  0.503572  0.313849  0.041634  1
  B  B9  1  0.003572  0.686151  0.458366  1
  B  B10  1  0.496908  0.685833  0.959911  1
  B  B11  1  0.996908  0.314167  0.540089  1
  B  B12  1  0.488597  0.925925  0.926319  1
  B  B13  1  0.988597  0.074075  0.573681  1
  B  B14  1  0.513139  0.073252  0.076225  1
  B  B15  1  0.013139  0.926748  0.423775  1
  B  B16  1  0.326386  0.496774  0.040298  1
  B  B17  1  0.826386  0.503226  0.459702  1
  B  B18  1  0.673480  0.503493  0.960592  1
  B  B19  1  0.173480  0.496507  0.539408  1
  B  B20  1  0.910437  0.498885  0.910794  1
  B  B21  1  0.410437  0.501115  0.589206  1
  B  B22  1  0.089267  0.501854  0.089130  1
  B  B23  1  0.589267  0.498146  0.410870  1
  B  B24  1  0.961326  0.497018  0.673583  1
  B  B25  1  0.461326  0.502982  0.826417  1
  B  B26  1  0.038290  0.503590  0.325590  1
  B  B27  1  0.538290  0.496410  0.174410  1
