# generated using pymatgen
data_Er16Tl2InHgRh4
_symmetry_space_group_name_H-M   'P 1'
_cell_length_a   9.56644759
_cell_length_b   9.56850031
_cell_length_c   9.56644731
_cell_angle_alpha   60.11840410
_cell_angle_beta   60.11954507
_cell_angle_gamma   60.11841201
_symmetry_Int_Tables_number   1
_chemical_formula_structural   Er16Tl2InHgRh4
_chemical_formula_sum   'Er16 Tl2 In1 Hg1 Rh4'
_cell_volume   620.86539007
_cell_formula_units_Z   1
loop_
 _symmetry_equiv_pos_site_id
 _symmetry_equiv_pos_as_xyz
  1  'x, y, z'
loop_
 _atom_site_type_symbol
 _atom_site_label
 _atom_site_symmetry_multiplicity
 _atom_site_fract_x
 _atom_site_fract_y
 _atom_site_fract_z
 _atom_site_occupancy
  Er  Er0  1  0.189647  0.189236  0.811176  1
  Er  Er1  1  0.439152  0.056722  0.063474  1
  Er  Er2  1  0.435764  0.060253  0.435764  1
  Er  Er3  1  0.061285  0.437236  0.061285  1
  Er  Er4  1  0.647496  0.051887  0.647496  1
  Er  Er5  1  0.189271  0.811219  0.811578  1
  Er  Er6  1  0.063474  0.056722  0.439152  1
  Er  Er7  1  0.811176  0.189236  0.189647  1
  Er  Er8  1  0.811578  0.811219  0.189271  1
  Er  Er9  1  0.648101  0.647553  0.050814  1
  Er  Er10  1  0.652702  0.651641  0.652702  1
  Er  Er11  1  0.065055  0.433701  0.436926  1
  Er  Er12  1  0.050814  0.647553  0.648101  1
  Er  Er13  1  0.811166  0.189410  0.811166  1
  Er  Er14  1  0.436926  0.433701  0.065055  1
  Er  Er15  1  0.188703  0.811875  0.188703  1
  Tl  Tl16  1  0.414480  0.418344  0.754801  1
  Tl  Tl17  1  0.754801  0.418344  0.414480  1
  In  In18  1  0.416036  0.419856  0.416036  1
  Hg  Hg19  1  0.412464  0.762544  0.412464  1
  Rh  Rh20  1  0.858976  0.425667  0.858976  1
  Rh  Rh21  1  0.858329  0.859423  0.426752  1
  Rh  Rh22  1  0.426752  0.859423  0.858329  1
  Rh  Rh23  1  0.855853  0.857236  0.855853  1
