# generated using pymatgen
data_BaLiSmS3
_symmetry_space_group_name_H-M   'P 1'
_cell_length_a   4.15860701
_cell_length_b   7.12399690
_cell_length_c   10.53382800
_cell_angle_alpha   89.99999797
_cell_angle_beta   89.99997534
_cell_angle_gamma   106.96091354
_symmetry_Int_Tables_number   1
_chemical_formula_structural   BaLiSmS3
_chemical_formula_sum   'Ba2 Li2 Sm2 S6'
_cell_volume   298.50018911
_cell_formula_units_Z   2
loop_
 _symmetry_equiv_pos_site_id
 _symmetry_equiv_pos_as_xyz
  1  'x, y, z'
loop_
 _atom_site_type_symbol
 _atom_site_label
 _atom_site_symmetry_multiplicity
 _atom_site_fract_x
 _atom_site_fract_y
 _atom_site_fract_z
 _atom_site_occupancy
  Ba  Ba0  1  0.254862  0.509690  0.250001  1
  Ba  Ba1  1  0.745136  0.490312  0.750000  1
  Li  Li2  1  0.529156  0.058518  0.250000  1
  Li  Li3  1  0.470839  0.941482  0.750000  1
  Sm  Sm4  1  0.999998  0.000000  0.000001  1
  Sm  Sm5  1  0.999998  0.000000  0.500000  1
  S  S6  1  0.631447  0.262955  0.065181  1
  S  S7  1  0.932558  0.865051  0.250000  1
  S  S8  1  0.631447  0.262955  0.434820  1
  S  S9  1  0.368551  0.737045  0.565181  1
  S  S10  1  0.067439  0.134949  0.750000  1
  S  S11  1  0.368551  0.737045  0.934820  1
