# generated using pymatgen
data_Zr6AlZn5N
_symmetry_space_group_name_H-M   'P 1'
_cell_length_a   8.58112144
_cell_length_b   8.58406376
_cell_length_c   8.58406318
_cell_angle_alpha   60.00140116
_cell_angle_beta   60.01133816
_cell_angle_gamma   60.01133375
_symmetry_Int_Tables_number   1
_chemical_formula_structural   Zr6AlZn5N
_chemical_formula_sum   'Zr12 Al2 Zn10 N2'
_cell_volume   447.19185288
_cell_formula_units_Z   2
loop_
 _symmetry_equiv_pos_site_id
 _symmetry_equiv_pos_as_xyz
  1  'x, y, z'
loop_
 _atom_site_type_symbol
 _atom_site_label
 _atom_site_symmetry_multiplicity
 _atom_site_fract_x
 _atom_site_fract_y
 _atom_site_fract_z
 _atom_site_occupancy
  Zr  Zr0  1  0.189835  0.809042  0.190806  1
  Zr  Zr1  1  0.439683  0.059194  0.440958  1
  Zr  Zr2  1  0.439862  0.061389  0.058887  1
  Zr  Zr3  1  0.439312  0.439801  0.059047  1
  Zr  Zr4  1  0.190106  0.809553  0.810235  1
  Zr  Zr5  1  0.061840  0.439801  0.059047  1
  Zr  Zr6  1  0.810317  0.809042  0.190806  1
  Zr  Zr7  1  0.059894  0.439765  0.440447  1
  Zr  Zr8  1  0.188160  0.190953  0.810199  1
  Zr  Zr9  1  0.810138  0.191113  0.188611  1
  Zr  Zr10  1  0.810688  0.190953  0.810199  1
  Zr  Zr11  1  0.060165  0.059194  0.440958  1
  Al  Al12  1  0.831219  0.506417  0.831147  1
  Al  Al13  1  0.418781  0.418853  0.743583  1
  Zn  Zn14  1  0.744517  0.418601  0.418184  1
  Zn  Zn15  1  0.418697  0.418601  0.418184  1
  Zn  Zn16  1  0.831323  0.831817  0.505539  1
  Zn  Zn17  1  0.418677  0.744461  0.418183  1
  Zn  Zn18  1  0.831303  0.831816  0.831399  1
  Zn  Zn19  1  0.505483  0.831816  0.831399  1
  Zn  Zn20  1  0.625266  0.124784  0.624685  1
  Zn  Zn21  1  0.624734  0.625315  0.125216  1
  Zn  Zn22  1  0.125000  0.625707  0.624293  1
  Zn  Zn23  1  0.625000  0.625707  0.624293  1
  N  N24  1  0.000804  0.997348  0.001045  1
  N  N25  1  0.249196  0.248955  0.252652  1
