# generated using pymatgen
data_SbSe8I3
_symmetry_space_group_name_H-M   'P 1'
_cell_length_a   9.68083494
_cell_length_b   10.03960089
_cell_length_c   12.06640612
_cell_angle_alpha   93.56412006
_cell_angle_beta   109.56724865
_cell_angle_gamma   108.68894258
_symmetry_Int_Tables_number   1
_chemical_formula_structural   SbSe8I3
_chemical_formula_sum   'Sb2 Se16 I6'
_cell_volume   1027.71763560
_cell_formula_units_Z   2
loop_
 _symmetry_equiv_pos_site_id
 _symmetry_equiv_pos_as_xyz
  1  'x, y, z'
loop_
 _atom_site_type_symbol
 _atom_site_label
 _atom_site_symmetry_multiplicity
 _atom_site_fract_x
 _atom_site_fract_y
 _atom_site_fract_z
 _atom_site_occupancy
  Sb  Sb0  1  0.808091  0.065497  0.847933  1
  Sb  Sb1  1  0.191909  0.934503  0.152067  1
  Se  Se2  1  0.859943  0.509934  0.833502  1
  Se  Se3  1  0.140057  0.490066  0.166498  1
  Se  Se4  1  0.722534  0.426876  0.626103  1
  Se  Se5  1  0.277466  0.573124  0.373897  1
  Se  Se6  1  0.736370  0.198671  0.583623  1
  Se  Se7  1  0.263630  0.801329  0.416377  1
  Se  Se8  1  0.935114  0.229530  0.503497  1
  Se  Se9  1  0.064886  0.770470  0.496503  1
  Se  Se10  1  0.884710  0.329730  0.136716  1
  Se  Se11  1  0.115290  0.670270  0.863284  1
  Se  Se12  1  0.712954  0.458583  0.084253  1
  Se  Se13  1  0.287046  0.541417  0.915747  1
  Se  Se14  1  0.668944  0.525146  0.256472  1
  Se  Se15  1  0.331056  0.474854  0.743528  1
  Se  Se16  1  0.835940  0.766197  0.341886  1
  Se  Se17  1  0.164060  0.233803  0.658114  1
  I  I18  1  0.498651  0.056927  0.781806  1
  I  I19  1  0.501349  0.943073  0.218194  1
  I  I20  1  0.789321  0.892180  0.023469  1
  I  I21  1  0.210679  0.107820  0.976531  1
  I  I22  1  0.759071  0.848851  0.667079  1
  I  I23  1  0.240929  0.151149  0.332921  1
