# generated using pymatgen
data_Ho4Lu4Mn3FeB24
_symmetry_space_group_name_H-M   'P 1'
_cell_length_a   3.50889000
_cell_length_b   9.01916478
_cell_length_c   11.40539624
_cell_angle_alpha   90.07192175
_cell_angle_beta   90.00000000
_cell_angle_gamma   90.00000000
_symmetry_Int_Tables_number   1
_chemical_formula_structural   Ho4Lu4Mn3FeB24
_chemical_formula_sum   'Ho4 Lu4 Mn3 Fe1 B24'
_cell_volume   360.94922288
_cell_formula_units_Z   1
loop_
 _symmetry_equiv_pos_site_id
 _symmetry_equiv_pos_as_xyz
  1  'x, y, z'
loop_
 _atom_site_type_symbol
 _atom_site_label
 _atom_site_symmetry_multiplicity
 _atom_site_fract_x
 _atom_site_fract_y
 _atom_site_fract_z
 _atom_site_occupancy
  Ho  Ho0  1  0.000000  0.824503  0.085400  1
  Ho  Ho1  1  0.000000  0.174773  0.915894  1
  Ho  Ho2  1  0.000000  0.323298  0.413641  1
  Ho  Ho3  1  0.000000  0.676827  0.585306  1
  Lu  Lu4  1  0.000000  0.442294  0.130529  1
  Lu  Lu5  1  0.000000  0.557808  0.868789  1
  Lu  Lu6  1  0.000000  0.943432  0.369096  1
  Lu  Lu7  1  0.000000  0.057452  0.631477  1
  Mn  Mn8  1  0.000000  0.138958  0.180248  1
  Mn  Mn9  1  0.000000  0.860872  0.819257  1
  Mn  Mn10  1  0.000000  0.638830  0.320132  1
  Fe  Fe11  1  0.000000  0.360757  0.680395  1
  B  B12  1  0.500000  0.054180  0.068312  1
  B  B13  1  0.500000  0.945567  0.931895  1
  B  B14  1  0.500000  0.554184  0.432098  1
  B  B15  1  0.500000  0.445239  0.568290  1
  B  B16  1  0.500000  0.248035  0.082548  1
  B  B17  1  0.500000  0.751820  0.917342  1
  B  B18  1  0.500000  0.748888  0.417747  1
  B  B19  1  0.500000  0.252176  0.582753  1
  B  B20  1  0.500000  0.291101  0.234309  1
  B  B21  1  0.500000  0.709026  0.765161  1
  B  B22  1  0.500000  0.791367  0.265494  1
  B  B23  1  0.500000  0.209611  0.734560  1
  B  B24  1  0.500000  0.131337  0.314120  1
  B  B25  1  0.500000  0.868925  0.685587  1
  B  B26  1  0.500000  0.630805  0.185724  1
  B  B27  1  0.500000  0.368827  0.814170  1
  B  B28  1  0.500000  0.483701  0.287899  1
  B  B29  1  0.500000  0.514828  0.711770  1
  B  B30  1  0.500000  0.984517  0.212084  1
  B  B31  1  0.500000  0.015400  0.788202  1
  B  B32  1  0.500000  0.102001  0.472379  1
  B  B33  1  0.500000  0.898919  0.528058  1
  B  B34  1  0.500000  0.601225  0.027610  1
  B  B35  1  0.500000  0.398513  0.971724  1
