# generated using pymatgen
data_PrTh(AlRu)2
_symmetry_space_group_name_H-M   'P 1'
_cell_length_a   4.05908200
_cell_length_b   7.18061929
_cell_length_c   8.44499110
_cell_angle_alpha   91.11676528
_cell_angle_beta   90.00000000
_cell_angle_gamma   90.00000000
_symmetry_Int_Tables_number   1
_chemical_formula_structural   PrTh(AlRu)2
_chemical_formula_sum   'Pr2 Th2 Al4 Ru4'
_cell_volume   246.09705771
_cell_formula_units_Z   2
loop_
 _symmetry_equiv_pos_site_id
 _symmetry_equiv_pos_as_xyz
  1  'x, y, z'
loop_
 _atom_site_type_symbol
 _atom_site_label
 _atom_site_symmetry_multiplicity
 _atom_site_fract_x
 _atom_site_fract_y
 _atom_site_fract_z
 _atom_site_occupancy
  Pr  Pr0  1  0.750000  0.962499  0.683002  1
  Pr  Pr1  1  0.250000  0.037501  0.316998  1
  Th  Th2  1  0.250000  0.532008  0.186176  1
  Th  Th3  1  0.750000  0.467992  0.813824  1
  Al  Al4  1  0.250000  0.633482  0.555431  1
  Al  Al5  1  0.750000  0.366518  0.444569  1
  Al  Al6  1  0.750000  0.870636  0.057768  1
  Al  Al7  1  0.250000  0.129364  0.942232  1
  Ru  Ru8  1  0.250000  0.751929  0.884217  1
  Ru  Ru9  1  0.750000  0.248071  0.115783  1
  Ru  Ru10  1  0.750000  0.723060  0.368530  1
  Ru  Ru11  1  0.250000  0.276940  0.631470  1
