# generated using pymatgen
data_LiY2Ho7Cd3Ru
_symmetry_space_group_name_H-M   'P 1'
_cell_length_a   9.43712300
_cell_length_b   9.43728048
_cell_length_c   9.69075700
_cell_angle_alpha   90.00000000
_cell_angle_beta   90.00000000
_cell_angle_gamma   120.00068771
_symmetry_Int_Tables_number   1
_chemical_formula_structural   LiY2Ho7Cd3Ru
_chemical_formula_sum   'Li2 Y4 Ho14 Cd6 Ru2'
_cell_volume   747.43220009
_cell_formula_units_Z   2
loop_
 _symmetry_equiv_pos_site_id
 _symmetry_equiv_pos_as_xyz
  1  'x, y, z'
loop_
 _atom_site_type_symbol
 _atom_site_label
 _atom_site_symmetry_multiplicity
 _atom_site_fract_x
 _atom_site_fract_y
 _atom_site_fract_z
 _atom_site_occupancy
  Li  Li0  1  0.000013  0.000006  0.499982  1
  Li  Li1  1  0.000013  0.000006  0.000018  1
  Y  Y2  1  0.914790  0.457394  0.250000  1
  Y  Y3  1  0.457728  0.542225  0.750000  1
  Y  Y4  1  0.457726  0.915504  0.750000  1
  Y  Y5  1  0.084484  0.542242  0.750000  1
  Ho  Ho6  1  0.208489  0.791881  0.441247  1
  Ho  Ho7  1  0.208489  0.416608  0.441247  1
  Ho  Ho8  1  0.583421  0.791710  0.441159  1
  Ho  Ho9  1  0.791551  0.208209  0.558549  1
  Ho  Ho10  1  0.791550  0.583340  0.558549  1
  Ho  Ho11  1  0.416756  0.208379  0.558410  1
  Ho  Ho12  1  0.791551  0.208209  0.941451  1
  Ho  Ho13  1  0.791550  0.583340  0.941451  1
  Ho  Ho14  1  0.416756  0.208379  0.941590  1
  Ho  Ho15  1  0.208489  0.791881  0.058753  1
  Ho  Ho16  1  0.208489  0.416608  0.058753  1
  Ho  Ho17  1  0.583421  0.791710  0.058841  1
  Ho  Ho18  1  0.542208  0.457621  0.250000  1
  Ho  Ho19  1  0.542208  0.084589  0.250000  1
  Cd  Cd20  1  0.891537  0.108246  0.250000  1
  Cd  Cd21  1  0.891536  0.783292  0.250000  1
  Cd  Cd22  1  0.216921  0.108462  0.250000  1
  Cd  Cd23  1  0.108339  0.891738  0.750000  1
  Cd  Cd24  1  0.108340  0.216601  0.750000  1
  Cd  Cd25  1  0.783413  0.891705  0.750000  1
  Ru  Ru26  1  0.333554  0.666777  0.250000  1
  Ru  Ru27  1  0.666678  0.333338  0.750000  1
