# generated using pymatgen
data_GdY2In3CuPt2
_symmetry_space_group_name_H-M   'P 1'
_cell_length_a   7.62951100
_cell_length_b   7.62951132
_cell_length_c   3.87093100
_cell_angle_alpha   90.00000000
_cell_angle_beta   90.00000000
_cell_angle_gamma   119.99999429
_symmetry_Int_Tables_number   1
_chemical_formula_structural   GdY2In3CuPt2
_chemical_formula_sum   'Gd1 Y2 In3 Cu1 Pt2'
_cell_volume   195.13694962
_cell_formula_units_Z   1
loop_
 _symmetry_equiv_pos_site_id
 _symmetry_equiv_pos_as_xyz
  1  'x, y, z'
loop_
 _atom_site_type_symbol
 _atom_site_label
 _atom_site_symmetry_multiplicity
 _atom_site_fract_x
 _atom_site_fract_y
 _atom_site_fract_z
 _atom_site_occupancy
  Gd  Gd0  1  0.410163  0.000000  0.500000  1
  Y  Y1  1  0.000000  0.410163  0.500000  1
  Y  Y2  1  0.589837  0.589837  0.500000  1
  In  In3  1  0.749981  0.000000  0.000000  1
  In  In4  1  0.000000  0.749981  0.000000  1
  In  In5  1  0.250019  0.250019  0.000000  1
  Cu  Cu6  1  0.000000  0.000000  0.500000  1
  Pt  Pt7  1  0.333333  0.666667  0.000000  1
  Pt  Pt8  1  0.666667  0.333333  0.000000  1
