# generated using pymatgen
data_Tm4Ti3PtF28
_symmetry_space_group_name_H-M   'P 1'
_cell_length_a   5.44059305
_cell_length_b   8.74664461
_cell_length_c   11.71844800
_cell_angle_alpha   63.02951814
_cell_angle_beta   90.11013498
_cell_angle_gamma   90.05943491
_symmetry_Int_Tables_number   1
_chemical_formula_structural   Tm4Ti3PtF28
_chemical_formula_sum   'Tm4 Ti3 Pt1 F28'
_cell_volume   496.99477744
_cell_formula_units_Z   1
loop_
 _symmetry_equiv_pos_site_id
 _symmetry_equiv_pos_as_xyz
  1  'x, y, z'
loop_
 _atom_site_type_symbol
 _atom_site_label
 _atom_site_symmetry_multiplicity
 _atom_site_fract_x
 _atom_site_fract_y
 _atom_site_fract_z
 _atom_site_occupancy
  Tm  Tm0  1  0.258160  0.814525  0.263350  1
  Tm  Tm1  1  0.741452  0.186848  0.734257  1
  Tm  Tm2  1  0.759290  0.188260  0.233749  1
  Tm  Tm3  1  0.238579  0.814538  0.765574  1
  Ti  Ti4  1  0.755235  0.725409  0.043326  1
  Ti  Ti5  1  0.244122  0.274694  0.955811  1
  Ti  Ti6  1  0.257406  0.275650  0.455263  1
  Pt  Pt7  1  0.741132  0.728049  0.543446  1
  F  F8  1  0.935264  0.699691  0.413312  1
  F  F9  1  0.052521  0.291892  0.577703  1
  F  F10  1  0.449238  0.291167  0.078758  1
  F  F11  1  0.548155  0.708172  0.921809  1
  F  F12  1  0.480953  0.731873  0.139445  1
  F  F13  1  0.519622  0.266126  0.861504  1
  F  F14  1  0.982983  0.272345  0.357132  1
  F  F15  1  0.042010  0.726409  0.636807  1
  F  F16  1  0.958038  0.745640  0.168663  1
  F  F17  1  0.044529  0.251733  0.830394  1
  F  F18  1  0.457484  0.255965  0.328378  1
  F  F19  1  0.553215  0.746493  0.679917  1
  F  F20  1  0.771036  0.484506  0.137437  1
  F  F21  1  0.228363  0.515279  0.861775  1
  F  F22  1  0.274946  0.517277  0.360937  1
  F  F23  1  0.727779  0.477006  0.644965  1
  F  F24  1  0.954641  0.279580  0.045689  1
  F  F25  1  0.044497  0.719979  0.953195  1
  F  F26  1  0.433342  0.720108  0.457851  1
  F  F27  1  0.547667  0.279213  0.545321  1
  F  F28  1  0.742580  0.979333  0.450213  1
  F  F29  1  0.258725  0.035909  0.550574  1
  F  F30  1  0.240918  0.034084  0.052348  1
  F  F31  1  0.759592  0.965087  0.947968  1
  F  F32  1  0.583945  0.969694  0.233241  1
  F  F33  1  0.415635  0.029040  0.769695  1
  F  F34  1  0.081491  0.027117  0.270596  1
  F  F35  1  0.915461  0.971309  0.729593  1
