# generated using pymatgen
data_Nd2Lu3Pb4
_symmetry_space_group_name_H-M   'P 1'
_cell_length_a   8.21438900
_cell_length_b   8.30747900
_cell_length_c   15.61587200
_cell_angle_alpha   90.00000000
_cell_angle_beta   90.00000000
_cell_angle_gamma   90.00000000
_symmetry_Int_Tables_number   1
_chemical_formula_structural   Nd2Lu3Pb4
_chemical_formula_sum   'Nd8 Lu12 Pb16'
_cell_volume   1065.64059919
_cell_formula_units_Z   4
loop_
 _symmetry_equiv_pos_site_id
 _symmetry_equiv_pos_as_xyz
  1  'x, y, z'
loop_
 _atom_site_type_symbol
 _atom_site_label
 _atom_site_symmetry_multiplicity
 _atom_site_fract_x
 _atom_site_fract_y
 _atom_site_fract_z
 _atom_site_occupancy
  Nd  Nd0  1  0.471746  0.677508  0.597709  1
  Nd  Nd1  1  0.971746  0.822492  0.902291  1
  Nd  Nd2  1  0.528254  0.322492  0.097709  1
  Nd  Nd3  1  0.028254  0.177508  0.402291  1
  Nd  Nd4  1  0.528254  0.322492  0.402291  1
  Nd  Nd5  1  0.028254  0.177508  0.097709  1
  Nd  Nd6  1  0.471746  0.677508  0.902291  1
  Nd  Nd7  1  0.971746  0.822492  0.597709  1
  Lu  Lu8  1  0.631957  0.158008  0.622637  1
  Lu  Lu9  1  0.131957  0.341992  0.877363  1
  Lu  Lu10  1  0.368043  0.841992  0.122637  1
  Lu  Lu11  1  0.868043  0.658008  0.377363  1
  Lu  Lu12  1  0.368043  0.841992  0.377363  1
  Lu  Lu13  1  0.868043  0.658008  0.122637  1
  Lu  Lu14  1  0.631957  0.158008  0.877363  1
  Lu  Lu15  1  0.131957  0.341992  0.622637  1
  Lu  Lu16  1  0.798836  0.493526  0.750000  1
  Lu  Lu17  1  0.298836  0.006474  0.750000  1
  Lu  Lu18  1  0.201164  0.506474  0.250000  1
  Lu  Lu19  1  0.701164  0.993526  0.250000  1
  Pb  Pb20  1  0.706797  0.959183  0.456450  1
  Pb  Pb21  1  0.206797  0.540817  0.043550  1
  Pb  Pb22  1  0.293203  0.040817  0.956450  1
  Pb  Pb23  1  0.793203  0.459183  0.543550  1
  Pb  Pb24  1  0.293203  0.040817  0.543550  1
  Pb  Pb25  1  0.793203  0.459183  0.956450  1
  Pb  Pb26  1  0.706797  0.959183  0.043550  1
  Pb  Pb27  1  0.206797  0.540817  0.456450  1
  Pb  Pb28  1  0.436445  0.370297  0.750000  1
  Pb  Pb29  1  0.936445  0.129703  0.750000  1
  Pb  Pb30  1  0.563555  0.629703  0.250000  1
  Pb  Pb31  1  0.063555  0.870297  0.250000  1
  Pb  Pb32  1  0.661421  0.849182  0.750000  1
  Pb  Pb33  1  0.161421  0.650818  0.750000  1
  Pb  Pb34  1  0.338579  0.150818  0.250000  1
  Pb  Pb35  1  0.838579  0.349182  0.250000  1
