# generated using pymatgen
data_Pa6Cu5NiSn8
_symmetry_space_group_name_H-M   'P 1'
_cell_length_a   8.24819160
_cell_length_b   8.24819167
_cell_length_c   8.24819200
_cell_angle_alpha   109.54420652
_cell_angle_beta   109.54420669
_cell_angle_gamma   109.32535286
_symmetry_Int_Tables_number   1
_chemical_formula_structural   Pa6Cu5NiSn8
_chemical_formula_sum   'Pa6 Cu5 Ni1 Sn8'
_cell_volume   431.96863587
_cell_formula_units_Z   1
loop_
 _symmetry_equiv_pos_site_id
 _symmetry_equiv_pos_as_xyz
  1  'x, y, z'
loop_
 _atom_site_type_symbol
 _atom_site_label
 _atom_site_symmetry_multiplicity
 _atom_site_fract_x
 _atom_site_fract_y
 _atom_site_fract_z
 _atom_site_occupancy
  Pa  Pa0  1  0.874972  0.247622  0.117102  1
  Pa  Pa1  1  0.630520  0.757870  0.382898  1
  Pa  Pa2  1  0.242130  0.125028  0.872650  1
  Pa  Pa3  1  0.752378  0.369480  0.627350  1
  Pa  Pa4  1  0.125000  0.875000  0.250000  1
  Pa  Pa5  1  0.375000  0.625000  0.750000  1
  Cu  Cu6  1  0.373798  0.248852  0.625689  1
  Cu  Cu7  1  0.123163  0.748109  0.874311  1
  Cu  Cu8  1  0.251891  0.626202  0.375054  1
  Cu  Cu9  1  0.751148  0.876837  0.124946  1
  Cu  Cu10  1  0.625000  0.375000  0.250000  1
  Ni  Ni11  1  0.875000  0.125000  0.750000  1
  Sn  Sn12  1  0.670569  0.500017  0.001126  1
  Sn  Sn13  1  0.500242  0.000123  0.672892  1
  Sn  Sn14  1  0.998891  0.669443  0.498874  1
  Sn  Sn15  1  0.827231  0.827350  0.827108  1
  Sn  Sn16  1  0.499983  0.001109  0.170553  1
  Sn  Sn17  1  0.172650  0.499758  0.999881  1
  Sn  Sn18  1  0.999877  0.172769  0.500119  1
  Sn  Sn19  1  0.330557  0.329431  0.329447  1
