# generated using pymatgen
data_Li4Tm8Sc8Si15P
_symmetry_space_group_name_H-M   'P 1'
_cell_length_a   6.81033915
_cell_length_b   7.33463685
_cell_length_c   13.92395900
_cell_angle_alpha   90.00000000
_cell_angle_beta   90.00000000
_cell_angle_gamma   89.83448856
_symmetry_Int_Tables_number   1
_chemical_formula_structural   Li4Tm8Sc8Si15P
_chemical_formula_sum   'Li4 Tm8 Sc8 Si15 P1'
_cell_volume   695.51784931
_cell_formula_units_Z   1
loop_
 _symmetry_equiv_pos_site_id
 _symmetry_equiv_pos_as_xyz
  1  'x, y, z'
loop_
 _atom_site_type_symbol
 _atom_site_label
 _atom_site_symmetry_multiplicity
 _atom_site_fract_x
 _atom_site_fract_y
 _atom_site_fract_z
 _atom_site_occupancy
  Li  Li0  1  0.160085  0.512225  0.750000  1
  Li  Li1  1  0.840496  0.492055  0.250000  1
  Li  Li2  1  0.340275  0.008405  0.250000  1
  Li  Li3  1  0.661455  0.992975  0.750000  1
  Tm  Tm4  1  0.011974  0.182868  0.097842  1
  Tm  Tm5  1  0.987165  0.819251  0.900197  1
  Tm  Tm6  1  0.488040  0.681909  0.902206  1
  Tm  Tm7  1  0.987165  0.819251  0.599803  1
  Tm  Tm8  1  0.511966  0.318440  0.097079  1
  Tm  Tm9  1  0.011974  0.182868  0.402158  1
  Tm  Tm10  1  0.511966  0.318440  0.402921  1
  Tm  Tm11  1  0.488040  0.681909  0.597794  1
  Sc  Sc12  1  0.329531  0.178441  0.628907  1
  Sc  Sc13  1  0.668954  0.820613  0.373500  1
  Sc  Sc14  1  0.169264  0.679248  0.373738  1
  Sc  Sc15  1  0.668954  0.820613  0.126500  1
  Sc  Sc16  1  0.832951  0.318545  0.628643  1
  Sc  Sc17  1  0.329531  0.178441  0.871093  1
  Sc  Sc18  1  0.832951  0.318545  0.871357  1
  Sc  Sc19  1  0.169264  0.679248  0.126262  1
  Si  Si20  1  0.970307  0.900452  0.250000  1
  Si  Si21  1  0.470053  0.599952  0.250000  1
  Si  Si22  1  0.529174  0.400325  0.750000  1
  Si  Si23  1  0.284270  0.873026  0.750000  1
  Si  Si24  1  0.716238  0.123478  0.250000  1
  Si  Si25  1  0.216839  0.376495  0.250000  1
  Si  Si26  1  0.783203  0.621523  0.750000  1
  Si  Si27  1  0.160477  0.462965  0.535919  1
  Si  Si28  1  0.838937  0.536560  0.466588  1
  Si  Si29  1  0.337648  0.964317  0.466483  1
  Si  Si30  1  0.838937  0.536560  0.033412  1
  Si  Si31  1  0.660732  0.037046  0.535187  1
  Si  Si32  1  0.160477  0.462965  0.964081  1
  Si  Si33  1  0.660732  0.037046  0.964813  1
  Si  Si34  1  0.337648  0.964317  0.033517  1
  P  P35  1  0.032324  0.098679  0.750000  1
