# generated using pymatgen
data_Ba2Na2CaAs4
_symmetry_space_group_name_H-M   'P 1'
_cell_length_a   7.70193000
_cell_length_b   8.34910085
_cell_length_c   18.05272042
_cell_angle_alpha   62.33104344
_cell_angle_beta   90.00000000
_cell_angle_gamma   90.00000000
_symmetry_Int_Tables_number   1
_chemical_formula_structural   Ba2Na2CaAs4
_chemical_formula_sum   'Ba8 Na8 Ca4 As16'
_cell_volume   1028.11519640
_cell_formula_units_Z   4
loop_
 _symmetry_equiv_pos_site_id
 _symmetry_equiv_pos_as_xyz
  1  'x, y, z'
loop_
 _atom_site_type_symbol
 _atom_site_label
 _atom_site_symmetry_multiplicity
 _atom_site_fract_x
 _atom_site_fract_y
 _atom_site_fract_z
 _atom_site_occupancy
  Ba  Ba0  1  0.521325  0.586086  0.099751  1
  Ba  Ba1  1  0.021325  0.413914  0.400249  1
  Ba  Ba2  1  0.480760  0.718085  0.601321  1
  Ba  Ba3  1  0.980760  0.281915  0.898679  1
  Ba  Ba4  1  0.478675  0.413914  0.900249  1
  Ba  Ba5  1  0.978675  0.586086  0.599751  1
  Ba  Ba6  1  0.519240  0.281915  0.398679  1
  Ba  Ba7  1  0.019240  0.718085  0.101321  1
  Na  Na8  1  0.853008  0.240436  0.251807  1
  Na  Na9  1  0.353008  0.759564  0.248193  1
  Na  Na10  1  0.146992  0.759564  0.748193  1
  Na  Na11  1  0.646992  0.240436  0.751807  1
  Na  Na12  1  0.678261  0.050800  0.122967  1
  Na  Na13  1  0.178261  0.949200  0.377033  1
  Na  Na14  1  0.321739  0.949200  0.877033  1
  Na  Na15  1  0.821739  0.050800  0.622967  1
  Ca  Ca16  1  0.324644  0.198267  0.625476  1
  Ca  Ca17  1  0.824644  0.801733  0.874524  1
  Ca  Ca18  1  0.675356  0.801733  0.374524  1
  Ca  Ca19  1  0.175356  0.198267  0.125476  1
  As  As20  1  0.857291  0.429303  0.035694  1
  As  As21  1  0.357291  0.570697  0.464306  1
  As  As22  1  0.145761  0.999192  0.536522  1
  As  As23  1  0.645761  0.000808  0.963478  1
  As  As24  1  0.142709  0.570697  0.964306  1
  As  As25  1  0.642709  0.429303  0.535694  1
  As  As26  1  0.854239  0.000808  0.463478  1
  As  As27  1  0.354239  0.999192  0.036522  1
  As  As28  1  0.732628  0.641947  0.252495  1
  As  As29  1  0.232628  0.358053  0.247505  1
  As  As30  1  0.267372  0.358053  0.747505  1
  As  As31  1  0.767372  0.641947  0.752495  1
  As  As32  1  0.970099  0.855674  0.252265  1
  As  As33  1  0.470099  0.144326  0.247735  1
  As  As34  1  0.029901  0.144326  0.747735  1
  As  As35  1  0.529901  0.855674  0.752265  1
