# generated using pymatgen
data_Sm2Al16Cu7Si2Au
_symmetry_space_group_name_H-M   'P 1'
_cell_length_a   5.84936477
_cell_length_b   5.84936494
_cell_length_c   14.37990849
_cell_angle_alpha   101.73507339
_cell_angle_beta   101.73507111
_cell_angle_gamma   89.99999854
_symmetry_Int_Tables_number   1
_chemical_formula_structural   Sm2Al16Cu7Si2Au
_chemical_formula_sum   'Sm2 Al16 Cu7 Si2 Au1'
_cell_volume   471.21770841
_cell_formula_units_Z   1
loop_
 _symmetry_equiv_pos_site_id
 _symmetry_equiv_pos_as_xyz
  1  'x, y, z'
loop_
 _atom_site_type_symbol
 _atom_site_label
 _atom_site_symmetry_multiplicity
 _atom_site_fract_x
 _atom_site_fract_y
 _atom_site_fract_z
 _atom_site_occupancy
  Sm  Sm0  1  0.750001  0.250000  0.500000  1
  Sm  Sm1  1  0.250000  0.750001  0.500000  1
  Al  Al2  1  0.297219  0.297219  0.107848  1
  Al  Al3  1  0.810629  0.297219  0.107848  1
  Al  Al4  1  0.297219  0.810629  0.107848  1
  Al  Al5  1  0.810629  0.810629  0.107848  1
  Al  Al6  1  0.410718  0.410718  0.311624  1
  Al  Al7  1  0.900904  0.410718  0.311624  1
  Al  Al8  1  0.410718  0.900904  0.311624  1
  Al  Al9  1  0.900904  0.900904  0.311624  1
  Al  Al10  1  0.099095  0.099095  0.688376  1
  Al  Al11  1  0.589282  0.099095  0.688376  1
  Al  Al12  1  0.099095  0.589282  0.688376  1
  Al  Al13  1  0.589282  0.589282  0.688376  1
  Al  Al14  1  0.189372  0.189372  0.892152  1
  Al  Al15  1  0.702780  0.189372  0.892152  1
  Al  Al16  1  0.189372  0.702780  0.892152  1
  Al  Al17  1  0.702780  0.702780  0.892152  1
  Cu  Cu18  1  0.000000  0.000000  0.000000  1
  Cu  Cu19  1  0.605536  0.105536  0.211072  1
  Cu  Cu20  1  0.105536  0.605536  0.211072  1
  Cu  Cu21  1  0.707237  0.707237  0.414473  1
  Cu  Cu22  1  0.292764  0.292764  0.585527  1
  Cu  Cu23  1  0.894465  0.394464  0.788927  1
  Cu  Cu24  1  0.394464  0.894465  0.788927  1
  Si  Si25  1  0.210289  0.210289  0.420580  1
  Si  Si26  1  0.789711  0.789711  0.579421  1
  Au  Au27  1  0.500001  0.500001  0.000000  1
