# generated using pymatgen
data_Pr5Tl3Br
_symmetry_space_group_name_H-M   'P 1'
_cell_length_a   9.67889700
_cell_length_b   9.67889616
_cell_length_c   6.87874000
_cell_angle_alpha   90.00000000
_cell_angle_beta   90.00000000
_cell_angle_gamma   119.99999946
_symmetry_Int_Tables_number   1
_chemical_formula_structural   Pr5Tl3Br
_chemical_formula_sum   'Pr10 Tl6 Br2'
_cell_volume   558.07327726
_cell_formula_units_Z   2
loop_
 _symmetry_equiv_pos_site_id
 _symmetry_equiv_pos_as_xyz
  1  'x, y, z'
loop_
 _atom_site_type_symbol
 _atom_site_label
 _atom_site_symmetry_multiplicity
 _atom_site_fract_x
 _atom_site_fract_y
 _atom_site_fract_z
 _atom_site_occupancy
  Pr  Pr0  1  0.265424  0.000000  0.750000  1
  Pr  Pr1  1  0.734576  0.000000  0.250000  1
  Pr  Pr2  1  0.000000  0.265424  0.750000  1
  Pr  Pr3  1  0.000000  0.734576  0.250000  1
  Pr  Pr4  1  0.734576  0.734576  0.750000  1
  Pr  Pr5  1  0.265424  0.265424  0.250000  1
  Pr  Pr6  1  0.333333  0.666667  0.500000  1
  Pr  Pr7  1  0.666667  0.333333  0.500000  1
  Pr  Pr8  1  0.666667  0.333333  0.000000  1
  Pr  Pr9  1  0.333333  0.666667  0.000000  1
  Tl  Tl10  1  0.609107  0.000000  0.750000  1
  Tl  Tl11  1  0.390893  0.000000  0.250000  1
  Tl  Tl12  1  0.000000  0.609107  0.750000  1
  Tl  Tl13  1  0.000000  0.390893  0.250000  1
  Tl  Tl14  1  0.390893  0.390893  0.750000  1
  Tl  Tl15  1  0.609107  0.609107  0.250000  1
  Br  Br16  1  0.000000  0.000000  0.500000  1
  Br  Br17  1  0.000000  0.000000  0.000000  1
