# generated using pymatgen
data_Li3Pr16InRh4
_symmetry_space_group_name_H-M   'P 1'
_cell_length_a   10.06414915
_cell_length_b   10.02791187
_cell_length_c   10.02791200
_cell_angle_alpha   59.99999957
_cell_angle_beta   60.11903617
_cell_angle_gamma   60.11904345
_symmetry_Int_Tables_number   1
_chemical_formula_structural   Li3Pr16InRh4
_chemical_formula_sum   'Li3 Pr16 In1 Rh4'
_cell_volume   716.90592382
_cell_formula_units_Z   1
loop_
 _symmetry_equiv_pos_site_id
 _symmetry_equiv_pos_as_xyz
  1  'x, y, z'
loop_
 _atom_site_type_symbol
 _atom_site_label
 _atom_site_symmetry_multiplicity
 _atom_site_fract_x
 _atom_site_fract_y
 _atom_site_fract_z
 _atom_site_occupancy
  Li  Li0  1  0.427423  0.422383  0.422383  1
  Li  Li1  1  0.427423  0.422383  0.727809  1
  Li  Li2  1  0.427423  0.727809  0.422383  1
  Pr  Pr3  1  0.810603  0.809038  0.190180  1
  Pr  Pr4  1  0.810603  0.190180  0.809038  1
  Pr  Pr5  1  0.183330  0.185849  0.815410  1
  Pr  Pr6  1  0.652218  0.043904  0.651939  1
  Pr  Pr7  1  0.063644  0.062621  0.436868  1
  Pr  Pr8  1  0.436397  0.435648  0.063978  1
  Pr  Pr9  1  0.652218  0.651939  0.651939  1
  Pr  Pr10  1  0.810603  0.190180  0.190180  1
  Pr  Pr11  1  0.183330  0.815410  0.815410  1
  Pr  Pr12  1  0.040365  0.653212  0.653212  1
  Pr  Pr13  1  0.436397  0.063978  0.063978  1
  Pr  Pr14  1  0.436397  0.063978  0.435648  1
  Pr  Pr15  1  0.063644  0.436868  0.062621  1
  Pr  Pr16  1  0.652218  0.651939  0.043904  1
  Pr  Pr17  1  0.183330  0.815410  0.185849  1
  Pr  Pr18  1  0.063644  0.436868  0.436868  1
  In  In19  1  0.741487  0.419504  0.419504  1
  Rh  Rh20  1  0.857525  0.427977  0.857250  1
  Rh  Rh21  1  0.857525  0.857250  0.857250  1
  Rh  Rh22  1  0.857525  0.857250  0.427977  1
  Rh  Rh23  1  0.424730  0.858424  0.858424  1
