# generated using pymatgen
data_Yb3(B3Rh4)2
_symmetry_space_group_name_H-M   'P 1'
_cell_length_a   9.83699701
_cell_length_b   8.98994884
_cell_length_c   5.58039708
_cell_angle_alpha   81.29032566
_cell_angle_beta   64.60235194
_cell_angle_gamma   34.10732588
_symmetry_Int_Tables_number   1
_chemical_formula_structural   Yb3(B3Rh4)2
_chemical_formula_sum   'Yb3 B6 Rh8'
_cell_volume   228.87947290
_cell_formula_units_Z   1
loop_
 _symmetry_equiv_pos_site_id
 _symmetry_equiv_pos_as_xyz
  1  'x, y, z'
loop_
 _atom_site_type_symbol
 _atom_site_label
 _atom_site_symmetry_multiplicity
 _atom_site_fract_x
 _atom_site_fract_y
 _atom_site_fract_z
 _atom_site_occupancy
  Yb  Yb0  1  0.680932  0.680932  0.319068  1
  Yb  Yb1  1  0.500000  0.500000  0.500000  1
  Yb  Yb2  1  0.319068  0.319068  0.680932  1
  B  B3  1  0.013601  0.330184  0.669816  1
  B  B4  1  0.986399  0.669816  0.330184  1
  B  B5  1  0.832211  0.167789  0.832211  1
  B  B6  1  0.330184  0.013601  0.986399  1
  B  B7  1  0.669816  0.986399  0.013601  1
  B  B8  1  0.167789  0.832211  0.167789  1
  Rh  Rh9  1  0.584891  0.584891  0.915109  1
  Rh  Rh10  1  0.086154  0.086154  0.913846  1
  Rh  Rh11  1  0.084891  0.084891  0.415109  1
  Rh  Rh12  1  0.250000  0.250000  0.250000  1
  Rh  Rh13  1  0.915109  0.915109  0.584891  1
  Rh  Rh14  1  0.415109  0.415109  0.084891  1
  Rh  Rh15  1  0.750000  0.750000  0.750000  1
  Rh  Rh16  1  0.913846  0.913846  0.086154  1
