# generated using pymatgen
data_Er11Lu(Si3Ir)4
_symmetry_space_group_name_H-M   'P 1'
_cell_length_a   4.20778400
_cell_length_b   10.56540834
_cell_length_c   12.17860354
_cell_angle_alpha   89.94230579
_cell_angle_beta   90.00000000
_cell_angle_gamma   90.00000000
_symmetry_Int_Tables_number   1
_chemical_formula_structural   Er11Lu(Si3Ir)4
_chemical_formula_sum   'Er11 Lu1 Si12 Ir4'
_cell_volume   541.42336937
_cell_formula_units_Z   1
loop_
 _symmetry_equiv_pos_site_id
 _symmetry_equiv_pos_as_xyz
  1  'x, y, z'
loop_
 _atom_site_type_symbol
 _atom_site_label
 _atom_site_symmetry_multiplicity
 _atom_site_fract_x
 _atom_site_fract_y
 _atom_site_fract_z
 _atom_site_occupancy
  Er  Er0  1  0.250000  0.879478  0.019595  1
  Er  Er1  1  0.250000  0.620663  0.519754  1
  Er  Er2  1  0.750000  0.120815  0.979752  1
  Er  Er3  1  0.750000  0.378753  0.480525  1
  Er  Er4  1  0.250000  0.919970  0.603400  1
  Er  Er5  1  0.250000  0.580490  0.103221  1
  Er  Er6  1  0.750000  0.080509  0.397082  1
  Er  Er7  1  0.750000  0.419164  0.896487  1
  Er  Er8  1  0.250000  0.658873  0.800416  1
  Er  Er9  1  0.250000  0.841090  0.300358  1
  Er  Er10  1  0.750000  0.341055  0.199592  1
  Lu  Lu11  1  0.750000  0.159772  0.700217  1
  Si  Si12  1  0.250000  0.012332  0.820970  1
  Si  Si13  1  0.250000  0.488322  0.321624  1
  Si  Si14  1  0.750000  0.988604  0.178586  1
  Si  Si15  1  0.750000  0.511614  0.678333  1
  Si  Si16  1  0.250000  0.247013  0.840288  1
  Si  Si17  1  0.250000  0.252224  0.341155  1
  Si  Si18  1  0.750000  0.752396  0.159023  1
  Si  Si19  1  0.750000  0.747580  0.659080  1
  Si  Si20  1  0.250000  0.198108  0.545127  1
  Si  Si21  1  0.250000  0.301100  0.043505  1
  Si  Si22  1  0.750000  0.801123  0.456412  1
  Si  Si23  1  0.750000  0.698905  0.956208  1
  Ir  Ir24  1  0.250000  0.389124  0.679714  1
  Ir  Ir25  1  0.250000  0.109966  0.179784  1
  Ir  Ir26  1  0.750000  0.610123  0.320324  1
  Ir  Ir27  1  0.750000  0.890832  0.819468  1
