# generated using pymatgen
data_Dy3Lu5Tc3B24Ru
_symmetry_space_group_name_H-M   'P 1'
_cell_length_a   3.63253700
_cell_length_b   9.07964731
_cell_length_c   11.45907200
_cell_angle_alpha   89.92192598
_cell_angle_beta   90.00000000
_cell_angle_gamma   90.00000000
_symmetry_Int_Tables_number   1
_chemical_formula_structural   Dy3Lu5Tc3B24Ru
_chemical_formula_sum   'Dy3 Lu5 Tc3 B24 Ru1'
_cell_volume   377.94453580
_cell_formula_units_Z   1
loop_
 _symmetry_equiv_pos_site_id
 _symmetry_equiv_pos_as_xyz
  1  'x, y, z'
loop_
 _atom_site_type_symbol
 _atom_site_label
 _atom_site_symmetry_multiplicity
 _atom_site_fract_x
 _atom_site_fract_y
 _atom_site_fract_z
 _atom_site_occupancy
  Dy  Dy0  1  0.000000  0.322793  0.413833  1
  Dy  Dy1  1  0.000000  0.675971  0.584416  1
  Dy  Dy2  1  0.000000  0.822378  0.087140  1
  Lu  Lu3  1  0.000000  0.178703  0.914493  1
  Lu  Lu4  1  0.000000  0.942879  0.370301  1
  Lu  Lu5  1  0.000000  0.057637  0.630478  1
  Lu  Lu6  1  0.000000  0.443100  0.129517  1
  Lu  Lu7  1  0.000000  0.557191  0.869700  1
  Tc  Tc8  1  0.000000  0.638966  0.319831  1
  Tc  Tc9  1  0.000000  0.360561  0.681348  1
  Tc  Tc10  1  0.000000  0.138617  0.178286  1
  B  B11  1  0.500000  0.553326  0.432752  1
  B  B12  1  0.500000  0.446241  0.567219  1
  B  B13  1  0.500000  0.053652  0.066049  1
  B  B14  1  0.500000  0.946559  0.932685  1
  B  B15  1  0.500000  0.750233  0.418718  1
  B  B16  1  0.500000  0.249245  0.581734  1
  B  B17  1  0.500000  0.250686  0.080159  1
  B  B18  1  0.500000  0.750174  0.918275  1
  B  B19  1  0.500000  0.792630  0.265526  1
  B  B20  1  0.500000  0.207048  0.736117  1
  B  B21  1  0.500000  0.292509  0.234312  1
  B  B22  1  0.500000  0.708490  0.765265  1
  B  B23  1  0.500000  0.630136  0.184805  1
  B  B24  1  0.500000  0.369189  0.816396  1
  B  B25  1  0.500000  0.129704  0.314628  1
  B  B26  1  0.500000  0.869902  0.685145  1
  B  B27  1  0.500000  0.981429  0.212214  1
  B  B28  1  0.500000  0.018139  0.788196  1
  B  B29  1  0.500000  0.481460  0.287192  1
  B  B30  1  0.500000  0.518181  0.712639  1
  B  B31  1  0.500000  0.600158  0.027391  1
  B  B32  1  0.500000  0.400446  0.972063  1
  B  B33  1  0.500000  0.099437  0.472732  1
  B  B34  1  0.500000  0.900418  0.528094  1
  Ru  Ru35  1  0.000000  0.861809  0.820352  1
