# generated using pymatgen
data_TbTm2(SiRh2)3
_symmetry_space_group_name_H-M   'P 1'
_cell_length_a   5.54964700
_cell_length_b   5.54964650
_cell_length_c   14.98665800
_cell_angle_alpha   90.00000000
_cell_angle_beta   90.00000000
_cell_angle_gamma   119.99999700
_symmetry_Int_Tables_number   1
_chemical_formula_structural   TbTm2(SiRh2)3
_chemical_formula_sum   'Tb2 Tm4 Si6 Rh12'
_cell_volume   399.72942774
_cell_formula_units_Z   2
loop_
 _symmetry_equiv_pos_site_id
 _symmetry_equiv_pos_as_xyz
  1  'x, y, z'
loop_
 _atom_site_type_symbol
 _atom_site_label
 _atom_site_symmetry_multiplicity
 _atom_site_fract_x
 _atom_site_fract_y
 _atom_site_fract_z
 _atom_site_occupancy
  Tb  Tb0  1  0.333333  0.666667  0.750000  1
  Tb  Tb1  1  0.666667  0.333333  0.250000  1
  Tm  Tm2  1  0.333333  0.666667  0.536862  1
  Tm  Tm3  1  0.666667  0.333333  0.463138  1
  Tm  Tm4  1  0.666667  0.333333  0.036862  1
  Tm  Tm5  1  0.333333  0.666667  0.963138  1
  Si  Si6  1  0.000000  0.000000  0.250000  1
  Si  Si7  1  0.000000  0.000000  0.750000  1
  Si  Si8  1  0.333333  0.666667  0.250000  1
  Si  Si9  1  0.666667  0.333333  0.750000  1
  Si  Si10  1  0.000000  0.000000  0.000000  1
  Si  Si11  1  0.000000  0.000000  0.500000  1
  Rh  Rh12  1  0.167202  0.334403  0.129082  1
  Rh  Rh13  1  0.832798  0.665597  0.870918  1
  Rh  Rh14  1  0.665597  0.832798  0.129082  1
  Rh  Rh15  1  0.832798  0.665597  0.629082  1
  Rh  Rh16  1  0.334403  0.167202  0.870918  1
  Rh  Rh17  1  0.167202  0.334403  0.370918  1
  Rh  Rh18  1  0.167202  0.832798  0.129082  1
  Rh  Rh19  1  0.334403  0.167202  0.629082  1
  Rh  Rh20  1  0.832798  0.167202  0.870918  1
  Rh  Rh21  1  0.665597  0.832798  0.370918  1
  Rh  Rh22  1  0.832798  0.167202  0.629082  1
  Rh  Rh23  1  0.167202  0.832798  0.370918  1
