# generated using pymatgen
data_Ac3Sn3HgIr2
_symmetry_space_group_name_H-M   'P 1'
_cell_length_a   8.00758700
_cell_length_b   8.00758745
_cell_length_c   4.33347300
_cell_angle_alpha   90.00000000
_cell_angle_beta   90.00000000
_cell_angle_gamma   119.99998795
_symmetry_Int_Tables_number   1
_chemical_formula_structural   Ac3Sn3HgIr2
_chemical_formula_sum   'Ac3 Sn3 Hg1 Ir2'
_cell_volume   240.64128373
_cell_formula_units_Z   1
loop_
 _symmetry_equiv_pos_site_id
 _symmetry_equiv_pos_as_xyz
  1  'x, y, z'
loop_
 _atom_site_type_symbol
 _atom_site_label
 _atom_site_symmetry_multiplicity
 _atom_site_fract_x
 _atom_site_fract_y
 _atom_site_fract_z
 _atom_site_occupancy
  Ac  Ac0  1  0.598315  0.021193  0.000000  1
  Ac  Ac1  1  0.978807  0.577122  0.000000  1
  Ac  Ac2  1  0.422878  0.401685  0.000000  1
  Sn  Sn3  1  0.238300  0.007855  0.500000  1
  Sn  Sn4  1  0.992145  0.230445  0.500000  1
  Sn  Sn5  1  0.769555  0.761700  0.500000  1
  Hg  Hg6  1  0.333333  0.666667  0.500000  1
  Ir  Ir7  1  0.666667  0.333333  0.500000  1
  Ir  Ir8  1  0.000000  0.000000  0.000000  1
