# generated using pymatgen
data_Ca2HoZn7(CuNi3)2
_symmetry_space_group_name_H-M   'P 1'
_cell_length_a   8.88907568
_cell_length_b   8.86755347
_cell_length_c   4.11840400
_cell_angle_alpha   90.00000000
_cell_angle_beta   90.00000000
_cell_angle_gamma   119.91993964
_symmetry_Int_Tables_number   1
_chemical_formula_structural   Ca2HoZn7(CuNi3)2
_chemical_formula_sum   'Ca2 Ho1 Zn7 Cu2 Ni6'
_cell_volume   281.36482086
_cell_formula_units_Z   1
loop_
 _symmetry_equiv_pos_site_id
 _symmetry_equiv_pos_as_xyz
  1  'x, y, z'
loop_
 _atom_site_type_symbol
 _atom_site_label
 _atom_site_symmetry_multiplicity
 _atom_site_fract_x
 _atom_site_fract_y
 _atom_site_fract_z
 _atom_site_occupancy
  Ca  Ca0  1  0.332748  0.666374  0.000000  1
  Ca  Ca1  1  0.658385  0.329192  0.000000  1
  Ho  Ho2  1  0.009604  0.004802  0.500000  1
  Zn  Zn3  1  0.496557  0.998572  0.500000  1
  Zn  Zn4  1  0.496557  0.497985  0.500000  1
  Zn  Zn5  1  0.996813  0.498407  0.500000  1
  Zn  Zn6  1  0.003544  0.713033  0.000000  1
  Zn  Zn7  1  0.003544  0.290511  0.000000  1
  Zn  Zn8  1  0.709182  0.708748  0.000000  1
  Zn  Zn9  1  0.709182  0.000434  0.000000  1
  Cu  Cu10  1  0.291631  0.001649  0.000000  1
  Cu  Cu11  1  0.291631  0.289982  0.000000  1
  Ni  Ni12  1  0.178851  0.359191  0.500000  1
  Ni  Ni13  1  0.820664  0.177868  0.500000  1
  Ni  Ni14  1  0.357837  0.178919  0.500000  1
  Ni  Ni15  1  0.643754  0.821877  0.500000  1
  Ni  Ni16  1  0.178851  0.819661  0.500000  1
  Ni  Ni17  1  0.820664  0.642796  0.500000  1
