# generated using pymatgen
data_Ho2TmAl12RuRh3
_symmetry_space_group_name_H-M   'P 1'
_cell_length_a   8.81340000
_cell_length_b   8.81923863
_cell_length_c   9.48654300
_cell_angle_alpha   90.00000000
_cell_angle_beta   90.00000000
_cell_angle_gamma   119.97809502
_symmetry_Int_Tables_number   1
_chemical_formula_structural   Ho2TmAl12RuRh3
_chemical_formula_sum   'Ho4 Tm2 Al24 Ru2 Rh6'
_cell_volume   638.71777982
_cell_formula_units_Z   2
loop_
 _symmetry_equiv_pos_site_id
 _symmetry_equiv_pos_as_xyz
  1  'x, y, z'
loop_
 _atom_site_type_symbol
 _atom_site_label
 _atom_site_symmetry_multiplicity
 _atom_site_fract_x
 _atom_site_fract_y
 _atom_site_fract_z
 _atom_site_occupancy
  Ho  Ho0  1  0.616525  0.808246  0.250000  1
  Ho  Ho1  1  0.383475  0.191754  0.750000  1
  Ho  Ho2  1  0.191720  0.808246  0.250000  1
  Ho  Ho3  1  0.808280  0.191754  0.750000  1
  Tm  Tm4  1  0.191851  0.383703  0.250000  1
  Tm  Tm5  1  0.808149  0.616297  0.750000  1
  Al  Al6  1  0.333304  0.666609  0.031943  1
  Al  Al7  1  0.666696  0.333391  0.968057  1
  Al  Al8  1  0.666696  0.333391  0.531943  1
  Al  Al9  1  0.333304  0.666609  0.468057  1
  Al  Al10  1  0.163023  0.326048  0.576220  1
  Al  Al11  1  0.836977  0.673952  0.423780  1
  Al  Al12  1  0.673917  0.836902  0.576309  1
  Al  Al13  1  0.836977  0.673952  0.076220  1
  Al  Al14  1  0.326083  0.163098  0.423691  1
  Al  Al15  1  0.163023  0.326048  0.923780  1
  Al  Al16  1  0.162984  0.836902  0.576309  1
  Al  Al17  1  0.326083  0.163098  0.076309  1
  Al  Al18  1  0.837016  0.163098  0.423691  1
  Al  Al19  1  0.673917  0.836902  0.923691  1
  Al  Al20  1  0.837016  0.163098  0.076309  1
  Al  Al21  1  0.162984  0.836902  0.923691  1
  Al  Al22  1  0.561798  0.123597  0.250000  1
  Al  Al23  1  0.438202  0.876403  0.750000  1
  Al  Al24  1  0.876501  0.438130  0.250000  1
  Al  Al25  1  0.123499  0.561870  0.750000  1
  Al  Al26  1  0.561628  0.438130  0.250000  1
  Al  Al27  1  0.438372  0.561870  0.750000  1
  Al  Al28  1  0.000028  0.000057  0.250000  1
  Al  Al29  1  0.999972  0.999943  0.750000  1
  Ru  Ru30  1  0.000000  0.000000  0.000000  1
  Ru  Ru31  1  0.000000  0.000000  0.500000  1
  Rh  Rh32  1  0.500000  0.000000  0.000000  1
  Rh  Rh33  1  0.000000  0.500000  0.000000  1
  Rh  Rh34  1  0.500000  0.000000  0.500000  1
  Rh  Rh35  1  0.500000  0.500000  0.000000  1
  Rh  Rh36  1  0.000000  0.500000  0.500000  1
  Rh  Rh37  1  0.500000  0.500000  0.500000  1
