# generated using pymatgen
data_KNiPd3O8
_symmetry_space_group_name_H-M   'P 1'
_cell_length_a   3.08800905
_cell_length_b   7.39072441
_cell_length_c   7.30568400
_cell_angle_alpha   87.45235311
_cell_angle_beta   102.20641855
_cell_angle_gamma   102.04811532
_symmetry_Int_Tables_number   1
_chemical_formula_structural   KNiPd3O8
_chemical_formula_sum   'K1 Ni1 Pd3 O8'
_cell_volume   159.37566874
_cell_formula_units_Z   1
loop_
 _symmetry_equiv_pos_site_id
 _symmetry_equiv_pos_as_xyz
  1  'x, y, z'
loop_
 _atom_site_type_symbol
 _atom_site_label
 _atom_site_symmetry_multiplicity
 _atom_site_fract_x
 _atom_site_fract_y
 _atom_site_fract_z
 _atom_site_occupancy
  K  K0  1  0.038566  0.013446  0.007335  1
  Ni  Ni1  1  0.167597  0.485452  0.814651  1
  Pd  Pd2  1  0.865242  0.517174  0.178163  1
  Pd  Pd3  1  0.686932  0.813609  0.524780  1
  Pd  Pd4  1  0.350710  0.181947  0.484125  1
  O  O5  1  0.333526  0.361334  0.270474  1
  O  O6  1  0.680062  0.614276  0.710694  1
  O  O7  1  0.973287  0.282421  0.628942  1
  O  O8  1  0.064562  0.722144  0.371769  1
  O  O9  1  0.368800  0.651957  0.050620  1
  O  O10  1  0.671111  0.357756  0.948962  1
  O  O11  1  0.716994  0.046975  0.351371  1
  O  O12  1  0.322607  0.951511  0.658110  1
