# generated using pymatgen
data_Dy6Al24FeRu4Pt3
_symmetry_space_group_name_H-M   'P 1'
_cell_length_a   8.81029981
_cell_length_b   8.78852149
_cell_length_c   9.51418404
_cell_angle_alpha   89.87282361
_cell_angle_beta   90.05983649
_cell_angle_gamma   119.50877674
_symmetry_Int_Tables_number   1
_chemical_formula_structural   Dy6Al24FeRu4Pt3
_chemical_formula_sum   'Dy6 Al24 Fe1 Ru4 Pt3'
_cell_volume   641.11526041
_cell_formula_units_Z   1
loop_
 _symmetry_equiv_pos_site_id
 _symmetry_equiv_pos_as_xyz
  1  'x, y, z'
loop_
 _atom_site_type_symbol
 _atom_site_label
 _atom_site_symmetry_multiplicity
 _atom_site_fract_x
 _atom_site_fract_y
 _atom_site_fract_z
 _atom_site_occupancy
  Dy  Dy0  1  0.191124  0.807123  0.249755  1
  Dy  Dy1  1  0.188835  0.385211  0.248514  1
  Dy  Dy2  1  0.616253  0.810292  0.250317  1
  Dy  Dy3  1  0.808876  0.192877  0.750245  1
  Dy  Dy4  1  0.811165  0.614789  0.751486  1
  Dy  Dy5  1  0.383747  0.189708  0.749683  1
  Al  Al6  1  0.564560  0.436184  0.250090  1
  Al  Al7  1  0.562025  0.125679  0.246212  1
  Al  Al8  1  0.877064  0.439896  0.250042  1
  Al  Al9  1  0.435440  0.563816  0.749910  1
  Al  Al10  1  0.437975  0.874321  0.753788  1
  Al  Al11  1  0.122936  0.560104  0.749958  1
  Al  Al12  1  0.322787  0.162250  0.422276  1
  Al  Al13  1  0.841600  0.167637  0.421702  1
  Al  Al14  1  0.841926  0.675327  0.423582  1
  Al  Al15  1  0.677213  0.837750  0.577724  1
  Al  Al16  1  0.158400  0.832363  0.578298  1
  Al  Al17  1  0.158074  0.324673  0.576418  1
  Al  Al18  1  0.680366  0.844661  0.926004  1
  Al  Al19  1  0.161553  0.838952  0.923980  1
  Al  Al20  1  0.155861  0.320387  0.925082  1
  Al  Al21  1  0.319634  0.155339  0.073996  1
  Al  Al22  1  0.838447  0.161048  0.076020  1
  Al  Al23  1  0.844139  0.679613  0.074918  1
  Al  Al24  1  0.672719  0.335866  0.529483  1
  Al  Al25  1  0.327281  0.664134  0.470517  1
  Al  Al26  1  0.330261  0.669807  0.027409  1
  Al  Al27  1  0.669739  0.330193  0.972591  1
  Al  Al28  1  0.996916  0.000933  0.243563  1
  Al  Al29  1  0.003084  0.999067  0.756437  1
  Fe  Fe30  1  0.000000  0.000000  0.000000  1
  Ru  Ru31  1  0.000000  0.000000  0.500000  1
  Ru  Ru32  1  0.000000  0.500000  0.500000  1
  Ru  Ru33  1  0.500000  0.000000  0.000000  1
  Ru  Ru34  1  0.000000  0.500000  0.000000  1
  Pt  Pt35  1  0.500000  0.500000  0.500000  1
  Pt  Pt36  1  0.500000  0.000000  0.500000  1
  Pt  Pt37  1  0.500000  0.500000  0.000000  1
