# generated using pymatgen
data_CaVSbF12
_symmetry_space_group_name_H-M   'P 1'
_cell_length_a   11.52636040
_cell_length_b   5.78409927
_cell_length_c   5.79810621
_cell_angle_alpha   57.53719666
_cell_angle_beta   57.06980455
_cell_angle_gamma   57.20807858
_symmetry_Int_Tables_number   1
_chemical_formula_structural   CaVSbF12
_chemical_formula_sum   'Ca1 V1 Sb1 F12'
_cell_volume   256.15574854
_cell_formula_units_Z   1
loop_
 _symmetry_equiv_pos_site_id
 _symmetry_equiv_pos_as_xyz
  1  'x, y, z'
loop_
 _atom_site_type_symbol
 _atom_site_label
 _atom_site_symmetry_multiplicity
 _atom_site_fract_x
 _atom_site_fract_y
 _atom_site_fract_z
 _atom_site_occupancy
  Ca  Ca0  1  0.742585  0.503724  0.506807  1
  V  V1  1  0.486919  0.014531  0.003880  1
  Sb  Sb2  1  0.013251  0.985616  0.995902  1
  F  F3  1  0.170403  0.128413  0.762981  1
  F  F4  1  0.655129  0.130506  0.782129  1
  F  F5  1  0.058834  0.776134  0.339813  1
  F  F6  1  0.565891  0.781494  0.303037  1
  F  F7  1  0.114338  0.659250  0.874604  1
  F  F8  1  0.611256  0.690646  0.872439  1
  F  F9  1  0.442199  0.210337  0.686551  1
  F  F10  1  0.933365  0.225313  0.681163  1
  F  F11  1  0.342154  0.879142  0.219170  1
  F  F12  1  0.836059  0.877075  0.220863  1
  F  F13  1  0.392557  0.313320  0.123639  1
  F  F14  1  0.885061  0.324499  0.127025  1
