# generated using pymatgen
data_CeEr(SiTc)2
_symmetry_space_group_name_H-M   'P 1'
_cell_length_a   4.50537000
_cell_length_b   7.11374338
_cell_length_c   6.95888202
_cell_angle_alpha   87.21326969
_cell_angle_beta   90.00000000
_cell_angle_gamma   90.00000000
_symmetry_Int_Tables_number   1
_chemical_formula_structural   CeEr(SiTc)2
_chemical_formula_sum   'Ce2 Er2 Si4 Tc4'
_cell_volume   222.76873616
_cell_formula_units_Z   2
loop_
 _symmetry_equiv_pos_site_id
 _symmetry_equiv_pos_as_xyz
  1  'x, y, z'
loop_
 _atom_site_type_symbol
 _atom_site_label
 _atom_site_symmetry_multiplicity
 _atom_site_fract_x
 _atom_site_fract_y
 _atom_site_fract_z
 _atom_site_occupancy
  Ce  Ce0  1  0.250000  0.970453  0.814780  1
  Ce  Ce1  1  0.750000  0.029547  0.185220  1
  Er  Er2  1  0.250000  0.478211  0.687367  1
  Er  Er3  1  0.750000  0.521789  0.312633  1
  Si  Si4  1  0.250000  0.314370  0.113706  1
  Si  Si5  1  0.750000  0.685630  0.886294  1
  Si  Si6  1  0.250000  0.799860  0.392909  1
  Si  Si7  1  0.750000  0.200140  0.607091  1
  Tc  Tc8  1  0.750000  0.852744  0.553381  1
  Tc  Tc9  1  0.250000  0.147256  0.446619  1
  Tc  Tc10  1  0.750000  0.338682  0.943542  1
  Tc  Tc11  1  0.250000  0.661318  0.056458  1
