# generated using pymatgen
data_Ce5W2C7
_symmetry_space_group_name_H-M   'P 1'
_cell_length_a   8.69633502
_cell_length_b   8.69633553
_cell_length_c   3.45042600
_cell_angle_alpha   90.00000000
_cell_angle_beta   90.00000000
_cell_angle_gamma   125.72044122
_symmetry_Int_Tables_number   1
_chemical_formula_structural   Ce5W2C7
_chemical_formula_sum   'Ce5 W2 C7'
_cell_volume   211.85298607
_cell_formula_units_Z   1
loop_
 _symmetry_equiv_pos_site_id
 _symmetry_equiv_pos_as_xyz
  1  'x, y, z'
loop_
 _atom_site_type_symbol
 _atom_site_label
 _atom_site_symmetry_multiplicity
 _atom_site_fract_x
 _atom_site_fract_y
 _atom_site_fract_z
 _atom_site_occupancy
  Ce  Ce0  1  0.500000  0.500000  0.000000  1
  Ce  Ce1  1  0.057358  0.317139  0.500000  1
  Ce  Ce2  1  0.942642  0.682861  0.500000  1
  Ce  Ce3  1  0.682861  0.942642  0.500000  1
  Ce  Ce4  1  0.317139  0.057358  0.500000  1
  W  W5  1  0.711249  0.288751  0.000000  1
  W  W6  1  0.288751  0.711249  0.000000  1
  C  C7  1  0.628183  0.371817  0.500000  1
  C  C8  1  0.371817  0.628183  0.500000  1
  C  C9  1  0.000000  0.000000  0.000000  1
  C  C10  1  0.173275  0.173275  0.000000  1
  C  C11  1  0.826725  0.826725  0.000000  1
  C  C12  1  0.000000  0.500000  0.000000  1
  C  C13  1  0.500000  0.000000  0.000000  1
