# generated using pymatgen
data_YbPa7(Pd2Pb)4
_symmetry_space_group_name_H-M   'P 1'
_cell_length_a   7.75888800
_cell_length_b   7.75888771
_cell_length_c   7.40427700
_cell_angle_alpha   90.00000000
_cell_angle_beta   90.00000000
_cell_angle_gamma   89.97540950
_symmetry_Int_Tables_number   1
_chemical_formula_structural   YbPa7(Pd2Pb)4
_chemical_formula_sum   'Yb1 Pa7 Pd8 Pb4'
_cell_volume   445.73995759
_cell_formula_units_Z   1
loop_
 _symmetry_equiv_pos_site_id
 _symmetry_equiv_pos_as_xyz
  1  'x, y, z'
loop_
 _atom_site_type_symbol
 _atom_site_label
 _atom_site_symmetry_multiplicity
 _atom_site_fract_x
 _atom_site_fract_y
 _atom_site_fract_z
 _atom_site_occupancy
  Yb  Yb0  1  0.314911  0.314911  0.000000  1
  Pa  Pa1  1  0.634343  0.634343  0.500000  1
  Pa  Pa2  1  0.811976  0.186036  0.500000  1
  Pa  Pa3  1  0.683695  0.683695  0.000000  1
  Pa  Pa4  1  0.863098  0.136282  0.000000  1
  Pa  Pa5  1  0.186036  0.811976  0.500000  1
  Pa  Pa6  1  0.136282  0.863098  0.000000  1
  Pa  Pa7  1  0.363380  0.363380  0.500000  1
  Pd  Pd8  1  0.637611  0.367636  0.206807  1
  Pd  Pd9  1  0.367636  0.637611  0.793193  1
  Pd  Pd10  1  0.864576  0.864576  0.703438  1
  Pd  Pd11  1  0.637611  0.367636  0.793193  1
  Pd  Pd12  1  0.367636  0.637611  0.206807  1
  Pd  Pd13  1  0.130124  0.130124  0.300981  1
  Pd  Pd14  1  0.864576  0.864576  0.296562  1
  Pd  Pd15  1  0.130124  0.130124  0.699019  1
  Pb  Pb16  1  0.005556  0.497638  0.245005  1
  Pb  Pb17  1  0.497638  0.005556  0.754995  1
  Pb  Pb18  1  0.497638  0.005556  0.245005  1
  Pb  Pb19  1  0.005556  0.497638  0.754995  1
