# generated using pymatgen
data_Ca3Y(SiPd14)2
_symmetry_space_group_name_H-M   'P 1'
_cell_length_a   8.91802300
_cell_length_b   8.91802300
_cell_length_c   7.11812900
_cell_angle_alpha   90.00000000
_cell_angle_beta   90.00000000
_cell_angle_gamma   90.00000000
_symmetry_Int_Tables_number   1
_chemical_formula_structural   Ca3Y(SiPd14)2
_chemical_formula_sum   'Ca3 Y1 Si2 Pd28'
_cell_volume   566.11287295
_cell_formula_units_Z   1
loop_
 _symmetry_equiv_pos_site_id
 _symmetry_equiv_pos_as_xyz
  1  'x, y, z'
loop_
 _atom_site_type_symbol
 _atom_site_label
 _atom_site_symmetry_multiplicity
 _atom_site_fract_x
 _atom_site_fract_y
 _atom_site_fract_z
 _atom_site_occupancy
  Ca  Ca0  1  0.500000  0.000000  0.936743  1
  Ca  Ca1  1  0.000000  0.500000  0.063257  1
  Ca  Ca2  1  0.000000  0.000000  0.500000  1
  Y  Y3  1  0.500000  0.500000  0.500000  1
  Si  Si4  1  0.500000  0.000000  0.447754  1
  Si  Si5  1  0.000000  0.500000  0.552246  1
  Pd  Pd6  1  0.334201  0.833432  0.615929  1
  Pd  Pd7  1  0.334201  0.166568  0.615929  1
  Pd  Pd8  1  0.665799  0.833432  0.615929  1
  Pd  Pd9  1  0.665799  0.166568  0.615929  1
  Pd  Pd10  1  0.166568  0.665799  0.384071  1
  Pd  Pd11  1  0.166568  0.334201  0.384071  1
  Pd  Pd12  1  0.833432  0.665799  0.384071  1
  Pd  Pd13  1  0.833432  0.334201  0.384071  1
  Pd  Pd14  1  0.500000  0.769061  0.258470  1
  Pd  Pd15  1  0.500000  0.230939  0.258470  1
  Pd  Pd16  1  0.270866  0.000000  0.256664  1
  Pd  Pd17  1  0.729134  0.000000  0.256664  1
  Pd  Pd18  1  0.000000  0.729134  0.743336  1
  Pd  Pd19  1  0.000000  0.270866  0.743336  1
  Pd  Pd20  1  0.230939  0.500000  0.741530  1
  Pd  Pd21  1  0.769061  0.500000  0.741530  1
  Pd  Pd22  1  0.500000  0.349423  0.853650  1
  Pd  Pd23  1  0.500000  0.650577  0.853650  1
  Pd  Pd24  1  0.848932  0.000000  0.855429  1
  Pd  Pd25  1  0.151068  0.000000  0.855429  1
  Pd  Pd26  1  0.000000  0.151068  0.144571  1
  Pd  Pd27  1  0.000000  0.848932  0.144571  1
  Pd  Pd28  1  0.650577  0.500000  0.146350  1
  Pd  Pd29  1  0.349423  0.500000  0.146350  1
  Pd  Pd30  1  0.250114  0.749886  0.000000  1
  Pd  Pd31  1  0.250114  0.250114  0.000000  1
  Pd  Pd32  1  0.749886  0.749886  0.000000  1
  Pd  Pd33  1  0.749886  0.250114  0.000000  1
