# generated using pymatgen
data_KNd(Cu9Si4)2
_symmetry_space_group_name_H-M   'P 1'
_cell_length_a   8.16963475
_cell_length_b   8.16963470
_cell_length_c   8.16963456
_cell_angle_alpha   120.39367091
_cell_angle_beta   120.39368200
_cell_angle_gamma   89.31948151
_symmetry_Int_Tables_number   1
_chemical_formula_structural   KNd(Cu9Si4)2
_chemical_formula_sum   'K1 Nd1 Cu18 Si8'
_cell_volume   383.23725665
_cell_formula_units_Z   1
loop_
 _symmetry_equiv_pos_site_id
 _symmetry_equiv_pos_as_xyz
  1  'x, y, z'
loop_
 _atom_site_type_symbol
 _atom_site_label
 _atom_site_symmetry_multiplicity
 _atom_site_fract_x
 _atom_site_fract_y
 _atom_site_fract_z
 _atom_site_occupancy
  K  K0  1  0.750000  0.750000  0.000000  1
  Nd  Nd1  1  0.250000  0.250000  0.000000  1
  Cu  Cu2  1  0.936245  0.204851  0.138387  1
  Cu  Cu3  1  0.204851  0.066464  0.268607  1
  Cu  Cu4  1  0.797857  0.936245  0.731393  1
  Cu  Cu5  1  0.433536  0.295149  0.731393  1
  Cu  Cu6  1  0.066464  0.797857  0.861613  1
  Cu  Cu7  1  0.807539  0.059250  0.500777  1
  Cu  Cu8  1  0.558473  0.306762  0.499223  1
  Cu  Cu9  1  0.193238  0.941527  0.500777  1
  Cu  Cu10  1  0.440750  0.692461  0.499223  1
  Cu  Cu11  1  0.941527  0.440750  0.748289  1
  Cu  Cu12  1  0.692461  0.193238  0.251711  1
  Cu  Cu13  1  0.059250  0.558473  0.251711  1
  Cu  Cu14  1  0.702143  0.433536  0.138387  1
  Cu  Cu15  1  0.563755  0.702143  0.268607  1
  Cu  Cu16  1  0.500000  0.000000  0.500000  1
  Cu  Cu17  1  0.000000  0.500000  0.500000  1
  Cu  Cu18  1  0.306762  0.807539  0.748289  1
  Cu  Cu19  1  0.295149  0.563755  0.861613  1
  Si  Si20  1  0.794273  0.290815  0.851941  1
  Si  Si21  1  0.557667  0.061127  0.851941  1
  Si  Si22  1  0.061127  0.209185  0.503459  1
  Si  Si23  1  0.290815  0.438873  0.496541  1
  Si  Si24  1  0.942333  0.794273  0.503459  1
  Si  Si25  1  0.438873  0.942333  0.148059  1
  Si  Si26  1  0.209185  0.705727  0.148059  1
  Si  Si27  1  0.705727  0.557667  0.496541  1
