# generated using pymatgen
data_Hf4Mn3Si4Rh
_symmetry_space_group_name_H-M   'P 1'
_cell_length_a   3.79773500
_cell_length_b   6.45284269
_cell_length_c   7.49443205
_cell_angle_alpha   90.08387927
_cell_angle_beta   90.00000000
_cell_angle_gamma   90.00000000
_symmetry_Int_Tables_number   1
_chemical_formula_structural   Hf4Mn3Si4Rh
_chemical_formula_sum   'Hf4 Mn3 Si4 Rh1'
_cell_volume   183.65975305
_cell_formula_units_Z   1
loop_
 _symmetry_equiv_pos_site_id
 _symmetry_equiv_pos_as_xyz
  1  'x, y, z'
loop_
 _atom_site_type_symbol
 _atom_site_label
 _atom_site_symmetry_multiplicity
 _atom_site_fract_x
 _atom_site_fract_y
 _atom_site_fract_z
 _atom_site_occupancy
  Hf  Hf0  1  0.250000  0.521247  0.180729  1
  Hf  Hf1  1  0.750000  0.477625  0.820598  1
  Hf  Hf2  1  0.250000  0.026628  0.317373  1
  Hf  Hf3  1  0.750000  0.982616  0.685452  1
  Mn  Mn4  1  0.750000  0.851202  0.063203  1
  Mn  Mn5  1  0.250000  0.144808  0.935054  1
  Mn  Mn6  1  0.750000  0.345934  0.434099  1
  Si  Si7  1  0.250000  0.779478  0.880321  1
  Si  Si8  1  0.750000  0.222070  0.116848  1
  Si  Si9  1  0.250000  0.274491  0.627012  1
  Si  Si10  1  0.750000  0.725646  0.376530  1
  Rh  Rh11  1  0.250000  0.648255  0.562782  1
