# generated using pymatgen
data_SrGd6RuBr12
_symmetry_space_group_name_H-M   'P 1'
_cell_length_a   9.31402160
_cell_length_b   9.31402175
_cell_length_c   9.31402100
_cell_angle_alpha   106.09966249
_cell_angle_beta   106.09966276
_cell_angle_gamma   106.09966773
_symmetry_Int_Tables_number   1
_chemical_formula_structural   SrGd6RuBr12
_chemical_formula_sum   'Sr1 Gd6 Ru1 Br12'
_cell_volume   688.76962900
_cell_formula_units_Z   1
loop_
 _symmetry_equiv_pos_site_id
 _symmetry_equiv_pos_as_xyz
  1  'x, y, z'
loop_
 _atom_site_type_symbol
 _atom_site_label
 _atom_site_symmetry_multiplicity
 _atom_site_fract_x
 _atom_site_fract_y
 _atom_site_fract_z
 _atom_site_occupancy
  Sr  Sr0  1  0.500000  0.500000  0.500000  1
  Gd  Gd1  1  0.312872  0.104181  0.022074  1
  Gd  Gd2  1  0.022074  0.312872  0.104181  1
  Gd  Gd3  1  0.104181  0.022074  0.312872  1
  Gd  Gd4  1  0.687128  0.895819  0.977926  1
  Gd  Gd5  1  0.977926  0.687128  0.895819  1
  Gd  Gd6  1  0.895819  0.977926  0.687128  1
  Ru  Ru7  1  0.000000  0.000000  0.000000  1
  Br  Br8  1  0.678396  0.216971  0.071797  1
  Br  Br9  1  0.071797  0.678396  0.216971  1
  Br  Br10  1  0.216971  0.071797  0.678396  1
  Br  Br11  1  0.321604  0.783029  0.928203  1
  Br  Br12  1  0.928203  0.321604  0.783029  1
  Br  Br13  1  0.783029  0.928203  0.321604  1
  Br  Br14  1  0.448979  0.142645  0.366299  1
  Br  Br15  1  0.366299  0.448979  0.142645  1
  Br  Br16  1  0.142645  0.366299  0.448979  1
  Br  Br17  1  0.551021  0.857355  0.633701  1
  Br  Br18  1  0.633701  0.551021  0.857355  1
  Br  Br19  1  0.857355  0.633701  0.551021  1
