# generated using pymatgen
data_Zr10Ga5SbS
_symmetry_space_group_name_H-M   'P 1'
_cell_length_a   8.28264268
_cell_length_b   8.27441018
_cell_length_c   5.80091492
_cell_angle_alpha   90.06404860
_cell_angle_beta   89.96800910
_cell_angle_gamma   119.96712894
_symmetry_Int_Tables_number   1
_chemical_formula_structural   Zr10Ga5SbS
_chemical_formula_sum   'Zr10 Ga5 Sb1 S1'
_cell_volume   344.41065961
_cell_formula_units_Z   1
loop_
 _symmetry_equiv_pos_site_id
 _symmetry_equiv_pos_as_xyz
  1  'x, y, z'
loop_
 _atom_site_type_symbol
 _atom_site_label
 _atom_site_symmetry_multiplicity
 _atom_site_fract_x
 _atom_site_fract_y
 _atom_site_fract_z
 _atom_site_occupancy
  Zr  Zr0  1  0.000000  0.755003  0.234302  1
  Zr  Zr1  1  0.257653  0.249007  0.241265  1
  Zr  Zr2  1  0.742347  0.991354  0.241265  1
  Zr  Zr3  1  0.000000  0.252713  0.756568  1
  Zr  Zr4  1  0.747197  0.747149  0.761598  1
  Zr  Zr5  1  0.252803  0.999952  0.761598  1
  Zr  Zr6  1  0.344179  0.671914  0.502436  1
  Zr  Zr7  1  0.655821  0.327734  0.502436  1
  Zr  Zr8  1  0.657300  0.330439  0.997269  1
  Zr  Zr9  1  0.342700  0.673140  0.997269  1
  Ga  Ga10  1  0.608585  0.605382  0.248218  1
  Ga  Ga11  1  0.391415  0.996797  0.248218  1
  Ga  Ga12  1  0.000000  0.608708  0.750137  1
  Ga  Ga13  1  0.389443  0.392307  0.752674  1
  Ga  Ga14  1  0.610557  0.002864  0.752674  1
  Sb  Sb15  1  0.000000  0.394631  0.249725  1
  S  S16  1  0.000000  0.000906  0.502348  1
