# generated using pymatgen
data_Y3Er(TmPt)4
_symmetry_space_group_name_H-M   'P 1'
_cell_length_a   4.74630300
_cell_length_b   7.15809825
_cell_length_c   8.69665031
_cell_angle_alpha   89.90913559
_cell_angle_beta   90.00000000
_cell_angle_gamma   90.00000000
_symmetry_Int_Tables_number   1
_chemical_formula_structural   Y3Er(TmPt)4
_chemical_formula_sum   'Y3 Er1 Tm4 Pt4'
_cell_volume   295.46400225
_cell_formula_units_Z   1
loop_
 _symmetry_equiv_pos_site_id
 _symmetry_equiv_pos_as_xyz
  1  'x, y, z'
loop_
 _atom_site_type_symbol
 _atom_site_label
 _atom_site_symmetry_multiplicity
 _atom_site_fract_x
 _atom_site_fract_y
 _atom_site_fract_z
 _atom_site_occupancy
  Y  Y0  1  0.250000  0.014127  0.330765  1
  Y  Y1  1  0.250000  0.512989  0.169102  1
  Y  Y2  1  0.750000  0.986604  0.670767  1
  Er  Er3  1  0.750000  0.484908  0.831394  1
  Tm  Tm4  1  0.250000  0.643981  0.577310  1
  Tm  Tm5  1  0.250000  0.143861  0.923399  1
  Tm  Tm6  1  0.750000  0.357284  0.423620  1
  Tm  Tm7  1  0.750000  0.854880  0.076227  1
  Pt  Pt8  1  0.250000  0.248352  0.597463  1
  Pt  Pt9  1  0.250000  0.745078  0.901644  1
  Pt  Pt10  1  0.750000  0.754327  0.403381  1
  Pt  Pt11  1  0.750000  0.253608  0.094930  1
