# generated using pymatgen
data_Eu2DyTm3Ta2O14
_symmetry_space_group_name_H-M   'P 1'
_cell_length_a   6.44619527
_cell_length_b   6.43850339
_cell_length_c   7.51707023
_cell_angle_alpha   90.02492878
_cell_angle_beta   89.97864106
_cell_angle_gamma   108.83156205
_symmetry_Int_Tables_number   1
_chemical_formula_structural   Eu2DyTm3Ta2O14
_chemical_formula_sum   'Eu2 Dy1 Tm3 Ta2 O14'
_cell_volume   295.28713284
_cell_formula_units_Z   1
loop_
 _symmetry_equiv_pos_site_id
 _symmetry_equiv_pos_as_xyz
  1  'x, y, z'
loop_
 _atom_site_type_symbol
 _atom_site_label
 _atom_site_symmetry_multiplicity
 _atom_site_fract_x
 _atom_site_fract_y
 _atom_site_fract_z
 _atom_site_occupancy
  Eu  Eu0  1  0.503366  0.503531  0.500686  1
  Eu  Eu1  1  0.499327  0.499739  0.999356  1
  Dy  Dy2  1  0.465749  0.000124  0.250908  1
  Tm  Tm3  1  0.999275  0.466607  0.749177  1
  Tm  Tm4  1  0.001211  0.533090  0.249136  1
  Tm  Tm5  1  0.534042  0.000753  0.750877  1
  Ta  Ta6  1  0.000185  0.999889  0.500710  1
  Ta  Ta7  1  0.000320  0.000051  0.999319  1
  O  O8  1  0.643506  0.357529  0.750012  1
  O  O9  1  0.357226  0.638967  0.250043  1
  O  O10  1  0.932256  0.070498  0.750031  1
  O  O11  1  0.066398  0.931395  0.249983  1
  O  O12  1  0.933632  0.677905  0.533721  1
  O  O13  1  0.066128  0.321135  0.034177  1
  O  O14  1  0.321009  0.068624  0.964319  1
  O  O15  1  0.676838  0.928751  0.470526  1
  O  O16  1  0.363281  0.636024  0.750062  1
  O  O17  1  0.638670  0.368850  0.249833  1
  O  O18  1  0.936041  0.679829  0.964219  1
  O  O19  1  0.063694  0.319178  0.463553  1
  O  O20  1  0.319239  0.066416  0.537846  1
  O  O21  1  0.678606  0.931117  0.031507  1
