# generated using pymatgen
data_Nd8Cu3Si12Hg
_symmetry_space_group_name_H-M   'P 1'
_cell_length_a   8.17357300
_cell_length_b   8.17357287
_cell_length_c   8.62329600
_cell_angle_alpha   90.00000000
_cell_angle_beta   90.00000000
_cell_angle_gamma   119.99999647
_symmetry_Int_Tables_number   1
_chemical_formula_structural   Nd8Cu3Si12Hg
_chemical_formula_sum   'Nd8 Cu3 Si12 Hg1'
_cell_volume   498.91645256
_cell_formula_units_Z   1
loop_
 _symmetry_equiv_pos_site_id
 _symmetry_equiv_pos_as_xyz
  1  'x, y, z'
loop_
 _atom_site_type_symbol
 _atom_site_label
 _atom_site_symmetry_multiplicity
 _atom_site_fract_x
 _atom_site_fract_y
 _atom_site_fract_z
 _atom_site_occupancy
  Nd  Nd0  1  0.497878  0.502122  0.753576  1
  Nd  Nd1  1  0.497919  0.502081  0.246417  1
  Nd  Nd2  1  0.004245  0.502122  0.753576  1
  Nd  Nd3  1  0.004162  0.502081  0.246417  1
  Nd  Nd4  1  0.497878  0.995755  0.753576  1
  Nd  Nd5  1  0.497919  0.995838  0.246417  1
  Nd  Nd6  1  0.000000  0.000000  0.753628  1
  Nd  Nd7  1  0.000000  0.000000  0.246402  1
  Cu  Cu8  1  0.666667  0.333333  0.999889  1
  Cu  Cu9  1  0.333333  0.666667  0.000196  1
  Cu  Cu10  1  0.333333  0.666667  0.499884  1
  Si  Si11  1  0.830445  0.169555  0.000053  1
  Si  Si12  1  0.168808  0.831192  0.999941  1
  Si  Si13  1  0.339111  0.169555  0.000053  1
  Si  Si14  1  0.171865  0.828135  0.499897  1
  Si  Si15  1  0.662385  0.831192  0.999941  1
  Si  Si16  1  0.842194  0.157806  0.500117  1
  Si  Si17  1  0.830445  0.660889  0.000053  1
  Si  Si18  1  0.656269  0.828135  0.499897  1
  Si  Si19  1  0.168808  0.337615  0.999941  1
  Si  Si20  1  0.315613  0.157806  0.500117  1
  Si  Si21  1  0.171865  0.343731  0.499897  1
  Si  Si22  1  0.842194  0.684387  0.500117  1
  Hg  Hg23  1  0.666667  0.333333  0.499998  1
