# generated using pymatgen
data_KMgTlAg3Te8
_symmetry_space_group_name_H-M   'P 1'
_cell_length_a   12.77312456
_cell_length_b   12.77312363
_cell_length_c   10.98899646
_cell_angle_alpha   80.00030219
_cell_angle_beta   80.00030281
_cell_angle_gamma   14.03807608
_symmetry_Int_Tables_number   1
_chemical_formula_structural   KMgTlAg3Te8
_chemical_formula_sum   'K1 Mg1 Tl1 Ag3 Te8'
_cell_volume   428.18642766
_cell_formula_units_Z   1
loop_
 _symmetry_equiv_pos_site_id
 _symmetry_equiv_pos_as_xyz
  1  'x, y, z'
loop_
 _atom_site_type_symbol
 _atom_site_label
 _atom_site_symmetry_multiplicity
 _atom_site_fract_x
 _atom_site_fract_y
 _atom_site_fract_z
 _atom_site_occupancy
  K  K0  1  0.953721  0.953721  0.056692  1
  Mg  Mg1  1  0.506579  0.506579  0.527724  1
  Tl  Tl2  1  0.188190  0.188190  0.090848  1
  Ag  Ag3  1  0.838056  0.838056  0.467335  1
  Ag  Ag4  1  0.173134  0.173134  0.477428  1
  Ag  Ag5  1  0.838603  0.838603  0.798525  1
  Te  Te6  1  0.952587  0.952587  0.734564  1
  Te  Te7  1  0.081801  0.081801  0.345625  1
  Te  Te8  1  0.603817  0.603817  0.679251  1
  Te  Te9  1  0.430912  0.430912  0.357405  1
  Te  Te10  1  0.583676  0.583676  0.958416  1
  Te  Te11  1  0.324707  0.324707  0.028558  1
  Te  Te12  1  0.754309  0.754309  0.314106  1
  Te  Te13  1  0.269911  0.269911  0.663523  1
