# generated using pymatgen
data_YbBe(Cu2Si)4
_symmetry_space_group_name_H-M   'P 1'
_cell_length_a   8.04727132
_cell_length_b   8.04727154
_cell_length_c   8.04727090
_cell_angle_alpha   120.39594176
_cell_angle_beta   120.39594554
_cell_angle_gamma   89.31556470
_symmetry_Int_Tables_number   1
_chemical_formula_structural   YbBe(Cu2Si)4
_chemical_formula_sum   'Yb2 Be2 Cu16 Si8'
_cell_volume   366.26076784
_cell_formula_units_Z   2
loop_
 _symmetry_equiv_pos_site_id
 _symmetry_equiv_pos_as_xyz
  1  'x, y, z'
loop_
 _atom_site_type_symbol
 _atom_site_label
 _atom_site_symmetry_multiplicity
 _atom_site_fract_x
 _atom_site_fract_y
 _atom_site_fract_z
 _atom_site_occupancy
  Yb  Yb0  1  0.250000  0.250000  0.000000  1
  Yb  Yb1  1  0.750000  0.750000  0.000000  1
  Be  Be2  1  0.500000  0.000000  0.500000  1
  Be  Be3  1  0.000000  0.500000  0.500000  1
  Cu  Cu4  1  0.942703  0.209199  0.151901  1
  Cu  Cu5  1  0.209199  0.057297  0.266496  1
  Cu  Cu6  1  0.790801  0.942703  0.733504  1
  Cu  Cu7  1  0.442703  0.290801  0.733504  1
  Cu  Cu8  1  0.057297  0.790801  0.848099  1
  Cu  Cu9  1  0.801854  0.058129  0.500000  1
  Cu  Cu10  1  0.558129  0.301854  0.500000  1
  Cu  Cu11  1  0.198146  0.941871  0.500000  1
  Cu  Cu12  1  0.441871  0.698146  0.500000  1
  Cu  Cu13  1  0.941871  0.441871  0.743724  1
  Cu  Cu14  1  0.698146  0.198146  0.256276  1
  Cu  Cu15  1  0.058129  0.558129  0.256276  1
  Cu  Cu16  1  0.709199  0.442703  0.151901  1
  Cu  Cu17  1  0.557297  0.709199  0.266496  1
  Cu  Cu18  1  0.301854  0.801854  0.743724  1
  Cu  Cu19  1  0.290801  0.557297  0.848099  1
  Si  Si20  1  0.793132  0.293132  0.852334  1
  Si  Si21  1  0.559201  0.059201  0.852334  1
  Si  Si22  1  0.059201  0.206868  0.500000  1
  Si  Si23  1  0.293132  0.440799  0.500000  1
  Si  Si24  1  0.940799  0.793132  0.500000  1
  Si  Si25  1  0.440799  0.940799  0.147666  1
  Si  Si26  1  0.206868  0.706868  0.147666  1
  Si  Si27  1  0.706868  0.559201  0.500000  1
