# generated using pymatgen
data_Cs3InPBr9
_symmetry_space_group_name_H-M   'P 1'
_cell_length_a   8.07719900
_cell_length_b   8.07719929
_cell_length_c   9.60894800
_cell_angle_alpha   90.00000000
_cell_angle_beta   90.00000000
_cell_angle_gamma   120.00001108
_symmetry_Int_Tables_number   1
_chemical_formula_structural   Cs3InPBr9
_chemical_formula_sum   'Cs3 In1 P1 Br9'
_cell_volume   542.91020850
_cell_formula_units_Z   1
loop_
 _symmetry_equiv_pos_site_id
 _symmetry_equiv_pos_as_xyz
  1  'x, y, z'
loop_
 _atom_site_type_symbol
 _atom_site_label
 _atom_site_symmetry_multiplicity
 _atom_site_fract_x
 _atom_site_fract_y
 _atom_site_fract_z
 _atom_site_occupancy
  Cs  Cs0  1  0.666667  0.333333  0.698862  1
  Cs  Cs1  1  0.333333  0.666667  0.335648  1
  Cs  Cs2  1  0.000000  0.000000  0.963402  1
  In  In3  1  0.333333  0.666667  0.823625  1
  P  P4  1  0.666667  0.333333  0.206730  1
  Br  Br5  1  0.653100  0.826550  0.666239  1
  Br  Br6  1  0.810082  0.189918  0.326978  1
  Br  Br7  1  0.173450  0.346900  0.666239  1
  Br  Br8  1  0.491536  0.983073  0.997361  1
  Br  Br9  1  0.810082  0.620166  0.326978  1
  Br  Br10  1  0.379834  0.189918  0.326978  1
  Br  Br11  1  0.173450  0.826550  0.666239  1
  Br  Br12  1  0.491536  0.508464  0.997361  1
  Br  Br13  1  0.016927  0.508464  0.997361  1
