# generated using pymatgen
data_Tm4MnTc6Os
_symmetry_space_group_name_H-M   'P 1'
_cell_length_a   5.27185400
_cell_length_b   5.27185358
_cell_length_c   8.95549100
_cell_angle_alpha   90.00000000
_cell_angle_beta   90.00000000
_cell_angle_gamma   120.00000266
_symmetry_Int_Tables_number   1
_chemical_formula_structural   Tm4MnTc6Os
_chemical_formula_sum   'Tm4 Mn1 Tc6 Os1'
_cell_volume   215.54935893
_cell_formula_units_Z   1
loop_
 _symmetry_equiv_pos_site_id
 _symmetry_equiv_pos_as_xyz
  1  'x, y, z'
loop_
 _atom_site_type_symbol
 _atom_site_label
 _atom_site_symmetry_multiplicity
 _atom_site_fract_x
 _atom_site_fract_y
 _atom_site_fract_z
 _atom_site_occupancy
  Tm  Tm0  1  0.333333  0.666667  0.435427  1
  Tm  Tm1  1  0.666667  0.333333  0.564573  1
  Tm  Tm2  1  0.666667  0.333333  0.937047  1
  Tm  Tm3  1  0.333333  0.666667  0.062953  1
  Mn  Mn4  1  0.000000  0.000000  0.500000  1
  Tc  Tc5  1  0.830013  0.169987  0.252974  1
  Tc  Tc6  1  0.830013  0.660026  0.252974  1
  Tc  Tc7  1  0.339974  0.169987  0.252974  1
  Tc  Tc8  1  0.169987  0.830013  0.747026  1
  Tc  Tc9  1  0.169987  0.339974  0.747026  1
  Tc  Tc10  1  0.660026  0.830013  0.747026  1
  Os  Os11  1  0.000000  0.000000  0.000000  1
