# generated using pymatgen
data_Pr19NdSi15Hg
_symmetry_space_group_name_H-M   'P 1'
_cell_length_a   7.97953585
_cell_length_b   7.96826848
_cell_length_c   15.34774801
_cell_angle_alpha   90.03558905
_cell_angle_beta   89.67994760
_cell_angle_gamma   89.93160645
_symmetry_Int_Tables_number   1
_chemical_formula_structural   Pr19NdSi15Hg
_chemical_formula_sum   'Pr19 Nd1 Si15 Hg1'
_cell_volume   975.84103867
_cell_formula_units_Z   1
loop_
 _symmetry_equiv_pos_site_id
 _symmetry_equiv_pos_as_xyz
  1  'x, y, z'
loop_
 _atom_site_type_symbol
 _atom_site_label
 _atom_site_symmetry_multiplicity
 _atom_site_fract_x
 _atom_site_fract_y
 _atom_site_fract_z
 _atom_site_occupancy
  Pr  Pr0  1  0.192959  0.808924  0.249436  1
  Pr  Pr1  1  0.800107  0.186794  0.752565  1
  Pr  Pr2  1  0.692406  0.689715  0.497814  1
  Pr  Pr3  1  0.374900  0.012260  0.447951  1
  Pr  Pr4  1  0.492791  0.868840  0.699109  1
  Pr  Pr5  1  0.510420  0.121998  0.197687  1
  Pr  Pr6  1  0.878400  0.488984  0.300569  1
  Pr  Pr7  1  0.118659  0.520573  0.803849  1
  Pr  Pr8  1  0.625774  0.987063  0.951105  1
  Pr  Pr9  1  0.001173  0.383481  0.547130  1
  Pr  Pr10  1  0.989564  0.624912  0.052836  1
  Pr  Pr11  1  0.129567  0.981786  0.879565  1
  Pr  Pr12  1  0.519535  0.628912  0.126749  1
  Pr  Pr13  1  0.487040  0.376528  0.626341  1
  Pr  Pr14  1  0.628899  0.520609  0.876606  1
  Pr  Pr15  1  0.373599  0.483252  0.372040  1
  Pr  Pr16  1  0.872553  0.019641  0.375378  1
  Pr  Pr17  1  0.982615  0.126885  0.124281  1
  Pr  Pr18  1  0.009522  0.861050  0.620634  1
  Nd  Nd19  1  0.307811  0.308450  0.000220  1
  Si  Si20  1  0.331694  0.694822  0.953314  1
  Si  Si21  1  0.662947  0.302368  0.450308  1
  Si  Si22  1  0.698257  0.333562  0.049358  1
  Si  Si23  1  0.306190  0.669632  0.546318  1
  Si  Si24  1  0.805911  0.831979  0.202564  1
  Si  Si25  1  0.168626  0.196347  0.298692  1
  Si  Si26  1  0.834049  0.804493  0.798767  1
  Si  Si27  1  0.287923  0.922036  0.060510  1
  Si  Si28  1  0.579905  0.787899  0.309520  1
  Si  Si29  1  0.433087  0.209728  0.815805  1
  Si  Si30  1  0.786093  0.578119  0.691577  1
  Si  Si31  1  0.212885  0.421087  0.190432  1
  Si  Si32  1  0.709265  0.079199  0.558678  1
  Si  Si33  1  0.923668  0.289928  0.941262  1
  Si  Si34  1  0.080692  0.713467  0.438570  1
  Hg  Hg35  1  0.190510  0.164681  0.692464  1
