# generated using pymatgen
data_Y3Tm5B24(RuW)2
_symmetry_space_group_name_H-M   'P 1'
_cell_length_a   3.60883700
_cell_length_b   9.18381138
_cell_length_c   11.58365246
_cell_angle_alpha   89.78397057
_cell_angle_beta   90.00000000
_cell_angle_gamma   90.00000000
_symmetry_Int_Tables_number   1
_chemical_formula_structural   Y3Tm5B24(RuW)2
_chemical_formula_sum   'Y3 Tm5 B24 Ru2 W2'
_cell_volume   383.91285482
_cell_formula_units_Z   1
loop_
 _symmetry_equiv_pos_site_id
 _symmetry_equiv_pos_as_xyz
  1  'x, y, z'
loop_
 _atom_site_type_symbol
 _atom_site_label
 _atom_site_symmetry_multiplicity
 _atom_site_fract_x
 _atom_site_fract_y
 _atom_site_fract_z
 _atom_site_occupancy
  Y  Y0  1  0.000000  0.320951  0.413892  1
  Y  Y1  1  0.000000  0.678987  0.586253  1
  Y  Y2  1  0.000000  0.821767  0.086076  1
  Tm  Tm3  1  0.000000  0.178467  0.913713  1
  Tm  Tm4  1  0.000000  0.945477  0.371196  1
  Tm  Tm5  1  0.000000  0.054671  0.628942  1
  Tm  Tm6  1  0.000000  0.441263  0.127442  1
  Tm  Tm7  1  0.000000  0.558177  0.872395  1
  B  B8  1  0.500000  0.551202  0.434439  1
  B  B9  1  0.500000  0.448600  0.565778  1
  B  B10  1  0.500000  0.054487  0.066352  1
  B  B11  1  0.500000  0.946890  0.932876  1
  B  B12  1  0.500000  0.752827  0.420940  1
  B  B13  1  0.500000  0.247250  0.579272  1
  B  B14  1  0.500000  0.248661  0.080723  1
  B  B15  1  0.500000  0.751336  0.918176  1
  B  B16  1  0.500000  0.796372  0.263362  1
  B  B17  1  0.500000  0.203346  0.737610  1
  B  B18  1  0.500000  0.290056  0.232845  1
  B  B19  1  0.500000  0.709976  0.766945  1
  B  B20  1  0.500000  0.631220  0.181120  1
  B  B21  1  0.500000  0.367751  0.819478  1
  B  B22  1  0.500000  0.130215  0.313171  1
  B  B23  1  0.500000  0.870104  0.686863  1
  B  B24  1  0.500000  0.984311  0.211624  1
  B  B25  1  0.500000  0.016730  0.788685  1
  B  B26  1  0.500000  0.477286  0.285370  1
  B  B27  1  0.500000  0.522408  0.714642  1
  B  B28  1  0.500000  0.602247  0.027501  1
  B  B29  1  0.500000  0.396508  0.972198  1
  B  B30  1  0.500000  0.101862  0.470951  1
  B  B31  1  0.500000  0.898244  0.529161  1
  Ru  Ru32  1  0.000000  0.138682  0.177685  1
  Ru  Ru33  1  0.000000  0.862115  0.821824  1
  W  W34  1  0.000000  0.639356  0.318954  1
  W  W35  1  0.000000  0.360196  0.681545  1
