# generated using pymatgen
data_Ba6Pr2Co4O15
_symmetry_space_group_name_H-M   'P 1'
_cell_length_a   11.87188006
_cell_length_b   11.87187924
_cell_length_c   7.10226762
_cell_angle_alpha   89.67331241
_cell_angle_beta   89.67331302
_cell_angle_gamma   119.21750275
_symmetry_Int_Tables_number   1
_chemical_formula_structural   Ba6Pr2Co4O15
_chemical_formula_sum   'Ba12 Pr4 Co8 O30'
_cell_volume   873.59416352
_cell_formula_units_Z   2
loop_
 _symmetry_equiv_pos_site_id
 _symmetry_equiv_pos_as_xyz
  1  'x, y, z'
loop_
 _atom_site_type_symbol
 _atom_site_label
 _atom_site_symmetry_multiplicity
 _atom_site_fract_x
 _atom_site_fract_y
 _atom_site_fract_z
 _atom_site_occupancy
  Ba  Ba0  1  0.665402  0.336686  0.968364  1
  Ba  Ba1  1  0.336686  0.665402  0.468364  1
  Ba  Ba2  1  0.350078  0.177026  0.665420  1
  Ba  Ba3  1  0.815823  0.641929  0.652596  1
  Ba  Ba4  1  0.824417  0.184879  0.660888  1
  Ba  Ba5  1  0.641929  0.815823  0.152596  1
  Ba  Ba6  1  0.177026  0.350078  0.165420  1
  Ba  Ba7  1  0.184879  0.824417  0.160888  1
  Ba  Ba8  1  0.000959  0.998242  0.492764  1
  Ba  Ba9  1  0.998242  0.000959  0.992764  1
  Ba  Ba10  1  0.950826  0.475589  0.320197  1
  Ba  Ba11  1  0.475589  0.950826  0.820197  1
  Pr  Pr12  1  0.523588  0.049643  0.328029  1
  Pr  Pr13  1  0.522517  0.476056  0.326279  1
  Pr  Pr14  1  0.049643  0.523588  0.828029  1
  Pr  Pr15  1  0.476056  0.522517  0.826279  1
  Co  Co16  1  0.354671  0.179358  0.167036  1
  Co  Co17  1  0.823808  0.646378  0.147860  1
  Co  Co18  1  0.822987  0.177819  0.160134  1
  Co  Co19  1  0.646378  0.823808  0.647860  1
  Co  Co20  1  0.179358  0.354671  0.667036  1
  Co  Co21  1  0.177819  0.822987  0.660134  1
  Co  Co22  1  0.664178  0.334717  0.504819  1
  Co  Co23  1  0.334717  0.664178  0.004819  1
  O  O24  1  0.595497  0.662461  0.522544  1
  O  O25  1  0.069839  0.400723  0.556454  1
  O  O26  1  0.325383  0.931110  0.501505  1
  O  O27  1  0.335900  0.399417  0.535639  1
  O  O28  1  0.607865  0.926110  0.499361  1
  O  O29  1  0.065901  0.676202  0.541080  1
  O  O30  1  0.399417  0.335900  0.035639  1
  O  O31  1  0.926110  0.607865  0.999361  1
  O  O32  1  0.676202  0.065901  0.041080  1
  O  O33  1  0.662461  0.595497  0.022544  1
  O  O34  1  0.400723  0.069839  0.056454  1
  O  O35  1  0.931110  0.325383  0.001505  1
  O  O36  1  0.819261  0.410775  0.661243  1
  O  O37  1  0.586967  0.178009  0.647854  1
  O  O38  1  0.583842  0.414310  0.655749  1
  O  O39  1  0.178009  0.586967  0.147854  1
  O  O40  1  0.410775  0.819261  0.161243  1
  O  O41  1  0.414310  0.583842  0.155749  1
  O  O42  1  0.498892  0.253505  0.343190  1
  O  O43  1  0.737059  0.499880  0.329923  1
  O  O44  1  0.737672  0.242348  0.334956  1
  O  O45  1  0.499880  0.737059  0.829923  1
  O  O46  1  0.253505  0.498892  0.843190  1
  O  O47  1  0.242348  0.737672  0.834956  1
  O  O48  1  0.802761  0.891701  0.756737  1
  O  O49  1  0.108487  0.189343  0.750510  1
  O  O50  1  0.124255  0.925772  0.770660  1
  O  O51  1  0.189343  0.108487  0.250510  1
  O  O52  1  0.891701  0.802761  0.256737  1
  O  O53  1  0.925772  0.124255  0.270660  1
