# generated using pymatgen
data_Y3Ag2Hg3Rh
_symmetry_space_group_name_H-M   'P 1'
_cell_length_a   8.01453800
_cell_length_b   8.01453843
_cell_length_c   3.69113800
_cell_angle_alpha   90.00000000
_cell_angle_beta   90.00000000
_cell_angle_gamma   119.99999824
_symmetry_Int_Tables_number   1
_chemical_formula_structural   Y3Ag2Hg3Rh
_chemical_formula_sum   'Y3 Ag2 Hg3 Rh1'
_cell_volume   205.32788312
_cell_formula_units_Z   1
loop_
 _symmetry_equiv_pos_site_id
 _symmetry_equiv_pos_as_xyz
  1  'x, y, z'
loop_
 _atom_site_type_symbol
 _atom_site_label
 _atom_site_symmetry_multiplicity
 _atom_site_fract_x
 _atom_site_fract_y
 _atom_site_fract_z
 _atom_site_occupancy
  Y  Y0  1  0.968553  0.586329  0.500000  1
  Y  Y1  1  0.413671  0.382224  0.500000  1
  Y  Y2  1  0.617776  0.031447  0.500000  1
  Ag  Ag3  1  0.333333  0.666667  0.000000  1
  Ag  Ag4  1  0.000000  0.000000  0.500000  1
  Hg  Hg5  1  0.007339  0.282370  0.000000  1
  Hg  Hg6  1  0.275031  0.992661  0.000000  1
  Hg  Hg7  1  0.717630  0.724969  0.000000  1
  Rh  Rh8  1  0.666667  0.333333  0.000000  1
