# generated using pymatgen
data_CeSm3(Ta3Si4)2
_symmetry_space_group_name_H-M   'P 1'
_cell_length_a   6.93254573
_cell_length_b   7.13713151
_cell_length_c   13.47216861
_cell_angle_alpha   90.04044118
_cell_angle_beta   90.19134261
_cell_angle_gamma   90.01552330
_symmetry_Int_Tables_number   1
_chemical_formula_structural   CeSm3(Ta3Si4)2
_chemical_formula_sum   'Ce2 Sm6 Ta12 Si16'
_cell_volume   666.57866005
_cell_formula_units_Z   2
loop_
 _symmetry_equiv_pos_site_id
 _symmetry_equiv_pos_as_xyz
  1  'x, y, z'
loop_
 _atom_site_type_symbol
 _atom_site_label
 _atom_site_symmetry_multiplicity
 _atom_site_fract_x
 _atom_site_fract_y
 _atom_site_fract_z
 _atom_site_occupancy
  Ce  Ce0  1  0.006127  0.168845  0.095093  1
  Ce  Ce1  1  0.993873  0.831155  0.904907  1
  Sm  Sm2  1  0.495576  0.669909  0.903438  1
  Sm  Sm3  1  0.994412  0.829928  0.595886  1
  Sm  Sm4  1  0.504424  0.330091  0.096562  1
  Sm  Sm5  1  0.005588  0.170072  0.404114  1
  Sm  Sm6  1  0.504798  0.329649  0.404619  1
  Sm  Sm7  1  0.495202  0.670351  0.595381  1
  Ta  Ta8  1  0.159910  0.490102  0.750924  1
  Ta  Ta9  1  0.840090  0.509898  0.249076  1
  Ta  Ta10  1  0.339402  0.988576  0.249465  1
  Ta  Ta11  1  0.660598  0.011424  0.750535  1
  Ta  Ta12  1  0.336187  0.175050  0.626416  1
  Ta  Ta13  1  0.663813  0.824950  0.373584  1
  Ta  Ta14  1  0.164089  0.674261  0.373652  1
  Ta  Ta15  1  0.666091  0.826942  0.125663  1
  Ta  Ta16  1  0.835911  0.325739  0.626348  1
  Ta  Ta17  1  0.333909  0.173058  0.874337  1
  Ta  Ta18  1  0.836657  0.325028  0.874268  1
  Ta  Ta19  1  0.163343  0.674972  0.125732  1
  Si  Si20  1  0.037944  0.124853  0.749920  1
  Si  Si21  1  0.962056  0.875147  0.250080  1
  Si  Si22  1  0.461145  0.625839  0.249927  1
  Si  Si23  1  0.538855  0.374161  0.750073  1
  Si  Si24  1  0.294542  0.879076  0.749685  1
  Si  Si25  1  0.705458  0.120924  0.250315  1
  Si  Si26  1  0.203983  0.378345  0.249991  1
  Si  Si27  1  0.796017  0.621655  0.750009  1
  Si  Si28  1  0.159741  0.461658  0.542777  1
  Si  Si29  1  0.840259  0.538342  0.457223  1
  Si  Si30  1  0.340247  0.961640  0.457358  1
  Si  Si31  1  0.839072  0.539059  0.043064  1
  Si  Si32  1  0.659753  0.038360  0.542642  1
  Si  Si33  1  0.160928  0.460941  0.956936  1
  Si  Si34  1  0.659951  0.039548  0.957057  1
  Si  Si35  1  0.340049  0.960452  0.042943  1
