# generated using pymatgen
data_Pr8Ir3OsO24
_symmetry_space_group_name_H-M   'P 1'
_cell_length_a   5.48300461
_cell_length_b   9.47729647
_cell_length_c   10.24399721
_cell_angle_alpha   90.08274343
_cell_angle_beta   90.09914790
_cell_angle_gamma   89.75586415
_symmetry_Int_Tables_number   1
_chemical_formula_structural   Pr8Ir3OsO24
_chemical_formula_sum   'Pr8 Ir3 Os1 O24'
_cell_volume   532.31350931
_cell_formula_units_Z   1
loop_
 _symmetry_equiv_pos_site_id
 _symmetry_equiv_pos_as_xyz
  1  'x, y, z'
loop_
 _atom_site_type_symbol
 _atom_site_label
 _atom_site_symmetry_multiplicity
 _atom_site_fract_x
 _atom_site_fract_y
 _atom_site_fract_z
 _atom_site_occupancy
  Pr  Pr0  1  0.033912  0.218453  0.134750  1
  Pr  Pr1  1  0.465776  0.784789  0.633381  1
  Pr  Pr2  1  0.968216  0.718261  0.364216  1
  Pr  Pr3  1  0.536082  0.278793  0.870125  1
  Pr  Pr4  1  0.023746  0.099576  0.537473  1
  Pr  Pr5  1  0.475198  0.898762  0.038225  1
  Pr  Pr6  1  0.973602  0.604749  0.965858  1
  Pr  Pr7  1  0.528547  0.395746  0.456704  1
  Ir  Ir8  1  0.543619  0.003240  0.357749  1
  Ir  Ir9  1  0.956293  0.997155  0.857234  1
  Ir  Ir10  1  0.455778  0.503613  0.140928  1
  Os  Os11  1  0.044604  0.496302  0.645145  1
  O  O12  1  0.433988  0.149565  0.481558  1
  O  O13  1  0.064600  0.851839  0.980756  1
  O  O14  1  0.562441  0.649861  0.018879  1
  O  O15  1  0.937266  0.350697  0.523180  1
  O  O16  1  0.726345  0.388349  0.063519  1
  O  O17  1  0.784388  0.607546  0.566739  1
  O  O18  1  0.274584  0.887957  0.434553  1
  O  O19  1  0.225003  0.113113  0.933741  1
  O  O20  1  0.247577  0.412506  0.003902  1
  O  O21  1  0.252195  0.586749  0.509128  1
  O  O22  1  0.751027  0.909430  0.494727  1
  O  O23  1  0.748187  0.089531  0.993876  1
  O  O24  1  0.182705  0.632877  0.178911  1
  O  O25  1  0.306530  0.370775  0.677475  1
  O  O26  1  0.813417  0.134004  0.322205  1
  O  O27  1  0.685843  0.867591  0.819989  1
  O  O28  1  0.337562  0.057792  0.215227  1
  O  O29  1  0.160726  0.939143  0.714898  1
  O  O30  1  0.662293  0.557257  0.285135  1
  O  O31  1  0.835010  0.446083  0.781282  1
  O  O32  1  0.323846  0.360931  0.256508  1
  O  O33  1  0.176000  0.635105  0.758247  1
  O  O34  1  0.678906  0.861415  0.241991  1
  O  O35  1  0.824189  0.140443  0.741790  1
