# generated using pymatgen
data_Os2NF8
_symmetry_space_group_name_H-M   'P 1'
_cell_length_a   5.37393306
_cell_length_b   5.44423524
_cell_length_c   6.33095359
_cell_angle_alpha   87.72618077
_cell_angle_beta   100.11608554
_cell_angle_gamma   98.69325508
_symmetry_Int_Tables_number   1
_chemical_formula_structural   Os2NF8
_chemical_formula_sum   'Os2 N1 F8'
_cell_volume   180.23367560
_cell_formula_units_Z   1
loop_
 _symmetry_equiv_pos_site_id
 _symmetry_equiv_pos_as_xyz
  1  'x, y, z'
loop_
 _atom_site_type_symbol
 _atom_site_label
 _atom_site_symmetry_multiplicity
 _atom_site_fract_x
 _atom_site_fract_y
 _atom_site_fract_z
 _atom_site_occupancy
  Os  Os0  1  0.056939  0.398980  0.753592  1
  Os  Os1  1  0.943061  0.601020  0.246408  1
  N  N2  1  0.000000  0.500000  0.000000  1
  F  F3  1  0.618433  0.408499  0.238454  1
  F  F4  1  0.901807  0.673636  0.566518  1
  F  F5  1  0.257938  0.808033  0.321439  1
  F  F6  1  0.786537  0.879251  0.138728  1
  F  F7  1  0.213463  0.120749  0.861272  1
  F  F8  1  0.381567  0.591501  0.761546  1
  F  F9  1  0.098193  0.326364  0.433482  1
  F  F10  1  0.742062  0.191967  0.678561  1
