# generated using pymatgen
data_Ho8Hf3Sc9Ga16
_symmetry_space_group_name_H-M   'P 1'
_cell_length_a   7.21441039
_cell_length_b   7.52719306
_cell_length_c   14.39911175
_cell_angle_alpha   90.00953369
_cell_angle_beta   90.03583914
_cell_angle_gamma   89.98909999
_symmetry_Int_Tables_number   1
_chemical_formula_structural   Ho8Hf3Sc9Ga16
_chemical_formula_sum   'Ho8 Hf3 Sc9 Ga16'
_cell_volume   781.93292745
_cell_formula_units_Z   1
loop_
 _symmetry_equiv_pos_site_id
 _symmetry_equiv_pos_as_xyz
  1  'x, y, z'
loop_
 _atom_site_type_symbol
 _atom_site_label
 _atom_site_symmetry_multiplicity
 _atom_site_fract_x
 _atom_site_fract_y
 _atom_site_fract_z
 _atom_site_occupancy
  Ho  Ho0  1  0.011158  0.179262  0.093787  1
  Ho  Ho1  1  0.989104  0.820198  0.905881  1
  Ho  Ho2  1  0.489208  0.679216  0.905780  1
  Ho  Ho3  1  0.989065  0.821473  0.593702  1
  Ho  Ho4  1  0.511035  0.320771  0.093770  1
  Ho  Ho5  1  0.010968  0.178377  0.406199  1
  Ho  Ho6  1  0.510547  0.322247  0.405897  1
  Ho  Ho7  1  0.489071  0.678482  0.593989  1
  Hf  Hf8  1  0.329401  0.172910  0.624717  1
  Hf  Hf9  1  0.671191  0.825651  0.376190  1
  Hf  Hf10  1  0.170991  0.673734  0.376344  1
  Sc  Sc11  1  0.162754  0.503807  0.750310  1
  Sc  Sc12  1  0.837700  0.496083  0.249488  1
  Sc  Sc13  1  0.337550  0.003692  0.249712  1
  Sc  Sc14  1  0.662312  0.996292  0.750256  1
  Sc  Sc15  1  0.670839  0.828461  0.123798  1
  Sc  Sc16  1  0.828409  0.326758  0.623727  1
  Sc  Sc17  1  0.329396  0.171947  0.875717  1
  Sc  Sc18  1  0.828836  0.328350  0.876114  1
  Sc  Sc19  1  0.170817  0.671750  0.123818  1
  Ga  Ga20  1  0.031533  0.117204  0.748529  1
  Ga  Ga21  1  0.969127  0.881519  0.251980  1
  Ga  Ga22  1  0.469146  0.618339  0.251988  1
  Ga  Ga23  1  0.529958  0.382147  0.748827  1
  Ga  Ga24  1  0.284099  0.872030  0.748378  1
  Ga  Ga25  1  0.716121  0.127447  0.251656  1
  Ga  Ga26  1  0.216063  0.372371  0.251672  1
  Ga  Ga27  1  0.783334  0.629252  0.749210  1
  Ga  Ga28  1  0.163477  0.463877  0.540050  1
  Ga  Ga29  1  0.838680  0.537884  0.458363  1
  Ga  Ga30  1  0.338015  0.963322  0.459455  1
  Ga  Ga31  1  0.838350  0.535551  0.041082  1
  Ga  Ga32  1  0.659982  0.035244  0.540213  1
  Ga  Ga33  1  0.162096  0.464408  0.959196  1
  Ga  Ga34  1  0.661374  0.035577  0.959083  1
  Ga  Ga35  1  0.338292  0.964366  0.041122  1
