# generated using pymatgen
data_Sr2Si4Ir5Pt
_symmetry_space_group_name_H-M   'P 1'
_cell_length_a   5.67081419
_cell_length_b   6.73986731
_cell_length_c   6.74560500
_cell_angle_alpha   64.93139550
_cell_angle_beta   65.08044790
_cell_angle_gamma   65.18564885
_symmetry_Int_Tables_number   1
_chemical_formula_structural   Sr2Si4Ir5Pt
_chemical_formula_sum   'Sr2 Si4 Ir5 Pt1'
_cell_volume   202.46057951
_cell_formula_units_Z   1
loop_
 _symmetry_equiv_pos_site_id
 _symmetry_equiv_pos_as_xyz
  1  'x, y, z'
loop_
 _atom_site_type_symbol
 _atom_site_label
 _atom_site_symmetry_multiplicity
 _atom_site_fract_x
 _atom_site_fract_y
 _atom_site_fract_z
 _atom_site_occupancy
  Sr  Sr0  1  0.520275  0.747642  0.752358  1
  Sr  Sr1  1  0.479725  0.252358  0.247642  1
  Si  Si2  1  0.223531  0.572596  0.578356  1
  Si  Si3  1  0.776469  0.427404  0.421644  1
  Si  Si4  1  0.125516  0.078356  0.072596  1
  Si  Si5  1  0.874484  0.921644  0.927404  1
  Ir  Ir6  1  0.502746  0.218526  0.779722  1
  Ir  Ir7  1  0.000994  0.720278  0.281474  1
  Ir  Ir8  1  0.497254  0.781474  0.220278  1
  Ir  Ir9  1  0.999006  0.279722  0.718526  1
  Ir  Ir10  1  0.000000  0.500000  0.000000  1
  Pt  Pt11  1  0.000000  0.000000  0.500000  1
