# generated using pymatgen
data_TmNp2Ga2Ge3
_symmetry_space_group_name_H-M   'P 1'
_cell_length_a   7.77837219
_cell_length_b   7.77837236
_cell_length_c   7.77837224
_cell_angle_alpha   120.42844840
_cell_angle_beta   120.42844500
_cell_angle_gamma   89.25949198
_symmetry_Int_Tables_number   1
_chemical_formula_structural   TmNp2Ga2Ge3
_chemical_formula_sum   'Tm2 Np4 Ga4 Ge6'
_cell_volume   330.59040709
_cell_formula_units_Z   2
loop_
 _symmetry_equiv_pos_site_id
 _symmetry_equiv_pos_as_xyz
  1  'x, y, z'
loop_
 _atom_site_type_symbol
 _atom_site_label
 _atom_site_symmetry_multiplicity
 _atom_site_fract_x
 _atom_site_fract_y
 _atom_site_fract_z
 _atom_site_occupancy
  Tm  Tm0  1  0.740148  0.740148  0.000000  1
  Tm  Tm1  1  0.240148  0.240148  0.000000  1
  Np  Np2  1  0.657209  0.157209  0.805832  1
  Np  Np3  1  0.351377  0.851377  0.194168  1
  Np  Np4  1  0.851377  0.657209  0.500000  1
  Np  Np5  1  0.157209  0.351377  0.500000  1
  Ga  Ga6  1  0.959637  0.459637  0.783717  1
  Ga  Ga7  1  0.675921  0.175921  0.216283  1
  Ga  Ga8  1  0.175921  0.959637  0.500000  1
  Ga  Ga9  1  0.459637  0.675921  0.500000  1
  Ge  Ge10  1  0.488032  0.488032  0.000000  1
  Ge  Ge11  1  0.988032  0.988032  0.000000  1
  Ge  Ge12  1  0.038355  0.538355  0.199035  1
  Ge  Ge13  1  0.339322  0.839322  0.800965  1
  Ge  Ge14  1  0.839322  0.038355  0.500000  1
  Ge  Ge15  1  0.538355  0.339322  0.500000  1
