# generated using pymatgen
data_Pr4Y6BiPb7
_symmetry_space_group_name_H-M   'P 1'
_cell_length_a   8.32054300
_cell_length_b   8.40579831
_cell_length_c   15.81440600
_cell_angle_alpha   90.07022073
_cell_angle_beta   90.00000000
_cell_angle_gamma   90.00000000
_symmetry_Int_Tables_number   1
_chemical_formula_structural   Pr4Y6BiPb7
_chemical_formula_sum   'Pr8 Y12 Bi2 Pb14'
_cell_volume   1106.07147630
_cell_formula_units_Z   2
loop_
 _symmetry_equiv_pos_site_id
 _symmetry_equiv_pos_as_xyz
  1  'x, y, z'
loop_
 _atom_site_type_symbol
 _atom_site_label
 _atom_site_symmetry_multiplicity
 _atom_site_fract_x
 _atom_site_fract_y
 _atom_site_fract_z
 _atom_site_occupancy
  Pr  Pr0  1  0.473708  0.675934  0.598499  1
  Pr  Pr1  1  0.973708  0.824066  0.901501  1
  Pr  Pr2  1  0.528395  0.322236  0.098593  1
  Pr  Pr3  1  0.028395  0.177764  0.401407  1
  Pr  Pr4  1  0.525042  0.324999  0.402080  1
  Pr  Pr5  1  0.025042  0.175001  0.097920  1
  Pr  Pr6  1  0.476903  0.678239  0.901162  1
  Pr  Pr7  1  0.976903  0.821761  0.598838  1
  Y  Y8  1  0.633341  0.159189  0.623273  1
  Y  Y9  1  0.133341  0.340811  0.876727  1
  Y  Y10  1  0.367566  0.844357  0.122932  1
  Y  Y11  1  0.867566  0.655643  0.377068  1
  Y  Y12  1  0.362762  0.841321  0.377518  1
  Y  Y13  1  0.862762  0.658679  0.122482  1
  Y  Y14  1  0.633986  0.157834  0.877401  1
  Y  Y15  1  0.133986  0.342166  0.622599  1
  Y  Y16  1  0.800193  0.495971  0.750556  1
  Y  Y17  1  0.300193  0.004029  0.749444  1
  Y  Y18  1  0.200350  0.503517  0.251230  1
  Y  Y19  1  0.700350  0.996483  0.248770  1
  Bi  Bi20  1  0.706653  0.959811  0.455932  1
  Bi  Bi21  1  0.206653  0.540189  0.044068  1
  Pb  Pb22  1  0.292927  0.039828  0.956553  1
  Pb  Pb23  1  0.792927  0.460172  0.543447  1
  Pb  Pb24  1  0.291325  0.039907  0.543578  1
  Pb  Pb25  1  0.791325  0.460093  0.956422  1
  Pb  Pb26  1  0.706209  0.960527  0.043586  1
  Pb  Pb27  1  0.206209  0.539473  0.456414  1
  Pb  Pb28  1  0.438019  0.370424  0.750623  1
  Pb  Pb29  1  0.938019  0.129576  0.749377  1
  Pb  Pb30  1  0.561306  0.629872  0.250446  1
  Pb  Pb31  1  0.061306  0.870128  0.249554  1
  Pb  Pb32  1  0.663913  0.850292  0.749525  1
  Pb  Pb33  1  0.163913  0.649708  0.750475  1
  Pb  Pb34  1  0.337401  0.150207  0.250072  1
  Pb  Pb35  1  0.837401  0.349793  0.249928  1
