# generated using pymatgen
data_V4Pt3Rh
_symmetry_space_group_name_H-M   'P 1'
_cell_length_a   5.43809699
_cell_length_b   5.43809626
_cell_length_c   3.83138900
_cell_angle_alpha   90.00000000
_cell_angle_beta   90.00000000
_cell_angle_gamma   89.96145930
_symmetry_Int_Tables_number   1
_chemical_formula_structural   V4Pt3Rh
_chemical_formula_sum   'V4 Pt3 Rh1'
_cell_volume   113.30523857
_cell_formula_units_Z   1
loop_
 _symmetry_equiv_pos_site_id
 _symmetry_equiv_pos_as_xyz
  1  'x, y, z'
loop_
 _atom_site_type_symbol
 _atom_site_label
 _atom_site_symmetry_multiplicity
 _atom_site_fract_x
 _atom_site_fract_y
 _atom_site_fract_z
 _atom_site_occupancy
  V  V0  1  0.996183  0.996183  0.000000  1
  V  V1  1  0.503903  0.503903  0.000000  1
  V  V2  1  0.249749  0.750232  0.500000  1
  V  V3  1  0.750232  0.249749  0.500000  1
  Pt  Pt4  1  0.500597  0.999718  0.000000  1
  Pt  Pt5  1  0.999718  0.500597  0.000000  1
  Pt  Pt6  1  0.250102  0.250102  0.500000  1
  Rh  Rh7  1  0.749516  0.749516  0.500000  1
