# generated using pymatgen
data_Tb7Nd6Ho3Cd4(IrPt)2
_symmetry_space_group_name_H-M   'P 1'
_cell_length_a   9.78358897
_cell_length_b   9.78340632
_cell_length_c   9.75495699
_cell_angle_alpha   60.04924563
_cell_angle_beta   59.99654326
_cell_angle_gamma   60.30886765
_symmetry_Int_Tables_number   1
_chemical_formula_structural   Tb7Nd6Ho3Cd4(IrPt)2
_chemical_formula_sum   'Tb7 Nd6 Ho3 Cd4 Ir2 Pt2'
_cell_volume   661.99222581
_cell_formula_units_Z   1
loop_
 _symmetry_equiv_pos_site_id
 _symmetry_equiv_pos_as_xyz
  1  'x, y, z'
loop_
 _atom_site_type_symbol
 _atom_site_label
 _atom_site_symmetry_multiplicity
 _atom_site_fract_x
 _atom_site_fract_y
 _atom_site_fract_z
 _atom_site_occupancy
  Tb  Tb0  1  0.348411  0.348207  0.347993  1
  Tb  Tb1  1  0.350961  0.350000  0.953904  1
  Tb  Tb2  1  0.356602  0.946153  0.350351  1
  Tb  Tb3  1  0.945913  0.356380  0.350774  1
  Tb  Tb4  1  0.809517  0.189495  0.184929  1
  Tb  Tb5  1  0.186104  0.809019  0.815267  1
  Tb  Tb6  1  0.189393  0.809155  0.186055  1
  Nd  Nd7  1  0.940476  0.563054  0.559255  1
  Nd  Nd8  1  0.559988  0.941858  0.939162  1
  Nd  Nd9  1  0.563341  0.940981  0.559040  1
  Nd  Nd10  1  0.941655  0.559261  0.939878  1
  Nd  Nd11  1  0.560514  0.559641  0.940425  1
  Nd  Nd12  1  0.940807  0.941294  0.558690  1
  Ho  Ho13  1  0.808800  0.186702  0.815020  1
  Ho  Ho14  1  0.187754  0.188481  0.811957  1
  Ho  Ho15  1  0.813509  0.813895  0.181396  1
  Cd  Cd16  1  0.580495  0.579390  0.579206  1
  Cd  Cd17  1  0.579238  0.579633  0.259749  1
  Cd  Cd18  1  0.578709  0.260523  0.580200  1
  Cd  Cd19  1  0.259877  0.578599  0.580463  1
  Ir  Ir20  1  0.140142  0.573965  0.144510  1
  Ir  Ir21  1  0.574950  0.139957  0.143251  1
  Pt  Pt22  1  0.142895  0.142454  0.144590  1
  Pt  Pt23  1  0.139948  0.141903  0.573935  1
