# generated using pymatgen
data_HoTm2Fe7B2
_symmetry_space_group_name_H-M   'P 1'
_cell_length_a   7.75366401
_cell_length_b   7.75366453
_cell_length_c   7.75366400
_cell_angle_alpha   38.36607624
_cell_angle_beta   38.36607274
_cell_angle_gamma   38.36607769
_symmetry_Int_Tables_number   1
_chemical_formula_structural   HoTm2Fe7B2
_chemical_formula_sum   'Ho1 Tm2 Fe7 B2'
_cell_volume   161.30940686
_cell_formula_units_Z   1
loop_
 _symmetry_equiv_pos_site_id
 _symmetry_equiv_pos_as_xyz
  1  'x, y, z'
loop_
 _atom_site_type_symbol
 _atom_site_label
 _atom_site_symmetry_multiplicity
 _atom_site_fract_x
 _atom_site_fract_y
 _atom_site_fract_z
 _atom_site_occupancy
  Ho  Ho0  1  0.643667  0.643667  0.643667  1
  Tm  Tm1  1  0.356384  0.356384  0.356384  1
  Tm  Tm2  1  0.499963  0.499963  0.499963  1
  Fe  Fe3  1  0.000021  0.000021  0.000021  1
  Fe  Fe4  1  0.573082  0.067048  0.067050  1
  Fe  Fe5  1  0.067048  0.573082  0.067050  1
  Fe  Fe6  1  0.933003  0.933003  0.426787  1
  Fe  Fe7  1  0.067049  0.067049  0.573083  1
  Fe  Fe8  1  0.933003  0.426788  0.933002  1
  Fe  Fe9  1  0.426788  0.933003  0.933002  1
  B  B10  1  0.167899  0.167899  0.167899  1
  B  B11  1  0.832093  0.832093  0.832093  1
