# generated using pymatgen
data_HfZr2Re3Si2As
_symmetry_space_group_name_H-M   'P 1'
_cell_length_a   6.98758809
_cell_length_b   6.97304817
_cell_length_c   3.46951300
_cell_angle_alpha   90.00000000
_cell_angle_beta   90.00000000
_cell_angle_gamma   119.94489312
_symmetry_Int_Tables_number   1
_chemical_formula_structural   HfZr2Re3Si2As
_chemical_formula_sum   'Hf1 Zr2 Re3 Si2 As1'
_cell_volume   146.48393734
_cell_formula_units_Z   1
loop_
 _symmetry_equiv_pos_site_id
 _symmetry_equiv_pos_as_xyz
  1  'x, y, z'
loop_
 _atom_site_type_symbol
 _atom_site_label
 _atom_site_symmetry_multiplicity
 _atom_site_fract_x
 _atom_site_fract_y
 _atom_site_fract_z
 _atom_site_occupancy
  Hf  Hf0  1  0.007266  0.602121  0.500000  1
  Zr  Zr1  1  0.400762  0.406146  0.500000  1
  Zr  Zr2  1  0.592410  0.992541  0.500000  1
  Re  Re3  1  0.746680  0.750461  0.000000  1
  Re  Re4  1  0.247459  0.992453  0.000000  1
  Re  Re5  1  0.005433  0.255912  0.000000  1
  Si  Si6  1  0.332004  0.665567  0.000000  1
  Si  Si7  1  0.999709  0.000877  0.500000  1
  As  As8  1  0.668278  0.333921  0.000000  1
