# generated using pymatgen
data_PrNd3Pt4F28
_symmetry_space_group_name_H-M   'P 1'
_cell_length_a   5.68206911
_cell_length_b   9.20347464
_cell_length_c   12.32718971
_cell_angle_alpha   61.89962816
_cell_angle_beta   90.01620936
_cell_angle_gamma   90.02098782
_symmetry_Int_Tables_number   1
_chemical_formula_structural   PrNd3Pt4F28
_chemical_formula_sum   'Pr1 Nd3 Pt4 F28'
_cell_volume   568.65900767
_cell_formula_units_Z   1
loop_
 _symmetry_equiv_pos_site_id
 _symmetry_equiv_pos_as_xyz
  1  'x, y, z'
loop_
 _atom_site_type_symbol
 _atom_site_label
 _atom_site_symmetry_multiplicity
 _atom_site_fract_x
 _atom_site_fract_y
 _atom_site_fract_z
 _atom_site_occupancy
  Pr  Pr0  1  0.739340  0.811368  0.264232  1
  Nd  Nd1  1  0.760757  0.811774  0.764066  1
  Nd  Nd2  1  0.260819  0.188234  0.735960  1
  Nd  Nd3  1  0.239298  0.188861  0.235849  1
  Pt  Pt4  1  0.756852  0.273756  0.957260  1
  Pt  Pt5  1  0.256690  0.726566  0.542988  1
  Pt  Pt6  1  0.243226  0.726514  0.042066  1
  Pt  Pt7  1  0.743213  0.272790  0.457691  1
  F  F8  1  0.432729  0.707360  0.915735  1
  F  F9  1  0.932549  0.292584  0.584015  1
  F  F10  1  0.567626  0.292662  0.083909  1
  F  F11  1  0.068375  0.707021  0.416377  1
  F  F12  1  0.449581  0.281540  0.540064  1
  F  F13  1  0.949213  0.718417  0.959851  1
  F  F14  1  0.550009  0.717958  0.460793  1
  F  F15  1  0.050433  0.281678  0.039952  1
  F  F16  1  0.766109  0.515759  0.861235  1
  F  F17  1  0.266066  0.484396  0.638782  1
  F  F18  1  0.233916  0.484549  0.138622  1
  F  F19  1  0.733885  0.514545  0.361592  1
  F  F20  1  0.757391  0.031556  0.048889  1
  F  F21  1  0.257436  0.968833  0.450606  1
  F  F22  1  0.242661  0.968899  0.950457  1
  F  F23  1  0.742641  0.030649  0.549673  1
  F  F24  1  0.967755  0.728499  0.630363  1
  F  F25  1  0.468028  0.271568  0.869670  1
  F  F26  1  0.031883  0.271545  0.369791  1
  F  F27  1  0.531655  0.728096  0.129783  1
  F  F28  1  0.059076  0.741465  0.171778  1
  F  F29  1  0.557782  0.258091  0.328014  1
  F  F30  1  0.942346  0.258181  0.827917  1
  F  F31  1  0.442388  0.741901  0.672211  1
  F  F32  1  0.404220  0.967888  0.230971  1
  F  F33  1  0.907120  0.034489  0.268842  1
  F  F34  1  0.593449  0.032939  0.768762  1
  F  F35  1  0.093487  0.967070  0.731237  1
