# generated using pymatgen
data_Ga6CoTc
_symmetry_space_group_name_H-M   'P 1'
_cell_length_a   6.41742200
_cell_length_b   6.45381900
_cell_length_c   6.77182200
_cell_angle_alpha   90.00000000
_cell_angle_beta   90.00000000
_cell_angle_gamma   90.00000000
_symmetry_Int_Tables_number   1
_chemical_formula_structural   Ga6CoTc
_chemical_formula_sum   'Ga12 Co2 Tc2'
_cell_volume   280.46773939
_cell_formula_units_Z   2
loop_
 _symmetry_equiv_pos_site_id
 _symmetry_equiv_pos_as_xyz
  1  'x, y, z'
loop_
 _atom_site_type_symbol
 _atom_site_label
 _atom_site_symmetry_multiplicity
 _atom_site_fract_x
 _atom_site_fract_y
 _atom_site_fract_z
 _atom_site_occupancy
  Ga  Ga0  1  0.496115  0.995790  0.000000  1
  Ga  Ga1  1  0.492483  0.006727  0.500000  1
  Ga  Ga2  1  0.007517  0.506727  0.000000  1
  Ga  Ga3  1  0.003885  0.495790  0.500000  1
  Ga  Ga4  1  0.652681  0.345370  0.737194  1
  Ga  Ga5  1  0.847319  0.845370  0.762806  1
  Ga  Ga6  1  0.158717  0.158578  0.761695  1
  Ga  Ga7  1  0.341283  0.658578  0.738305  1
  Ga  Ga8  1  0.341283  0.658578  0.261695  1
  Ga  Ga9  1  0.652681  0.345370  0.262806  1
  Ga  Ga10  1  0.847319  0.845370  0.237194  1
  Ga  Ga11  1  0.158717  0.158578  0.238305  1
  Co  Co12  1  0.335896  0.336727  0.500000  1
  Co  Co13  1  0.164104  0.836727  0.000000  1
  Tc  Tc14  1  0.849896  0.152859  0.000000  1
  Tc  Tc15  1  0.650104  0.652859  0.500000  1
