# generated using pymatgen
data_ErTm2PuB16
_symmetry_space_group_name_H-M   'P 1'
_cell_length_a   7.06944814
_cell_length_b   7.06997433
_cell_length_c   3.99466900
_cell_angle_alpha   90.00000000
_cell_angle_beta   90.00000000
_cell_angle_gamma   90.29610698
_symmetry_Int_Tables_number   1
_chemical_formula_structural   ErTm2PuB16
_chemical_formula_sum   'Er1 Tm2 Pu1 B16'
_cell_volume   199.65415371
_cell_formula_units_Z   1
loop_
 _symmetry_equiv_pos_site_id
 _symmetry_equiv_pos_as_xyz
  1  'x, y, z'
loop_
 _atom_site_type_symbol
 _atom_site_label
 _atom_site_symmetry_multiplicity
 _atom_site_fract_x
 _atom_site_fract_y
 _atom_site_fract_z
 _atom_site_occupancy
  Er  Er0  1  0.683337  0.817662  0.000000  1
  Tm  Tm1  1  0.183030  0.683031  0.000000  1
  Tm  Tm2  1  0.317710  0.182966  0.000000  1
  Pu  Pu3  1  0.814180  0.314179  0.000000  1
  B  B4  1  0.322171  0.462294  0.500000  1
  B  B5  1  0.676626  0.538640  0.500000  1
  B  B6  1  0.537624  0.323705  0.500000  1
  B  B7  1  0.460561  0.677372  0.500000  1
  B  B8  1  0.001849  0.998739  0.201778  1
  B  B9  1  0.498338  0.501370  0.798222  1
  B  B10  1  0.001849  0.998739  0.798222  1
  B  B11  1  0.498338  0.501370  0.201778  1
  B  B12  1  0.587829  0.087994  0.500000  1
  B  B13  1  0.086153  0.413916  0.500000  1
  B  B14  1  0.913852  0.586224  0.500000  1
  B  B15  1  0.413318  0.913476  0.500000  1
  B  B16  1  0.039003  0.176887  0.500000  1
  B  B17  1  0.177631  0.960963  0.500000  1
  B  B18  1  0.823973  0.038027  0.500000  1
  B  B19  1  0.962629  0.822445  0.500000  1
