# generated using pymatgen
data_Sm2Fe10Co2P7
_symmetry_space_group_name_H-M   'P 1'
_cell_length_a   9.03285046
_cell_length_b   9.01006207
_cell_length_c   3.65370200
_cell_angle_alpha   90.00000000
_cell_angle_beta   90.00000000
_cell_angle_gamma   120.04697103
_symmetry_Int_Tables_number   1
_chemical_formula_structural   Sm2Fe10Co2P7
_chemical_formula_sum   'Sm2 Fe10 Co2 P7'
_cell_volume   257.40122351
_cell_formula_units_Z   1
loop_
 _symmetry_equiv_pos_site_id
 _symmetry_equiv_pos_as_xyz
  1  'x, y, z'
loop_
 _atom_site_type_symbol
 _atom_site_label
 _atom_site_symmetry_multiplicity
 _atom_site_fract_x
 _atom_site_fract_y
 _atom_site_fract_z
 _atom_site_occupancy
  Sm  Sm0  1  0.334226  0.666656  0.000000  1
  Sm  Sm1  1  0.666595  0.333404  0.500000  1
  Fe  Fe2  1  0.942918  0.573156  0.000000  1
  Fe  Fe3  1  0.151175  0.879378  0.000000  1
  Fe  Fe4  1  0.119327  0.271526  0.000000  1
  Fe  Fe5  1  0.727825  0.847085  0.000000  1
  Fe  Fe6  1  0.384475  0.951596  0.500000  1
  Fe  Fe7  1  0.048527  0.432830  0.500000  1
  Fe  Fe8  1  0.566672  0.614251  0.500000  1
  Fe  Fe9  1  0.219463  0.120433  0.500000  1
  Fe  Fe10  1  0.878492  0.099087  0.500000  1
  Fe  Fe11  1  0.902395  0.784193  0.500000  1
  Co  Co12  1  0.428144  0.368919  0.000000  1
  Co  Co13  1  0.630542  0.059280  0.000000  1
  P  P14  1  0.405234  0.106715  0.000000  1
  P  P15  1  0.893401  0.299712  0.000000  1
  P  P16  1  0.702732  0.594404  0.000000  1
  P  P17  1  0.109758  0.710873  0.500000  1
  P  P18  1  0.286713  0.397771  0.500000  1
  P  P19  1  0.601776  0.888703  0.500000  1
  P  P20  1  0.999609  0.000029  0.000000  1
