# generated using pymatgen
data_Ba2ScRuO6
_symmetry_space_group_name_H-M   'P 1'
_cell_length_a   5.82662307
_cell_length_b   5.82644749
_cell_length_c   5.82658000
_cell_angle_alpha   59.99976078
_cell_angle_beta   59.99846402
_cell_angle_gamma   89.99885439
_symmetry_Int_Tables_number   1
_chemical_formula_structural   Ba2ScRuO6
_chemical_formula_sum   'Ba2 Sc1 Ru1 O6'
_cell_volume   139.86600356
_cell_formula_units_Z   1
loop_
 _symmetry_equiv_pos_site_id
 _symmetry_equiv_pos_as_xyz
  1  'x, y, z'
loop_
 _atom_site_type_symbol
 _atom_site_label
 _atom_site_symmetry_multiplicity
 _atom_site_fract_x
 _atom_site_fract_y
 _atom_site_fract_z
 _atom_site_occupancy
  Ba  Ba0  1  0.250001  0.750004  0.499996  1
  Ba  Ba1  1  0.750003  0.249999  0.500001  1
  Sc  Sc2  1  0.500006  0.500002  0.999999  1
  Ru  Ru3  1  0.000000  0.000001  0.000003  1
  O  O4  1  0.242271  0.242272  0.999999  1
  O  O5  1  0.757727  0.242273  0.000000  1
  O  O6  1  0.242269  0.757725  0.000002  1
  O  O7  1  0.757726  0.757726  0.000003  1
  O  O8  1  0.757726  0.757726  0.484546  1
  O  O9  1  0.242271  0.242270  0.515458  1
