# generated using pymatgen
data_Sm2Dy4RhI10
_symmetry_space_group_name_H-M   'P 1'
_cell_length_a   7.78442645
_cell_length_b   9.75114781
_cell_length_c   9.82717155
_cell_angle_alpha   107.40368229
_cell_angle_beta   97.06707745
_cell_angle_gamma   104.37800475
_symmetry_Int_Tables_number   1
_chemical_formula_structural   Sm2Dy4RhI10
_chemical_formula_sum   'Sm2 Dy4 Rh1 I10'
_cell_volume   673.61727771
_cell_formula_units_Z   1
loop_
 _symmetry_equiv_pos_site_id
 _symmetry_equiv_pos_as_xyz
  1  'x, y, z'
loop_
 _atom_site_type_symbol
 _atom_site_label
 _atom_site_symmetry_multiplicity
 _atom_site_fract_x
 _atom_site_fract_y
 _atom_site_fract_z
 _atom_site_occupancy
  Sm  Sm0  1  0.531019  0.219759  0.416334  1
  Sm  Sm1  1  0.468981  0.780241  0.583666  1
  Dy  Dy2  1  0.150030  0.373801  0.332324  1
  Dy  Dy3  1  0.849970  0.626199  0.667676  1
  Dy  Dy4  1  0.613370  0.540870  0.257833  1
  Dy  Dy5  1  0.386630  0.459130  0.742167  1
  Rh  Rh6  1  0.500000  0.500000  0.500000  1
  I  I7  1  0.143496  0.048175  0.225897  1
  I  I8  1  0.856504  0.951825  0.774103  1
  I  I9  1  0.241916  0.412027  0.037555  1
  I  I10  1  0.758084  0.587973  0.962445  1
  I  I11  1  0.722392  0.244376  0.151671  1
  I  I12  1  0.277608  0.755624  0.848329  1
  I  I13  1  0.042966  0.681719  0.408043  1
  I  I14  1  0.957034  0.318281  0.591957  1
  I  I15  1  0.411947  0.130349  0.682339  1
  I  I16  1  0.588053  0.869651  0.317661  1
