# generated using pymatgen
data_Fe2Sb3WO12
_symmetry_space_group_name_H-M   'P 1'
_cell_length_a   4.73970743
_cell_length_b   9.47903486
_cell_length_c   9.53479600
_cell_angle_alpha   90.00000000
_cell_angle_beta   90.00000000
_cell_angle_gamma   89.91103316
_symmetry_Int_Tables_number   1
_chemical_formula_structural   Fe2Sb3WO12
_chemical_formula_sum   'Fe4 Sb6 W2 O24'
_cell_volume   428.37738640
_cell_formula_units_Z   2
loop_
 _symmetry_equiv_pos_site_id
 _symmetry_equiv_pos_as_xyz
  1  'x, y, z'
loop_
 _atom_site_type_symbol
 _atom_site_label
 _atom_site_symmetry_multiplicity
 _atom_site_fract_x
 _atom_site_fract_y
 _atom_site_fract_z
 _atom_site_occupancy
  Fe  Fe0  1  0.000000  0.500000  0.000488  1
  Fe  Fe1  1  0.500000  0.750000  0.501050  1
  Fe  Fe2  1  0.000000  0.000000  0.000488  1
  Fe  Fe3  1  0.500000  0.250000  0.501050  1
  Sb  Sb4  1  0.500000  0.250000  0.832316  1
  Sb  Sb5  1  0.500000  0.750000  0.832316  1
  Sb  Sb6  1  0.500000  0.250000  0.165797  1
  Sb  Sb7  1  0.500000  0.750000  0.165797  1
  Sb  Sb8  1  0.000000  0.000000  0.669341  1
  Sb  Sb9  1  0.000000  0.500000  0.669341  1
  W  W10  1  0.000000  0.000000  0.334334  1
  W  W11  1  0.000000  0.500000  0.334334  1
  O  O12  1  0.311469  0.155743  0.999381  1
  O  O13  1  0.311469  0.655743  0.999381  1
  O  O14  1  0.187802  0.406102  0.500214  1
  O  O15  1  0.187802  0.906102  0.500214  1
  O  O16  1  0.812198  0.093898  0.500214  1
  O  O17  1  0.812198  0.593898  0.500214  1
  O  O18  1  0.688531  0.344257  0.999381  1
  O  O19  1  0.688531  0.844257  0.999381  1
  O  O20  1  0.294976  0.147460  0.324197  1
  O  O21  1  0.294976  0.647460  0.324197  1
  O  O22  1  0.199031  0.400488  0.826659  1
  O  O23  1  0.199031  0.900488  0.826659  1
  O  O24  1  0.800969  0.099512  0.826659  1
  O  O25  1  0.800969  0.599512  0.826659  1
  O  O26  1  0.798160  0.100915  0.173950  1
  O  O27  1  0.798160  0.600915  0.173950  1
  O  O28  1  0.201840  0.399085  0.173950  1
  O  O29  1  0.201840  0.899085  0.173950  1
  O  O30  1  0.705024  0.352540  0.324197  1
  O  O31  1  0.705024  0.852540  0.324197  1
  O  O32  1  0.301049  0.150515  0.673937  1
  O  O33  1  0.301049  0.650515  0.673937  1
  O  O34  1  0.698951  0.349485  0.673937  1
  O  O35  1  0.698951  0.849485  0.673937  1
