# generated using pymatgen
data_Mn5FeCl18
_symmetry_space_group_name_H-M   'P 1'
_cell_length_a   6.25244646
_cell_length_b   6.03018953
_cell_length_c   19.74072453
_cell_angle_alpha   87.95649825
_cell_angle_beta   90.98525940
_cell_angle_gamma   118.83092789
_symmetry_Int_Tables_number   1
_chemical_formula_structural   Mn5FeCl18
_chemical_formula_sum   'Mn5 Fe1 Cl18'
_cell_volume   651.62075962
_cell_formula_units_Z   1
loop_
 _symmetry_equiv_pos_site_id
 _symmetry_equiv_pos_as_xyz
  1  'x, y, z'
loop_
 _atom_site_type_symbol
 _atom_site_label
 _atom_site_symmetry_multiplicity
 _atom_site_fract_x
 _atom_site_fract_y
 _atom_site_fract_z
 _atom_site_occupancy
  Mn  Mn0  1  0.886719  0.443360  0.000000  1
  Mn  Mn1  1  0.553808  0.113065  0.333139  1
  Mn  Mn2  1  0.893319  0.780446  0.332323  1
  Mn  Mn3  1  0.893320  0.112874  0.667678  1
  Mn  Mn4  1  0.553808  0.440744  0.666862  1
  Fe  Fe5  1  0.238998  0.119499  0.000000  1
  Cl  Cl6  1  0.555496  0.416803  0.068677  1
  Cl  Cl7  1  0.180805  0.770327  0.069323  1
  Cl  Cl8  1  0.912279  0.145642  0.067377  1
  Cl  Cl9  1  0.889598  0.080969  0.262026  1
  Cl  Cl10  1  0.269712  0.829805  0.262914  1
  Cl  Cl11  1  0.604448  0.458565  0.264409  1
  Cl  Cl12  1  0.842944  0.435229  0.401094  1
  Cl  Cl13  1  0.557364  0.812805  0.403498  1
  Cl  Cl14  1  0.177371  0.063859  0.402429  1
  Cl  Cl15  1  0.177372  0.113512  0.597572  1
  Cl  Cl16  1  0.557363  0.744560  0.596502  1
  Cl  Cl17  1  0.842945  0.407716  0.598906  1
  Cl  Cl18  1  0.604448  0.145883  0.735591  1
  Cl  Cl19  1  0.269710  0.439905  0.737086  1
  Cl  Cl20  1  0.889599  0.808630  0.737975  1
  Cl  Cl21  1  0.912278  0.766636  0.932623  1
  Cl  Cl22  1  0.180805  0.410476  0.930678  1
  Cl  Cl23  1  0.555497  0.138694  0.931323  1
