# generated using pymatgen
data_Er8Ta2Ti9NbSi16
_symmetry_space_group_name_H-M   'P 1'
_cell_length_a   7.02717384
_cell_length_b   7.02706345
_cell_length_c   12.93059668
_cell_angle_alpha   90.02176315
_cell_angle_beta   90.04456668
_cell_angle_gamma   90.02867293
_symmetry_Int_Tables_number   1
_chemical_formula_structural   Er8Ta2Ti9NbSi16
_chemical_formula_sum   'Er8 Ta2 Ti9 Nb1 Si16'
_cell_volume   638.51767169
_cell_formula_units_Z   1
loop_
 _symmetry_equiv_pos_site_id
 _symmetry_equiv_pos_as_xyz
  1  'x, y, z'
loop_
 _atom_site_type_symbol
 _atom_site_label
 _atom_site_symmetry_multiplicity
 _atom_site_fract_x
 _atom_site_fract_y
 _atom_site_fract_z
 _atom_site_occupancy
  Er  Er0  1  0.341385  0.002057  0.467105  1
  Er  Er1  1  0.498197  0.840539  0.716446  1
  Er  Er2  1  0.501515  0.158942  0.216659  1
  Er  Er3  1  0.840999  0.498265  0.283483  1
  Er  Er4  1  0.159264  0.501639  0.783481  1
  Er  Er5  1  0.659011  0.998291  0.967178  1
  Er  Er6  1  0.002191  0.340643  0.532715  1
  Er  Er7  1  0.998318  0.658193  0.032997  1
  Ta  Ta8  1  0.173108  0.826889  0.250189  1
  Ta  Ta9  1  0.673163  0.673281  0.500020  1
  Ti  Ti10  1  0.826805  0.173250  0.749813  1
  Ti  Ti11  1  0.152421  0.008651  0.875917  1
  Ti  Ti12  1  0.491878  0.652012  0.124801  1
  Ti  Ti13  1  0.507622  0.348593  0.624420  1
  Ti  Ti14  1  0.651116  0.492502  0.875413  1
  Ti  Ti15  1  0.347627  0.508289  0.375367  1
  Ti  Ti16  1  0.847788  0.991653  0.375410  1
  Ti  Ti17  1  0.008684  0.152177  0.124609  1
  Ti  Ti18  1  0.991712  0.847575  0.624082  1
  Nb  Nb19  1  0.326654  0.326751  0.999969  1
  Si  Si20  1  0.202669  0.130975  0.683544  1
  Si  Si21  1  0.369068  0.703849  0.933259  1
  Si  Si22  1  0.631255  0.297015  0.433763  1
  Si  Si23  1  0.703990  0.368952  0.066498  1
  Si  Si24  1  0.297179  0.631140  0.566449  1
  Si  Si25  1  0.797012  0.869005  0.183474  1
  Si  Si26  1  0.131016  0.203150  0.316690  1
  Si  Si27  1  0.869036  0.797551  0.816306  1
  Si  Si28  1  0.292681  0.952390  0.064190  1
  Si  Si29  1  0.546133  0.792720  0.313983  1
  Si  Si30  1  0.454275  0.207194  0.813333  1
  Si  Si31  1  0.792783  0.545871  0.686024  1
  Si  Si32  1  0.207232  0.453997  0.186651  1
  Si  Si33  1  0.707883  0.047048  0.564781  1
  Si  Si34  1  0.951810  0.291835  0.934999  1
  Si  Si35  1  0.046524  0.707117  0.435982  1
