# generated using pymatgen
data_Zr11TiSe6
_symmetry_space_group_name_H-M   'P 1'
_cell_length_a   12.58484199
_cell_length_b   15.61754092
_cell_length_c   3.67148900
_cell_angle_alpha   90.00000000
_cell_angle_beta   90.00000000
_cell_angle_gamma   90.22817856
_symmetry_Int_Tables_number   1
_chemical_formula_structural   Zr11TiSe6
_chemical_formula_sum   'Zr22 Ti2 Se12'
_cell_volume   721.60445671
_cell_formula_units_Z   2
loop_
 _symmetry_equiv_pos_site_id
 _symmetry_equiv_pos_as_xyz
  1  'x, y, z'
loop_
 _atom_site_type_symbol
 _atom_site_label
 _atom_site_symmetry_multiplicity
 _atom_site_fract_x
 _atom_site_fract_y
 _atom_site_fract_z
 _atom_site_occupancy
  Zr  Zr0  1  0.471224  0.391265  0.000000  1
  Zr  Zr1  1  0.528776  0.608736  0.000000  1
  Zr  Zr2  1  0.971896  0.112311  0.500000  1
  Zr  Zr3  1  0.028104  0.887690  0.500000  1
  Zr  Zr4  1  0.812295  0.207285  0.000000  1
  Zr  Zr5  1  0.187705  0.792715  0.000000  1
  Zr  Zr6  1  0.308578  0.296923  0.500000  1
  Zr  Zr7  1  0.691422  0.703077  0.500000  1
  Zr  Zr8  1  0.886688  0.429657  0.000000  1
  Zr  Zr9  1  0.113312  0.570343  0.000000  1
  Zr  Zr10  1  0.380168  0.076410  0.500000  1
  Zr  Zr11  1  0.619832  0.923590  0.500000  1
  Zr  Zr12  1  0.149938  0.022114  0.000000  1
  Zr  Zr13  1  0.850062  0.977886  0.000000  1
  Zr  Zr14  1  0.655867  0.480103  0.500000  1
  Zr  Zr15  1  0.344133  0.519897  0.500000  1
  Zr  Zr16  1  0.088105  0.263758  0.000000  1
  Zr  Zr17  1  0.911895  0.736242  0.000000  1
  Zr  Zr18  1  0.586916  0.244877  0.500000  1
  Zr  Zr19  1  0.413083  0.755123  0.500000  1
  Zr  Zr20  1  0.587851  0.079214  0.000000  1
  Zr  Zr21  1  0.412149  0.920786  0.000000  1
  Ti  Ti22  1  0.086715  0.422971  0.500000  1
  Ti  Ti23  1  0.913285  0.577029  0.500000  1
  Se  Se24  1  0.689982  0.350684  0.000000  1
  Se  Se25  1  0.310019  0.649317  0.000000  1
  Se  Se26  1  0.185811  0.153347  0.500000  1
  Se  Se27  1  0.814188  0.846653  0.500000  1
  Se  Se28  1  0.236095  0.414055  0.000000  1
  Se  Se29  1  0.763904  0.585944  0.000000  1
  Se  Se30  1  0.747152  0.086296  0.500000  1
  Se  Se31  1  0.252848  0.913704  0.500000  1
  Se  Se32  1  0.429326  0.206468  0.000000  1
  Se  Se33  1  0.570674  0.793532  0.000000  1
  Se  Se34  1  0.932670  0.300520  0.500000  1
  Se  Se35  1  0.067330  0.699479  0.500000  1
