# generated using pymatgen
data_Pr8Lu9Sc3Si16
_symmetry_space_group_name_H-M   'P 1'
_cell_length_a   7.36305485
_cell_length_b   7.69691842
_cell_length_c   14.56035300
_cell_angle_alpha   90.00000000
_cell_angle_beta   90.00000000
_cell_angle_gamma   90.00857694
_symmetry_Int_Tables_number   1
_chemical_formula_structural   Pr8Lu9Sc3Si16
_chemical_formula_sum   'Pr8 Lu9 Sc3 Si16'
_cell_volume   825.17643717
_cell_formula_units_Z   1
loop_
 _symmetry_equiv_pos_site_id
 _symmetry_equiv_pos_as_xyz
  1  'x, y, z'
loop_
 _atom_site_type_symbol
 _atom_site_label
 _atom_site_symmetry_multiplicity
 _atom_site_fract_x
 _atom_site_fract_y
 _atom_site_fract_z
 _atom_site_occupancy
  Pr  Pr0  1  0.016640  0.176660  0.401006  1
  Pr  Pr1  1  0.516661  0.323223  0.400901  1
  Pr  Pr2  1  0.481871  0.675663  0.902137  1
  Pr  Pr3  1  0.481871  0.675663  0.597863  1
  Pr  Pr4  1  0.983937  0.822118  0.597550  1
  Pr  Pr5  1  0.983937  0.822118  0.902450  1
  Pr  Pr6  1  0.516661  0.323223  0.099099  1
  Pr  Pr7  1  0.016640  0.176660  0.098994  1
  Lu  Lu8  1  0.323709  0.178545  0.623791  1
  Lu  Lu9  1  0.675736  0.823088  0.374486  1
  Lu  Lu10  1  0.656695  0.991882  0.750000  1
  Lu  Lu11  1  0.175723  0.677047  0.374532  1
  Lu  Lu12  1  0.825114  0.323954  0.875979  1
  Lu  Lu13  1  0.825114  0.323954  0.624021  1
  Lu  Lu14  1  0.323709  0.178545  0.876209  1
  Lu  Lu15  1  0.175723  0.677047  0.125468  1
  Lu  Lu16  1  0.675736  0.823088  0.125514  1
  Sc  Sc17  1  0.844637  0.493225  0.250000  1
  Sc  Sc18  1  0.344161  0.006818  0.250000  1
  Sc  Sc19  1  0.155676  0.507058  0.750000  1
  Si  Si20  1  0.278258  0.876257  0.750000  1
  Si  Si21  1  0.474078  0.613045  0.250000  1
  Si  Si22  1  0.029991  0.116537  0.750000  1
  Si  Si23  1  0.526351  0.386661  0.750000  1
  Si  Si24  1  0.148733  0.466759  0.539113  1
  Si  Si25  1  0.974518  0.887232  0.250000  1
  Si  Si26  1  0.717337  0.123934  0.250000  1
  Si  Si27  1  0.850839  0.533076  0.040799  1
  Si  Si28  1  0.350964  0.966975  0.040541  1
  Si  Si29  1  0.148733  0.466759  0.960887  1
  Si  Si30  1  0.649265  0.033296  0.538511  1
  Si  Si31  1  0.350964  0.966975  0.459459  1
  Si  Si32  1  0.850839  0.533076  0.459201  1
  Si  Si33  1  0.782772  0.620463  0.750000  1
  Si  Si34  1  0.217142  0.376081  0.250000  1
  Si  Si35  1  0.649265  0.033296  0.961489  1
