# generated using pymatgen
data_Ce3ErTl2(RhAu)2
_symmetry_space_group_name_H-M   'P 1'
_cell_length_a   7.98686964
_cell_length_b   7.98686800
_cell_length_c   3.69008900
_cell_angle_alpha   90.00000000
_cell_angle_beta   90.00000000
_cell_angle_gamma   88.59019184
_symmetry_Int_Tables_number   1
_chemical_formula_structural   Ce3ErTl2(RhAu)2
_chemical_formula_sum   'Ce3 Er1 Tl2 Rh2 Au2'
_cell_volume   235.31979416
_cell_formula_units_Z   1
loop_
 _symmetry_equiv_pos_site_id
 _symmetry_equiv_pos_as_xyz
  1  'x, y, z'
loop_
 _atom_site_type_symbol
 _atom_site_label
 _atom_site_symmetry_multiplicity
 _atom_site_fract_x
 _atom_site_fract_y
 _atom_site_fract_z
 _atom_site_occupancy
  Ce  Ce0  1  0.341292  0.841292  0.500000  1
  Ce  Ce1  1  0.189069  0.313765  0.500000  1
  Ce  Ce2  1  0.813765  0.689069  0.500000  1
  Er  Er3  1  0.664576  0.164576  0.500000  1
  Tl  Tl4  1  0.998466  0.002882  0.000000  1
  Tl  Tl5  1  0.502882  0.498466  0.000000  1
  Rh  Rh6  1  0.628425  0.863005  0.000000  1
  Rh  Rh7  1  0.363005  0.128425  0.000000  1
  Au  Au8  1  0.126072  0.626072  0.000000  1
  Au  Au9  1  0.872446  0.372446  0.000000  1
