# generated using pymatgen
data_Gd12Tc2I17
_symmetry_space_group_name_H-M   'P 1'
_cell_length_a   9.87784371
_cell_length_b   11.86026681
_cell_length_c   11.87373100
_cell_angle_alpha   93.32303975
_cell_angle_beta   104.83017783
_cell_angle_gamma   114.47066549
_symmetry_Int_Tables_number   1
_chemical_formula_structural   Gd12Tc2I17
_chemical_formula_sum   'Gd12 Tc2 I17'
_cell_volume   1202.47812270
_cell_formula_units_Z   1
loop_
 _symmetry_equiv_pos_site_id
 _symmetry_equiv_pos_as_xyz
  1  'x, y, z'
loop_
 _atom_site_type_symbol
 _atom_site_label
 _atom_site_symmetry_multiplicity
 _atom_site_fract_x
 _atom_site_fract_y
 _atom_site_fract_z
 _atom_site_occupancy
  Gd  Gd0  1  0.059881  0.514071  0.324474  1
  Gd  Gd1  1  0.987532  0.811321  0.579833  1
  Gd  Gd2  1  0.650589  0.242018  0.282651  1
  Gd  Gd3  1  0.012468  0.188679  0.420167  1
  Gd  Gd4  1  0.224647  0.668996  0.990941  1
  Gd  Gd5  1  0.260274  0.986259  0.892531  1
  Gd  Gd6  1  0.349411  0.757982  0.717349  1
  Gd  Gd7  1  0.940119  0.485929  0.675526  1
  Gd  Gd8  1  0.739726  0.013741  0.107469  1
  Gd  Gd9  1  0.146133  0.288330  0.153181  1
  Gd  Gd10  1  0.775353  0.331004  0.009059  1
  Gd  Gd11  1  0.853867  0.711670  0.846819  1
  Tc  Tc12  1  0.102142  0.737140  0.785706  1
  Tc  Tc13  1  0.897858  0.262860  0.214294  1
  I  I14  1  0.784861  0.527470  0.416973  1
  I  I15  1  0.640903  0.418355  0.757947  1
  I  I16  1  0.843494  0.895056  0.325971  1
  I  I17  1  0.325330  0.212846  0.368820  1
  I  I18  1  0.156506  0.104944  0.674029  1
  I  I19  1  0.585660  0.051797  0.842938  1
  I  I20  1  0.754163  0.182116  0.536830  1
  I  I21  1  0.549123  0.707688  0.953053  1
  I  I22  1  0.359097  0.581645  0.242053  1
  I  I23  1  0.215139  0.472530  0.583027  1
  I  I24  1  0.055047  0.367558  0.898336  1
  I  I25  1  0.450877  0.292312  0.046947  1
  I  I26  1  0.000000  0.000000  0.000000  1
  I  I27  1  0.245837  0.817884  0.463170  1
  I  I28  1  0.414340  0.948203  0.157062  1
  I  I29  1  0.674670  0.787154  0.631180  1
  I  I30  1  0.944953  0.632442  0.101664  1
