# generated using pymatgen
data_Ca6GaSi5Rh12
_symmetry_space_group_name_H-M   'P 1'
_cell_length_a   5.66293800
_cell_length_b   5.66293599
_cell_length_c   14.93470800
_cell_angle_alpha   90.00000000
_cell_angle_beta   90.00000000
_cell_angle_gamma   119.99998838
_symmetry_Int_Tables_number   1
_chemical_formula_structural   Ca6GaSi5Rh12
_chemical_formula_sum   'Ca6 Ga1 Si5 Rh12'
_cell_volume   414.77338188
_cell_formula_units_Z   1
loop_
 _symmetry_equiv_pos_site_id
 _symmetry_equiv_pos_as_xyz
  1  'x, y, z'
loop_
 _atom_site_type_symbol
 _atom_site_label
 _atom_site_symmetry_multiplicity
 _atom_site_fract_x
 _atom_site_fract_y
 _atom_site_fract_z
 _atom_site_occupancy
  Ca  Ca0  1  0.333333  0.666667  0.539961  1
  Ca  Ca1  1  0.666667  0.333333  0.460039  1
  Ca  Ca2  1  0.666667  0.333333  0.039810  1
  Ca  Ca3  1  0.333333  0.666667  0.960190  1
  Ca  Ca4  1  0.333333  0.666667  0.749613  1
  Ca  Ca5  1  0.666667  0.333333  0.250387  1
  Ga  Ga6  1  0.000000  0.000000  0.000000  1
  Si  Si7  1  0.000000  0.000000  0.251914  1
  Si  Si8  1  0.000000  0.000000  0.748086  1
  Si  Si9  1  0.333333  0.666667  0.252394  1
  Si  Si10  1  0.666667  0.333333  0.747606  1
  Si  Si11  1  0.000000  0.000000  0.500000  1
  Rh  Rh12  1  0.166524  0.333048  0.136871  1
  Rh  Rh13  1  0.833476  0.666952  0.863129  1
  Rh  Rh14  1  0.666952  0.833476  0.136871  1
  Rh  Rh15  1  0.834831  0.669662  0.631009  1
  Rh  Rh16  1  0.333048  0.166524  0.863129  1
  Rh  Rh17  1  0.165169  0.330338  0.368991  1
  Rh  Rh18  1  0.166524  0.833476  0.136871  1
  Rh  Rh19  1  0.330338  0.165169  0.631009  1
  Rh  Rh20  1  0.833476  0.166524  0.863129  1
  Rh  Rh21  1  0.669662  0.834831  0.368991  1
  Rh  Rh22  1  0.834831  0.165169  0.631009  1
  Rh  Rh23  1  0.165169  0.834831  0.368991  1
