# generated using pymatgen
data_La2As3Au
_symmetry_space_group_name_H-M   'P 1'
_cell_length_a   4.39239700
_cell_length_b   8.20318800
_cell_length_c   16.78320300
_cell_angle_alpha   90.00000000
_cell_angle_beta   90.00000000
_cell_angle_gamma   90.00000000
_symmetry_Int_Tables_number   1
_chemical_formula_structural   La2As3Au
_chemical_formula_sum   'La8 As12 Au4'
_cell_volume   604.72663671
_cell_formula_units_Z   4
loop_
 _symmetry_equiv_pos_site_id
 _symmetry_equiv_pos_as_xyz
  1  'x, y, z'
loop_
 _atom_site_type_symbol
 _atom_site_label
 _atom_site_symmetry_multiplicity
 _atom_site_fract_x
 _atom_site_fract_y
 _atom_site_fract_z
 _atom_site_occupancy
  La  La0  1  0.250000  0.227321  0.474592  1
  La  La1  1  0.750000  0.914010  0.794225  1
  La  La2  1  0.750000  0.272679  0.974592  1
  La  La3  1  0.750000  0.414010  0.705775  1
  La  La4  1  0.250000  0.585990  0.294225  1
  La  La5  1  0.250000  0.085990  0.205775  1
  La  La6  1  0.750000  0.772679  0.525408  1
  La  La7  1  0.250000  0.727321  0.025408  1
  As  As8  1  0.250000  0.377730  0.090429  1
  As  As9  1  0.250000  0.703240  0.707917  1
  As  As10  1  0.750000  0.122270  0.590429  1
  As  As11  1  0.750000  0.296760  0.292083  1
  As  As12  1  0.750000  0.796760  0.207917  1
  As  As13  1  0.250000  0.877730  0.409571  1
  As  As14  1  0.250000  0.532038  0.587481  1
  As  As15  1  0.750000  0.622270  0.909571  1
  As  As16  1  0.750000  0.967962  0.087481  1
  As  As17  1  0.250000  0.203240  0.792083  1
  As  As18  1  0.750000  0.467962  0.412519  1
  As  As19  1  0.250000  0.032038  0.912519  1
  Au  Au20  1  0.250000  0.000793  0.645969  1
  Au  Au21  1  0.750000  0.999207  0.354031  1
  Au  Au22  1  0.250000  0.500793  0.854031  1
  Au  Au23  1  0.750000  0.499207  0.145969  1
