# generated using pymatgen
data_LaPaF8
_symmetry_space_group_name_H-M   'P 1'
_cell_length_a   8.60238120
_cell_length_b   8.58993594
_cell_length_c   8.55206727
_cell_angle_alpha   63.63815037
_cell_angle_beta   63.45890208
_cell_angle_gamma   80.46894298
_symmetry_Int_Tables_number   1
_chemical_formula_structural   LaPaF8
_chemical_formula_sum   'La3 Pa3 F24'
_cell_volume   506.13054694
_cell_formula_units_Z   3
loop_
 _symmetry_equiv_pos_site_id
 _symmetry_equiv_pos_as_xyz
  1  'x, y, z'
loop_
 _atom_site_type_symbol
 _atom_site_label
 _atom_site_symmetry_multiplicity
 _atom_site_fract_x
 _atom_site_fract_y
 _atom_site_fract_z
 _atom_site_occupancy
  La  La0  1  0.370025  0.229142  0.332922  1
  La  La1  1  0.223126  0.364336  0.838691  1
  La  La2  1  0.776854  0.627383  0.169084  1
  Pa  Pa3  1  0.631036  0.776451  0.666952  1
  Pa  Pa4  1  0.785563  0.211786  0.753573  1
  Pa  Pa5  1  0.208574  0.785031  0.264024  1
  F  F6  1  0.315433  0.261173  0.607346  1
  F  F7  1  0.684641  0.747150  0.403405  1
  F  F8  1  0.725984  0.683887  0.883920  1
  F  F9  1  0.266341  0.319230  0.103552  1
  F  F10  1  0.821204  0.944714  0.935712  1
  F  F11  1  0.186657  0.039705  0.055515  1
  F  F12  1  0.042805  0.172028  0.561890  1
  F  F13  1  0.930380  0.824931  0.462164  1
  F  F14  1  0.420743  0.608080  0.742257  1
  F  F15  1  0.603159  0.403859  0.245501  1
  F  F16  1  0.507954  0.984860  0.509225  1
  F  F17  1  0.002409  0.513485  0.989179  1
  F  F18  1  0.519165  0.239986  0.788880  1
  F  F19  1  0.483787  0.760767  0.200263  1
  F  F20  1  0.738683  0.499046  0.713641  1
  F  F21  1  0.252064  0.522690  0.284218  1
  F  F22  1  0.411024  0.807564  0.910557  1
  F  F23  1  0.619882  0.181298  0.051510  1
  F  F24  1  0.178917  0.617595  0.557105  1
  F  F25  1  0.813433  0.385000  0.456086  1
  F  F26  1  0.722196  0.018520  0.650063  1
  F  F27  1  0.263768  0.962418  0.352561  1
  F  F28  1  0.960817  0.275951  0.839976  1
  F  F29  1  0.033380  0.731935  0.170231  1
