# generated using pymatgen
data_Ni11(As3P)2
_symmetry_space_group_name_H-M   'P 1'
_cell_length_a   6.81545638
_cell_length_b   6.81545540
_cell_length_c   11.03370223
_cell_angle_alpha   81.22087038
_cell_angle_beta   81.22086748
_cell_angle_gamma   90.01309357
_symmetry_Int_Tables_number   1
_chemical_formula_structural   Ni11(As3P)2
_chemical_formula_sum   'Ni22 As12 P4'
_cell_volume   500.43612420
_cell_formula_units_Z   2
loop_
 _symmetry_equiv_pos_site_id
 _symmetry_equiv_pos_as_xyz
  1  'x, y, z'
loop_
 _atom_site_type_symbol
 _atom_site_label
 _atom_site_symmetry_multiplicity
 _atom_site_fract_x
 _atom_site_fract_y
 _atom_site_fract_z
 _atom_site_occupancy
  Ni  Ni0  1  0.461125  0.155426  0.909385  1
  Ni  Ni1  1  0.844574  0.538875  0.590615  1
  Ni  Ni2  1  0.538875  0.844574  0.090615  1
  Ni  Ni3  1  0.155426  0.461125  0.409385  1
  Ni  Ni4  1  0.082199  0.639893  0.913895  1
  Ni  Ni5  1  0.360107  0.917801  0.586105  1
  Ni  Ni6  1  0.917801  0.360107  0.086105  1
  Ni  Ni7  1  0.639893  0.082199  0.413895  1
  Ni  Ni8  1  0.460251  0.640170  0.914280  1
  Ni  Ni9  1  0.359830  0.539749  0.585720  1
  Ni  Ni10  1  0.539749  0.359830  0.085720  1
  Ni  Ni11  1  0.640170  0.460251  0.414280  1
  Ni  Ni12  1  0.801745  0.678574  0.793250  1
  Ni  Ni13  1  0.321426  0.198255  0.706750  1
  Ni  Ni14  1  0.198255  0.321426  0.206750  1
  Ni  Ni15  1  0.678574  0.801745  0.293250  1
  Ni  Ni16  1  0.083593  0.155722  0.909174  1
  Ni  Ni17  1  0.844278  0.916407  0.590826  1
  Ni  Ni18  1  0.155722  0.083593  0.409174  1
  Ni  Ni19  1  0.916407  0.844278  0.090826  1
  Ni  Ni20  1  0.812558  0.187442  0.750000  1
  Ni  Ni21  1  0.187442  0.812558  0.250000  1
  As  As22  1  0.873055  0.247559  0.508924  1
  As  As23  1  0.752441  0.126945  0.991076  1
  As  As24  1  0.126945  0.752441  0.491076  1
  As  As25  1  0.247560  0.873055  0.008924  1
  As  As26  1  0.069625  0.930375  0.750000  1
  As  As27  1  0.930375  0.069625  0.250000  1
  As  As28  1  0.555840  0.444160  0.750000  1
  As  As29  1  0.444160  0.555840  0.250000  1
  As  As30  1  0.554293  0.930510  0.752547  1
  As  As31  1  0.069490  0.445707  0.747453  1
  As  As32  1  0.445707  0.069490  0.247453  1
  As  As33  1  0.930510  0.554293  0.252547  1
  P  P34  1  0.750276  0.623387  0.999575  1
  P  P35  1  0.376613  0.249724  0.500425  1
  P  P36  1  0.249724  0.376613  0.000425  1
  P  P37  1  0.623387  0.750276  0.499575  1
