# generated using pymatgen
data_Er11TmCo5Bi
_symmetry_space_group_name_H-M   'P 1'
_cell_length_a   8.22947556
_cell_length_b   8.22947484
_cell_length_c   8.22874535
_cell_angle_alpha   110.92854817
_cell_angle_beta   110.88419725
_cell_angle_gamma   106.64131890
_symmetry_Int_Tables_number   1
_chemical_formula_structural   Er11TmCo5Bi
_chemical_formula_sum   'Er11 Tm1 Co5 Bi1'
_cell_volume   428.19765452
_cell_formula_units_Z   1
loop_
 _symmetry_equiv_pos_site_id
 _symmetry_equiv_pos_as_xyz
  1  'x, y, z'
loop_
 _atom_site_type_symbol
 _atom_site_label
 _atom_site_symmetry_multiplicity
 _atom_site_fract_x
 _atom_site_fract_y
 _atom_site_fract_z
 _atom_site_occupancy
  Er  Er0  1  0.712397  0.815966  0.528362  1
  Er  Er1  1  0.288069  0.815721  0.103790  1
  Er  Er2  1  0.712319  0.184239  0.896559  1
  Er  Er3  1  0.620264  0.311439  0.309034  1
  Er  Er4  1  0.379665  0.688685  0.691057  1
  Er  Er5  1  0.002372  0.311393  0.691057  1
  Er  Er6  1  0.997593  0.688769  0.309034  1
  Er  Er7  1  0.208365  0.403088  0.194682  1
  Er  Er8  1  0.791919  0.597490  0.805724  1
  Er  Er9  1  0.208234  0.013805  0.805724  1
  Er  Er10  1  0.791594  0.986317  0.194682  1
  Tm  Tm11  1  0.287947  0.183566  0.471514  1
  Co  Co12  1  0.999507  0.374869  0.374376  1
  Co  Co13  1  0.000083  0.625185  0.625268  1
  Co  Co14  1  0.388521  0.888107  0.499677  1
  Co  Co15  1  0.611570  0.111157  0.499677  1
  Co  Co16  1  0.999647  0.000278  0.999925  1
  Bi  Bi17  1  0.499932  0.499925  0.999857  1
