# generated using pymatgen
data_Pr9Dy(Ga2Pb)2
_symmetry_space_group_name_H-M   'P 1'
_cell_length_a   8.56220100
_cell_length_b   8.56220100
_cell_length_c   13.15009700
_cell_angle_alpha   90.00000000
_cell_angle_beta   90.00000000
_cell_angle_gamma   90.00000000
_symmetry_Int_Tables_number   1
_chemical_formula_structural   Pr9Dy(Ga2Pb)2
_chemical_formula_sum   'Pr18 Dy2 Ga8 Pb4'
_cell_volume   964.05052163
_cell_formula_units_Z   2
loop_
 _symmetry_equiv_pos_site_id
 _symmetry_equiv_pos_as_xyz
  1  'x, y, z'
loop_
 _atom_site_type_symbol
 _atom_site_label
 _atom_site_symmetry_multiplicity
 _atom_site_fract_x
 _atom_site_fract_y
 _atom_site_fract_z
 _atom_site_occupancy
  Pr  Pr0  1  0.846961  0.837672  0.894105  1
  Pr  Pr1  1  0.159745  0.155903  0.604168  1
  Pr  Pr2  1  0.844097  0.159745  0.395832  1
  Pr  Pr3  1  0.155903  0.840255  0.395832  1
  Pr  Pr4  1  0.340255  0.344097  0.395832  1
  Pr  Pr5  1  0.837672  0.153039  0.105895  1
  Pr  Pr6  1  0.337672  0.653039  0.894105  1
  Pr  Pr7  1  0.162328  0.846961  0.105895  1
  Pr  Pr8  1  0.500000  0.000000  0.767606  1
  Pr  Pr9  1  0.000000  0.500000  0.232394  1
  Pr  Pr10  1  0.344097  0.659745  0.604168  1
  Pr  Pr11  1  0.653039  0.662328  0.105895  1
  Pr  Pr12  1  0.655903  0.340255  0.604168  1
  Pr  Pr13  1  0.840255  0.844097  0.604168  1
  Pr  Pr14  1  0.662328  0.346961  0.894105  1
  Pr  Pr15  1  0.153039  0.162328  0.894105  1
  Pr  Pr16  1  0.659745  0.655903  0.395832  1
  Pr  Pr17  1  0.346961  0.337672  0.105895  1
  Dy  Dy18  1  0.000000  0.500000  0.736761  1
  Dy  Dy19  1  0.500000  0.000000  0.263239  1
  Ga  Ga20  1  0.642729  0.353401  0.251796  1
  Ga  Ga21  1  0.357271  0.646599  0.251796  1
  Ga  Ga22  1  0.146599  0.142729  0.251796  1
  Ga  Ga23  1  0.353401  0.357271  0.748204  1
  Ga  Ga24  1  0.142729  0.853401  0.748204  1
  Ga  Ga25  1  0.853401  0.857271  0.251796  1
  Ga  Ga26  1  0.646599  0.642729  0.748204  1
  Ga  Ga27  1  0.857271  0.146599  0.748204  1
  Pb  Pb28  1  0.000000  0.500000  0.986900  1
  Pb  Pb29  1  0.500000  0.000000  0.013100  1
  Pb  Pb30  1  0.500000  0.000000  0.504346  1
  Pb  Pb31  1  0.000000  0.500000  0.495654  1
