# generated using pymatgen
data_SmGd3(GaCo)4
_symmetry_space_group_name_H-M   'P 1'
_cell_length_a   4.51585800
_cell_length_b   7.22866007
_cell_length_c   6.88809000
_cell_angle_alpha   89.99198662
_cell_angle_beta   90.00000000
_cell_angle_gamma   90.00000000
_symmetry_Int_Tables_number   1
_chemical_formula_structural   SmGd3(GaCo)4
_chemical_formula_sum   'Sm1 Gd3 Ga4 Co4'
_cell_volume   224.85206912
_cell_formula_units_Z   1
loop_
 _symmetry_equiv_pos_site_id
 _symmetry_equiv_pos_as_xyz
  1  'x, y, z'
loop_
 _atom_site_type_symbol
 _atom_site_label
 _atom_site_symmetry_multiplicity
 _atom_site_fract_x
 _atom_site_fract_y
 _atom_site_fract_z
 _atom_site_occupancy
  Sm  Sm0  1  0.750000  0.471003  0.306736  1
  Gd  Gd1  1  0.250000  0.030130  0.804491  1
  Gd  Gd2  1  0.250000  0.530212  0.696580  1
  Gd  Gd3  1  0.750000  0.970748  0.195048  1
  Ga  Ga4  1  0.250000  0.189461  0.390993  1
  Ga  Ga5  1  0.250000  0.691553  0.107923  1
  Ga  Ga6  1  0.750000  0.809485  0.609970  1
  Ga  Ga7  1  0.750000  0.309045  0.890360  1
  Co  Co8  1  0.250000  0.848853  0.435962  1
  Co  Co9  1  0.250000  0.348218  0.062153  1
  Co  Co10  1  0.750000  0.149206  0.564743  1
  Co  Co11  1  0.750000  0.652085  0.935042  1
