# generated using pymatgen
data_Gd2DyY9Ru4
_symmetry_space_group_name_H-M   'P 1'
_cell_length_a   6.36856200
_cell_length_b   7.32663605
_cell_length_c   9.24797200
_cell_angle_alpha   90.00000000
_cell_angle_beta   90.00000000
_cell_angle_gamma   89.92049197
_symmetry_Int_Tables_number   1
_chemical_formula_structural   Gd2DyY9Ru4
_chemical_formula_sum   'Gd2 Dy1 Y9 Ru4'
_cell_volume   431.51121543
_cell_formula_units_Z   1
loop_
 _symmetry_equiv_pos_site_id
 _symmetry_equiv_pos_as_xyz
  1  'x, y, z'
loop_
 _atom_site_type_symbol
 _atom_site_label
 _atom_site_symmetry_multiplicity
 _atom_site_fract_x
 _atom_site_fract_y
 _atom_site_fract_z
 _atom_site_occupancy
  Gd  Gd0  1  0.637393  0.044269  0.250000  1
  Gd  Gd1  1  0.134712  0.456701  0.750000  1
  Dy  Dy2  1  0.364535  0.957023  0.750000  1
  Y  Y3  1  0.328589  0.676294  0.065410  1
  Y  Y4  1  0.171326  0.175874  0.435233  1
  Y  Y5  1  0.670590  0.323784  0.564881  1
  Y  Y6  1  0.828968  0.823551  0.934577  1
  Y  Y7  1  0.670590  0.323784  0.935119  1
  Y  Y8  1  0.828968  0.823551  0.565423  1
  Y  Y9  1  0.328589  0.676294  0.434590  1
  Y  Y10  1  0.171326  0.175874  0.064767  1
  Y  Y11  1  0.865781  0.541489  0.250000  1
  Ru  Ru12  1  0.036120  0.886604  0.250000  1
  Ru  Ru13  1  0.463482  0.383450  0.250000  1
  Ru  Ru14  1  0.967069  0.116139  0.750000  1
  Ru  Ru15  1  0.531959  0.615317  0.750000  1
