# generated using pymatgen
data_HfZr3Pt2N
_symmetry_space_group_name_H-M   'P 1'
_cell_length_a   8.86426057
_cell_length_b   8.86425988
_cell_length_c   8.86426100
_cell_angle_alpha   59.99999957
_cell_angle_beta   60.00000211
_cell_angle_gamma   60.00000317
_symmetry_Int_Tables_number   1
_chemical_formula_structural   HfZr3Pt2N
_chemical_formula_sum   'Hf4 Zr12 Pt8 N4'
_cell_volume   492.50715838
_cell_formula_units_Z   4
loop_
 _symmetry_equiv_pos_site_id
 _symmetry_equiv_pos_as_xyz
  1  'x, y, z'
loop_
 _atom_site_type_symbol
 _atom_site_label
 _atom_site_symmetry_multiplicity
 _atom_site_fract_x
 _atom_site_fract_y
 _atom_site_fract_z
 _atom_site_occupancy
  Hf  Hf0  1  0.125000  0.625000  0.625000  1
  Hf  Hf1  1  0.625000  0.125000  0.625000  1
  Hf  Hf2  1  0.625000  0.625000  0.125000  1
  Hf  Hf3  1  0.625000  0.625000  0.625000  1
  Zr  Zr4  1  0.817340  0.817340  0.182660  1
  Zr  Zr5  1  0.182660  0.182660  0.817340  1
  Zr  Zr6  1  0.817340  0.182660  0.817340  1
  Zr  Zr7  1  0.182660  0.817340  0.182660  1
  Zr  Zr8  1  0.182660  0.817340  0.817340  1
  Zr  Zr9  1  0.817340  0.182660  0.182660  1
  Zr  Zr10  1  0.432660  0.432660  0.067340  1
  Zr  Zr11  1  0.067340  0.067340  0.432660  1
  Zr  Zr12  1  0.432660  0.067340  0.432660  1
  Zr  Zr13  1  0.067340  0.432660  0.067340  1
  Zr  Zr14  1  0.067340  0.432660  0.432660  1
  Zr  Zr15  1  0.432660  0.067340  0.067340  1
  Pt  Pt16  1  0.777171  0.407610  0.407610  1
  Pt  Pt17  1  0.407610  0.777171  0.407610  1
  Pt  Pt18  1  0.407610  0.407610  0.777171  1
  Pt  Pt19  1  0.407610  0.407610  0.407610  1
  Pt  Pt20  1  0.472829  0.842390  0.842390  1
  Pt  Pt21  1  0.842390  0.472829  0.842390  1
  Pt  Pt22  1  0.842390  0.842390  0.472829  1
  Pt  Pt23  1  0.842390  0.842390  0.842390  1
  N  N24  1  0.625000  0.125000  0.125000  1
  N  N25  1  0.125000  0.625000  0.125000  1
  N  N26  1  0.125000  0.125000  0.625000  1
  N  N27  1  0.125000  0.125000  0.125000  1
