# generated using pymatgen
data_YTh5SCl15
_symmetry_space_group_name_H-M   'P 1'
_cell_length_a   9.61047887
_cell_length_b   9.61047898
_cell_length_c   9.61047909
_cell_angle_alpha   109.99941644
_cell_angle_beta   109.20777330
_cell_angle_gamma   109.20776932
_symmetry_Int_Tables_number   1
_chemical_formula_structural   YTh5SCl15
_chemical_formula_sum   'Y1 Th5 S1 Cl15'
_cell_volume   683.25919289
_cell_formula_units_Z   1
loop_
 _symmetry_equiv_pos_site_id
 _symmetry_equiv_pos_as_xyz
  1  'x, y, z'
loop_
 _atom_site_type_symbol
 _atom_site_label
 _atom_site_symmetry_multiplicity
 _atom_site_fract_x
 _atom_site_fract_y
 _atom_site_fract_z
 _atom_site_occupancy
  Y  Y0  1  0.000000  0.243013  0.243013  1
  Th  Th1  1  0.000000  0.753411  0.753411  1
  Th  Th2  1  0.244158  0.000572  0.244729  1
  Th  Th3  1  0.755842  0.000572  0.756414  1
  Th  Th4  1  0.244158  0.244729  0.000572  1
  Th  Th5  1  0.755842  0.756414  0.000572  1
  S  S6  1  0.000000  0.004290  0.004290  1
  Cl  Cl7  1  0.498266  0.249245  0.249245  1
  Cl  Cl8  1  0.501734  0.750978  0.750978  1
  Cl  Cl9  1  0.000000  0.249245  0.750978  1
  Cl  Cl10  1  0.000000  0.750978  0.249245  1
  Cl  Cl11  1  0.243088  0.492740  0.249653  1
  Cl  Cl12  1  0.756912  0.006565  0.249653  1
  Cl  Cl13  1  0.749840  0.499105  0.749264  1
  Cl  Cl14  1  0.250160  0.999424  0.749264  1
  Cl  Cl15  1  0.243088  0.249653  0.492740  1
  Cl  Cl16  1  0.749840  0.749264  0.499105  1
  Cl  Cl17  1  0.756912  0.249653  0.006565  1
  Cl  Cl18  1  0.250160  0.749264  0.999424  1
  Cl  Cl19  1  0.000000  0.500974  0.500974  1
  Cl  Cl20  1  0.500000  0.999956  0.499956  1
  Cl  Cl21  1  0.500000  0.499956  0.999956  1
