# generated using pymatgen
data_Li3La2GdPt3
_symmetry_space_group_name_H-M   'P 1'
_cell_length_a   7.48920200
_cell_length_b   7.49937088
_cell_length_c   4.23417200
_cell_angle_alpha   90.00000000
_cell_angle_beta   90.00000000
_cell_angle_gamma   120.04491909
_symmetry_Int_Tables_number   1
_chemical_formula_structural   Li3La2GdPt3
_chemical_formula_sum   'Li3 La2 Gd1 Pt3'
_cell_volume   205.85563029
_cell_formula_units_Z   1
loop_
 _symmetry_equiv_pos_site_id
 _symmetry_equiv_pos_as_xyz
  1  'x, y, z'
loop_
 _atom_site_type_symbol
 _atom_site_label
 _atom_site_symmetry_multiplicity
 _atom_site_fract_x
 _atom_site_fract_y
 _atom_site_fract_z
 _atom_site_occupancy
  Li  Li0  1  0.000000  0.232444  0.000000  1
  Li  Li1  1  0.225615  0.995021  0.000000  1
  Li  Li2  1  0.774385  0.769405  0.000000  1
  La  La3  1  0.590766  0.000950  0.500000  1
  La  La4  1  0.409234  0.410183  0.500000  1
  Gd  Gd5  1  0.000000  0.592759  0.500000  1
  Pt  Pt6  1  0.000000  0.994777  0.500000  1
  Pt  Pt7  1  0.674431  0.339447  0.000000  1
  Pt  Pt8  1  0.325569  0.665016  0.000000  1
