# generated using pymatgen
data_Ac3IO4
_symmetry_space_group_name_H-M   'P 1'
_cell_length_a   6.05571000
_cell_length_b   6.05596200
_cell_length_c   20.48867700
_cell_angle_alpha   90.00000000
_cell_angle_beta   89.99978299
_cell_angle_gamma   90.00000000
_symmetry_Int_Tables_number   1
_chemical_formula_structural   Ac3IO4
_chemical_formula_sum   'Ac12 I4 O16'
_cell_volume   751.38431761
_cell_formula_units_Z   4
loop_
 _symmetry_equiv_pos_site_id
 _symmetry_equiv_pos_as_xyz
  1  'x, y, z'
loop_
 _atom_site_type_symbol
 _atom_site_label
 _atom_site_symmetry_multiplicity
 _atom_site_fract_x
 _atom_site_fract_y
 _atom_site_fract_z
 _atom_site_occupancy
  Ac  Ac0  1  0.749999  0.250014  0.000000  1
  Ac  Ac1  1  0.250000  0.749984  0.000000  1
  Ac  Ac2  1  0.250856  0.249970  0.127748  1
  Ac  Ac3  1  0.750855  0.750027  0.127748  1
  Ac  Ac4  1  0.250856  0.250030  0.372253  1
  Ac  Ac5  1  0.750854  0.749973  0.372253  1
  Ac  Ac6  1  0.749999  0.249989  0.500000  1
  Ac  Ac7  1  0.250000  0.750012  0.500000  1
  Ac  Ac8  1  0.249143  0.250030  0.627747  1
  Ac  Ac9  1  0.749144  0.749973  0.627747  1
  Ac  Ac10  1  0.249143  0.249970  0.872253  1
  Ac  Ac11  1  0.749143  0.750027  0.872253  1
  I  I12  1  0.753350  0.249999  0.250000  1
  I  I13  1  0.253351  0.750000  0.250000  1
  I  I14  1  0.746648  0.249999  0.750000  1
  I  I15  1  0.246650  0.750000  0.750000  1
  O  O16  1  0.000866  0.499884  0.075397  1
  O  O17  1  0.500868  0.500114  0.075398  1
  O  O18  1  0.000969  0.000010  0.075349  1
  O  O19  1  0.500971  0.999987  0.075348  1
  O  O20  1  0.000966  0.499993  0.424652  1
  O  O21  1  0.500966  0.500009  0.424652  1
  O  O22  1  0.000872  0.000115  0.424604  1
  O  O23  1  0.500871  0.999887  0.424604  1
  O  O24  1  0.499126  0.000115  0.575396  1
  O  O25  1  0.999129  0.999887  0.575396  1
  O  O26  1  0.499035  0.499993  0.575348  1
  O  O27  1  0.999035  0.500009  0.575348  1
  O  O28  1  0.499032  0.000010  0.924651  1
  O  O29  1  0.999030  0.999987  0.924652  1
  O  O30  1  0.499132  0.499884  0.924604  1
  O  O31  1  0.999132  0.500114  0.924603  1
