# generated using pymatgen
data_Al8CoNi3Ru4
_symmetry_space_group_name_H-M   'P 1'
_cell_length_a   5.82836300
_cell_length_b   5.82691200
_cell_length_c   6.04806600
_cell_angle_alpha   90.00222789
_cell_angle_beta   90.00260422
_cell_angle_gamma   90.00184834
_symmetry_Int_Tables_number   1
_chemical_formula_structural   Al8CoNi3Ru4
_chemical_formula_sum   'Al8 Co1 Ni3 Ru4'
_cell_volume   205.40053624
_cell_formula_units_Z   1
loop_
 _symmetry_equiv_pos_site_id
 _symmetry_equiv_pos_as_xyz
  1  'x, y, z'
loop_
 _atom_site_type_symbol
 _atom_site_label
 _atom_site_symmetry_multiplicity
 _atom_site_fract_x
 _atom_site_fract_y
 _atom_site_fract_z
 _atom_site_occupancy
  Al  Al0  1  0.003242  0.503241  0.252127  1
  Al  Al1  1  0.003243  0.996751  0.252113  1
  Al  Al2  1  0.496724  0.503228  0.253846  1
  Al  Al3  1  0.496726  0.996774  0.253858  1
  Al  Al4  1  0.496749  0.503214  0.746158  1
  Al  Al5  1  0.496731  0.996772  0.746144  1
  Al  Al6  1  0.003257  0.503247  0.747867  1
  Al  Al7  1  0.003238  0.996767  0.747890  1
  Co  Co8  1  0.249655  0.749996  0.500007  1
  Ni  Ni9  1  0.749560  0.249997  0.000002  1
  Ni  Ni10  1  0.250449  0.749999  0.000000  1
  Ni  Ni11  1  0.750478  0.250000  0.499992  1
  Ru  Ru12  1  0.250779  0.250001  0.000002  1
  Ru  Ru13  1  0.749327  0.749997  0.000000  1
  Ru  Ru14  1  0.249230  0.250005  0.500000  1
  Ru  Ru15  1  0.750610  0.750010  0.500002  1
