# generated using pymatgen
data_Nd2YLu3Ta2O14
_symmetry_space_group_name_H-M   'P 1'
_cell_length_a   6.43734687
_cell_length_b   6.44528756
_cell_length_c   7.54989700
_cell_angle_alpha   90.00000000
_cell_angle_beta   90.00000000
_cell_angle_gamma   109.24187825
_symmetry_Int_Tables_number   1
_chemical_formula_structural   Nd2YLu3Ta2O14
_chemical_formula_sum   'Nd2 Y1 Lu3 Ta2 O14'
_cell_volume   295.74994789
_cell_formula_units_Z   1
loop_
 _symmetry_equiv_pos_site_id
 _symmetry_equiv_pos_as_xyz
  1  'x, y, z'
loop_
 _atom_site_type_symbol
 _atom_site_label
 _atom_site_symmetry_multiplicity
 _atom_site_fract_x
 _atom_site_fract_y
 _atom_site_fract_z
 _atom_site_occupancy
  Nd  Nd0  1  0.503590  0.503112  0.498762  1
  Nd  Nd1  1  0.503590  0.503112  0.001238  1
  Y  Y2  1  0.999602  0.467152  0.750000  1
  Lu  Lu3  1  0.530663  0.002687  0.750000  1
  Lu  Lu4  1  0.001986  0.532685  0.250000  1
  Lu  Lu5  1  0.468488  0.997999  0.250000  1
  Ta  Ta6  1  0.000268  0.000764  0.498553  1
  Ta  Ta7  1  0.000268  0.000764  0.001447  1
  O  O8  1  0.677404  0.934244  0.464808  1
  O  O9  1  0.925087  0.674859  0.526556  1
  O  O10  1  0.677404  0.934244  0.035192  1
  O  O11  1  0.925087  0.674859  0.973444  1
  O  O12  1  0.320529  0.064958  0.536964  1
  O  O13  1  0.069828  0.321119  0.462082  1
  O  O14  1  0.320529  0.064958  0.963036  1
  O  O15  1  0.069828  0.321119  0.037918  1
  O  O16  1  0.931999  0.063092  0.750000  1
  O  O17  1  0.072702  0.935172  0.250000  1
  O  O18  1  0.367806  0.643877  0.750000  1
  O  O19  1  0.639191  0.358475  0.250000  1
  O  O20  1  0.640758  0.352983  0.750000  1
  O  O21  1  0.353393  0.647765  0.250000  1
