# generated using pymatgen
data_Gd2(CO3)3
_symmetry_space_group_name_H-M   'P 1'
_cell_length_a   8.38278781
_cell_length_b   8.43342100
_cell_length_c   8.45788507
_cell_angle_alpha   119.91974995
_cell_angle_beta   90.06975493
_cell_angle_gamma   90.02211206
_symmetry_Int_Tables_number   1
_chemical_formula_structural   Gd2(CO3)3
_chemical_formula_sum   'Gd4 C6 O18'
_cell_volume   518.24447923
_cell_formula_units_Z   2
loop_
 _symmetry_equiv_pos_site_id
 _symmetry_equiv_pos_as_xyz
  1  'x, y, z'
loop_
 _atom_site_type_symbol
 _atom_site_label
 _atom_site_symmetry_multiplicity
 _atom_site_fract_x
 _atom_site_fract_y
 _atom_site_fract_z
 _atom_site_occupancy
  Gd  Gd0  1  0.968866  0.665400  0.332348  1
  Gd  Gd1  1  0.531179  0.667503  0.333496  1
  Gd  Gd2  1  0.468821  0.332497  0.666504  1
  Gd  Gd3  1  0.031134  0.334600  0.667652  1
  C  C4  1  0.249428  0.967595  0.373751  1
  C  C5  1  0.250081  0.406488  0.032918  1
  C  C6  1  0.749583  0.372629  0.406319  1
  C  C7  1  0.250417  0.627371  0.593681  1
  C  C8  1  0.749919  0.593512  0.967082  1
  C  C9  1  0.750572  0.032405  0.626249  1
  O  O10  1  0.115609  0.882019  0.322534  1
  O  O11  1  0.384070  0.883856  0.323463  1
  O  O12  1  0.749690  0.664350  0.144587  1
  O  O13  1  0.384143  0.441367  0.118032  1
  O  O14  1  0.115749  0.439668  0.116847  1
  O  O15  1  0.749264  0.479084  0.334666  1
  O  O16  1  0.751120  0.854468  0.518955  1
  O  O17  1  0.115952  0.677195  0.558972  1
  O  O18  1  0.384390  0.678296  0.559415  1
  O  O19  1  0.615610  0.321704  0.440585  1
  O  O20  1  0.884048  0.322805  0.441028  1
  O  O21  1  0.248880  0.145532  0.481045  1
  O  O22  1  0.250736  0.520916  0.665334  1
  O  O23  1  0.884251  0.560332  0.883153  1
  O  O24  1  0.615857  0.558633  0.881968  1
  O  O25  1  0.250310  0.335650  0.855413  1
  O  O26  1  0.615930  0.116144  0.676537  1
  O  O27  1  0.884391  0.117981  0.677466  1
