# generated using pymatgen
data_K4Mn(AsO4)2
_symmetry_space_group_name_H-M   'P 1'
_cell_length_a   5.40339262
_cell_length_b   6.12599310
_cell_length_c   8.06885738
_cell_angle_alpha   105.58828544
_cell_angle_beta   91.79625312
_cell_angle_gamma   98.29645508
_symmetry_Int_Tables_number   1
_chemical_formula_structural   K4Mn(AsO4)2
_chemical_formula_sum   'K4 Mn1 As2 O8'
_cell_volume   253.88206519
_cell_formula_units_Z   1
loop_
 _symmetry_equiv_pos_site_id
 _symmetry_equiv_pos_as_xyz
  1  'x, y, z'
loop_
 _atom_site_type_symbol
 _atom_site_label
 _atom_site_symmetry_multiplicity
 _atom_site_fract_x
 _atom_site_fract_y
 _atom_site_fract_z
 _atom_site_occupancy
  K  K0  1  0.286409  0.594027  0.167864  1
  K  K1  1  0.713591  0.405973  0.832136  1
  K  K2  1  0.192166  0.267068  0.527142  1
  K  K3  1  0.807834  0.732932  0.472858  1
  Mn  Mn4  1  0.000000  0.000000  0.000000  1
  As  As5  1  0.357685  0.847771  0.750125  1
  As  As6  1  0.642315  0.152229  0.249875  1
  O  O7  1  0.697059  0.275405  0.468685  1
  O  O8  1  0.324074  0.121647  0.199190  1
  O  O9  1  0.179426  0.683145  0.863210  1
  O  O10  1  0.675926  0.878353  0.800810  1
  O  O11  1  0.820574  0.316855  0.136790  1
  O  O12  1  0.755722  0.891849  0.190314  1
  O  O13  1  0.244278  0.108151  0.809686  1
  O  O14  1  0.302941  0.724595  0.531315  1
