# generated using pymatgen
data_Hf24As5P7
_symmetry_space_group_name_H-M   'P 1'
_cell_length_a   3.63357500
_cell_length_b   12.36941590
_cell_length_c   15.22224210
_cell_angle_alpha   89.95634141
_cell_angle_beta   90.00000000
_cell_angle_gamma   90.00000000
_symmetry_Int_Tables_number   1
_chemical_formula_structural   Hf24As5P7
_chemical_formula_sum   'Hf24 As5 P7'
_cell_volume   684.16652287
_cell_formula_units_Z   1
loop_
 _symmetry_equiv_pos_site_id
 _symmetry_equiv_pos_as_xyz
  1  'x, y, z'
loop_
 _atom_site_type_symbol
 _atom_site_label
 _atom_site_symmetry_multiplicity
 _atom_site_fract_x
 _atom_site_fract_y
 _atom_site_fract_z
 _atom_site_occupancy
  Hf  Hf0  1  0.000000  0.522925  0.104315  1
  Hf  Hf1  1  0.000000  0.101444  0.752684  1
  Hf  Hf2  1  0.000000  0.807494  0.706085  1
  Hf  Hf3  1  0.500000  0.974075  0.605103  1
  Hf  Hf4  1  0.500000  0.400081  0.251587  1
  Hf  Hf5  1  0.000000  0.119072  0.079734  1
  Hf  Hf6  1  0.500000  0.653253  0.972229  1
  Hf  Hf7  1  0.500000  0.915295  0.074359  1
  Hf  Hf8  1  0.500000  0.091031  0.923011  1
  Hf  Hf9  1  0.500000  0.023131  0.395638  1
  Hf  Hf10  1  0.500000  0.618652  0.421315  1
  Hf  Hf11  1  0.000000  0.900204  0.248894  1
  Hf  Hf12  1  0.500000  0.690502  0.209524  1
  Hf  Hf13  1  0.500000  0.312832  0.791080  1
  Hf  Hf14  1  0.000000  0.474071  0.892650  1
  Hf  Hf15  1  0.000000  0.882204  0.917149  1
  Hf  Hf16  1  0.000000  0.588942  0.578715  1
  Hf  Hf17  1  0.000000  0.415440  0.427120  1
  Hf  Hf18  1  0.000000  0.840962  0.477405  1
  Hf  Hf19  1  0.000000  0.190835  0.290635  1
  Hf  Hf20  1  0.500000  0.341719  0.021679  1
  Hf  Hf21  1  0.500000  0.384510  0.586965  1
  Hf  Hf22  1  0.000000  0.153909  0.527260  1
  Hf  Hf23  1  0.500000  0.594925  0.747572  1
  As  As24  1  0.500000  0.059891  0.211162  1
  As  As25  1  0.000000  0.754324  0.086000  1
  As  As26  1  0.500000  0.940596  0.787626  1
  As  As27  1  0.000000  0.559496  0.289377  1
  As  As28  1  0.500000  0.255253  0.413889  1
  P  P29  1  0.500000  0.188169  0.650488  1
  P  P30  1  0.500000  0.744864  0.588354  1
  P  P31  1  0.000000  0.687635  0.848837  1
  P  P32  1  0.500000  0.811634  0.351310  1
  P  P33  1  0.000000  0.246256  0.909277  1
  P  P34  1  0.000000  0.312153  0.148389  1
  P  P35  1  0.000000  0.442226  0.712583  1
