# generated using pymatgen
data_Rb6VIr2RhBr18
_symmetry_space_group_name_H-M   'P 1'
_cell_length_a   7.57592800
_cell_length_b   7.57592741
_cell_length_c   19.14843300
_cell_angle_alpha   90.00000000
_cell_angle_beta   90.00000000
_cell_angle_gamma   119.99999385
_symmetry_Int_Tables_number   1
_chemical_formula_structural   Rb6VIr2RhBr18
_chemical_formula_sum   'Rb6 V1 Ir2 Rh1 Br18'
_cell_volume   951.77773569
_cell_formula_units_Z   1
loop_
 _symmetry_equiv_pos_site_id
 _symmetry_equiv_pos_as_xyz
  1  'x, y, z'
loop_
 _atom_site_type_symbol
 _atom_site_label
 _atom_site_symmetry_multiplicity
 _atom_site_fract_x
 _atom_site_fract_y
 _atom_site_fract_z
 _atom_site_occupancy
  Rb  Rb0  1  0.666667  0.333333  0.560292  1
  Rb  Rb1  1  0.333333  0.666667  0.063302  1
  Rb  Rb2  1  0.333333  0.666667  0.433362  1
  Rb  Rb3  1  0.666667  0.333333  0.941257  1
  Rb  Rb4  1  0.000000  0.000000  0.249397  1
  Rb  Rb5  1  0.000000  0.000000  0.750319  1
  V  V6  1  0.666667  0.333333  0.168741  1
  Ir  Ir7  1  0.666667  0.333333  0.328593  1
  Ir  Ir8  1  0.333333  0.666667  0.834941  1
  Rh  Rh9  1  0.333333  0.666667  0.663515  1
  Br  Br10  1  0.822520  0.645039  0.403973  1
  Br  Br11  1  0.176859  0.823141  0.590359  1
  Br  Br12  1  0.646281  0.823141  0.590359  1
  Br  Br13  1  0.822520  0.177480  0.403973  1
  Br  Br14  1  0.354961  0.177480  0.403973  1
  Br  Br15  1  0.176803  0.353606  0.908731  1
  Br  Br16  1  0.034314  0.517157  0.750035  1
  Br  Br17  1  0.646394  0.823197  0.908731  1
  Br  Br18  1  0.826083  0.652166  0.096205  1
  Br  Br19  1  0.176859  0.353719  0.590359  1
  Br  Br20  1  0.482843  0.965686  0.750035  1
  Br  Br21  1  0.508181  0.491819  0.252791  1
  Br  Br22  1  0.482843  0.517157  0.750035  1
  Br  Br23  1  0.176803  0.823197  0.908731  1
  Br  Br24  1  0.347834  0.173917  0.096205  1
  Br  Br25  1  0.983639  0.491819  0.252791  1
  Br  Br26  1  0.508181  0.016361  0.252791  1
  Br  Br27  1  0.826083  0.173917  0.096205  1
