# generated using pymatgen
data_TmLuGa(Ni2P)6
_symmetry_space_group_name_H-M   'P 1'
_cell_length_a   9.10474600
_cell_length_b   9.10474435
_cell_length_c   3.64389200
_cell_angle_alpha   90.00000000
_cell_angle_beta   90.00000000
_cell_angle_gamma   119.99999874
_symmetry_Int_Tables_number   1
_chemical_formula_structural   TmLuGa(Ni2P)6
_chemical_formula_sum   'Tm1 Lu1 Ga1 Ni12 P6'
_cell_volume   261.59637651
_cell_formula_units_Z   1
loop_
 _symmetry_equiv_pos_site_id
 _symmetry_equiv_pos_as_xyz
  1  'x, y, z'
loop_
 _atom_site_type_symbol
 _atom_site_label
 _atom_site_symmetry_multiplicity
 _atom_site_fract_x
 _atom_site_fract_y
 _atom_site_fract_z
 _atom_site_occupancy
  Tm  Tm0  1  0.666667  0.333333  0.500000  1
  Lu  Lu1  1  0.333333  0.666667  0.000000  1
  Ga  Ga2  1  0.000000  0.000000  0.000000  1
  Ni  Ni3  1  0.438544  0.062489  0.000000  1
  Ni  Ni4  1  0.623946  0.561456  0.000000  1
  Ni  Ni5  1  0.937511  0.376054  0.000000  1
  Ni  Ni6  1  0.163830  0.293011  0.000000  1
  Ni  Ni7  1  0.129181  0.836170  0.000000  1
  Ni  Ni8  1  0.706989  0.870819  0.000000  1
  Ni  Ni9  1  0.383659  0.436671  0.500000  1
  Ni  Ni10  1  0.053013  0.616341  0.500000  1
  Ni  Ni11  1  0.563329  0.946987  0.500000  1
  Ni  Ni12  1  0.241914  0.105949  0.500000  1
  Ni  Ni13  1  0.864036  0.758086  0.500000  1
  Ni  Ni14  1  0.894051  0.135964  0.500000  1
  P  P15  1  0.406580  0.291147  0.000000  1
  P  P16  1  0.884568  0.593420  0.000000  1
  P  P17  1  0.708853  0.115432  0.000000  1
  P  P18  1  0.113576  0.407436  0.500000  1
  P  P19  1  0.293861  0.886424  0.500000  1
  P  P20  1  0.592564  0.706139  0.500000  1
