# generated using pymatgen
data_Sc6Sn6IrRh4Au
_symmetry_space_group_name_H-M   'P 1'
_cell_length_a   7.54693200
_cell_length_b   7.54693178
_cell_length_c   7.01546000
_cell_angle_alpha   90.00000000
_cell_angle_beta   90.00000000
_cell_angle_gamma   120.00000974
_symmetry_Int_Tables_number   1
_chemical_formula_structural   Sc6Sn6IrRh4Au
_chemical_formula_sum   'Sc6 Sn6 Ir1 Rh4 Au1'
_cell_volume   346.04103548
_cell_formula_units_Z   1
loop_
 _symmetry_equiv_pos_site_id
 _symmetry_equiv_pos_as_xyz
  1  'x, y, z'
loop_
 _atom_site_type_symbol
 _atom_site_label
 _atom_site_symmetry_multiplicity
 _atom_site_fract_x
 _atom_site_fract_y
 _atom_site_fract_z
 _atom_site_occupancy
  Sc  Sc0  1  0.389969  0.989736  0.244997  1
  Sc  Sc1  1  0.599767  0.610031  0.244997  1
  Sc  Sc2  1  0.010264  0.400233  0.244997  1
  Sc  Sc3  1  0.389490  0.988685  0.754977  1
  Sc  Sc4  1  0.599195  0.610510  0.754977  1
  Sc  Sc5  1  0.011315  0.400805  0.754977  1
  Sn  Sn6  1  0.282663  0.278553  0.999955  1
  Sn  Sn7  1  0.995890  0.717337  0.999955  1
  Sn  Sn8  1  0.004764  0.737632  0.499881  1
  Sn  Sn9  1  0.732867  0.995236  0.499881  1
  Sn  Sn10  1  0.262368  0.267133  0.499881  1
  Sn  Sn11  1  0.721447  0.004110  0.999955  1
  Ir  Ir12  1  0.333333  0.666667  0.499152  1
  Rh  Rh13  1  0.000000  0.000000  0.765403  1
  Rh  Rh14  1  0.000000  0.000000  0.234450  1
  Rh  Rh15  1  0.666667  0.333333  0.999324  1
  Rh  Rh16  1  0.333333  0.666667  0.000942  1
  Au  Au17  1  0.666667  0.333333  0.501293  1
