# generated using pymatgen
data_NdErTh2(Al3Rh)6
_symmetry_space_group_name_H-M   'P 1'
_cell_length_a   7.62310007
_cell_length_b   7.63366868
_cell_length_c   9.51755500
_cell_angle_alpha   90.00000000
_cell_angle_beta   90.00000000
_cell_angle_gamma   119.41998399
_symmetry_Int_Tables_number   1
_chemical_formula_structural   NdErTh2(Al3Rh)6
_chemical_formula_sum   'Nd1 Er1 Th2 Al18 Rh6'
_cell_volume   482.42486858
_cell_formula_units_Z   1
loop_
 _symmetry_equiv_pos_site_id
 _symmetry_equiv_pos_as_xyz
  1  'x, y, z'
loop_
 _atom_site_type_symbol
 _atom_site_label
 _atom_site_symmetry_multiplicity
 _atom_site_fract_x
 _atom_site_fract_y
 _atom_site_fract_z
 _atom_site_occupancy
  Nd  Nd0  1  0.004414  0.328769  0.250000  1
  Er  Er1  1  0.328115  0.005739  0.250000  1
  Th  Th2  1  0.995404  0.671227  0.750000  1
  Th  Th3  1  0.671459  0.994760  0.750000  1
  Al  Al4  1  0.135730  0.133838  0.750000  1
  Al  Al5  1  0.873095  0.872412  0.250000  1
  Al  Al6  1  0.005869  0.335519  0.571853  1
  Al  Al7  1  0.000719  0.667371  0.419734  1
  Al  Al8  1  0.000719  0.667371  0.080266  1
  Al  Al9  1  0.335347  0.004672  0.931678  1
  Al  Al10  1  0.005869  0.335519  0.928147  1
  Al  Al11  1  0.661623  0.998230  0.080193  1
  Al  Al12  1  0.661623  0.998230  0.419807  1
  Al  Al13  1  0.335347  0.004672  0.568322  1
  Al  Al14  1  0.333972  0.332224  0.054190  1
  Al  Al15  1  0.663182  0.663078  0.957863  1
  Al  Al16  1  0.663182  0.663078  0.542137  1
  Al  Al17  1  0.333972  0.332224  0.445810  1
  Al  Al18  1  0.341058  0.543393  0.750000  1
  Al  Al19  1  0.656926  0.448145  0.250000  1
  Al  Al20  1  0.543333  0.338401  0.750000  1
  Al  Al21  1  0.449502  0.661198  0.250000  1
  Rh  Rh22  1  0.672556  0.328520  0.501716  1
  Rh  Rh23  1  0.328755  0.673354  0.501870  1
  Rh  Rh24  1  0.328755  0.673354  0.998130  1
  Rh  Rh25  1  0.672556  0.328520  0.998284  1
  Rh  Rh26  1  0.998459  0.998091  0.502099  1
  Rh  Rh27  1  0.998459  0.998091  0.997901  1
