# generated using pymatgen
data_Sc4Si2Ir3Pt4
_symmetry_space_group_name_H-M   'P 1'
_cell_length_a   4.06645000
_cell_length_b   6.51339500
_cell_length_c   15.99341200
_cell_angle_alpha   90.00000000
_cell_angle_beta   90.00000000
_cell_angle_gamma   90.00000000
_symmetry_Int_Tables_number   1
_chemical_formula_structural   Sc4Si2Ir3Pt4
_chemical_formula_sum   'Sc8 Si4 Ir6 Pt8'
_cell_volume   423.60782919
_cell_formula_units_Z   2
loop_
 _symmetry_equiv_pos_site_id
 _symmetry_equiv_pos_as_xyz
  1  'x, y, z'
loop_
 _atom_site_type_symbol
 _atom_site_label
 _atom_site_symmetry_multiplicity
 _atom_site_fract_x
 _atom_site_fract_y
 _atom_site_fract_z
 _atom_site_occupancy
  Sc  Sc0  1  0.000000  0.277610  0.462709  1
  Sc  Sc1  1  0.000000  0.722390  0.537291  1
  Sc  Sc2  1  0.000000  0.777610  0.037291  1
  Sc  Sc3  1  0.000000  0.222390  0.962709  1
  Sc  Sc4  1  0.000000  0.531318  0.291144  1
  Sc  Sc5  1  0.000000  0.468682  0.708856  1
  Sc  Sc6  1  0.000000  0.031318  0.208856  1
  Sc  Sc7  1  0.000000  0.968682  0.791144  1
  Si  Si8  1  0.500000  0.842717  0.305401  1
  Si  Si9  1  0.500000  0.157283  0.694599  1
  Si  Si10  1  0.500000  0.342717  0.194599  1
  Si  Si11  1  0.500000  0.657283  0.805401  1
  Ir  Ir12  1  0.000000  0.903823  0.379532  1
  Ir  Ir13  1  0.000000  0.096177  0.620468  1
  Ir  Ir14  1  0.000000  0.403823  0.120468  1
  Ir  Ir15  1  0.000000  0.596177  0.879532  1
  Ir  Ir16  1  0.500000  0.500000  0.000000  1
  Ir  Ir17  1  0.500000  0.000000  0.500000  1
  Pt  Pt18  1  0.500000  0.602833  0.422443  1
  Pt  Pt19  1  0.500000  0.397167  0.577557  1
  Pt  Pt20  1  0.500000  0.102833  0.077557  1
  Pt  Pt21  1  0.500000  0.897167  0.922443  1
  Pt  Pt22  1  0.500000  0.212526  0.336950  1
  Pt  Pt23  1  0.500000  0.787474  0.663050  1
  Pt  Pt24  1  0.500000  0.712526  0.163050  1
  Pt  Pt25  1  0.500000  0.287474  0.836950  1
