# generated using pymatgen
data_ErTm2Zn4InPt4
_symmetry_space_group_name_H-M   'P 1'
_cell_length_a   4.15667200
_cell_length_b   6.82755172
_cell_length_c   8.05797967
_cell_angle_alpha   87.51509559
_cell_angle_beta   90.00000000
_cell_angle_gamma   90.00000000
_symmetry_Int_Tables_number   1
_chemical_formula_structural   ErTm2Zn4InPt4
_chemical_formula_sum   'Er1 Tm2 Zn4 In1 Pt4'
_cell_volume   228.46956458
_cell_formula_units_Z   1
loop_
 _symmetry_equiv_pos_site_id
 _symmetry_equiv_pos_as_xyz
  1  'x, y, z'
loop_
 _atom_site_type_symbol
 _atom_site_label
 _atom_site_symmetry_multiplicity
 _atom_site_fract_x
 _atom_site_fract_y
 _atom_site_fract_z
 _atom_site_occupancy
  Er  Er0  1  0.250000  0.536076  0.186383  1
  Tm  Tm1  1  0.750000  0.962833  0.670501  1
  Tm  Tm2  1  0.750000  0.458789  0.821616  1
  Zn  Zn3  1  0.250000  0.636856  0.561714  1
  Zn  Zn4  1  0.250000  0.136491  0.942692  1
  Zn  Zn5  1  0.750000  0.364825  0.440125  1
  Zn  Zn6  1  0.750000  0.865299  0.056600  1
  In  In7  1  0.250000  0.040238  0.321668  1
  Pt  Pt8  1  0.250000  0.252872  0.625401  1
  Pt  Pt9  1  0.250000  0.754304  0.870206  1
  Pt  Pt10  1  0.750000  0.748226  0.374126  1
  Pt  Pt11  1  0.750000  0.243190  0.128969  1
