# generated using pymatgen
data_Lu8Zr5Si16W7
_symmetry_space_group_name_H-M   'P 1'
_cell_length_a   6.76798620
_cell_length_b   7.00214002
_cell_length_c   13.33498363
_cell_angle_alpha   89.91961242
_cell_angle_beta   89.92701335
_cell_angle_gamma   90.17947021
_symmetry_Int_Tables_number   1
_chemical_formula_structural   Lu8Zr5Si16W7
_chemical_formula_sum   'Lu8 Zr5 Si16 W7'
_cell_volume   631.94579638
_cell_formula_units_Z   1
loop_
 _symmetry_equiv_pos_site_id
 _symmetry_equiv_pos_as_xyz
  1  'x, y, z'
loop_
 _atom_site_type_symbol
 _atom_site_label
 _atom_site_symmetry_multiplicity
 _atom_site_fract_x
 _atom_site_fract_y
 _atom_site_fract_z
 _atom_site_occupancy
  Lu  Lu0  1  0.502215  0.326137  0.092402  1
  Lu  Lu1  1  0.003759  0.175078  0.404293  1
  Lu  Lu2  1  0.497483  0.672714  0.597428  1
  Lu  Lu3  1  0.997674  0.827335  0.906309  1
  Lu  Lu4  1  0.497409  0.674263  0.903151  1
  Lu  Lu5  1  0.997350  0.826852  0.596769  1
  Lu  Lu6  1  0.501933  0.327139  0.403087  1
  Lu  Lu7  1  0.003224  0.175340  0.095469  1
  Zr  Zr8  1  0.671055  0.825077  0.374289  1
  Zr  Zr9  1  0.165829  0.668417  0.374531  1
  Zr  Zr10  1  0.663625  0.830217  0.122232  1
  Zr  Zr11  1  0.836071  0.330230  0.876386  1
  Zr  Zr12  1  0.334184  0.172620  0.625557  1
  Si  Si13  1  0.674555  0.041536  0.544682  1
  Si  Si14  1  0.174214  0.461372  0.960109  1
  Si  Si15  1  0.325244  0.962530  0.038918  1
  Si  Si16  1  0.830498  0.529632  0.466564  1
  Si  Si17  1  0.333983  0.969444  0.455656  1
  Si  Si18  1  0.846787  0.532917  0.046655  1
  Si  Si19  1  0.652050  0.033137  0.952323  1
  Si  Si20  1  0.154452  0.467190  0.547643  1
  Si  Si21  1  0.532396  0.382830  0.752555  1
  Si  Si22  1  0.032419  0.116029  0.750254  1
  Si  Si23  1  0.463642  0.611670  0.246474  1
  Si  Si24  1  0.973053  0.882118  0.245189  1
  Si  Si25  1  0.797865  0.637380  0.750329  1
  Si  Si26  1  0.296624  0.864661  0.750837  1
  Si  Si27  1  0.203110  0.362433  0.247640  1
  Si  Si28  1  0.705441  0.141177  0.248869  1
  W  W29  1  0.830057  0.328367  0.631053  1
  W  W30  1  0.326054  0.171108  0.873777  1
  W  W31  1  0.174480  0.669757  0.123096  1
  W  W32  1  0.660183  0.007598  0.751495  1
  W  W33  1  0.161205  0.495410  0.751181  1
  W  W34  1  0.339344  0.996067  0.246468  1
  W  W35  1  0.840535  0.504212  0.246329  1
