# generated using pymatgen
data_HfZr3Mn3Si4Ni
_symmetry_space_group_name_H-M   'P 1'
_cell_length_a   3.75892800
_cell_length_b   6.55859890
_cell_length_c   7.54398300
_cell_angle_alpha   90.18762793
_cell_angle_beta   90.00000000
_cell_angle_gamma   90.00000000
_symmetry_Int_Tables_number   1
_chemical_formula_structural   HfZr3Mn3Si4Ni
_chemical_formula_sum   'Hf1 Zr3 Mn3 Si4 Ni1'
_cell_volume   185.98308692
_cell_formula_units_Z   1
loop_
 _symmetry_equiv_pos_site_id
 _symmetry_equiv_pos_as_xyz
  1  'x, y, z'
loop_
 _atom_site_type_symbol
 _atom_site_label
 _atom_site_symmetry_multiplicity
 _atom_site_fract_x
 _atom_site_fract_y
 _atom_site_fract_z
 _atom_site_occupancy
  Hf  Hf0  1  0.750000  0.524149  0.818831  1
  Zr  Zr1  1  0.250000  0.975452  0.321338  1
  Zr  Zr2  1  0.250000  0.474889  0.180496  1
  Zr  Zr3  1  0.750000  0.018138  0.682013  1
  Mn  Mn4  1  0.250000  0.861939  0.933702  1
  Mn  Mn5  1  0.750000  0.644222  0.435595  1
  Mn  Mn6  1  0.750000  0.142977  0.062167  1
  Si  Si7  1  0.250000  0.721557  0.624011  1
  Si  Si8  1  0.250000  0.228957  0.874542  1
  Si  Si9  1  0.750000  0.275160  0.387141  1
  Si  Si10  1  0.750000  0.773083  0.117014  1
  Ni  Ni11  1  0.250000  0.359476  0.563151  1
