# generated using pymatgen
data_Ca6Ni15Sn8Rh
_symmetry_space_group_name_H-M   'P 1'
_cell_length_a   8.93677900
_cell_length_b   8.97037819
_cell_length_c   7.53835201
_cell_angle_alpha   90.10265733
_cell_angle_beta   90.00000000
_cell_angle_gamma   119.87617834
_symmetry_Int_Tables_number   1
_chemical_formula_structural   Ca6Ni15Sn8Rh
_chemical_formula_sum   'Ca6 Ni15 Sn8 Rh1'
_cell_volume   524.00859602
_cell_formula_units_Z   1
loop_
 _symmetry_equiv_pos_site_id
 _symmetry_equiv_pos_as_xyz
  1  'x, y, z'
loop_
 _atom_site_type_symbol
 _atom_site_label
 _atom_site_symmetry_multiplicity
 _atom_site_fract_x
 _atom_site_fract_y
 _atom_site_fract_z
 _atom_site_occupancy
  Ca  Ca0  1  0.470583  0.941167  0.501862  1
  Ca  Ca1  1  0.056569  0.527781  0.503799  1
  Ca  Ca2  1  0.471212  0.527781  0.503799  1
  Ca  Ca3  1  0.528108  0.056217  0.005003  1
  Ca  Ca4  1  0.942466  0.471951  0.001150  1
  Ca  Ca5  1  0.529485  0.471951  0.001150  1
  Ni  Ni6  1  0.323481  0.160823  0.667898  1
  Ni  Ni7  1  0.837340  0.160823  0.667898  1
  Ni  Ni8  1  0.163340  0.326680  0.168212  1
  Ni  Ni9  1  0.673152  0.838274  0.167830  1
  Ni  Ni10  1  0.165122  0.838274  0.167830  1
  Ni  Ni11  1  0.900990  0.801978  0.983598  1
  Ni  Ni12  1  0.203021  0.102076  0.981659  1
  Ni  Ni13  1  0.899058  0.102076  0.981659  1
  Ni  Ni14  1  0.102234  0.204470  0.481430  1
  Ni  Ni15  1  0.796483  0.901931  0.479345  1
  Ni  Ni16  1  0.105446  0.901931  0.479345  1
  Ni  Ni17  1  0.668202  0.336404  0.325690  1
  Ni  Ni18  1  0.333453  0.666907  0.825625  1
  Ni  Ni19  1  0.000768  0.001537  0.225455  1
  Ni  Ni20  1  0.001328  0.002656  0.723577  1
  Sn  Sn21  1  0.833531  0.667062  0.297265  1
  Sn  Sn22  1  0.336305  0.168989  0.300915  1
  Sn  Sn23  1  0.832684  0.168989  0.300915  1
  Sn  Sn24  1  0.168045  0.336090  0.802037  1
  Sn  Sn25  1  0.664458  0.832592  0.801466  1
  Sn  Sn26  1  0.168134  0.832592  0.801466  1
  Sn  Sn27  1  0.660763  0.321526  0.675897  1
  Sn  Sn28  1  0.332949  0.665899  0.175795  1
  Rh  Rh29  1  0.831287  0.662574  0.665872  1
