# generated using pymatgen
data_DySc(SbO4)2
_symmetry_space_group_name_H-M   'P 1'
_cell_length_a   5.31742534
_cell_length_b   7.47649997
_cell_length_c   7.57449908
_cell_angle_alpha   80.94260235
_cell_angle_beta   86.87883634
_cell_angle_gamma   91.00074880
_symmetry_Int_Tables_number   1
_chemical_formula_structural   DySc(SbO4)2
_chemical_formula_sum   'Dy2 Sc2 Sb4 O16'
_cell_volume   296.83034775
_cell_formula_units_Z   2
loop_
 _symmetry_equiv_pos_site_id
 _symmetry_equiv_pos_as_xyz
  1  'x, y, z'
loop_
 _atom_site_type_symbol
 _atom_site_label
 _atom_site_symmetry_multiplicity
 _atom_site_fract_x
 _atom_site_fract_y
 _atom_site_fract_z
 _atom_site_occupancy
  Dy  Dy0  1  0.749061  0.377233  0.372762  1
  Dy  Dy1  1  0.250939  0.622767  0.627238  1
  Sc  Sc2  1  0.717849  0.870232  0.335129  1
  Sc  Sc3  1  0.282151  0.129768  0.664871  1
  Sb  Sb4  1  0.775722  0.309419  0.839075  1
  Sb  Sb5  1  0.224278  0.690581  0.160925  1
  Sb  Sb6  1  0.248039  0.186387  0.170568  1
  Sb  Sb7  1  0.751961  0.813613  0.829432  1
  O  O8  1  0.899500  0.805484  0.070155  1
  O  O9  1  0.100500  0.194516  0.929845  1
  O  O10  1  0.385896  0.936731  0.176527  1
  O  O11  1  0.614104  0.063269  0.823473  1
  O  O12  1  0.098624  0.434562  0.176522  1
  O  O13  1  0.901376  0.565438  0.823478  1
  O  O14  1  0.580534  0.312599  0.070748  1
  O  O15  1  0.419466  0.687401  0.929252  1
  O  O16  1  0.998392  0.317533  0.611138  1
  O  O17  1  0.001608  0.682467  0.388862  1
  O  O18  1  0.416335  0.179800  0.401591  1
  O  O19  1  0.583665  0.820200  0.598409  1
  O  O20  1  0.489402  0.617672  0.331644  1
  O  O21  1  0.510598  0.382328  0.668356  1
  O  O22  1  0.927371  0.104631  0.302772  1
  O  O23  1  0.072629  0.895369  0.697228  1
