# generated using pymatgen
data_Dy12Si12Tc3Ir
_symmetry_space_group_name_H-M   'P 1'
_cell_length_a   4.18730300
_cell_length_b   10.83947487
_cell_length_c   12.40561900
_cell_angle_alpha   90.06865033
_cell_angle_beta   90.00000000
_cell_angle_gamma   90.00000000
_symmetry_Int_Tables_number   1
_chemical_formula_structural   Dy12Si12Tc3Ir
_chemical_formula_sum   'Dy12 Si12 Tc3 Ir1'
_cell_volume   563.06788565
_cell_formula_units_Z   1
loop_
 _symmetry_equiv_pos_site_id
 _symmetry_equiv_pos_as_xyz
  1  'x, y, z'
loop_
 _atom_site_type_symbol
 _atom_site_label
 _atom_site_symmetry_multiplicity
 _atom_site_fract_x
 _atom_site_fract_y
 _atom_site_fract_z
 _atom_site_occupancy
  Dy  Dy0  1  0.250000  0.879440  0.020666  1
  Dy  Dy1  1  0.250000  0.622511  0.521580  1
  Dy  Dy2  1  0.750000  0.120215  0.979682  1
  Dy  Dy3  1  0.750000  0.379888  0.479681  1
  Dy  Dy4  1  0.250000  0.921684  0.606033  1
  Dy  Dy5  1  0.250000  0.577759  0.104467  1
  Dy  Dy6  1  0.750000  0.077842  0.394871  1
  Dy  Dy7  1  0.750000  0.421658  0.893164  1
  Dy  Dy8  1  0.250000  0.664698  0.799944  1
  Dy  Dy9  1  0.250000  0.835513  0.299744  1
  Dy  Dy10  1  0.750000  0.335634  0.199898  1
  Dy  Dy11  1  0.750000  0.158789  0.699658  1
  Si  Si12  1  0.250000  0.010107  0.822397  1
  Si  Si13  1  0.250000  0.489225  0.321809  1
  Si  Si14  1  0.750000  0.987839  0.178685  1
  Si  Si15  1  0.750000  0.513695  0.678717  1
  Si  Si16  1  0.250000  0.248496  0.842217  1
  Si  Si17  1  0.250000  0.248650  0.343920  1
  Si  Si18  1  0.750000  0.749312  0.155583  1
  Si  Si19  1  0.750000  0.751444  0.658719  1
  Si  Si20  1  0.250000  0.200497  0.542211  1
  Si  Si21  1  0.250000  0.298995  0.041223  1
  Si  Si22  1  0.750000  0.801705  0.458936  1
  Si  Si23  1  0.750000  0.701613  0.956298  1
  Tc  Tc24  1  0.250000  0.391073  0.681598  1
  Tc  Tc25  1  0.250000  0.110485  0.180096  1
  Tc  Tc26  1  0.750000  0.611349  0.318791  1
  Ir  Ir27  1  0.750000  0.889883  0.819411  1
