# generated using pymatgen
data_Pa4Ti3Nb3Ge8
_symmetry_space_group_name_H-M   'P 1'
_cell_length_a   7.16213370
_cell_length_b   7.07513753
_cell_length_c   7.20616956
_cell_angle_alpha   70.08860296
_cell_angle_beta   89.98222467
_cell_angle_gamma   89.94920126
_symmetry_Int_Tables_number   1
_chemical_formula_structural   Pa4Ti3Nb3Ge8
_chemical_formula_sum   'Pa4 Ti3 Nb3 Ge8'
_cell_volume   343.32963102
_cell_formula_units_Z   1
loop_
 _symmetry_equiv_pos_site_id
 _symmetry_equiv_pos_as_xyz
  1  'x, y, z'
loop_
 _atom_site_type_symbol
 _atom_site_label
 _atom_site_symmetry_multiplicity
 _atom_site_fract_x
 _atom_site_fract_y
 _atom_site_fract_z
 _atom_site_occupancy
  Pa  Pa0  1  0.669526  0.940741  0.689185  1
  Pa  Pa1  1  0.330842  0.058295  0.310475  1
  Pa  Pa2  1  0.170897  0.559122  0.311854  1
  Pa  Pa3  1  0.829864  0.441730  0.686921  1
  Ti  Ti4  1  0.334569  0.253372  0.748665  1
  Ti  Ti5  1  0.164817  0.753189  0.748908  1
  Ti  Ti6  1  0.834497  0.246120  0.250821  1
  Nb  Nb7  1  0.664981  0.746940  0.252127  1
  Nb  Nb8  1  0.998722  0.999697  0.001072  1
  Nb  Nb9  1  0.500524  0.500715  0.001318  1
  Ge  Ge10  1  0.956377  0.857245  0.415012  1
  Ge  Ge11  1  0.047305  0.144105  0.587007  1
  Ge  Ge12  1  0.450662  0.643066  0.589224  1
  Ge  Ge13  1  0.546681  0.353195  0.414237  1
  Ge  Ge14  1  0.868264  0.632042  0.999887  1
  Ge  Ge15  1  0.134019  0.366309  0.998117  1
  Ge  Ge16  1  0.363982  0.868064  0.995174  1
  Ge  Ge17  1  0.633471  0.136055  0.999995  1
