# generated using pymatgen
data_La4YbCdIr2
_symmetry_space_group_name_H-M   'P 1'
_cell_length_a   9.27807388
_cell_length_b   9.27807322
_cell_length_c   9.27807400
_cell_angle_alpha   128.74694511
_cell_angle_beta   128.74694980
_cell_angle_gamma   75.41808590
_symmetry_Int_Tables_number   1
_chemical_formula_structural   La4YbCdIr2
_chemical_formula_sum   'La8 Yb2 Cd2 Ir4'
_cell_volume   472.77919285
_cell_formula_units_Z   2
loop_
 _symmetry_equiv_pos_site_id
 _symmetry_equiv_pos_as_xyz
  1  'x, y, z'
loop_
 _atom_site_type_symbol
 _atom_site_label
 _atom_site_symmetry_multiplicity
 _atom_site_fract_x
 _atom_site_fract_y
 _atom_site_fract_z
 _atom_site_occupancy
  La  La0  1  0.537142  0.037142  0.826487  1
  La  La1  1  0.210657  0.710657  0.173513  1
  La  La2  1  0.037142  0.210657  0.500000  1
  La  La3  1  0.710657  0.537142  0.500000  1
  La  La4  1  0.462858  0.962858  0.173513  1
  La  La5  1  0.789343  0.289343  0.826487  1
  La  La6  1  0.962858  0.789343  0.500000  1
  La  La7  1  0.289343  0.462858  0.500000  1
  Yb  Yb8  1  0.500000  0.500000  0.000000  1
  Yb  Yb9  1  0.000000  0.000000  0.000000  1
  Cd  Cd10  1  0.250000  0.250000  0.000000  1
  Cd  Cd11  1  0.750000  0.750000  0.000000  1
  Ir  Ir12  1  0.138289  0.638289  0.776577  1
  Ir  Ir13  1  0.861711  0.361711  0.223423  1
  Ir  Ir14  1  0.638289  0.861711  0.500000  1
  Ir  Ir15  1  0.361711  0.138289  0.500000  1
