# generated using pymatgen
data_Hf7Co16Si7TcP5
_symmetry_space_group_name_H-M   'P 1'
_cell_length_a   12.10983946
_cell_length_b   12.12441116
_cell_length_c   3.67225000
_cell_angle_alpha   90.00000000
_cell_angle_beta   90.00000000
_cell_angle_gamma   120.02990142
_symmetry_Int_Tables_number   1
_chemical_formula_structural   Hf7Co16Si7TcP5
_chemical_formula_sum   'Hf7 Co16 Si7 Tc1 P5'
_cell_volume   466.80014009
_cell_formula_units_Z   1
loop_
 _symmetry_equiv_pos_site_id
 _symmetry_equiv_pos_as_xyz
  1  'x, y, z'
loop_
 _atom_site_type_symbol
 _atom_site_label
 _atom_site_symmetry_multiplicity
 _atom_site_fract_x
 _atom_site_fract_y
 _atom_site_fract_z
 _atom_site_occupancy
  Hf  Hf0  1  0.810414  0.811504  0.500000  1
  Hf  Hf1  1  0.999571  0.179797  0.500000  1
  Hf  Hf2  1  0.557779  0.000573  0.000000  1
  Hf  Hf3  1  0.332376  0.661665  0.000000  1
  Hf  Hf4  1  0.664495  0.333891  0.000000  1
  Hf  Hf5  1  0.001057  0.559909  0.000000  1
  Hf  Hf6  1  0.183343  0.000979  0.500000  1
  Co  Co7  1  0.628371  0.817302  0.000000  1
  Co  Co8  1  0.367679  0.194568  0.000000  1
  Co  Co9  1  0.997618  0.726624  0.500000  1
  Co  Co10  1  0.274404  0.272187  0.500000  1
  Co  Co11  1  0.881555  0.359086  0.500000  1
  Co  Co12  1  0.723333  0.995231  0.500000  1
  Co  Co13  1  0.818199  0.630496  0.000000  1
  Co  Co14  1  0.177841  0.813297  0.000000  1
  Co  Co15  1  0.356945  0.883071  0.500000  1
  Co  Co16  1  0.131027  0.483345  0.500000  1
  Co  Co17  1  0.642889  0.523002  0.500000  1
  Co  Co18  1  0.999125  0.998843  0.000000  1
  Co  Co19  1  0.522201  0.642074  0.500000  1
  Co  Co20  1  0.479989  0.129571  0.500000  1
  Co  Co21  1  0.198727  0.367389  0.000000  1
  Co  Co22  1  0.808367  0.174046  0.000000  1
  Si  Si23  1  0.005193  0.350200  0.000000  1
  Si  Si24  1  0.823370  0.515524  0.500000  1
  Si  Si25  1  0.695032  0.177613  0.500000  1
  Si  Si26  1  0.513355  0.822471  0.500000  1
  Si  Si27  1  0.177970  0.695540  0.500000  1
  Si  Si28  1  0.480791  0.317162  0.500000  1
  Si  Si29  1  0.316367  0.478645  0.500000  1
  Tc  Tc30  1  0.446601  0.445134  0.000000  1
  P  P31  1  0.174362  0.173999  0.000000  1
  P  P32  1  0.638278  0.638656  0.000000  1
  P  P33  1  0.822814  0.997147  0.000000  1
  P  P34  1  0.350832  0.005393  0.000000  1
  P  P35  1  0.997731  0.824068  0.000000  1
