# generated using pymatgen
data_Yb4Er5LuRh4
_symmetry_space_group_name_H-M   'P 1'
_cell_length_a   6.38465851
_cell_length_b   7.20078076
_cell_length_c   8.47331300
_cell_angle_alpha   97.37885118
_cell_angle_beta   112.13258178
_cell_angle_gamma   89.99999085
_symmetry_Int_Tables_number   1
_chemical_formula_structural   Yb4Er5LuRh4
_chemical_formula_sum   'Yb4 Er5 Lu1 Rh4'
_cell_volume   357.36680737
_cell_formula_units_Z   1
loop_
 _symmetry_equiv_pos_site_id
 _symmetry_equiv_pos_as_xyz
  1  'x, y, z'
loop_
 _atom_site_type_symbol
 _atom_site_label
 _atom_site_symmetry_multiplicity
 _atom_site_fract_x
 _atom_site_fract_y
 _atom_site_fract_z
 _atom_site_occupancy
  Yb  Yb0  1  0.520279  0.079555  0.811231  1
  Yb  Yb1  1  0.480261  0.919406  0.188952  1
  Yb  Yb2  1  0.709048  0.420445  0.188769  1
  Yb  Yb3  1  0.291309  0.580594  0.811048  1
  Er  Er4  1  0.295849  0.311950  0.435737  1
  Er  Er5  1  0.703792  0.688290  0.564770  1
  Er  Er6  1  0.860114  0.188050  0.564263  1
  Er  Er7  1  0.139022  0.811710  0.435230  1
  Er  Er8  1  0.072715  0.250000  0.000000  1
  Lu  Lu9  1  0.929156  0.750000  0.000000  1
  Rh  Rh10  1  0.312505  0.573070  0.225828  1
  Rh  Rh11  1  0.687048  0.428929  0.774820  1
  Rh  Rh12  1  0.086677  0.926930  0.774172  1
  Rh  Rh13  1  0.912227  0.071071  0.225180  1
