# generated using pymatgen
data_YEr2(Ir2Rh)3
_symmetry_space_group_name_H-M   'P 1'
_cell_length_a   5.29797100
_cell_length_b   5.29797207
_cell_length_c   17.45345500
_cell_angle_alpha   90.00000000
_cell_angle_beta   90.00000000
_cell_angle_gamma   119.99998707
_symmetry_Int_Tables_number   1
_chemical_formula_structural   YEr2(Ir2Rh)3
_chemical_formula_sum   'Y2 Er4 Ir12 Rh6'
_cell_volume   424.25926980
_cell_formula_units_Z   2
loop_
 _symmetry_equiv_pos_site_id
 _symmetry_equiv_pos_as_xyz
  1  'x, y, z'
loop_
 _atom_site_type_symbol
 _atom_site_label
 _atom_site_symmetry_multiplicity
 _atom_site_fract_x
 _atom_site_fract_y
 _atom_site_fract_z
 _atom_site_occupancy
  Y  Y0  1  0.333333  0.666667  0.750000  1
  Y  Y1  1  0.666667  0.333333  0.250000  1
  Er  Er2  1  0.333333  0.666667  0.958266  1
  Er  Er3  1  0.666667  0.333333  0.041734  1
  Er  Er4  1  0.666667  0.333333  0.458266  1
  Er  Er5  1  0.333333  0.666667  0.541734  1
  Ir  Ir6  1  0.167654  0.832346  0.374566  1
  Ir  Ir7  1  0.167654  0.335307  0.374566  1
  Ir  Ir8  1  0.664693  0.832346  0.374566  1
  Ir  Ir9  1  0.832346  0.167654  0.625434  1
  Ir  Ir10  1  0.832346  0.664693  0.625434  1
  Ir  Ir11  1  0.335307  0.167654  0.625434  1
  Ir  Ir12  1  0.832346  0.167654  0.874566  1
  Ir  Ir13  1  0.832346  0.664693  0.874566  1
  Ir  Ir14  1  0.335307  0.167654  0.874566  1
  Ir  Ir15  1  0.167654  0.832346  0.125434  1
  Ir  Ir16  1  0.167654  0.335307  0.125434  1
  Ir  Ir17  1  0.664693  0.832346  0.125434  1
  Rh  Rh18  1  0.333333  0.666667  0.250000  1
  Rh  Rh19  1  0.666667  0.333333  0.750000  1
  Rh  Rh20  1  0.000000  0.000000  0.250000  1
  Rh  Rh21  1  0.000000  0.000000  0.750000  1
  Rh  Rh22  1  0.000000  0.000000  0.500000  1
  Rh  Rh23  1  0.000000  0.000000  0.000000  1
