# generated using pymatgen
data_Pr19YSi15Rh
_symmetry_space_group_name_H-M   'P 1'
_cell_length_a   7.91535954
_cell_length_b   7.92082323
_cell_length_c   15.29605457
_cell_angle_alpha   90.11933030
_cell_angle_beta   89.76392422
_cell_angle_gamma   90.12443099
_symmetry_Int_Tables_number   1
_chemical_formula_structural   Pr19YSi15Rh
_chemical_formula_sum   'Pr19 Y1 Si15 Rh1'
_cell_volume   958.99147778
_cell_formula_units_Z   1
loop_
 _symmetry_equiv_pos_site_id
 _symmetry_equiv_pos_as_xyz
  1  'x, y, z'
loop_
 _atom_site_type_symbol
 _atom_site_label
 _atom_site_symmetry_multiplicity
 _atom_site_fract_x
 _atom_site_fract_y
 _atom_site_fract_z
 _atom_site_occupancy
  Pr  Pr0  1  0.190102  0.807340  0.249891  1
  Pr  Pr1  1  0.818478  0.187638  0.750114  1
  Pr  Pr2  1  0.693514  0.688417  0.500202  1
  Pr  Pr3  1  0.373365  0.010705  0.448670  1
  Pr  Pr4  1  0.489792  0.875478  0.698431  1
  Pr  Pr5  1  0.509929  0.123944  0.197311  1
  Pr  Pr6  1  0.875806  0.488090  0.300062  1
  Pr  Pr7  1  0.125399  0.508467  0.800750  1
  Pr  Pr8  1  0.626633  0.988410  0.948776  1
  Pr  Pr9  1  0.004523  0.377344  0.551681  1
  Pr  Pr10  1  0.987938  0.625180  0.051330  1
  Pr  Pr11  1  0.134439  0.985296  0.874094  1
  Pr  Pr12  1  0.516984  0.630994  0.125387  1
  Pr  Pr13  1  0.473439  0.362556  0.629170  1
  Pr  Pr14  1  0.628434  0.515994  0.874072  1
  Pr  Pr15  1  0.373129  0.482569  0.373079  1
  Pr  Pr16  1  0.872834  0.020415  0.376811  1
  Pr  Pr17  1  0.981876  0.126897  0.123842  1
  Pr  Pr18  1  0.025564  0.879826  0.625473  1
  Y  Y19  1  0.308316  0.308210  0.998837  1
  Si  Si20  1  0.331401  0.692435  0.951679  1
  Si  Si21  1  0.663805  0.303544  0.452288  1
  Si  Si22  1  0.694395  0.333382  0.048675  1
  Si  Si23  1  0.304739  0.667783  0.548197  1
  Si  Si24  1  0.804848  0.832656  0.202854  1
  Si  Si25  1  0.167807  0.197326  0.297150  1
  Si  Si26  1  0.833924  0.802987  0.798889  1
  Si  Si27  1  0.288678  0.925892  0.058017  1
  Si  Si28  1  0.578870  0.787406  0.309923  1
  Si  Si29  1  0.423806  0.210143  0.815259  1
  Si  Si30  1  0.783368  0.580675  0.690558  1
  Si  Si31  1  0.213400  0.420211  0.187200  1
  Si  Si32  1  0.704753  0.074709  0.559152  1
  Si  Si33  1  0.924327  0.289137  0.942072  1
  Si  Si34  1  0.079476  0.714850  0.441512  1
  Rh  Rh35  1  0.191907  0.173099  0.698591  1
