# generated using pymatgen
data_K6YAlSb4
_symmetry_space_group_name_H-M   'P 1'
_cell_length_a   9.77272698
_cell_length_b   9.77272732
_cell_length_c   9.77272757
_cell_angle_alpha   128.14812061
_cell_angle_beta   69.52114528
_cell_angle_gamma   137.06820697
_symmetry_Int_Tables_number   1
_chemical_formula_structural   K6YAlSb4
_chemical_formula_sum   'K6 Y1 Al1 Sb4'
_cell_volume   490.73234253
_cell_formula_units_Z   1
loop_
 _symmetry_equiv_pos_site_id
 _symmetry_equiv_pos_as_xyz
  1  'x, y, z'
loop_
 _atom_site_type_symbol
 _atom_site_label
 _atom_site_symmetry_multiplicity
 _atom_site_fract_x
 _atom_site_fract_y
 _atom_site_fract_z
 _atom_site_occupancy
  K  K0  1  0.805773  0.181608  0.004465  1
  K  K1  1  0.694228  0.698693  0.375834  1
  K  K2  1  0.750000  0.250000  0.500000  1
  K  K3  1  0.250000  0.750000  0.499999  1
  K  K4  1  0.322858  0.318393  0.624165  1
  K  K5  1  0.177142  0.801308  0.995535  1
  Y  Y6  1  0.250000  0.250000  0.000000  1
  Al  Al7  1  0.750000  0.750000  0.000000  1
  Sb  Sb8  1  0.420325  0.713795  0.093021  1
  Sb  Sb9  1  0.079674  0.172695  0.293469  1
  Sb  Sb10  1  0.879225  0.786204  0.706532  1
  Sb  Sb11  1  0.620774  0.327305  0.906978  1
