# generated using pymatgen
data_Ca3Yb2Y(Ni7B2)2
_symmetry_space_group_name_H-M   'P 1'
_cell_length_a   5.08874400
_cell_length_b   5.08874400
_cell_length_c   14.29485200
_cell_angle_alpha   90.00000000
_cell_angle_beta   90.00000000
_cell_angle_gamma   120.00001300
_symmetry_Int_Tables_number   1
_chemical_formula_structural   Ca3Yb2Y(Ni7B2)2
_chemical_formula_sum   'Ca3 Yb2 Y1 Ni14 B4'
_cell_volume   320.57632410
_cell_formula_units_Z   1
loop_
 _symmetry_equiv_pos_site_id
 _symmetry_equiv_pos_as_xyz
  1  'x, y, z'
loop_
 _atom_site_type_symbol
 _atom_site_label
 _atom_site_symmetry_multiplicity
 _atom_site_fract_x
 _atom_site_fract_y
 _atom_site_fract_z
 _atom_site_occupancy
  Ca  Ca0  1  0.333333  0.666667  0.461990  1
  Ca  Ca1  1  0.333333  0.666667  0.034672  1
  Ca  Ca2  1  0.666667  0.333333  0.966371  1
  Yb  Yb3  1  0.666667  0.333333  0.753090  1
  Yb  Yb4  1  0.333333  0.666667  0.249414  1
  Y  Y5  1  0.666667  0.333333  0.535438  1
  Ni  Ni6  1  0.165666  0.331332  0.651558  1
  Ni  Ni7  1  0.332072  0.166035  0.348087  1
  Ni  Ni8  1  0.330284  0.165142  0.154194  1
  Ni  Ni9  1  0.165190  0.834810  0.845967  1
  Ni  Ni10  1  0.833965  0.667928  0.348087  1
  Ni  Ni11  1  0.834858  0.165142  0.154194  1
  Ni  Ni12  1  0.668668  0.834334  0.651558  1
  Ni  Ni13  1  0.669619  0.834810  0.845967  1
  Ni  Ni14  1  0.165666  0.834334  0.651558  1
  Ni  Ni15  1  0.834858  0.669716  0.154194  1
  Ni  Ni16  1  0.000000  0.000000  0.999922  1
  Ni  Ni17  1  0.165190  0.330381  0.845967  1
  Ni  Ni18  1  0.833965  0.166035  0.348087  1
  Ni  Ni19  1  0.000000  0.000000  0.500135  1
  B  B20  1  0.666667  0.333333  0.250341  1
  B  B21  1  0.000000  0.000000  0.748837  1
  B  B22  1  0.333333  0.666667  0.749382  1
  B  B23  1  0.000000  0.000000  0.250991  1
