# generated using pymatgen
data_InCu(IrS2)4
_symmetry_space_group_name_H-M   'P 1'
_cell_length_a   7.17654810
_cell_length_b   7.17654838
_cell_length_c   7.17654800
_cell_angle_alpha   60.00000174
_cell_angle_beta   60.00000048
_cell_angle_gamma   59.99999360
_symmetry_Int_Tables_number   1
_chemical_formula_structural   InCu(IrS2)4
_chemical_formula_sum   'In1 Cu1 Ir4 S8'
_cell_volume   261.35559366
_cell_formula_units_Z   1
loop_
 _symmetry_equiv_pos_site_id
 _symmetry_equiv_pos_as_xyz
  1  'x, y, z'
loop_
 _atom_site_type_symbol
 _atom_site_label
 _atom_site_symmetry_multiplicity
 _atom_site_fract_x
 _atom_site_fract_y
 _atom_site_fract_z
 _atom_site_occupancy
  In  In0  1  0.000000  0.000000  0.000000  1
  Cu  Cu1  1  0.250000  0.250000  0.250000  1
  Ir  Ir2  1  0.623334  0.129998  0.623334  1
  Ir  Ir3  1  0.129998  0.623334  0.623334  1
  Ir  Ir4  1  0.623334  0.623334  0.129998  1
  Ir  Ir5  1  0.623334  0.623334  0.623334  1
  S  S6  1  0.388098  0.388098  0.388098  1
  S  S7  1  0.856485  0.856485  0.430547  1
  S  S8  1  0.430547  0.856485  0.856485  1
  S  S9  1  0.856485  0.856485  0.856485  1
  S  S10  1  0.388098  0.835705  0.388098  1
  S  S11  1  0.388098  0.388098  0.835705  1
  S  S12  1  0.856485  0.430547  0.856485  1
  S  S13  1  0.835705  0.388098  0.388098  1
