# generated using pymatgen
data_Dy3Ho2V3(P3Ir4)4
_symmetry_space_group_name_H-M   'P 1'
_cell_length_a   12.67699300
_cell_length_b   12.67699327
_cell_length_c   3.95608600
_cell_angle_alpha   90.00000000
_cell_angle_beta   90.00000000
_cell_angle_gamma   120.00000192
_symmetry_Int_Tables_number   1
_chemical_formula_structural   Dy3Ho2V3(P3Ir4)4
_chemical_formula_sum   'Dy3 Ho2 V3 P12 Ir16'
_cell_volume   550.59068225
_cell_formula_units_Z   1
loop_
 _symmetry_equiv_pos_site_id
 _symmetry_equiv_pos_as_xyz
  1  'x, y, z'
loop_
 _atom_site_type_symbol
 _atom_site_label
 _atom_site_symmetry_multiplicity
 _atom_site_fract_x
 _atom_site_fract_y
 _atom_site_fract_z
 _atom_site_occupancy
  Dy  Dy0  1  0.000000  0.811595  0.000000  1
  Dy  Dy1  1  0.188405  0.188405  0.000000  1
  Dy  Dy2  1  0.811595  0.000000  0.000000  1
  Ho  Ho3  1  0.333333  0.666667  0.500000  1
  Ho  Ho4  1  0.666667  0.333333  0.500000  1
  V  V5  1  0.000000  0.450996  0.500000  1
  V  V6  1  0.549004  0.549004  0.500000  1
  V  V7  1  0.450996  0.000000  0.500000  1
  P  P8  1  0.000000  0.636057  0.500000  1
  P  P9  1  0.363943  0.363943  0.500000  1
  P  P10  1  0.636057  0.000000  0.500000  1
  P  P11  1  0.516576  0.683720  0.000000  1
  P  P12  1  0.316280  0.832855  0.000000  1
  P  P13  1  0.167145  0.483424  0.000000  1
  P  P14  1  0.483424  0.167145  0.000000  1
  P  P15  1  0.683720  0.516576  0.000000  1
  P  P16  1  0.832855  0.316280  0.000000  1
  P  P17  1  0.000000  0.177184  0.500000  1
  P  P18  1  0.822816  0.822816  0.500000  1
  P  P19  1  0.177184  0.000000  0.500000  1
  Ir  Ir20  1  0.509389  0.867362  0.000000  1
  Ir  Ir21  1  0.132638  0.642028  0.000000  1
  Ir  Ir22  1  0.357972  0.490611  0.000000  1
  Ir  Ir23  1  0.490611  0.357972  0.000000  1
  Ir  Ir24  1  0.867362  0.509389  0.000000  1
  Ir  Ir25  1  0.642028  0.132638  0.000000  1
  Ir  Ir26  1  0.000000  0.285415  0.000000  1
  Ir  Ir27  1  0.714585  0.714585  0.000000  1
  Ir  Ir28  1  0.285415  0.000000  0.000000  1
  Ir  Ir29  1  0.625263  0.803911  0.500000  1
  Ir  Ir30  1  0.196089  0.821353  0.500000  1
  Ir  Ir31  1  0.178647  0.374737  0.500000  1
  Ir  Ir32  1  0.374737  0.178647  0.500000  1
  Ir  Ir33  1  0.803911  0.625263  0.500000  1
  Ir  Ir34  1  0.821353  0.196089  0.500000  1
  Ir  Ir35  1  0.000000  0.000000  0.500000  1
