# generated using pymatgen
data_Ce2NdNiIr8
_symmetry_space_group_name_H-M   'P 1'
_cell_length_a   9.23390289
_cell_length_b   9.23390297
_cell_length_c   9.23390314
_cell_angle_alpha   33.61379629
_cell_angle_beta   33.61379843
_cell_angle_gamma   33.61380114
_symmetry_Int_Tables_number   1
_chemical_formula_structural   Ce2NdNiIr8
_chemical_formula_sum   'Ce2 Nd1 Ni1 Ir8'
_cell_volume   214.94088896
_cell_formula_units_Z   1
loop_
 _symmetry_equiv_pos_site_id
 _symmetry_equiv_pos_as_xyz
  1  'x, y, z'
loop_
 _atom_site_type_symbol
 _atom_site_label
 _atom_site_symmetry_multiplicity
 _atom_site_fract_x
 _atom_site_fract_y
 _atom_site_fract_z
 _atom_site_occupancy
  Ce  Ce0  1  0.859814  0.859814  0.859814  1
  Ce  Ce1  1  0.138364  0.138364  0.138364  1
  Nd  Nd2  1  0.999484  0.999484  0.999484  1
  Ni  Ni3  1  0.333439  0.333439  0.333439  1
  Ir  Ir4  1  0.415866  0.924117  0.415866  1
  Ir  Ir5  1  0.415866  0.415866  0.924117  1
  Ir  Ir6  1  0.924117  0.415866  0.415866  1
  Ir  Ir7  1  0.580460  0.083711  0.580460  1
  Ir  Ir8  1  0.580460  0.580460  0.083711  1
  Ir  Ir9  1  0.083711  0.580460  0.580460  1
  Ir  Ir10  1  0.667202  0.667202  0.667202  1
  Ir  Ir11  1  0.501218  0.501218  0.501218  1
