# generated using pymatgen
data_Tb9Ho(SiBi)4
_symmetry_space_group_name_H-M   'P 1'
_cell_length_a   8.69907300
_cell_length_b   8.69907328
_cell_length_c   7.96447200
_cell_angle_alpha   89.99907619
_cell_angle_beta   89.99907853
_cell_angle_gamma   125.62512913
_symmetry_Int_Tables_number   1
_chemical_formula_structural   Tb9Ho(SiBi)4
_chemical_formula_sum   'Tb9 Ho1 Si4 Bi4'
_cell_volume   489.90389410
_cell_formula_units_Z   1
loop_
 _symmetry_equiv_pos_site_id
 _symmetry_equiv_pos_as_xyz
  1  'x, y, z'
loop_
 _atom_site_type_symbol
 _atom_site_label
 _atom_site_symmetry_multiplicity
 _atom_site_fract_x
 _atom_site_fract_y
 _atom_site_fract_z
 _atom_site_occupancy
  Tb  Tb0  1  0.043495  0.287709  0.335011  1
  Tb  Tb1  1  0.956505  0.712291  0.664989  1
  Tb  Tb2  1  0.456691  0.212517  0.834870  1
  Tb  Tb3  1  0.787483  0.543309  0.165130  1
  Tb  Tb4  1  0.543309  0.787483  0.165130  1
  Tb  Tb5  1  0.212517  0.456691  0.834870  1
  Tb  Tb6  1  0.712291  0.956505  0.664989  1
  Tb  Tb7  1  0.287709  0.043495  0.335011  1
  Tb  Tb8  1  0.000000  0.000000  0.000000  1
  Ho  Ho9  1  0.500000  0.500000  0.500000  1
  Si  Si10  1  0.366524  0.366524  0.132798  1
  Si  Si11  1  0.633476  0.633476  0.867202  1
  Si  Si12  1  0.133888  0.133888  0.632310  1
  Si  Si13  1  0.866112  0.866112  0.367690  1
  Bi  Bi14  1  0.792323  0.207677  0.000000  1
  Bi  Bi15  1  0.207677  0.792323  0.000000  1
  Bi  Bi16  1  0.707393  0.292607  0.500000  1
  Bi  Bi17  1  0.292607  0.707393  0.500000  1
