# generated using pymatgen
data_CaPr2Sm4OsBr12
_symmetry_space_group_name_H-M   'P 1'
_cell_length_a   9.51679703
_cell_length_b   9.49368721
_cell_length_c   9.58467263
_cell_angle_alpha   107.17452855
_cell_angle_beta   106.81328053
_cell_angle_gamma   106.99117613
_symmetry_Int_Tables_number   1
_chemical_formula_structural   CaPr2Sm4OsBr12
_chemical_formula_sum   'Ca1 Pr2 Sm4 Os1 Br12'
_cell_volume   721.32059199
_cell_formula_units_Z   1
loop_
 _symmetry_equiv_pos_site_id
 _symmetry_equiv_pos_as_xyz
  1  'x, y, z'
loop_
 _atom_site_type_symbol
 _atom_site_label
 _atom_site_symmetry_multiplicity
 _atom_site_fract_x
 _atom_site_fract_y
 _atom_site_fract_z
 _atom_site_occupancy
  Ca  Ca0  1  0.500565  0.499912  0.501297  1
  Pr  Pr1  1  0.312351  0.103221  0.024209  1
  Pr  Pr2  1  0.026717  0.314643  0.104661  1
  Sm  Sm3  1  0.106359  0.026869  0.319295  1
  Sm  Sm4  1  0.890547  0.973393  0.679095  1
  Sm  Sm5  1  0.973862  0.690719  0.896079  1
  Sm  Sm6  1  0.692126  0.895318  0.974612  1
  Os  Os7  1  0.999676  0.000297  0.998996  1
  Br  Br8  1  0.681525  0.215631  0.068244  1
  Br  Br9  1  0.384149  0.461583  0.169476  1
  Br  Br10  1  0.069091  0.687016  0.218016  1
  Br  Br11  1  0.780609  0.930080  0.315286  1
  Br  Br12  1  0.454069  0.162452  0.381306  1
  Br  Br13  1  0.165424  0.377020  0.459398  1
  Br  Br14  1  0.837371  0.623083  0.546441  1
  Br  Br15  1  0.545361  0.837648  0.625261  1
  Br  Br16  1  0.213636  0.067197  0.677343  1
  Br  Br17  1  0.928891  0.315886  0.776008  1
  Br  Br18  1  0.623840  0.544703  0.836531  1
  Br  Br19  1  0.313835  0.773332  0.928451  1
