# generated using pymatgen
data_Ba3Sr9(InAs3)4
_symmetry_space_group_name_H-M   'P 1'
_cell_length_a   4.53105300
_cell_length_b   13.57541673
_cell_length_c   14.39740469
_cell_angle_alpha   90.19964277
_cell_angle_beta   90.00000000
_cell_angle_gamma   90.00000000
_symmetry_Int_Tables_number   1
_chemical_formula_structural   Ba3Sr9(InAs3)4
_chemical_formula_sum   'Ba3 Sr9 In4 As12'
_cell_volume   885.59241462
_cell_formula_units_Z   1
loop_
 _symmetry_equiv_pos_site_id
 _symmetry_equiv_pos_as_xyz
  1  'x, y, z'
loop_
 _atom_site_type_symbol
 _atom_site_label
 _atom_site_symmetry_multiplicity
 _atom_site_fract_x
 _atom_site_fract_y
 _atom_site_fract_z
 _atom_site_occupancy
  Ba  Ba0  1  0.750000  0.075114  0.604142  1
  Ba  Ba1  1  0.750000  0.574628  0.896776  1
  Ba  Ba2  1  0.250000  0.647165  0.498269  1
  Sr  Sr3  1  0.250000  0.421761  0.111165  1
  Sr  Sr4  1  0.250000  0.141672  0.006317  1
  Sr  Sr5  1  0.250000  0.219738  0.294227  1
  Sr  Sr6  1  0.750000  0.276855  0.793586  1
  Sr  Sr7  1  0.750000  0.365072  0.508685  1
  Sr  Sr8  1  0.250000  0.924990  0.386254  1
  Sr  Sr9  1  0.750000  0.778059  0.711922  1
  Sr  Sr10  1  0.750000  0.868460  0.991936  1
  Sr  Sr11  1  0.250000  0.720048  0.199717  1
  In  In12  1  0.750000  0.551871  0.300598  1
  In  In13  1  0.750000  0.051546  0.198078  1
  In  In14  1  0.250000  0.448262  0.706404  1
  In  In15  1  0.250000  0.951116  0.796728  1
  As  As16  1  0.750000  0.240218  0.128715  1
  As  As17  1  0.750000  0.745448  0.361791  1
  As  As18  1  0.750000  0.584783  0.117227  1
  As  As19  1  0.250000  0.264503  0.627321  1
  As  As20  1  0.250000  0.766554  0.874292  1
  As  As21  1  0.750000  0.088756  0.381647  1
  As  As22  1  0.250000  0.897879  0.612977  1
  As  As23  1  0.250000  0.397824  0.889280  1
  As  As24  1  0.750000  0.052929  0.856588  1
  As  As25  1  0.250000  0.446514  0.355217  1
  As  As26  1  0.250000  0.948599  0.141369  1
  As  As27  1  0.750000  0.549638  0.648770  1
