# generated using pymatgen
data_Tb17Lu3Sn7Pb9
_symmetry_space_group_name_H-M   'P 1'
_cell_length_a   8.13256300
_cell_length_b   8.22792012
_cell_length_c   15.64444800
_cell_angle_alpha   90.00000000
_cell_angle_beta   90.00000000
_cell_angle_gamma   89.93020533
_symmetry_Int_Tables_number   1
_chemical_formula_structural   Tb17Lu3Sn7Pb9
_chemical_formula_sum   'Tb17 Lu3 Sn7 Pb9'
_cell_volume   1046.83304910
_cell_formula_units_Z   1
loop_
 _symmetry_equiv_pos_site_id
 _symmetry_equiv_pos_as_xyz
  1  'x, y, z'
loop_
 _atom_site_type_symbol
 _atom_site_label
 _atom_site_symmetry_multiplicity
 _atom_site_fract_x
 _atom_site_fract_y
 _atom_site_fract_z
 _atom_site_occupancy
  Tb  Tb0  1  0.376679  0.839606  0.876951  1
  Tb  Tb1  1  0.876113  0.661791  0.622089  1
  Tb  Tb2  1  0.623817  0.161452  0.377168  1
  Tb  Tb3  1  0.122727  0.339769  0.122323  1
  Tb  Tb4  1  0.623817  0.161452  0.122832  1
  Tb  Tb5  1  0.122727  0.339769  0.377677  1
  Tb  Tb6  1  0.376679  0.839606  0.623049  1
  Tb  Tb7  1  0.876113  0.661791  0.877911  1
  Tb  Tb8  1  0.530244  0.323237  0.898452  1
  Tb  Tb9  1  0.034916  0.175003  0.600691  1
  Tb  Tb10  1  0.468059  0.676516  0.397446  1
  Tb  Tb11  1  0.967188  0.822515  0.102388  1
  Tb  Tb12  1  0.468059  0.676516  0.102554  1
  Tb  Tb13  1  0.967188  0.822515  0.397612  1
  Tb  Tb14  1  0.530244  0.323237  0.601548  1
  Tb  Tb15  1  0.034916  0.175003  0.899309  1
  Tb  Tb16  1  0.291840  0.002840  0.250000  1
  Lu  Lu17  1  0.210757  0.505277  0.750000  1
  Lu  Lu18  1  0.706571  0.993165  0.750000  1
  Lu  Lu19  1  0.791034  0.495784  0.250000  1
  Sn  Sn20  1  0.573025  0.622609  0.750000  1
  Sn  Sn21  1  0.072273  0.879181  0.750000  1
  Sn  Sn22  1  0.426406  0.379989  0.250000  1
  Sn  Sn23  1  0.925219  0.121765  0.250000  1
  Sn  Sn24  1  0.339867  0.150915  0.750000  1
  Sn  Sn25  1  0.661342  0.850090  0.250000  1
  Sn  Sn26  1  0.159467  0.646610  0.250000  1
  Pb  Pb27  1  0.284177  0.033189  0.042443  1
  Pb  Pb28  1  0.782909  0.466431  0.457414  1
  Pb  Pb29  1  0.716284  0.968322  0.543059  1
  Pb  Pb30  1  0.216398  0.534757  0.957344  1
  Pb  Pb31  1  0.716284  0.968322  0.956941  1
  Pb  Pb32  1  0.216398  0.534757  0.542656  1
  Pb  Pb33  1  0.284177  0.033189  0.457557  1
  Pb  Pb34  1  0.782909  0.466431  0.042586  1
  Pb  Pb35  1  0.843183  0.346595  0.750000  1
