# generated using pymatgen
data_Er12Fe4BiRh
_symmetry_space_group_name_H-M   'P 1'
_cell_length_a   8.25540808
_cell_length_b   8.25320684
_cell_length_c   8.25540853
_cell_angle_alpha   111.21770324
_cell_angle_beta   111.00634379
_cell_angle_gamma   106.24750111
_symmetry_Int_Tables_number   1
_chemical_formula_structural   Er12Fe4BiRh
_chemical_formula_sum   'Er12 Fe4 Bi1 Rh1'
_cell_volume   431.91012492
_cell_formula_units_Z   1
loop_
 _symmetry_equiv_pos_site_id
 _symmetry_equiv_pos_as_xyz
  1  'x, y, z'
loop_
 _atom_site_type_symbol
 _atom_site_label
 _atom_site_symmetry_multiplicity
 _atom_site_fract_x
 _atom_site_fract_y
 _atom_site_fract_z
 _atom_site_occupancy
  Er  Er0  1  0.285597  0.185240  0.470715  1
  Er  Er1  1  0.714403  0.814760  0.529285  1
  Er  Er2  1  0.285475  0.814760  0.100358  1
  Er  Er3  1  0.714525  0.185240  0.899642  1
  Er  Er4  1  0.614411  0.308638  0.305794  1
  Er  Er5  1  0.385589  0.691362  0.694206  1
  Er  Er6  1  0.002845  0.308638  0.694227  1
  Er  Er7  1  0.997155  0.691362  0.305773  1
  Er  Er8  1  0.211718  0.410631  0.198913  1
  Er  Er9  1  0.788282  0.589369  0.801087  1
  Er  Er10  1  0.211450  0.012495  0.801046  1
  Er  Er11  1  0.788550  0.987505  0.198954  1
  Fe  Fe12  1  0.000571  0.384968  0.384397  1
  Fe  Fe13  1  0.999429  0.615032  0.615603  1
  Fe  Fe14  1  0.393160  0.893137  0.499978  1
  Fe  Fe15  1  0.606840  0.106863  0.500022  1
  Bi  Bi16  1  0.500000  0.500000  0.000000  1
  Rh  Rh17  1  0.000000  0.000000  0.000000  1
