# generated using pymatgen
data_SmAl2SiPt
_symmetry_space_group_name_H-M   'P 1'
_cell_length_a   4.19931576
_cell_length_b   4.19931534
_cell_length_c   6.11231291
_cell_angle_alpha   110.09103385
_cell_angle_beta   110.09102984
_cell_angle_gamma   90.00000421
_symmetry_Int_Tables_number   1
_chemical_formula_structural   SmAl2SiPt
_chemical_formula_sum   'Sm1 Al2 Si1 Pt1'
_cell_volume   94.21254156
_cell_formula_units_Z   1
loop_
 _symmetry_equiv_pos_site_id
 _symmetry_equiv_pos_as_xyz
  1  'x, y, z'
loop_
 _atom_site_type_symbol
 _atom_site_label
 _atom_site_symmetry_multiplicity
 _atom_site_fract_x
 _atom_site_fract_y
 _atom_site_fract_z
 _atom_site_occupancy
  Sm  Sm0  1  0.572765  0.572765  0.145532  1
  Al  Al1  1  0.337578  0.837578  0.675155  1
  Al  Al2  1  0.837578  0.337578  0.675155  1
  Si  Si3  1  0.993329  0.993329  0.986658  1
  Pt  Pt4  1  0.216549  0.216549  0.433098  1
