# generated using pymatgen
data_La3TbDy12(CdNi)4
_symmetry_space_group_name_H-M   'P 1'
_cell_length_a   9.67030349
_cell_length_b   9.64569628
_cell_length_c   9.64569600
_cell_angle_alpha   60.00000095
_cell_angle_beta   60.08414053
_cell_angle_gamma   60.08413580
_symmetry_Int_Tables_number   1
_chemical_formula_structural   La3TbDy12(CdNi)4
_chemical_formula_sum   'La3 Tb1 Dy12 Cd4 Ni4'
_cell_volume   637.00582896
_cell_formula_units_Z   1
loop_
 _symmetry_equiv_pos_site_id
 _symmetry_equiv_pos_as_xyz
  1  'x, y, z'
loop_
 _atom_site_type_symbol
 _atom_site_label
 _atom_site_symmetry_multiplicity
 _atom_site_fract_x
 _atom_site_fract_y
 _atom_site_fract_z
 _atom_site_occupancy
  La  La0  1  0.596332  0.600768  0.600768  1
  La  La1  1  0.596332  0.600768  0.202134  1
  La  La2  1  0.596332  0.202134  0.600768  1
  Tb  Tb3  1  0.197440  0.600854  0.600854  1
  Dy  Dy4  1  0.063746  0.437122  0.437122  1
  Dy  Dy5  1  0.437092  0.063733  0.063733  1
  Dy  Dy6  1  0.437092  0.063733  0.435442  1
  Dy  Dy7  1  0.063746  0.437122  0.062011  1
  Dy  Dy8  1  0.437092  0.435442  0.063733  1
  Dy  Dy9  1  0.063746  0.062011  0.437122  1
  Dy  Dy10  1  0.183126  0.816553  0.816553  1
  Dy  Dy11  1  0.816608  0.183600  0.183600  1
  Dy  Dy12  1  0.816608  0.183600  0.816192  1
  Dy  Dy13  1  0.183126  0.816553  0.183767  1
  Dy  Dy14  1  0.816608  0.816192  0.183600  1
  Dy  Dy15  1  0.183126  0.183767  0.816553  1
  Cd  Cd16  1  0.837348  0.830196  0.830196  1
  Cd  Cd17  1  0.837348  0.830196  0.502260  1
  Cd  Cd18  1  0.837348  0.502260  0.830196  1
  Cd  Cd19  1  0.503830  0.832057  0.832057  1
  Ni  Ni20  1  0.388383  0.391972  0.391972  1
  Ni  Ni21  1  0.388383  0.391972  0.827671  1
  Ni  Ni22  1  0.388383  0.827671  0.391972  1
  Ni  Ni23  1  0.830824  0.389725  0.389725  1
