# generated using pymatgen
data_YbTh(BRu)4
_symmetry_space_group_name_H-M   'P 1'
_cell_length_a   6.73839203
_cell_length_b   5.97337961
_cell_length_c   5.57502179
_cell_angle_alpha   71.29792626
_cell_angle_beta   57.10453690
_cell_angle_gamma   51.59752688
_symmetry_Int_Tables_number   1
_chemical_formula_structural   YbTh(BRu)4
_chemical_formula_sum   'Yb1 Th1 B4 Ru4'
_cell_volume   147.61109466
_cell_formula_units_Z   1
loop_
 _symmetry_equiv_pos_site_id
 _symmetry_equiv_pos_as_xyz
  1  'x, y, z'
loop_
 _atom_site_type_symbol
 _atom_site_label
 _atom_site_symmetry_multiplicity
 _atom_site_fract_x
 _atom_site_fract_y
 _atom_site_fract_z
 _atom_site_occupancy
  Yb  Yb0  1  0.000000  0.000000  0.000000  1
  Th  Th1  1  0.250000  0.250000  0.250000  1
  B  B2  1  0.312545  0.687455  0.312545  1
  B  B3  1  0.687455  0.312545  0.687455  1
  B  B4  1  0.569437  0.930563  0.569437  1
  B  B5  1  0.930563  0.569437  0.930563  1
  Ru  Ru6  1  0.636676  0.636676  0.363324  1
  Ru  Ru7  1  0.363324  0.363324  0.636676  1
  Ru  Ru8  1  0.611935  0.611935  0.888065  1
  Ru  Ru9  1  0.888065  0.888065  0.611935  1
