# generated using pymatgen
data_La5ErThScBi10
_symmetry_space_group_name_H-M   'P 1'
_cell_length_a   9.84746534
_cell_length_b   9.85884437
_cell_length_c   6.68689321
_cell_angle_alpha   90.03028640
_cell_angle_beta   89.98483235
_cell_angle_gamma   120.03822728
_symmetry_Int_Tables_number   1
_chemical_formula_structural   La5ErThScBi10
_chemical_formula_sum   'La5 Er1 Th1 Sc1 Bi10'
_cell_volume   562.00219259
_cell_formula_units_Z   1
loop_
 _symmetry_equiv_pos_site_id
 _symmetry_equiv_pos_as_xyz
  1  'x, y, z'
loop_
 _atom_site_type_symbol
 _atom_site_label
 _atom_site_symmetry_multiplicity
 _atom_site_fract_x
 _atom_site_fract_y
 _atom_site_fract_z
 _atom_site_occupancy
  La  La0  1  0.379851  0.380191  0.249924  1
  La  La1  1  0.383299  0.001198  0.750060  1
  La  La2  1  0.616701  0.617899  0.750060  1
  La  La3  1  0.620149  0.000339  0.249924  1
  La  La4  1  0.000000  0.380078  0.750111  1
  Er  Er5  1  0.000000  0.000022  0.998971  1
  Th  Th6  1  0.000000  0.618029  0.250401  1
  Sc  Sc7  1  0.000000  0.000521  0.500926  1
  Bi  Bi8  1  0.000000  0.265734  0.255188  1
  Bi  Bi9  1  0.329839  0.666780  0.498028  1
  Bi  Bi10  1  0.670281  0.337107  0.002071  1
  Bi  Bi11  1  0.329719  0.666828  0.002071  1
  Bi  Bi12  1  0.264661  0.263946  0.743859  1
  Bi  Bi13  1  0.735339  0.999287  0.743859  1
  Bi  Bi14  1  0.000000  0.733727  0.744319  1
  Bi  Bi15  1  0.737611  0.734493  0.256099  1
  Bi  Bi16  1  0.262389  0.996881  0.256099  1
  Bi  Bi17  1  0.670161  0.336939  0.498028  1
