# generated using pymatgen
data_Ho8Si12PdPt3
_symmetry_space_group_name_H-M   'P 1'
_cell_length_a   8.18552100
_cell_length_b   8.18552064
_cell_length_c   7.85835500
_cell_angle_alpha   90.00000000
_cell_angle_beta   90.00000000
_cell_angle_gamma   119.99999742
_symmetry_Int_Tables_number   1
_chemical_formula_structural   Ho8Si12PdPt3
_chemical_formula_sum   'Ho8 Si12 Pd1 Pt3'
_cell_volume   455.98958357
_cell_formula_units_Z   1
loop_
 _symmetry_equiv_pos_site_id
 _symmetry_equiv_pos_as_xyz
  1  'x, y, z'
loop_
 _atom_site_type_symbol
 _atom_site_label
 _atom_site_symmetry_multiplicity
 _atom_site_fract_x
 _atom_site_fract_y
 _atom_site_fract_z
 _atom_site_occupancy
  Ho  Ho0  1  0.513093  0.026185  0.250087  1
  Ho  Ho1  1  0.488329  0.976658  0.749681  1
  Ho  Ho2  1  0.973815  0.486907  0.250087  1
  Ho  Ho3  1  0.023342  0.511671  0.749681  1
  Ho  Ho4  1  0.513093  0.486907  0.250087  1
  Ho  Ho5  1  0.488329  0.511671  0.749681  1
  Ho  Ho6  1  0.000000  0.000000  0.250805  1
  Ho  Ho7  1  0.000000  0.000000  0.749208  1
  Si  Si8  1  0.165371  0.330742  0.003759  1
  Si  Si9  1  0.834439  0.668879  0.997010  1
  Si  Si10  1  0.669258  0.834629  0.003759  1
  Si  Si11  1  0.834562  0.669126  0.502868  1
  Si  Si12  1  0.331121  0.165561  0.997010  1
  Si  Si13  1  0.165306  0.330611  0.497511  1
  Si  Si14  1  0.165371  0.834629  0.003759  1
  Si  Si15  1  0.330874  0.165438  0.502868  1
  Si  Si16  1  0.834439  0.165561  0.997010  1
  Si  Si17  1  0.669389  0.834694  0.497511  1
  Si  Si18  1  0.834562  0.165438  0.502868  1
  Si  Si19  1  0.165306  0.834694  0.497511  1
  Pd  Pd20  1  0.333333  0.666667  0.455992  1
  Pt  Pt21  1  0.333333  0.666667  0.040565  1
  Pt  Pt22  1  0.666667  0.333333  0.956585  1
  Pt  Pt23  1  0.666667  0.333333  0.544099  1
