# generated using pymatgen
data_NaPr3NdI7N2
_symmetry_space_group_name_H-M   'P 1'
_cell_length_a   14.48787586
_cell_length_b   11.19734400
_cell_length_c   12.16735945
_cell_angle_alpha   90.00000000
_cell_angle_beta   89.92761451
_cell_angle_gamma   90.00000000
_symmetry_Int_Tables_number   1
_chemical_formula_structural   NaPr3NdI7N2
_chemical_formula_sum   'Na4 Pr12 Nd4 I28 N8'
_cell_volume   1973.85719223
_cell_formula_units_Z   4
loop_
 _symmetry_equiv_pos_site_id
 _symmetry_equiv_pos_as_xyz
  1  'x, y, z'
loop_
 _atom_site_type_symbol
 _atom_site_label
 _atom_site_symmetry_multiplicity
 _atom_site_fract_x
 _atom_site_fract_y
 _atom_site_fract_z
 _atom_site_occupancy
  Na  Na0  1  0.902839  0.049752  0.254129  1
  Na  Na1  1  0.402839  0.450247  0.254129  1
  Na  Na2  1  0.597172  0.549947  0.754171  1
  Na  Na3  1  0.097172  0.950054  0.754171  1
  Pr  Pr4  1  0.412594  0.103687  0.061403  1
  Pr  Pr5  1  0.912594  0.396314  0.061403  1
  Pr  Pr6  1  0.083042  0.624369  0.083840  1
  Pr  Pr7  1  0.583041  0.875632  0.083840  1
  Pr  Pr8  1  0.584388  0.123219  0.318594  1
  Pr  Pr9  1  0.084388  0.376781  0.318594  1
  Pr  Pr10  1  0.898712  0.584562  0.325574  1
  Pr  Pr11  1  0.398712  0.915437  0.325574  1
  Pr  Pr12  1  0.087564  0.603720  0.562250  1
  Pr  Pr13  1  0.587564  0.896279  0.562250  1
  Pr  Pr14  1  0.416995  0.124073  0.584950  1
  Pr  Pr15  1  0.916995  0.375927  0.584950  1
  Nd  Nd16  1  0.916441  0.622562  0.818947  1
  Nd  Nd17  1  0.416441  0.877439  0.818947  1
  Nd  Nd18  1  0.600500  0.082164  0.824969  1
  Nd  Nd19  1  0.100500  0.417837  0.824969  1
  I  I20  1  0.746957  0.066677  0.037142  1
  I  I21  1  0.246957  0.433322  0.037142  1
  I  I22  1  0.774780  0.632280  0.097136  1
  I  I23  1  0.274780  0.867719  0.097136  1
  I  I24  1  0.047878  0.180768  0.116148  1
  I  I25  1  0.547877  0.319232  0.116148  1
  I  I26  1  0.523571  0.687802  0.291764  1
  I  I27  1  0.023570  0.812198  0.291764  1
  I  I28  1  0.294733  0.188033  0.296577  1
  I  I29  1  0.794733  0.311967  0.296577  1
  I  I30  1  0.231828  0.593755  0.336687  1
  I  I31  1  0.731828  0.906245  0.336687  1
  I  I32  1  0.013691  0.150594  0.460999  1
  I  I33  1  0.513691  0.349404  0.460999  1
  I  I34  1  0.751722  0.565689  0.538555  1
  I  I35  1  0.251721  0.934311  0.538555  1
  I  I36  1  0.724351  0.132401  0.599260  1
  I  I37  1  0.224351  0.367600  0.599260  1
  I  I38  1  0.451507  0.682317  0.617204  1
  I  I39  1  0.951507  0.817684  0.617204  1
  I  I40  1  0.978395  0.190035  0.792775  1
  I  I41  1  0.478395  0.309966  0.792775  1
  I  I42  1  0.205354  0.686933  0.796827  1
  I  I43  1  0.705354  0.813067  0.796827  1
  I  I44  1  0.269737  0.091093  0.835962  1
  I  I45  1  0.769737  0.408909  0.835962  1
  I  I46  1  0.485252  0.652293  0.959446  1
  I  I47  1  0.985252  0.847707  0.959446  1
  N  N48  1  0.496763  0.004784  0.197056  1
  N  N49  1  0.996764  0.495216  0.197056  1
  N  N50  1  0.496587  0.015255  0.448188  1
  N  N51  1  0.996587  0.484744  0.448188  1
  N  N52  1  0.003156  0.505421  0.697921  1
  N  N53  1  0.503155  0.994579  0.697921  1
  N  N54  1  0.003491  0.515515  0.947328  1
  N  N55  1  0.503491  0.984485  0.947328  1
