# generated using pymatgen
data_K8Ag11P2Pt5
_symmetry_space_group_name_H-M   'P 1'
_cell_length_a   10.64910146
_cell_length_b   10.64910108
_cell_length_c   10.52528300
_cell_angle_alpha   79.92807805
_cell_angle_beta   79.92807295
_cell_angle_gamma   33.11886840
_symmetry_Int_Tables_number   1
_chemical_formula_structural   K8Ag11P2Pt5
_chemical_formula_sum   'K8 Ag11 P2 Pt5'
_cell_volume   641.21130871
_cell_formula_units_Z   1
loop_
 _symmetry_equiv_pos_site_id
 _symmetry_equiv_pos_as_xyz
  1  'x, y, z'
loop_
 _atom_site_type_symbol
 _atom_site_label
 _atom_site_symmetry_multiplicity
 _atom_site_fract_x
 _atom_site_fract_y
 _atom_site_fract_z
 _atom_site_occupancy
  K  K0  1  0.483811  0.483811  0.829780  1
  K  K1  1  0.520744  0.520744  0.170535  1
  K  K2  1  0.279494  0.279494  0.909688  1
  K  K3  1  0.716107  0.716107  0.098062  1
  K  K4  1  0.223237  0.223237  0.587391  1
  K  K5  1  0.776058  0.776058  0.409517  1
  K  K6  1  0.044368  0.044368  0.653183  1
  K  K7  1  0.959693  0.959693  0.344458  1
  Ag  Ag8  1  0.499210  0.499210  0.498770  1
  Ag  Ag9  1  0.001576  0.001576  0.007483  1
  Ag  Ag10  1  0.888468  0.888468  0.862577  1
  Ag  Ag11  1  0.865052  0.358975  0.366811  1
  Ag  Ag12  1  0.637998  0.134298  0.629088  1
  Ag  Ag13  1  0.134298  0.637998  0.629088  1
  Ag  Ag14  1  0.358975  0.865052  0.366811  1
  Ag  Ag15  1  0.108542  0.652990  0.094797  1
  Ag  Ag16  1  0.353949  0.890068  0.912228  1
  Ag  Ag17  1  0.890068  0.353949  0.912228  1
  Ag  Ag18  1  0.652990  0.108542  0.094797  1
  P  P19  1  0.669775  0.669775  0.750134  1
  P  P20  1  0.327609  0.327609  0.247079  1
  Pt  Pt21  1  0.779380  0.779380  0.746072  1
  Pt  Pt22  1  0.218552  0.218552  0.247296  1
  Pt  Pt23  1  0.618269  0.618269  0.581323  1
  Pt  Pt24  1  0.380386  0.380386  0.414338  1
  Pt  Pt25  1  0.111388  0.111388  0.136467  1
