# generated using pymatgen
data_GdHo5ScVO12
_symmetry_space_group_name_H-M   'P 1'
_cell_length_a   6.57556834
_cell_length_b   6.55439212
_cell_length_c   6.56829208
_cell_angle_alpha   92.57441699
_cell_angle_beta   92.57258592
_cell_angle_gamma   92.37605609
_symmetry_Int_Tables_number   1
_chemical_formula_structural   GdHo5ScVO12
_chemical_formula_sum   'Gd1 Ho5 Sc1 V1 O12'
_cell_volume   282.24694338
_cell_formula_units_Z   1
loop_
 _symmetry_equiv_pos_site_id
 _symmetry_equiv_pos_as_xyz
  1  'x, y, z'
loop_
 _atom_site_type_symbol
 _atom_site_label
 _atom_site_symmetry_multiplicity
 _atom_site_fract_x
 _atom_site_fract_y
 _atom_site_fract_z
 _atom_site_occupancy
  Gd  Gd0  1  0.745486  0.928767  0.437003  1
  Ho  Ho1  1  0.928174  0.437578  0.744332  1
  Ho  Ho2  1  0.436825  0.743711  0.929392  1
  Ho  Ho3  1  0.254098  0.072278  0.563417  1
  Ho  Ho4  1  0.072666  0.561988  0.255911  1
  Ho  Ho5  1  0.562514  0.256510  0.070040  1
  Sc  Sc6  1  0.000429  0.000179  0.999652  1
  V  V7  1  0.499123  0.499595  0.500095  1
  O  O8  1  0.590104  0.461777  0.802764  1
  O  O9  1  0.458306  0.798082  0.591527  1
  O  O10  1  0.803524  0.586083  0.461824  1
  O  O11  1  0.410108  0.538346  0.197313  1
  O  O12  1  0.534153  0.203507  0.410245  1
  O  O13  1  0.197046  0.408701  0.538319  1
  O  O14  1  0.072944  0.913883  0.306854  1
  O  O15  1  0.913887  0.307884  0.069377  1
  O  O16  1  0.691662  0.931576  0.081178  1
  O  O17  1  0.085784  0.692078  0.930933  1
  O  O18  1  0.934764  0.088640  0.695881  1
  O  O19  1  0.308404  0.068834  0.913944  1
