# generated using pymatgen
data_Ho20CuIr7Os4
_symmetry_space_group_name_H-M   'P 1'
_cell_length_a   10.81790141
_cell_length_b   10.81790141
_cell_length_c   6.40936285
_cell_angle_alpha   90.10952889
_cell_angle_beta   90.10952889
_cell_angle_gamma   89.84825929
_symmetry_Int_Tables_number   1
_chemical_formula_structural   Ho20CuIr7Os4
_chemical_formula_sum   'Ho20 Cu1 Ir7 Os4'
_cell_volume   750.06308396
_cell_formula_units_Z   1
loop_
 _symmetry_equiv_pos_site_id
 _symmetry_equiv_pos_as_xyz
  1  'x, y, z'
loop_
 _atom_site_type_symbol
 _atom_site_label
 _atom_site_symmetry_multiplicity
 _atom_site_fract_x
 _atom_site_fract_y
 _atom_site_fract_z
 _atom_site_occupancy
  Ho  Ho0  1  0.292967  0.085841  0.377074  1
  Ho  Ho1  1  0.293939  0.914046  0.876198  1
  Ho  Ho2  1  0.703385  0.084375  0.869947  1
  Ho  Ho3  1  0.704577  0.908900  0.379372  1
  Ho  Ho4  1  0.586182  0.793699  0.877305  1
  Ho  Ho5  1  0.581137  0.206810  0.377722  1
  Ho  Ho6  1  0.413269  0.793482  0.377336  1
  Ho  Ho7  1  0.413729  0.206394  0.877436  1
  Ho  Ho8  1  0.206301  0.413818  0.622695  1
  Ho  Ho9  1  0.206518  0.586731  0.122664  1
  Ho  Ho10  1  0.793190  0.418863  0.122278  1
  Ho  Ho11  1  0.793606  0.586271  0.622564  1
  Ho  Ho12  1  0.914159  0.707033  0.122926  1
  Ho  Ho13  1  0.915625  0.296615  0.630053  1
  Ho  Ho14  1  0.085954  0.706061  0.623802  1
  Ho  Ho15  1  0.091100  0.295423  0.120628  1
  Ho  Ho16  1  0.001606  0.997792  0.501332  1
  Ho  Ho17  1  0.002208  0.998394  0.998668  1
  Ho  Ho18  1  0.499794  0.500338  0.999449  1
  Ho  Ho19  1  0.499662  0.500206  0.500551  1
  Cu  Cu20  1  0.846969  0.153031  0.250000  1
  Ir  Ir21  1  0.848846  0.849789  0.750229  1
  Ir  Ir22  1  0.150211  0.151154  0.749771  1
  Ir  Ir23  1  0.151729  0.848271  0.250000  1
  Ir  Ir24  1  0.653562  0.346438  0.750000  1
  Ir  Ir25  1  0.652014  0.652032  0.250454  1
  Ir  Ir26  1  0.347968  0.347986  0.249546  1
  Ir  Ir27  1  0.347821  0.652179  0.750000  1
  Os  Os28  1  0.501604  0.000474  0.125601  1
  Os  Os29  1  0.501111  0.000270  0.623256  1
  Os  Os30  1  0.999730  0.498889  0.876744  1
  Os  Os31  1  0.999526  0.498396  0.374399  1
