# generated using pymatgen
data_TcP4Ru5W2
_symmetry_space_group_name_H-M   'P 1'
_cell_length_a   3.93190700
_cell_length_b   6.02308274
_cell_length_c   6.89482867
_cell_angle_alpha   90.42977155
_cell_angle_beta   90.00000000
_cell_angle_gamma   90.00000000
_symmetry_Int_Tables_number   1
_chemical_formula_structural   TcP4Ru5W2
_chemical_formula_sum   'Tc1 P4 Ru5 W2'
_cell_volume   163.28012638
_cell_formula_units_Z   1
loop_
 _symmetry_equiv_pos_site_id
 _symmetry_equiv_pos_as_xyz
  1  'x, y, z'
loop_
 _atom_site_type_symbol
 _atom_site_label
 _atom_site_symmetry_multiplicity
 _atom_site_fract_x
 _atom_site_fract_y
 _atom_site_fract_z
 _atom_site_occupancy
  Tc  Tc0  1  0.250000  0.972872  0.338377  1
  P  P1  1  0.250000  0.746594  0.609753  1
  P  P2  1  0.750000  0.252354  0.389131  1
  P  P3  1  0.250000  0.241873  0.886378  1
  P  P4  1  0.750000  0.761513  0.115683  1
  Ru  Ru5  1  0.250000  0.469239  0.157936  1
  Ru  Ru6  1  0.250000  0.361538  0.574631  1
  Ru  Ru7  1  0.750000  0.638261  0.424743  1
  Ru  Ru8  1  0.250000  0.859840  0.928230  1
  Ru  Ru9  1  0.750000  0.145617  0.071990  1
  W  W10  1  0.750000  0.023755  0.664023  1
  W  W11  1  0.750000  0.526544  0.839123  1
