# generated using pymatgen
data_Y2Ga10Ru3
_symmetry_space_group_name_H-M   'P 1'
_cell_length_a   8.90795500
_cell_length_b   8.90795500
_cell_length_c   6.45923000
_cell_angle_alpha   90.00000000
_cell_angle_beta   90.00000000
_cell_angle_gamma   90.00000000
_symmetry_Int_Tables_number   1
_chemical_formula_structural   Y2Ga10Ru3
_chemical_formula_sum   'Y4 Ga20 Ru6'
_cell_volume   512.55063756
_cell_formula_units_Z   2
loop_
 _symmetry_equiv_pos_site_id
 _symmetry_equiv_pos_as_xyz
  1  'x, y, z'
loop_
 _atom_site_type_symbol
 _atom_site_label
 _atom_site_symmetry_multiplicity
 _atom_site_fract_x
 _atom_site_fract_y
 _atom_site_fract_z
 _atom_site_occupancy
  Y  Y0  1  0.182857  0.682857  0.000000  1
  Y  Y1  1  0.817143  0.317143  0.000000  1
  Y  Y2  1  0.682857  0.817143  0.000000  1
  Y  Y3  1  0.317143  0.182857  0.000000  1
  Ga  Ga4  1  0.060951  0.206143  0.705332  1
  Ga  Ga5  1  0.939049  0.793857  0.705332  1
  Ga  Ga6  1  0.560951  0.293857  0.705332  1
  Ga  Ga7  1  0.439049  0.706143  0.705332  1
  Ga  Ga8  1  0.793857  0.060951  0.705332  1
  Ga  Ga9  1  0.206143  0.939049  0.705332  1
  Ga  Ga10  1  0.706143  0.560951  0.705332  1
  Ga  Ga11  1  0.293857  0.439049  0.705332  1
  Ga  Ga12  1  0.939049  0.793857  0.294668  1
  Ga  Ga13  1  0.060951  0.206143  0.294668  1
  Ga  Ga14  1  0.439049  0.706143  0.294668  1
  Ga  Ga15  1  0.560951  0.293857  0.294668  1
  Ga  Ga16  1  0.206143  0.939049  0.294668  1
  Ga  Ga17  1  0.793857  0.060951  0.294668  1
  Ga  Ga18  1  0.293857  0.439049  0.294668  1
  Ga  Ga19  1  0.706143  0.560951  0.294668  1
  Ga  Ga20  1  0.000000  0.500000  0.709404  1
  Ga  Ga21  1  0.500000  0.000000  0.709404  1
  Ga  Ga22  1  0.000000  0.500000  0.290596  1
  Ga  Ga23  1  0.500000  0.000000  0.290596  1
  Ru  Ru24  1  0.178516  0.678516  0.500000  1
  Ru  Ru25  1  0.821484  0.321484  0.500000  1
  Ru  Ru26  1  0.678516  0.821484  0.500000  1
  Ru  Ru27  1  0.321484  0.178516  0.500000  1
  Ru  Ru28  1  0.000000  0.000000  0.000000  1
  Ru  Ru29  1  0.500000  0.500000  0.000000  1
