# generated using pymatgen
data_Ca3MgNb2O9
_symmetry_space_group_name_H-M   'P 1'
_cell_length_a   5.50045100
_cell_length_b   9.72595531
_cell_length_c   16.80534500
_cell_angle_alpha   55.70529947
_cell_angle_beta   90.00000000
_cell_angle_gamma   90.00000000
_symmetry_Int_Tables_number   1
_chemical_formula_structural   Ca3MgNb2O9
_chemical_formula_sum   'Ca12 Mg4 Nb8 O36'
_cell_volume   742.74053644
_cell_formula_units_Z   4
loop_
 _symmetry_equiv_pos_site_id
 _symmetry_equiv_pos_as_xyz
  1  'x, y, z'
loop_
 _atom_site_type_symbol
 _atom_site_label
 _atom_site_symmetry_multiplicity
 _atom_site_fract_x
 _atom_site_fract_y
 _atom_site_fract_z
 _atom_site_occupancy
  Ca  Ca0  1  0.486114  0.450980  0.398750  1
  Ca  Ca1  1  0.992165  0.214204  0.771195  1
  Ca  Ca2  1  0.013886  0.450980  0.898750  1
  Ca  Ca3  1  0.507835  0.214204  0.271195  1
  Ca  Ca4  1  0.982506  0.879110  0.430986  1
  Ca  Ca5  1  0.513886  0.549020  0.601250  1
  Ca  Ca6  1  0.492165  0.785796  0.728805  1
  Ca  Ca7  1  0.986114  0.549020  0.101250  1
  Ca  Ca8  1  0.482506  0.120890  0.069014  1
  Ca  Ca9  1  0.517494  0.879110  0.930986  1
  Ca  Ca10  1  0.017494  0.120890  0.569014  1
  Ca  Ca11  1  0.007835  0.785796  0.228805  1
  Mg  Mg12  1  0.500000  0.000000  0.500000  1
  Mg  Mg13  1  0.000000  0.000000  0.000000  1
  Mg  Mg14  1  0.500000  0.500000  0.000000  1
  Mg  Mg15  1  0.000000  0.500000  0.500000  1
  Nb  Nb16  1  0.010303  0.826411  0.840678  1
  Nb  Nb17  1  0.003479  0.676478  0.659865  1
  Nb  Nb18  1  0.989697  0.173589  0.159322  1
  Nb  Nb19  1  0.489697  0.826411  0.340678  1
  Nb  Nb20  1  0.996521  0.323522  0.340135  1
  Nb  Nb21  1  0.503479  0.323522  0.840135  1
  Nb  Nb22  1  0.510303  0.173589  0.659322  1
  Nb  Nb23  1  0.496521  0.676478  0.159865  1
  O  O24  1  0.806354  0.119935  0.410073  1
  O  O25  1  0.700868  0.313014  0.119362  1
  O  O26  1  0.297159  0.220557  0.412103  1
  O  O27  1  0.797159  0.779443  0.087897  1
  O  O28  1  0.808129  0.658004  0.947449  1
  O  O29  1  0.592725  0.728112  0.261801  1
  O  O30  1  0.702841  0.779443  0.587897  1
  O  O31  1  0.907275  0.728112  0.761801  1
  O  O32  1  0.899133  0.064873  0.095339  1
  O  O33  1  0.596531  0.391594  0.925214  1
  O  O34  1  0.202841  0.220557  0.912103  1
  O  O35  1  0.200868  0.686986  0.380638  1
  O  O36  1  0.291923  0.014542  0.218926  1
  O  O37  1  0.100867  0.935127  0.904661  1
  O  O38  1  0.193646  0.880065  0.589927  1
  O  O39  1  0.205195  0.546184  0.250785  1
  O  O40  1  0.299132  0.686986  0.880638  1
  O  O41  1  0.096531  0.608406  0.574786  1
  O  O42  1  0.791923  0.985458  0.281074  1
  O  O43  1  0.308129  0.341996  0.552551  1
  O  O44  1  0.691871  0.658004  0.447449  1
  O  O45  1  0.799132  0.313014  0.619362  1
  O  O46  1  0.092725  0.271888  0.238199  1
  O  O47  1  0.705195  0.453816  0.249215  1
  O  O48  1  0.794805  0.453816  0.749215  1
  O  O49  1  0.306354  0.880065  0.089927  1
  O  O50  1  0.399133  0.935127  0.404661  1
  O  O51  1  0.191871  0.341996  0.052551  1
  O  O52  1  0.708077  0.985458  0.781074  1
  O  O53  1  0.600867  0.064873  0.595339  1
  O  O54  1  0.903469  0.391594  0.425214  1
  O  O55  1  0.208077  0.014542  0.718926  1
  O  O56  1  0.294805  0.546184  0.750785  1
  O  O57  1  0.407275  0.271888  0.738199  1
  O  O58  1  0.403469  0.608406  0.074786  1
  O  O59  1  0.693646  0.119935  0.910073  1
