# generated using pymatgen
data_LiGa3Rh
_symmetry_space_group_name_H-M   'P 1'
_cell_length_a   6.14723300
_cell_length_b   6.14723300
_cell_length_c   6.14723300
_cell_angle_alpha   90.00000000
_cell_angle_beta   90.00000000
_cell_angle_gamma   90.00000000
_symmetry_Int_Tables_number   1
_chemical_formula_structural   LiGa3Rh
_chemical_formula_sum   'Li3 Ga9 Rh3'
_cell_volume   232.29455166
_cell_formula_units_Z   3
loop_
 _symmetry_equiv_pos_site_id
 _symmetry_equiv_pos_as_xyz
  1  'x, y, z'
loop_
 _atom_site_type_symbol
 _atom_site_label
 _atom_site_symmetry_multiplicity
 _atom_site_fract_x
 _atom_site_fract_y
 _atom_site_fract_z
 _atom_site_occupancy
  Li  Li0  1  0.500000  0.500000  0.000000  1
  Li  Li1  1  0.500000  0.000000  0.500000  1
  Li  Li2  1  0.000000  0.500000  0.500000  1
  Ga  Ga3  1  0.500000  0.500000  0.500000  1
  Ga  Ga4  1  0.229570  0.229570  0.770430  1
  Ga  Ga5  1  0.229570  0.770430  0.229570  1
  Ga  Ga6  1  0.770430  0.229570  0.229570  1
  Ga  Ga7  1  0.770430  0.770430  0.770430  1
  Ga  Ga8  1  0.770430  0.770430  0.229570  1
  Ga  Ga9  1  0.770430  0.229570  0.770430  1
  Ga  Ga10  1  0.229570  0.770430  0.770430  1
  Ga  Ga11  1  0.229570  0.229570  0.229570  1
  Rh  Rh12  1  0.000000  0.000000  0.500000  1
  Rh  Rh13  1  0.000000  0.500000  0.000000  1
  Rh  Rh14  1  0.500000  0.000000  0.000000  1
