# generated using pymatgen
data_Dy3In2Ga2CuAg
_symmetry_space_group_name_H-M   'P 1'
_cell_length_a   7.18586450
_cell_length_b   7.18586474
_cell_length_c   4.38959900
_cell_angle_alpha   90.00000000
_cell_angle_beta   90.00000000
_cell_angle_gamma   120.52306735
_symmetry_Int_Tables_number   1
_chemical_formula_structural   Dy3In2Ga2CuAg
_chemical_formula_sum   'Dy3 In2 Ga2 Cu1 Ag1'
_cell_volume   195.25414330
_cell_formula_units_Z   1
loop_
 _symmetry_equiv_pos_site_id
 _symmetry_equiv_pos_as_xyz
  1  'x, y, z'
loop_
 _atom_site_type_symbol
 _atom_site_label
 _atom_site_symmetry_multiplicity
 _atom_site_fract_x
 _atom_site_fract_y
 _atom_site_fract_z
 _atom_site_occupancy
  Dy  Dy0  1  0.997723  0.589528  0.500000  1
  Dy  Dy1  1  0.417294  0.417294  0.500000  1
  Dy  Dy2  1  0.589528  0.997723  0.500000  1
  In  In3  1  0.995079  0.237718  0.000000  1
  In  In4  1  0.237718  0.995079  0.000000  1
  Ga  Ga5  1  0.340960  0.667931  0.000000  1
  Ga  Ga6  1  0.667931  0.340960  0.000000  1
  Cu  Cu7  1  0.000994  0.000994  0.500000  1
  Ag  Ag8  1  0.752772  0.752772  0.000000  1
