# generated using pymatgen
data_Sr4CoCuH12
_symmetry_space_group_name_H-M   'P 1'
_cell_length_a   7.49337147
_cell_length_b   7.49337033
_cell_length_c   5.42743673
_cell_angle_alpha   90.14829852
_cell_angle_beta   90.14829814
_cell_angle_gamma   137.54687589
_symmetry_Int_Tables_number   1
_chemical_formula_structural   Sr4CoCuH12
_chemical_formula_sum   'Sr4 Co1 Cu1 H12'
_cell_volume   205.69957852
_cell_formula_units_Z   1
loop_
 _symmetry_equiv_pos_site_id
 _symmetry_equiv_pos_as_xyz
  1  'x, y, z'
loop_
 _atom_site_type_symbol
 _atom_site_label
 _atom_site_symmetry_multiplicity
 _atom_site_fract_x
 _atom_site_fract_y
 _atom_site_fract_z
 _atom_site_occupancy
  Sr  Sr0  1  0.144713  0.855287  0.500000  1
  Sr  Sr1  1  0.644328  0.355672  0.000000  1
  Sr  Sr2  1  0.855287  0.144713  0.500000  1
  Sr  Sr3  1  0.355672  0.644328  0.000000  1
  Co  Co4  1  0.500000  0.500000  0.500000  1
  Cu  Cu5  1  0.000000  0.000000  0.000000  1
  H  H6  1  0.999496  0.500279  0.751226  1
  H  H7  1  0.499721  0.000504  0.248774  1
  H  H8  1  0.000504  0.499721  0.248774  1
  H  H9  1  0.500279  0.999496  0.751226  1
  H  H10  1  0.388493  0.611507  0.500000  1
  H  H11  1  0.887718  0.112282  0.000000  1
  H  H12  1  0.611507  0.388493  0.500000  1
  H  H13  1  0.112282  0.887718  0.000000  1
  H  H14  1  0.293100  0.293100  0.707014  1
  H  H15  1  0.706900  0.706900  0.292986  1
  H  H16  1  0.290346  0.290346  0.290568  1
  H  H17  1  0.709654  0.709654  0.709432  1
