# generated using pymatgen
data_La3Co3Cu7Ni3B2
_symmetry_space_group_name_H-M   'P 1'
_cell_length_a   5.14065721
_cell_length_b   5.14843667
_cell_length_c   11.07716216
_cell_angle_alpha   89.87451625
_cell_angle_beta   90.25134794
_cell_angle_gamma   119.95001512
_symmetry_Int_Tables_number   1
_chemical_formula_structural   La3Co3Cu7Ni3B2
_chemical_formula_sum   'La3 Co3 Cu7 Ni3 B2'
_cell_volume   254.01976599
_cell_formula_units_Z   1
loop_
 _symmetry_equiv_pos_site_id
 _symmetry_equiv_pos_as_xyz
  1  'x, y, z'
loop_
 _atom_site_type_symbol
 _atom_site_label
 _atom_site_symmetry_multiplicity
 _atom_site_fract_x
 _atom_site_fract_y
 _atom_site_fract_z
 _atom_site_occupancy
  La  La0  1  0.000012  0.000000  0.002387  1
  La  La1  1  0.999702  0.000000  0.300725  1
  La  La2  1  0.999863  0.000000  0.686342  1
  Co  Co3  1  0.500191  0.000000  0.127236  1
  Co  Co4  1  0.500221  0.499939  0.127245  1
  Co  Co5  1  0.000282  0.500061  0.127245  1
  Cu  Cu6  1  0.498960  0.000000  0.499349  1
  Cu  Cu7  1  0.501580  0.501142  0.500115  1
  Cu  Cu8  1  0.000438  0.498858  0.500115  1
  Cu  Cu9  1  0.332540  0.666523  0.313567  1
  Cu  Cu10  1  0.666017  0.333477  0.313567  1
  Cu  Cu11  1  0.666037  0.332227  0.686939  1
  Cu  Cu12  1  0.333811  0.667773  0.686939  1
  Ni  Ni13  1  0.500543  0.000000  0.872894  1
  Ni  Ni14  1  0.499421  0.499244  0.872835  1
  Ni  Ni15  1  0.000177  0.500756  0.872835  1
  B  B16  1  0.333333  0.666561  0.004832  1
  B  B17  1  0.666771  0.333439  0.004832  1
