# generated using pymatgen
data_Ti5Al6Fe12Mo
_symmetry_space_group_name_H-M   'P 1'
_cell_length_a   4.12238500
_cell_length_b   5.83526600
_cell_length_c   12.35999500
_cell_angle_alpha   90.00000000
_cell_angle_beta   90.00016682
_cell_angle_gamma   90.00000000
_symmetry_Int_Tables_number   1
_chemical_formula_structural   Ti5Al6Fe12Mo
_chemical_formula_sum   'Ti5 Al6 Fe12 Mo1'
_cell_volume   297.32231277
_cell_formula_units_Z   1
loop_
 _symmetry_equiv_pos_site_id
 _symmetry_equiv_pos_as_xyz
  1  'x, y, z'
loop_
 _atom_site_type_symbol
 _atom_site_label
 _atom_site_symmetry_multiplicity
 _atom_site_fract_x
 _atom_site_fract_y
 _atom_site_fract_z
 _atom_site_occupancy
  Ti  Ti0  1  0.500009  0.000000  0.167691  1
  Ti  Ti1  1  0.000013  0.500000  0.333361  1
  Ti  Ti2  1  0.499999  0.000000  0.500000  1
  Ti  Ti3  1  0.999987  0.500000  0.666639  1
  Ti  Ti4  1  0.499991  0.000000  0.832309  1
  Al  Al5  1  0.000000  0.000000  0.000000  1
  Al  Al6  1  0.500005  0.500000  0.167489  1
  Al  Al7  1  0.000013  0.000000  0.332819  1
  Al  Al8  1  0.499999  0.500000  0.500000  1
  Al  Al9  1  0.999987  0.000000  0.667181  1
  Al  Al10  1  0.499993  0.500000  0.832511  1
  Fe  Fe11  1  0.500001  0.253215  0.000000  1
  Fe  Fe12  1  0.500001  0.746786  0.000000  1
  Fe  Fe13  1  0.000011  0.251639  0.165324  1
  Fe  Fe14  1  0.000011  0.748360  0.165324  1
  Fe  Fe15  1  0.500011  0.250204  0.333629  1
  Fe  Fe16  1  0.500011  0.749795  0.333629  1
  Fe  Fe17  1  0.000000  0.249584  0.500000  1
  Fe  Fe18  1  0.000000  0.750415  0.500000  1
  Fe  Fe19  1  0.499989  0.250204  0.666371  1
  Fe  Fe20  1  0.499989  0.749795  0.666371  1
  Fe  Fe21  1  0.999989  0.251639  0.834677  1
  Fe  Fe22  1  0.999989  0.748360  0.834677  1
  Mo  Mo23  1  0.000000  0.500000  0.000000  1
