# generated using pymatgen
data_Sm5ErAl24Pd3Ru5
_symmetry_space_group_name_H-M   'P 1'
_cell_length_a   8.89109065
_cell_length_b   8.87991843
_cell_length_c   9.57613437
_cell_angle_alpha   90.20091714
_cell_angle_beta   90.07456671
_cell_angle_gamma   119.65089654
_symmetry_Int_Tables_number   1
_chemical_formula_structural   Sm5ErAl24Pd3Ru5
_chemical_formula_sum   'Sm5 Er1 Al24 Pd3 Ru5'
_cell_volume   657.04723722
_cell_formula_units_Z   1
loop_
 _symmetry_equiv_pos_site_id
 _symmetry_equiv_pos_as_xyz
  1  'x, y, z'
loop_
 _atom_site_type_symbol
 _atom_site_label
 _atom_site_symmetry_multiplicity
 _atom_site_fract_x
 _atom_site_fract_y
 _atom_site_fract_z
 _atom_site_occupancy
  Sm  Sm0  1  0.186667  0.381747  0.252612  1
  Sm  Sm1  1  0.812998  0.617079  0.747299  1
  Sm  Sm2  1  0.619714  0.812188  0.250546  1
  Sm  Sm3  1  0.381261  0.188129  0.749584  1
  Sm  Sm4  1  0.189284  0.807884  0.249639  1
  Er  Er5  1  0.809321  0.194487  0.749741  1
  Al  Al6  1  0.327421  0.663173  0.024749  1
  Al  Al7  1  0.672940  0.335779  0.973410  1
  Al  Al8  1  0.669850  0.328651  0.523545  1
  Al  Al9  1  0.331033  0.670817  0.478189  1
  Al  Al10  1  0.155865  0.323632  0.578495  1
  Al  Al11  1  0.842710  0.675386  0.422655  1
  Al  Al12  1  0.676710  0.844669  0.577760  1
  Al  Al13  1  0.842213  0.674687  0.075577  1
  Al  Al14  1  0.324412  0.156917  0.423569  1
  Al  Al15  1  0.156343  0.324192  0.923210  1
  Al  Al16  1  0.163814  0.835863  0.576099  1
  Al  Al17  1  0.322135  0.162008  0.078453  1
  Al  Al18  1  0.836435  0.164067  0.425767  1
  Al  Al19  1  0.678799  0.839369  0.920314  1
  Al  Al20  1  0.841835  0.167854  0.075620  1
  Al  Al21  1  0.158178  0.831868  0.922474  1
  Al  Al22  1  0.562180  0.126015  0.253940  1
  Al  Al23  1  0.439528  0.875386  0.746387  1
  Al  Al24  1  0.875756  0.438860  0.248904  1
  Al  Al25  1  0.122842  0.559487  0.751007  1
  Al  Al26  1  0.563354  0.436430  0.248796  1
  Al  Al27  1  0.436533  0.563701  0.751221  1
  Al  Al28  1  0.997395  0.000943  0.250242  1
  Al  Al29  1  0.000998  0.000557  0.749838  1
  Pd  Pd30  1  0.500393  0.000000  0.999782  1
  Pd  Pd31  1  0.500211  0.499865  0.999759  1
  Pd  Pd32  1  0.500196  0.499900  0.500260  1
  Ru  Ru33  1  0.999503  0.498916  0.999237  1
  Ru  Ru34  1  0.501002  0.000420  0.500641  1
  Ru  Ru35  1  0.999867  0.499269  0.500579  1
  Ru  Ru36  1  0.000121  0.999913  0.999784  1
  Ru  Ru37  1  0.000182  0.999893  0.500315  1
