# generated using pymatgen
data_Ba6Y(IrO6)2
_symmetry_space_group_name_H-M   'P 1'
_cell_length_a   9.28127662
_cell_length_b   9.28127639
_cell_length_c   7.42309361
_cell_angle_alpha   67.98409622
_cell_angle_beta   67.98409528
_cell_angle_gamma   36.85697130
_symmetry_Int_Tables_number   1
_chemical_formula_structural   Ba6Y(IrO6)2
_chemical_formula_sum   'Ba6 Y1 Ir2 O12'
_cell_volume   352.33843818
_cell_formula_units_Z   1
loop_
 _symmetry_equiv_pos_site_id
 _symmetry_equiv_pos_as_xyz
  1  'x, y, z'
loop_
 _atom_site_type_symbol
 _atom_site_label
 _atom_site_symmetry_multiplicity
 _atom_site_fract_x
 _atom_site_fract_y
 _atom_site_fract_z
 _atom_site_occupancy
  Ba  Ba0  1  0.216107  0.216107  0.706859  1
  Ba  Ba1  1  0.880757  0.880757  0.710688  1
  Ba  Ba2  1  0.549028  0.549028  0.704912  1
  Ba  Ba3  1  0.783893  0.783893  0.293141  1
  Ba  Ba4  1  0.450972  0.450972  0.295088  1
  Ba  Ba5  1  0.119243  0.119243  0.289312  1
  Y  Y6  1  0.000000  0.000000  0.000000  1
  Ir  Ir7  1  0.670658  0.670658  0.999454  1
  Ir  Ir8  1  0.329342  0.329342  0.000546  1
  O  O9  1  0.281472  0.281472  0.306033  1
  O  O10  1  0.943169  0.943169  0.331641  1
  O  O11  1  0.617763  0.617763  0.304203  1
  O  O12  1  0.718528  0.718528  0.693967  1
  O  O13  1  0.382237  0.382237  0.695797  1
  O  O14  1  0.056831  0.056831  0.668359  1
  O  O15  1  0.000000  0.500000  0.000000  1
  O  O16  1  0.643321  0.176396  0.001398  1
  O  O17  1  0.356679  0.823604  0.998602  1
  O  O18  1  0.500000  0.000000  0.000000  1
  O  O19  1  0.176396  0.643321  0.001398  1
  O  O20  1  0.823604  0.356679  0.998602  1
