# generated using pymatgen
data_Tb3Hf(Al3Ir)6
_symmetry_space_group_name_H-M   'P 1'
_cell_length_a   7.54497461
_cell_length_b   7.53620802
_cell_length_c   9.42174700
_cell_angle_alpha   90.00000000
_cell_angle_beta   90.00000000
_cell_angle_gamma   119.58945619
_symmetry_Int_Tables_number   1
_chemical_formula_structural   Tb3Hf(Al3Ir)6
_chemical_formula_sum   'Tb3 Hf1 Al18 Ir6'
_cell_volume   465.85905731
_cell_formula_units_Z   1
loop_
 _symmetry_equiv_pos_site_id
 _symmetry_equiv_pos_as_xyz
  1  'x, y, z'
loop_
 _atom_site_type_symbol
 _atom_site_label
 _atom_site_symmetry_multiplicity
 _atom_site_fract_x
 _atom_site_fract_y
 _atom_site_fract_z
 _atom_site_occupancy
  Tb  Tb0  1  0.005429  0.327818  0.750000  1
  Tb  Tb1  1  0.670897  0.995589  0.250000  1
  Tb  Tb2  1  0.329420  0.006278  0.750000  1
  Hf  Hf3  1  0.997334  0.672867  0.250000  1
  Al  Al4  1  0.126142  0.123470  0.250000  1
  Al  Al5  1  0.870883  0.869532  0.750000  1
  Al  Al6  1  0.000422  0.338096  0.079090  1
  Al  Al7  1  0.999081  0.665008  0.929598  1
  Al  Al8  1  0.999081  0.665008  0.570402  1
  Al  Al9  1  0.332316  0.998205  0.420798  1
  Al  Al10  1  0.000422  0.338096  0.420910  1
  Al  Al11  1  0.664709  0.998025  0.574338  1
  Al  Al12  1  0.664709  0.998025  0.925662  1
  Al  Al13  1  0.332316  0.998205  0.079202  1
  Al  Al14  1  0.333799  0.333841  0.550350  1
  Al  Al15  1  0.668817  0.666612  0.443452  1
  Al  Al16  1  0.668817  0.666612  0.056548  1
  Al  Al17  1  0.333799  0.333841  0.949650  1
  Al  Al18  1  0.335685  0.548870  0.250000  1
  Al  Al19  1  0.661020  0.452798  0.750000  1
  Al  Al20  1  0.554721  0.344693  0.250000  1
  Al  Al21  1  0.451415  0.659767  0.750000  1
  Ir  Ir22  1  0.672676  0.328700  0.001370  1
  Ir  Ir23  1  0.327386  0.672087  0.002077  1
  Ir  Ir24  1  0.327386  0.672087  0.497923  1
  Ir  Ir25  1  0.672676  0.328700  0.498630  1
  Ir  Ir26  1  0.999321  0.998584  0.001567  1
  Ir  Ir27  1  0.999321  0.998584  0.498433  1
