# generated using pymatgen
data_La5InOs2
_symmetry_space_group_name_H-M   'P 1'
_cell_length_a   9.25006143
_cell_length_b   9.25006047
_cell_length_c   9.25006069
_cell_angle_alpha   128.16902623
_cell_angle_beta   128.16903195
_cell_angle_gamma   76.35136587
_symmetry_Int_Tables_number   1
_chemical_formula_structural   La5InOs2
_chemical_formula_sum   'La10 In2 Os4'
_cell_volume   475.37279152
_cell_formula_units_Z   2
loop_
 _symmetry_equiv_pos_site_id
 _symmetry_equiv_pos_as_xyz
  1  'x, y, z'
loop_
 _atom_site_type_symbol
 _atom_site_label
 _atom_site_symmetry_multiplicity
 _atom_site_fract_x
 _atom_site_fract_y
 _atom_site_fract_z
 _atom_site_occupancy
  La  La0  1  0.000000  0.000000  0.000000  1
  La  La1  1  0.500000  0.500000  0.000000  1
  La  La2  1  0.790758  0.290758  0.827205  1
  La  La3  1  0.209242  0.709242  0.172795  1
  La  La4  1  0.463552  0.963552  0.172795  1
  La  La5  1  0.290758  0.463552  0.500000  1
  La  La6  1  0.036448  0.209242  0.500000  1
  La  La7  1  0.536448  0.036448  0.827205  1
  La  La8  1  0.709242  0.536448  0.500000  1
  La  La9  1  0.963552  0.790758  0.500000  1
  In  In10  1  0.250000  0.250000  0.000000  1
  In  In11  1  0.750000  0.750000  0.000000  1
  Os  Os12  1  0.137731  0.637731  0.775461  1
  Os  Os13  1  0.862269  0.362269  0.224539  1
  Os  Os14  1  0.637731  0.862269  0.500000  1
  Os  Os15  1  0.362269  0.137731  0.500000  1
