# generated using pymatgen
data_YHo11ZnCo4Sn
_symmetry_space_group_name_H-M   'P 1'
_cell_length_a   8.28152997
_cell_length_b   8.28046471
_cell_length_c   8.28046407
_cell_angle_alpha   111.98277335
_cell_angle_beta   109.33465736
_cell_angle_gamma   107.12793968
_symmetry_Int_Tables_number   1
_chemical_formula_structural   YHo11ZnCo4Sn
_chemical_formula_sum   'Y1 Ho11 Zn1 Co4 Sn1'
_cell_volume   436.35537534
_cell_formula_units_Z   1
loop_
 _symmetry_equiv_pos_site_id
 _symmetry_equiv_pos_as_xyz
  1  'x, y, z'
loop_
 _atom_site_type_symbol
 _atom_site_label
 _atom_site_symmetry_multiplicity
 _atom_site_fract_x
 _atom_site_fract_y
 _atom_site_fract_z
 _atom_site_occupancy
  Y  Y0  1  0.428241  0.228960  0.199281  1
  Ho  Ho1  1  0.570892  0.771566  0.799326  1
  Ho  Ho2  1  0.027547  0.228198  0.799349  1
  Ho  Ho3  1  0.971947  0.771845  0.200102  1
  Ho  Ho4  1  0.181504  0.283874  0.466085  1
  Ho  Ho5  1  0.818995  0.717126  0.535104  1
  Ho  Ho6  1  0.181504  0.715417  0.897631  1
  Ho  Ho7  1  0.818995  0.283893  0.101868  1
  Ho  Ho8  1  0.323379  0.635369  0.311172  1
  Ho  Ho9  1  0.676722  0.365451  0.689051  1
  Ho  Ho10  1  0.323379  0.012206  0.688010  1
  Ho  Ho11  1  0.676722  0.987672  0.311271  1
  Zn  Zn12  1  0.998439  0.999202  0.999236  1
  Co  Co13  1  0.346563  0.998911  0.347652  1
  Co  Co14  1  0.654696  0.999890  0.654806  1
  Co  Co15  1  0.114541  0.614551  0.499990  1
  Co  Co16  1  0.885888  0.385452  0.500436  1
  Sn  Sn17  1  0.500047  0.500417  0.999630  1
