# generated using pymatgen
data_K3WF8
_symmetry_space_group_name_H-M   'P 1'
_cell_length_a   8.45166625
_cell_length_b   8.44752550
_cell_length_c   6.41753058
_cell_angle_alpha   90.07213549
_cell_angle_beta   89.86193697
_cell_angle_gamma   120.01672400
_symmetry_Int_Tables_number   1
_chemical_formula_structural   K3WF8
_chemical_formula_sum   'K6 W2 F16'
_cell_volume   396.73083269
_cell_formula_units_Z   2
loop_
 _symmetry_equiv_pos_site_id
 _symmetry_equiv_pos_as_xyz
  1  'x, y, z'
loop_
 _atom_site_type_symbol
 _atom_site_label
 _atom_site_symmetry_multiplicity
 _atom_site_fract_x
 _atom_site_fract_y
 _atom_site_fract_z
 _atom_site_occupancy
  K  K0  1  0.153649  0.303902  0.243450  1
  K  K1  1  0.849634  0.696062  0.742943  1
  K  K2  1  0.696343  0.846920  0.246650  1
  K  K3  1  0.152651  0.848587  0.239813  1
  K  K4  1  0.849211  0.152911  0.746892  1
  K  K5  1  0.304036  0.151284  0.740008  1
  W  W6  1  0.334458  0.666460  0.735133  1
  W  W7  1  0.667965  0.333360  0.235123  1
  F  F8  1  0.998444  0.000208  0.005707  1
  F  F9  1  0.998344  0.000017  0.505706  1
  F  F10  1  0.437142  0.560115  0.535387  1
  F  F11  1  0.561743  0.434015  0.035310  1
  F  F12  1  0.432855  0.874422  0.535717  1
  F  F13  1  0.127553  0.566260  0.535292  1
  F  F14  1  0.876862  0.440322  0.035310  1
  F  F15  1  0.558180  0.125288  0.035710  1
  F  F16  1  0.336255  0.665899  0.047335  1
  F  F17  1  0.670196  0.333645  0.547340  1
  F  F18  1  0.200191  0.798814  0.816442  1
  F  F19  1  0.797843  0.201089  0.323274  1
  F  F20  1  0.200329  0.402532  0.821321  1
  F  F21  1  0.596791  0.799054  0.822951  1
  F  F22  1  0.401448  0.201293  0.316628  1
  F  F23  1  0.797878  0.597539  0.320865  1
