# generated using pymatgen
data_Hf17ZrRe6(NiMo)2
_symmetry_space_group_name_H-M   'P 1'
_cell_length_a   8.65196108
_cell_length_b   8.66460075
_cell_length_c   8.43491600
_cell_angle_alpha   90.00000000
_cell_angle_beta   90.00000000
_cell_angle_gamma   120.04834087
_symmetry_Int_Tables_number   1
_chemical_formula_structural   Hf17ZrRe6(NiMo)2
_chemical_formula_sum   'Hf17 Zr1 Re6 Ni2 Mo2'
_cell_volume   547.34700906
_cell_formula_units_Z   1
loop_
 _symmetry_equiv_pos_site_id
 _symmetry_equiv_pos_as_xyz
  1  'x, y, z'
loop_
 _atom_site_type_symbol
 _atom_site_label
 _atom_site_symmetry_multiplicity
 _atom_site_fract_x
 _atom_site_fract_y
 _atom_site_fract_z
 _atom_site_occupancy
  Hf  Hf0  1  0.198725  0.802136  0.442674  1
  Hf  Hf1  1  0.198725  0.396588  0.442674  1
  Hf  Hf2  1  0.601984  0.800992  0.443266  1
  Hf  Hf3  1  0.800959  0.198002  0.556459  1
  Hf  Hf4  1  0.800959  0.602958  0.556459  1
  Hf  Hf5  1  0.397795  0.198898  0.556769  1
  Hf  Hf6  1  0.800959  0.198002  0.943541  1
  Hf  Hf7  1  0.800959  0.602958  0.943541  1
  Hf  Hf8  1  0.397795  0.198898  0.943231  1
  Hf  Hf9  1  0.198725  0.802136  0.057326  1
  Hf  Hf10  1  0.198725  0.396588  0.057326  1
  Hf  Hf11  1  0.601984  0.800992  0.056734  1
  Hf  Hf12  1  0.541459  0.458584  0.250000  1
  Hf  Hf13  1  0.541459  0.082877  0.250000  1
  Hf  Hf14  1  0.917945  0.458973  0.250000  1
  Hf  Hf15  1  0.459378  0.541005  0.750000  1
  Hf  Hf16  1  0.459378  0.918371  0.750000  1
  Zr  Zr17  1  0.083748  0.541873  0.750000  1
  Re  Re18  1  0.888467  0.110840  0.250000  1
  Re  Re19  1  0.888467  0.777626  0.250000  1
  Re  Re20  1  0.222281  0.111140  0.250000  1
  Re  Re21  1  0.111466  0.890387  0.750000  1
  Re  Re22  1  0.111466  0.221080  0.750000  1
  Re  Re23  1  0.777703  0.888852  0.750000  1
  Ni  Ni24  1  0.332274  0.666138  0.250000  1
  Ni  Ni25  1  0.666846  0.333422  0.750000  1
  Mo  Mo26  1  0.999684  0.999842  0.499884  1
  Mo  Mo27  1  0.999684  0.999842  0.000116  1
