# generated using pymatgen
data_Ba19CaAu16
_symmetry_space_group_name_H-M   'P 1'
_cell_length_a   8.71412400
_cell_length_b   8.83027556
_cell_length_c   17.07718500
_cell_angle_alpha   90.00000000
_cell_angle_beta   90.00000000
_cell_angle_gamma   89.93017009
_symmetry_Int_Tables_number   1
_chemical_formula_structural   Ba19CaAu16
_chemical_formula_sum   'Ba19 Ca1 Au16'
_cell_volume   1314.05623926
_cell_formula_units_Z   1
loop_
 _symmetry_equiv_pos_site_id
 _symmetry_equiv_pos_as_xyz
  1  'x, y, z'
loop_
 _atom_site_type_symbol
 _atom_site_label
 _atom_site_symmetry_multiplicity
 _atom_site_fract_x
 _atom_site_fract_y
 _atom_site_fract_z
 _atom_site_occupancy
  Ba  Ba0  1  0.027571  0.171955  0.394714  1
  Ba  Ba1  1  0.869479  0.665025  0.379352  1
  Ba  Ba2  1  0.532661  0.324589  0.104645  1
  Ba  Ba3  1  0.127993  0.337304  0.616249  1
  Ba  Ba4  1  0.371715  0.839177  0.379857  1
  Ba  Ba5  1  0.127993  0.337304  0.883751  1
  Ba  Ba6  1  0.371715  0.839177  0.120143  1
  Ba  Ba7  1  0.208748  0.490187  0.250000  1
  Ba  Ba8  1  0.532661  0.324589  0.395355  1
  Ba  Ba9  1  0.791766  0.506607  0.750000  1
  Ba  Ba10  1  0.972433  0.826369  0.899591  1
  Ba  Ba11  1  0.972433  0.826369  0.600409  1
  Ba  Ba12  1  0.470252  0.670191  0.600775  1
  Ba  Ba13  1  0.629294  0.161797  0.614574  1
  Ba  Ba14  1  0.293753  0.992700  0.750000  1
  Ba  Ba15  1  0.629294  0.161797  0.885426  1
  Ba  Ba16  1  0.869479  0.665025  0.120648  1
  Ba  Ba17  1  0.470252  0.670191  0.899225  1
  Ba  Ba18  1  0.027571  0.171955  0.105286  1
  Ca  Ca19  1  0.709476  0.010272  0.250000  1
  Au  Au20  1  0.810270  0.356016  0.250000  1
  Au  Au21  1  0.419083  0.386677  0.750000  1
  Au  Au22  1  0.678020  0.872566  0.750000  1
  Au  Au23  1  0.791705  0.480710  0.548114  1
  Au  Au24  1  0.709718  0.981387  0.057085  1
  Au  Au25  1  0.791705  0.480710  0.951886  1
  Au  Au26  1  0.210737  0.520921  0.448838  1
  Au  Au27  1  0.210737  0.520921  0.051162  1
  Au  Au28  1  0.179848  0.628290  0.750000  1
  Au  Au29  1  0.336970  0.126775  0.250000  1
  Au  Au30  1  0.581079  0.618578  0.250000  1
  Au  Au31  1  0.064958  0.896794  0.250000  1
  Au  Au32  1  0.290434  0.022376  0.952633  1
  Au  Au33  1  0.918042  0.110934  0.750000  1
  Au  Au34  1  0.709718  0.981387  0.442915  1
  Au  Au35  1  0.290434  0.022376  0.547367  1
