# generated using pymatgen
data_LiThNiPt3
_symmetry_space_group_name_H-M   'P 1'
_cell_length_a   5.18684626
_cell_length_b   5.18684592
_cell_length_c   5.18684502
_cell_angle_alpha   63.17237322
_cell_angle_beta   63.17237110
_cell_angle_gamma   63.17236402
_symmetry_Int_Tables_number   1
_chemical_formula_structural   LiThNiPt3
_chemical_formula_sum   'Li1 Th1 Ni1 Pt3'
_cell_volume   105.61223508
_cell_formula_units_Z   1
loop_
 _symmetry_equiv_pos_site_id
 _symmetry_equiv_pos_as_xyz
  1  'x, y, z'
loop_
 _atom_site_type_symbol
 _atom_site_label
 _atom_site_symmetry_multiplicity
 _atom_site_fract_x
 _atom_site_fract_y
 _atom_site_fract_z
 _atom_site_occupancy
  Li  Li0  1  0.760040  0.760040  0.760040  1
  Th  Th1  1  0.500833  0.500833  0.500833  1
  Ni  Ni2  1  0.121668  0.121668  0.121668  1
  Pt  Pt3  1  0.625468  0.120995  0.120995  1
  Pt  Pt4  1  0.120995  0.625468  0.120995  1
  Pt  Pt5  1  0.120995  0.120995  0.625468  1
