# generated using pymatgen
data_Ba2Sr2Nb2O9
_symmetry_space_group_name_H-M   'P 1'
_cell_length_a   6.07447700
_cell_length_b   6.07447727
_cell_length_c   15.72531300
_cell_angle_alpha   90.00000000
_cell_angle_beta   90.00000000
_cell_angle_gamma   119.99999307
_symmetry_Int_Tables_number   1
_chemical_formula_structural   Ba2Sr2Nb2O9
_chemical_formula_sum   'Ba4 Sr4 Nb4 O18'
_cell_volume   502.51353527
_cell_formula_units_Z   2
loop_
 _symmetry_equiv_pos_site_id
 _symmetry_equiv_pos_as_xyz
  1  'x, y, z'
loop_
 _atom_site_type_symbol
 _atom_site_label
 _atom_site_symmetry_multiplicity
 _atom_site_fract_x
 _atom_site_fract_y
 _atom_site_fract_z
 _atom_site_occupancy
  Ba  Ba0  1  0.000000  0.000000  0.755386  1
  Ba  Ba1  1  0.000000  0.000000  0.255386  1
  Ba  Ba2  1  0.333333  0.666667  0.387866  1
  Ba  Ba3  1  0.666667  0.333333  0.887866  1
  Sr  Sr4  1  0.666667  0.333333  0.643224  1
  Sr  Sr5  1  0.333333  0.666667  0.143224  1
  Sr  Sr6  1  0.000000  0.000000  0.503564  1
  Sr  Sr7  1  0.000000  0.000000  0.003564  1
  Nb  Nb8  1  0.666667  0.333333  0.343132  1
  Nb  Nb9  1  0.333333  0.666667  0.843132  1
  Nb  Nb10  1  0.333333  0.666667  0.649944  1
  Nb  Nb11  1  0.666667  0.333333  0.149944  1
  O  O12  1  0.531701  0.960981  0.747210  1
  O  O13  1  0.039019  0.570720  0.747210  1
  O  O14  1  0.429280  0.468299  0.747210  1
  O  O15  1  0.468299  0.039019  0.247210  1
  O  O16  1  0.960981  0.429280  0.247210  1
  O  O17  1  0.570720  0.531701  0.247210  1
  O  O18  1  0.079308  0.364156  0.594411  1
  O  O19  1  0.635844  0.715152  0.594411  1
  O  O20  1  0.284848  0.920692  0.594411  1
  O  O21  1  0.920692  0.635844  0.094411  1
  O  O22  1  0.364156  0.284848  0.094411  1
  O  O23  1  0.715152  0.079308  0.094411  1
  O  O24  1  0.884714  0.652849  0.397339  1
  O  O25  1  0.347151  0.231864  0.397339  1
  O  O26  1  0.768136  0.115286  0.397339  1
  O  O27  1  0.115286  0.347151  0.897339  1
  O  O28  1  0.652849  0.768136  0.897339  1
  O  O29  1  0.231864  0.884714  0.897339  1
