# generated using pymatgen
data_Lu4Ti3AlIr4
_symmetry_space_group_name_H-M   'P 1'
_cell_length_a   4.29287800
_cell_length_b   6.85047654
_cell_length_c   7.92357066
_cell_angle_alpha   87.45856609
_cell_angle_beta   90.00000000
_cell_angle_gamma   90.00000000
_symmetry_Int_Tables_number   1
_chemical_formula_structural   Lu4Ti3AlIr4
_chemical_formula_sum   'Lu4 Ti3 Al1 Ir4'
_cell_volume   232.78923331
_cell_formula_units_Z   1
loop_
 _symmetry_equiv_pos_site_id
 _symmetry_equiv_pos_as_xyz
  1  'x, y, z'
loop_
 _atom_site_type_symbol
 _atom_site_label
 _atom_site_symmetry_multiplicity
 _atom_site_fract_x
 _atom_site_fract_y
 _atom_site_fract_z
 _atom_site_occupancy
  Lu  Lu0  1  0.750000  0.485240  0.826377  1
  Lu  Lu1  1  0.250000  0.020313  0.317328  1
  Lu  Lu2  1  0.750000  0.972423  0.684799  1
  Lu  Lu3  1  0.250000  0.529651  0.172845  1
  Ti  Ti4  1  0.250000  0.636715  0.568482  1
  Ti  Ti5  1  0.250000  0.137165  0.939762  1
  Ti  Ti6  1  0.750000  0.362816  0.431037  1
  Al  Al7  1  0.750000  0.854064  0.067204  1
  Ir  Ir8  1  0.250000  0.775127  0.878124  1
  Ir  Ir9  1  0.250000  0.272565  0.605103  1
  Ir  Ir10  1  0.750000  0.726776  0.394297  1
  Ir  Ir11  1  0.750000  0.227145  0.114641  1
