# generated using pymatgen
data_Tb6Ho5ErNi4
_symmetry_space_group_name_H-M   'P 1'
_cell_length_a   6.34359247
_cell_length_b   6.82266400
_cell_length_c   9.56162400
_cell_angle_alpha   90.00011272
_cell_angle_beta   90.11823206
_cell_angle_gamma   90.00008703
_symmetry_Int_Tables_number   1
_chemical_formula_structural   Tb6Ho5ErNi4
_chemical_formula_sum   'Tb6 Ho5 Er1 Ni4'
_cell_volume   413.82811750
_cell_formula_units_Z   1
loop_
 _symmetry_equiv_pos_site_id
 _symmetry_equiv_pos_as_xyz
  1  'x, y, z'
loop_
 _atom_site_type_symbol
 _atom_site_label
 _atom_site_symmetry_multiplicity
 _atom_site_fract_x
 _atom_site_fract_y
 _atom_site_fract_z
 _atom_site_occupancy
  Tb  Tb0  1  0.321135  0.678242  0.066272  1
  Tb  Tb1  1  0.178865  0.178242  0.433729  1
  Tb  Tb2  1  0.860318  0.533350  0.250309  1
  Tb  Tb3  1  0.639682  0.033350  0.249692  1
  Tb  Tb4  1  0.138976  0.466453  0.749870  1
  Tb  Tb5  1  0.361025  0.966453  0.750129  1
  Ho  Ho6  1  0.821588  0.821900  0.932732  1
  Ho  Ho7  1  0.678852  0.321822  0.932974  1
  Ho  Ho8  1  0.821147  0.821822  0.567025  1
  Ho  Ho9  1  0.321670  0.678201  0.433682  1
  Ho  Ho10  1  0.178331  0.178201  0.066318  1
  Er  Er11  1  0.678412  0.321901  0.567268  1
  Ni  Ni12  1  0.054994  0.891259  0.249966  1
  Ni  Ni13  1  0.445007  0.391259  0.250034  1
  Ni  Ni14  1  0.944191  0.108774  0.750407  1
  Ni  Ni15  1  0.555808  0.608773  0.749592  1
