# generated using pymatgen
data_Zr8V11Si16Mo
_symmetry_space_group_name_H-M   'P 1'
_cell_length_a   6.51771480
_cell_length_b   6.65792844
_cell_length_c   12.59156600
_cell_angle_alpha   90.00000000
_cell_angle_beta   90.00000000
_cell_angle_gamma   89.97815671
_symmetry_Int_Tables_number   1
_chemical_formula_structural   Zr8V11Si16Mo
_chemical_formula_sum   'Zr8 V11 Si16 Mo1'
_cell_volume   546.40440314
_cell_formula_units_Z   1
loop_
 _symmetry_equiv_pos_site_id
 _symmetry_equiv_pos_as_xyz
  1  'x, y, z'
loop_
 _atom_site_type_symbol
 _atom_site_label
 _atom_site_symmetry_multiplicity
 _atom_site_fract_x
 _atom_site_fract_y
 _atom_site_fract_z
 _atom_site_occupancy
  Zr  Zr0  1  0.494631  0.329922  0.093833  1
  Zr  Zr1  1  0.995615  0.169066  0.406226  1
  Zr  Zr2  1  0.503587  0.670508  0.595568  1
  Zr  Zr3  1  0.004266  0.829886  0.904439  1
  Zr  Zr4  1  0.503587  0.670508  0.904432  1
  Zr  Zr5  1  0.004266  0.829886  0.595561  1
  Zr  Zr6  1  0.494631  0.329922  0.406167  1
  Zr  Zr7  1  0.995615  0.169066  0.093774  1
  V  V8  1  0.837111  0.330032  0.624589  1
  V  V9  1  0.336653  0.169358  0.875320  1
  V  V10  1  0.165743  0.669164  0.123551  1
  V  V11  1  0.662754  0.832553  0.375992  1
  V  V12  1  0.165743  0.669164  0.376449  1
  V  V13  1  0.662754  0.832553  0.124008  1
  V  V14  1  0.837111  0.330032  0.875411  1
  V  V15  1  0.336653  0.169358  0.624680  1
  V  V16  1  0.663472  0.008052  0.750000  1
  V  V17  1  0.163292  0.492335  0.750000  1
  V  V18  1  0.336171  0.994960  0.250000  1
  Si  Si19  1  0.667217  0.043039  0.541452  1
  Si  Si20  1  0.167340  0.457185  0.958569  1
  Si  Si21  1  0.333020  0.957503  0.040589  1
  Si  Si22  1  0.832636  0.543627  0.459893  1
  Si  Si23  1  0.333020  0.957503  0.459411  1
  Si  Si24  1  0.832636  0.543627  0.040107  1
  Si  Si25  1  0.667217  0.043039  0.958548  1
  Si  Si26  1  0.167340  0.457185  0.541431  1
  Si  Si27  1  0.537457  0.372219  0.750000  1
  Si  Si28  1  0.037599  0.127820  0.750000  1
  Si  Si29  1  0.460885  0.630086  0.250000  1
  Si  Si30  1  0.964501  0.872850  0.250000  1
  Si  Si31  1  0.801142  0.629556  0.750000  1
  Si  Si32  1  0.301360  0.870730  0.750000  1
  Si  Si33  1  0.201417  0.366885  0.250000  1
  Si  Si34  1  0.696408  0.128282  0.250000  1
  Mo  Mo35  1  0.835155  0.502536  0.250000  1
