# generated using pymatgen
data_Ce2HgO2
_symmetry_space_group_name_H-M   'P 1'
_cell_length_a   4.05670688
_cell_length_b   4.05670732
_cell_length_c   6.95481026
_cell_angle_alpha   73.41465949
_cell_angle_beta   73.41465741
_cell_angle_gamma   89.99903589
_symmetry_Int_Tables_number   1
_chemical_formula_structural   Ce2HgO2
_chemical_formula_sum   'Ce2 Hg1 O2'
_cell_volume   104.71467356
_cell_formula_units_Z   1
loop_
 _symmetry_equiv_pos_site_id
 _symmetry_equiv_pos_as_xyz
  1  'x, y, z'
loop_
 _atom_site_type_symbol
 _atom_site_label
 _atom_site_symmetry_multiplicity
 _atom_site_fract_x
 _atom_site_fract_y
 _atom_site_fract_z
 _atom_site_occupancy
  Ce  Ce0  1  0.661304  0.661304  0.681633  1
  Ce  Ce1  1  0.338696  0.338696  0.318367  1
  Hg  Hg2  1  0.000000  0.000000  0.000000  1
  O  O3  1  0.250396  0.749604  0.500000  1
  O  O4  1  0.749604  0.250396  0.500000  1
