# generated using pymatgen
data_NdYHo2(MoN3)4
_symmetry_space_group_name_H-M   'P 1'
_cell_length_a   7.33852440
_cell_length_b   7.33852365
_cell_length_c   6.28357022
_cell_angle_alpha   74.19843341
_cell_angle_beta   74.19842198
_cell_angle_gamma   82.35602060
_symmetry_Int_Tables_number   1
_chemical_formula_structural   NdYHo2(MoN3)4
_chemical_formula_sum   'Nd1 Y1 Ho2 Mo4 N12'
_cell_volume   312.66877647
_cell_formula_units_Z   1
loop_
 _symmetry_equiv_pos_site_id
 _symmetry_equiv_pos_as_xyz
  1  'x, y, z'
loop_
 _atom_site_type_symbol
 _atom_site_label
 _atom_site_symmetry_multiplicity
 _atom_site_fract_x
 _atom_site_fract_y
 _atom_site_fract_z
 _atom_site_occupancy
  Nd  Nd0  1  0.701987  0.298013  0.250000  1
  Y  Y1  1  0.294841  0.705159  0.750000  1
  Ho  Ho2  1  0.914747  0.085253  0.750000  1
  Ho  Ho3  1  0.089406  0.910594  0.250000  1
  Mo  Mo4  1  0.801113  0.621414  0.762839  1
  Mo  Mo5  1  0.199040  0.380695  0.233373  1
  Mo  Mo6  1  0.619305  0.800960  0.266627  1
  Mo  Mo7  1  0.378586  0.198887  0.737161  1
  N  N8  1  0.217525  0.998477  0.850263  1
  N  N9  1  0.357121  0.349168  0.447359  1
  N  N10  1  0.635170  0.650039  0.558153  1
  N  N11  1  0.620646  0.112096  0.671203  1
  N  N12  1  0.001523  0.782475  0.649737  1
  N  N13  1  0.787215  0.994495  0.149038  1
  N  N14  1  0.109782  0.622207  0.163526  1
  N  N15  1  0.887904  0.379354  0.828797  1
  N  N16  1  0.005505  0.212785  0.350962  1
  N  N17  1  0.349961  0.364830  0.941847  1
  N  N18  1  0.650832  0.642879  0.052641  1
  N  N19  1  0.377793  0.890218  0.336474  1
