# generated using pymatgen
data_MgZr6Sn
_symmetry_space_group_name_H-M   'P 1'
_cell_length_a   6.32409035
_cell_length_b   6.32409025
_cell_length_c   6.32409000
_cell_angle_alpha   60.00000129
_cell_angle_beta   60.00000183
_cell_angle_gamma   59.99999766
_symmetry_Int_Tables_number   1
_chemical_formula_structural   MgZr6Sn
_chemical_formula_sum   'Mg1 Zr6 Sn1'
_cell_volume   178.84597533
_cell_formula_units_Z   1
loop_
 _symmetry_equiv_pos_site_id
 _symmetry_equiv_pos_as_xyz
  1  'x, y, z'
loop_
 _atom_site_type_symbol
 _atom_site_label
 _atom_site_symmetry_multiplicity
 _atom_site_fract_x
 _atom_site_fract_y
 _atom_site_fract_z
 _atom_site_occupancy
  Mg  Mg0  1  0.000000  0.000000  0.000000  1
  Zr  Zr1  1  0.500000  0.000000  0.000000  1
  Zr  Zr2  1  0.000000  0.500000  0.500000  1
  Zr  Zr3  1  0.000000  0.500000  0.000000  1
  Zr  Zr4  1  0.500000  0.000000  0.500000  1
  Zr  Zr5  1  0.000000  0.000000  0.500000  1
  Zr  Zr6  1  0.500000  0.500000  0.000000  1
  Sn  Sn7  1  0.500000  0.500000  0.500000  1
