# generated using pymatgen
data_Ca21MgGa13Sb
_symmetry_space_group_name_H-M   'P 1'
_cell_length_a   11.35215324
_cell_length_b   11.31612418
_cell_length_c   11.35215400
_cell_angle_alpha   60.10493597
_cell_angle_beta   59.79012872
_cell_angle_gamma   60.10493833
_symmetry_Int_Tables_number   1
_chemical_formula_structural   Ca21MgGa13Sb
_chemical_formula_sum   'Ca21 Mg1 Ga13 Sb1'
_cell_volume   1031.17057886
_cell_formula_units_Z   1
loop_
 _symmetry_equiv_pos_site_id
 _symmetry_equiv_pos_as_xyz
  1  'x, y, z'
loop_
 _atom_site_type_symbol
 _atom_site_label
 _atom_site_symmetry_multiplicity
 _atom_site_fract_x
 _atom_site_fract_y
 _atom_site_fract_z
 _atom_site_occupancy
  Ca  Ca0  1  0.998573  0.001427  0.998573  1
  Ca  Ca1  1  0.127512  0.134325  0.127512  1
  Ca  Ca2  1  0.389349  0.872488  0.865675  1
  Ca  Ca3  1  0.871081  0.388894  0.871081  1
  Ca  Ca4  1  0.865675  0.872488  0.389349  1
  Ca  Ca5  1  0.127512  0.610651  0.127512  1
  Ca  Ca6  1  0.131057  0.128919  0.611106  1
  Ca  Ca7  1  0.611106  0.128919  0.131057  1
  Ca  Ca8  1  0.871081  0.868943  0.871081  1
  Ca  Ca9  1  0.499723  0.828511  0.499723  1
  Ca  Ca10  1  0.828706  0.500074  0.499926  1
  Ca  Ca11  1  0.505424  0.827895  0.172105  1
  Ca  Ca12  1  0.171489  0.500277  0.827957  1
  Ca  Ca13  1  0.827957  0.500277  0.171489  1
  Ca  Ca14  1  0.499926  0.500074  0.828706  1
  Ca  Ca15  1  0.172105  0.827895  0.505424  1
  Ca  Ca16  1  0.499926  0.171294  0.828706  1
  Ca  Ca17  1  0.505424  0.494576  0.172105  1
  Ca  Ca18  1  0.828706  0.171294  0.499926  1
  Ca  Ca19  1  0.172105  0.494576  0.505424  1
  Ca  Ca20  1  0.499723  0.172043  0.499723  1
  Mg  Mg21  1  0.500478  0.499522  0.500478  1
  Ga  Ga22  1  0.215565  0.784435  0.783849  1
  Ga  Ga23  1  0.783849  0.216151  0.215565  1
  Ga  Ga24  1  0.783849  0.784435  0.215565  1
  Ga  Ga25  1  0.215565  0.216151  0.783849  1
  Ga  Ga26  1  0.782839  0.217161  0.782839  1
  Ga  Ga27  1  0.309069  0.309780  0.309068  1
  Ga  Ga28  1  0.927917  0.690932  0.690220  1
  Ga  Ga29  1  0.690646  0.929412  0.690646  1
  Ga  Ga30  1  0.690220  0.690932  0.927917  1
  Ga  Ga31  1  0.309068  0.072083  0.309068  1
  Ga  Ga32  1  0.310704  0.309354  0.070588  1
  Ga  Ga33  1  0.070588  0.309354  0.310704  1
  Ga  Ga34  1  0.690646  0.689296  0.690645  1
  Sb  Sb35  1  0.214840  0.785160  0.214840  1
