# generated using pymatgen
data_Gd15Y4ErSn16
_symmetry_space_group_name_H-M   'P 1'
_cell_length_a   8.18555608
_cell_length_b   8.30537957
_cell_length_c   15.77747500
_cell_angle_alpha   90.04437202
_cell_angle_beta   89.24318611
_cell_angle_gamma   90.15218434
_symmetry_Int_Tables_number   1
_chemical_formula_structural   Gd15Y4ErSn16
_chemical_formula_sum   'Gd15 Y4 Er1 Sn16'
_cell_volume   1072.52058236
_cell_formula_units_Z   1
loop_
 _symmetry_equiv_pos_site_id
 _symmetry_equiv_pos_as_xyz
  1  'x, y, z'
loop_
 _atom_site_type_symbol
 _atom_site_label
 _atom_site_symmetry_multiplicity
 _atom_site_fract_x
 _atom_site_fract_y
 _atom_site_fract_z
 _atom_site_occupancy
  Gd  Gd0  1  0.869005  0.659951  0.620967  1
  Gd  Gd1  1  0.630195  0.159864  0.380102  1
  Gd  Gd2  1  0.136625  0.338177  0.119234  1
  Gd  Gd3  1  0.635562  0.162466  0.120908  1
  Gd  Gd4  1  0.130544  0.339231  0.380382  1
  Gd  Gd5  1  0.369386  0.840133  0.621012  1
  Gd  Gd6  1  0.865577  0.661307  0.879702  1
  Gd  Gd7  1  0.517539  0.319554  0.903499  1
  Gd  Gd8  1  0.024300  0.179447  0.600406  1
  Gd  Gd9  1  0.477322  0.679962  0.401390  1
  Gd  Gd10  1  0.983409  0.818066  0.095458  1
  Gd  Gd11  1  0.482751  0.681747  0.094652  1
  Gd  Gd12  1  0.976860  0.819893  0.401080  1
  Gd  Gd13  1  0.523603  0.320856  0.600555  1
  Gd  Gd14  1  0.016194  0.179173  0.903027  1
  Y  Y15  1  0.199864  0.502858  0.750733  1
  Y  Y16  1  0.698928  0.997397  0.750291  1
  Y  Y17  1  0.801032  0.496516  0.250386  1
  Y  Y18  1  0.300397  0.002322  0.249162  1
  Er  Er19  1  0.362657  0.839085  0.875901  1
  Sn  Sn20  1  0.295826  0.034917  0.040031  1
  Sn  Sn21  1  0.788104  0.466964  0.456003  1
  Sn  Sn22  1  0.712881  0.966791  0.544729  1
  Sn  Sn23  1  0.209502  0.540647  0.956324  1
  Sn  Sn24  1  0.697001  0.961508  0.956288  1
  Sn  Sn25  1  0.211932  0.532790  0.545135  1
  Sn  Sn26  1  0.287360  0.032774  0.455790  1
  Sn  Sn27  1  0.795072  0.464823  0.044179  1
  Sn  Sn28  1  0.564044  0.621723  0.750526  1
  Sn  Sn29  1  0.063574  0.880073  0.751236  1
  Sn  Sn30  1  0.434837  0.380112  0.250319  1
  Sn  Sn31  1  0.935863  0.119820  0.249800  1
  Sn  Sn32  1  0.327926  0.145977  0.751984  1
  Sn  Sn33  1  0.828307  0.354414  0.752033  1
  Sn  Sn34  1  0.673400  0.854057  0.248447  1
  Sn  Sn35  1  0.172619  0.644609  0.248327  1
