# generated using pymatgen
data_Ho16MgCo4Ag3
_symmetry_space_group_name_H-M   'P 1'
_cell_length_a   9.43542661
_cell_length_b   9.39811035
_cell_length_c   9.39811000
_cell_angle_alpha   60.00000125
_cell_angle_beta   60.13074258
_cell_angle_gamma   60.13073947
_symmetry_Int_Tables_number   1
_chemical_formula_structural   Ho16MgCo4Ag3
_chemical_formula_sum   'Ho16 Mg1 Co4 Ag3'
_cell_volume   590.44985714
_cell_formula_units_Z   1
loop_
 _symmetry_equiv_pos_site_id
 _symmetry_equiv_pos_as_xyz
  1  'x, y, z'
loop_
 _atom_site_type_symbol
 _atom_site_label
 _atom_site_symmetry_multiplicity
 _atom_site_fract_x
 _atom_site_fract_y
 _atom_site_fract_z
 _atom_site_occupancy
  Ho  Ho0  1  0.346656  0.346690  0.346690  1
  Ho  Ho1  1  0.346656  0.346690  0.959965  1
  Ho  Ho2  1  0.346656  0.959965  0.346690  1
  Ho  Ho3  1  0.950597  0.349801  0.349801  1
  Ho  Ho4  1  0.811203  0.187969  0.187969  1
  Ho  Ho5  1  0.185760  0.813960  0.813960  1
  Ho  Ho6  1  0.185760  0.813960  0.186321  1
  Ho  Ho7  1  0.811203  0.187969  0.812859  1
  Ho  Ho8  1  0.185760  0.186321  0.813960  1
  Ho  Ho9  1  0.811203  0.812859  0.187969  1
  Ho  Ho10  1  0.934549  0.563447  0.563447  1
  Ho  Ho11  1  0.562204  0.936752  0.936752  1
  Ho  Ho12  1  0.562204  0.936752  0.564293  1
  Ho  Ho13  1  0.934549  0.563447  0.938557  1
  Ho  Ho14  1  0.562204  0.564293  0.936752  1
  Ho  Ho15  1  0.934549  0.938557  0.563447  1
  Mg  Mg16  1  0.286353  0.571215  0.571215  1
  Co  Co17  1  0.139158  0.142270  0.142270  1
  Co  Co18  1  0.139158  0.142270  0.576302  1
  Co  Co19  1  0.139158  0.576302  0.142270  1
  Co  Co20  1  0.575386  0.141538  0.141538  1
  Ag  Ag21  1  0.583024  0.583102  0.583102  1
  Ag  Ag22  1  0.583024  0.583102  0.250772  1
  Ag  Ag23  1  0.583024  0.250772  0.583102  1
