# generated using pymatgen
data_Ho6Sc2HgPd9
_symmetry_space_group_name_H-M   'P 1'
_cell_length_a   7.74418511
_cell_length_b   7.74418505
_cell_length_c   7.74418300
_cell_angle_alpha   65.90533013
_cell_angle_beta   65.90533035
_cell_angle_gamma   65.90531920
_symmetry_Int_Tables_number   1
_chemical_formula_structural   Ho6Sc2HgPd9
_chemical_formula_sum   'Ho6 Sc2 Hg1 Pd9'
_cell_volume   370.41213103
_cell_formula_units_Z   1
loop_
 _symmetry_equiv_pos_site_id
 _symmetry_equiv_pos_as_xyz
  1  'x, y, z'
loop_
 _atom_site_type_symbol
 _atom_site_label
 _atom_site_symmetry_multiplicity
 _atom_site_fract_x
 _atom_site_fract_y
 _atom_site_fract_z
 _atom_site_occupancy
  Ho  Ho0  1  0.897642  0.184282  0.626425  1
  Ho  Ho1  1  0.626425  0.897642  0.184282  1
  Ho  Ho2  1  0.184282  0.626425  0.897642  1
  Ho  Ho3  1  0.102358  0.815718  0.373575  1
  Ho  Ho4  1  0.373575  0.102358  0.815718  1
  Ho  Ho5  1  0.815718  0.373575  0.102358  1
  Sc  Sc6  1  0.663459  0.663459  0.663459  1
  Sc  Sc7  1  0.336541  0.336541  0.336541  1
  Hg  Hg8  1  0.500000  0.500000  0.500000  1
  Pd  Pd9  1  0.000000  0.000000  0.000000  1
  Pd  Pd10  1  0.808813  0.808813  0.808813  1
  Pd  Pd11  1  0.191187  0.191187  0.191187  1
  Pd  Pd12  1  0.936687  0.551265  0.319613  1
  Pd  Pd13  1  0.319613  0.936687  0.551265  1
  Pd  Pd14  1  0.551265  0.319613  0.936687  1
  Pd  Pd15  1  0.063313  0.448735  0.680387  1
  Pd  Pd16  1  0.680387  0.063313  0.448735  1
  Pd  Pd17  1  0.448735  0.680387  0.063313  1
