# generated using pymatgen
data_Ce7Th3(SiSb3)2
_symmetry_space_group_name_H-M   'P 1'
_cell_length_a   9.48248800
_cell_length_b   9.47880497
_cell_length_c   6.36782000
_cell_angle_alpha   90.00000000
_cell_angle_beta   90.00000000
_cell_angle_gamma   120.01284714
_symmetry_Int_Tables_number   1
_chemical_formula_structural   Ce7Th3(SiSb3)2
_chemical_formula_sum   'Ce7 Th3 Si2 Sb6'
_cell_volume   495.61114370
_cell_formula_units_Z   1
loop_
 _symmetry_equiv_pos_site_id
 _symmetry_equiv_pos_as_xyz
  1  'x, y, z'
loop_
 _atom_site_type_symbol
 _atom_site_label
 _atom_site_symmetry_multiplicity
 _atom_site_fract_x
 _atom_site_fract_y
 _atom_site_fract_z
 _atom_site_occupancy
  Ce  Ce0  1  0.000128  0.260585  0.250000  1
  Ce  Ce1  1  0.739543  0.739415  0.250000  1
  Ce  Ce2  1  0.739710  0.000000  0.750000  1
  Ce  Ce3  1  0.333786  0.666993  0.000230  1
  Ce  Ce4  1  0.666793  0.333007  0.499770  1
  Ce  Ce5  1  0.666793  0.333007  0.000230  1
  Ce  Ce6  1  0.333786  0.666993  0.499770  1
  Th  Th7  1  0.260326  0.000000  0.250000  1
  Th  Th8  1  0.260074  0.260003  0.750000  1
  Th  Th9  1  0.000071  0.739997  0.750000  1
  Si  Si10  1  0.997255  0.000000  0.001914  1
  Si  Si11  1  0.997255  0.000000  0.498086  1
  Sb  Sb12  1  0.615666  0.000000  0.250000  1
  Sb  Sb13  1  0.613041  0.614124  0.750000  1
  Sb  Sb14  1  0.998917  0.385876  0.750000  1
  Sb  Sb15  1  0.999104  0.611440  0.250000  1
  Sb  Sb16  1  0.387664  0.388560  0.250000  1
  Sb  Sb17  1  0.390089  0.000000  0.750000  1
