# generated using pymatgen
data_Mg2Fe6Ni6P7
_symmetry_space_group_name_H-M   'P 1'
_cell_length_a   8.98045200
_cell_length_b   8.98045151
_cell_length_c   3.56363500
_cell_angle_alpha   90.00000000
_cell_angle_beta   90.00000000
_cell_angle_gamma   120.00000820
_symmetry_Int_Tables_number   1
_chemical_formula_structural   Mg2Fe6Ni6P7
_chemical_formula_sum   'Mg2 Fe6 Ni6 P7'
_cell_volume   248.89729658
_cell_formula_units_Z   1
loop_
 _symmetry_equiv_pos_site_id
 _symmetry_equiv_pos_as_xyz
  1  'x, y, z'
loop_
 _atom_site_type_symbol
 _atom_site_label
 _atom_site_symmetry_multiplicity
 _atom_site_fract_x
 _atom_site_fract_y
 _atom_site_fract_z
 _atom_site_occupancy
  Mg  Mg0  1  0.000000  0.000000  0.000000  1
  Mg  Mg1  1  0.333333  0.666667  0.500000  1
  Fe  Fe2  1  0.787779  0.176684  0.000000  1
  Fe  Fe3  1  0.388905  0.212221  0.000000  1
  Fe  Fe4  1  0.823316  0.611095  0.000000  1
  Fe  Fe5  1  0.541983  0.112070  0.500000  1
  Fe  Fe6  1  0.570087  0.458017  0.500000  1
  Fe  Fe7  1  0.887930  0.429913  0.500000  1
  Ni  Ni8  1  0.290784  0.892235  0.000000  1
  Ni  Ni9  1  0.601451  0.709216  0.000000  1
  Ni  Ni10  1  0.107765  0.398549  0.000000  1
  Ni  Ni11  1  0.722653  0.946563  0.500000  1
  Ni  Ni12  1  0.223910  0.277347  0.500000  1
  Ni  Ni13  1  0.053437  0.776090  0.500000  1
  P  P14  1  0.550047  0.927606  0.000000  1
  P  P15  1  0.377560  0.449953  0.000000  1
  P  P16  1  0.072394  0.622440  0.000000  1
  P  P17  1  0.951532  0.216106  0.500000  1
  P  P18  1  0.264575  0.048468  0.500000  1
  P  P19  1  0.783894  0.735425  0.500000  1
  P  P20  1  0.666667  0.333333  0.000000  1
