# generated using pymatgen
data_RbHfH5
_symmetry_space_group_name_H-M   'P 1'
_cell_length_a   11.39476000
_cell_length_b   7.39133903
_cell_length_c   5.55067301
_cell_angle_alpha   90.00203781
_cell_angle_beta   90.00177419
_cell_angle_gamma   89.99956700
_symmetry_Int_Tables_number   1
_chemical_formula_structural   RbHfH5
_chemical_formula_sum   'Rb4 Hf4 H20'
_cell_volume   467.49174784
_cell_formula_units_Z   4
loop_
 _symmetry_equiv_pos_site_id
 _symmetry_equiv_pos_as_xyz
  1  'x, y, z'
loop_
 _atom_site_type_symbol
 _atom_site_label
 _atom_site_symmetry_multiplicity
 _atom_site_fract_x
 _atom_site_fract_y
 _atom_site_fract_z
 _atom_site_occupancy
  Rb  Rb0  1  0.669766  0.074414  0.338190  1
  Rb  Rb1  1  0.169734  0.425593  0.338134  1
  Rb  Rb2  1  0.830240  0.574429  0.838144  1
  Rb  Rb3  1  0.330264  0.925590  0.838148  1
  Hf  Hf4  1  0.521129  0.585337  0.307541  1
  Hf  Hf5  1  0.021123  0.914655  0.307119  1
  Hf  Hf6  1  0.978872  0.085348  0.807407  1
  Hf  Hf7  1  0.478873  0.414638  0.807182  1
  H  H8  1  0.321452  0.325558  0.773937  1
  H  H9  1  0.821448  0.174466  0.773911  1
  H  H10  1  0.955457  0.674347  0.288771  1
  H  H11  1  0.455481  0.825670  0.288983  1
  H  H12  1  0.579702  0.387045  0.098411  1
  H  H13  1  0.079693  0.112929  0.098347  1
  H  H14  1  0.392200  0.488986  0.103479  1
  H  H15  1  0.892195  0.011006  0.103372  1
  H  H16  1  0.966931  0.144116  0.456893  1
  H  H17  1  0.466950  0.355897  0.456931  1
  H  H18  1  0.178540  0.825553  0.273861  1
  H  H19  1  0.678562  0.674436  0.274040  1
  H  H20  1  0.544542  0.174335  0.788867  1
  H  H21  1  0.044527  0.325672  0.788885  1
  H  H22  1  0.920292  0.887065  0.598298  1
  H  H23  1  0.420312  0.612920  0.598433  1
  H  H24  1  0.107801  0.989001  0.603387  1
  H  H25  1  0.607799  0.510989  0.603494  1
  H  H26  1  0.533067  0.644101  0.956992  1
  H  H27  1  0.033048  0.855901  0.956840  1
