# generated using pymatgen
data_Pr6ScCo16MoP12
_symmetry_space_group_name_H-M   'P 1'
_cell_length_a   3.79295100
_cell_length_b   10.78586400
_cell_length_c   12.56447800
_cell_angle_alpha   90.00000000
_cell_angle_beta   90.00000000
_cell_angle_gamma   90.00000000
_symmetry_Int_Tables_number   1
_chemical_formula_structural   Pr6ScCo16MoP12
_chemical_formula_sum   'Pr6 Sc1 Co16 Mo1 P12'
_cell_volume   514.01598189
_cell_formula_units_Z   1
loop_
 _symmetry_equiv_pos_site_id
 _symmetry_equiv_pos_as_xyz
  1  'x, y, z'
loop_
 _atom_site_type_symbol
 _atom_site_label
 _atom_site_symmetry_multiplicity
 _atom_site_fract_x
 _atom_site_fract_y
 _atom_site_fract_z
 _atom_site_occupancy
  Pr  Pr0  1  0.000000  0.500000  0.523427  1
  Pr  Pr1  1  0.500000  0.000000  0.473001  1
  Pr  Pr2  1  0.500000  0.818908  0.205335  1
  Pr  Pr3  1  0.500000  0.181092  0.205335  1
  Pr  Pr4  1  0.000000  0.679540  0.793658  1
  Pr  Pr5  1  0.000000  0.320460  0.793658  1
  Sc  Sc6  1  0.000000  0.000000  0.848869  1
  Co  Co7  1  0.500000  0.500000  0.704698  1
  Co  Co8  1  0.000000  0.000000  0.295566  1
  Co  Co9  1  0.000000  0.500000  0.990172  1
  Co  Co10  1  0.500000  0.000000  0.014408  1
  Co  Co11  1  0.500000  0.335805  0.995538  1
  Co  Co12  1  0.500000  0.664195  0.995538  1
  Co  Co13  1  0.000000  0.172175  0.008429  1
  Co  Co14  1  0.000000  0.827825  0.008429  1
  Co  Co15  1  0.500000  0.296919  0.430219  1
  Co  Co16  1  0.500000  0.703081  0.430219  1
  Co  Co17  1  0.000000  0.205078  0.566546  1
  Co  Co18  1  0.000000  0.794922  0.566546  1
  Co  Co19  1  0.500000  0.879999  0.702514  1
  Co  Co20  1  0.500000  0.120001  0.702514  1
  Co  Co21  1  0.000000  0.618161  0.292442  1
  Co  Co22  1  0.000000  0.381839  0.292442  1
  Mo  Mo23  1  0.500000  0.500000  0.156434  1
  P  P24  1  0.500000  0.500000  0.887576  1
  P  P25  1  0.000000  0.000000  0.112258  1
  P  P26  1  0.500000  0.500000  0.345064  1
  P  P27  1  0.000000  0.000000  0.647168  1
  P  P28  1  0.500000  0.305366  0.612278  1
  P  P29  1  0.500000  0.694634  0.612278  1
  P  P30  1  0.000000  0.196105  0.385275  1
  P  P31  1  0.000000  0.803895  0.385275  1
  P  P32  1  0.500000  0.840448  0.900869  1
  P  P33  1  0.500000  0.159552  0.900869  1
  P  P34  1  0.000000  0.651742  0.107579  1
  P  P35  1  0.000000  0.348258  0.107579  1
