# generated using pymatgen
data_ScFeP3Rh4
_symmetry_space_group_name_H-M   'P 1'
_cell_length_a   3.79420100
_cell_length_b   10.68844900
_cell_length_c   12.34857100
_cell_angle_alpha   90.00000000
_cell_angle_beta   90.00000000
_cell_angle_gamma   90.00000000
_symmetry_Int_Tables_number   1
_chemical_formula_structural   ScFeP3Rh4
_chemical_formula_sum   'Sc4 Fe4 P12 Rh16'
_cell_volume   500.78547813
_cell_formula_units_Z   4
loop_
 _symmetry_equiv_pos_site_id
 _symmetry_equiv_pos_as_xyz
  1  'x, y, z'
loop_
 _atom_site_type_symbol
 _atom_site_label
 _atom_site_symmetry_multiplicity
 _atom_site_fract_x
 _atom_site_fract_y
 _atom_site_fract_z
 _atom_site_occupancy
  Sc  Sc0  1  0.250000  0.581813  0.710646  1
  Sc  Sc1  1  0.250000  0.918187  0.210646  1
  Sc  Sc2  1  0.750000  0.418187  0.289354  1
  Sc  Sc3  1  0.750000  0.081813  0.789354  1
  Fe  Fe4  1  0.250000  0.461760  0.932048  1
  Fe  Fe5  1  0.250000  0.038240  0.432048  1
  Fe  Fe6  1  0.750000  0.538240  0.067952  1
  Fe  Fe7  1  0.750000  0.961760  0.567952  1
  P  P8  1  0.250000  0.430275  0.106812  1
  P  P9  1  0.250000  0.069725  0.606812  1
  P  P10  1  0.750000  0.569725  0.893188  1
  P  P11  1  0.750000  0.930275  0.393188  1
  P  P12  1  0.250000  0.267814  0.868091  1
  P  P13  1  0.250000  0.232186  0.368091  1
  P  P14  1  0.750000  0.732186  0.131909  1
  P  P15  1  0.750000  0.767814  0.631909  1
  P  P16  1  0.250000  0.599387  0.388503  1
  P  P17  1  0.250000  0.900613  0.888503  1
  P  P18  1  0.750000  0.400613  0.611497  1
  P  P19  1  0.750000  0.099387  0.111497  1
  Rh  Rh20  1  0.250000  0.715786  0.990919  1
  Rh  Rh21  1  0.250000  0.784214  0.490919  1
  Rh  Rh22  1  0.750000  0.284214  0.009081  1
  Rh  Rh23  1  0.750000  0.215786  0.509081  1
  Rh  Rh24  1  0.250000  0.408691  0.476110  1
  Rh  Rh25  1  0.250000  0.091309  0.976110  1
  Rh  Rh26  1  0.750000  0.591309  0.523890  1
  Rh  Rh27  1  0.750000  0.908691  0.023890  1
  Rh  Rh28  1  0.250000  0.233304  0.175909  1
  Rh  Rh29  1  0.250000  0.266696  0.675909  1
  Rh  Rh30  1  0.750000  0.766696  0.824091  1
  Rh  Rh31  1  0.750000  0.733304  0.324091  1
  Rh  Rh32  1  0.250000  0.883960  0.702361  1
  Rh  Rh33  1  0.250000  0.616040  0.202361  1
  Rh  Rh34  1  0.750000  0.116040  0.297639  1
  Rh  Rh35  1  0.750000  0.383960  0.797639  1
