# generated using pymatgen
data_Ho3Mg3Al2Ag
_symmetry_space_group_name_H-M   'P 1'
_cell_length_a   7.41742300
_cell_length_b   7.41742210
_cell_length_c   4.36161800
_cell_angle_alpha   90.00000000
_cell_angle_beta   90.00000000
_cell_angle_gamma   119.99999955
_symmetry_Int_Tables_number   1
_chemical_formula_structural   Ho3Mg3Al2Ag
_chemical_formula_sum   'Ho3 Mg3 Al2 Ag1'
_cell_volume   207.81854543
_cell_formula_units_Z   1
loop_
 _symmetry_equiv_pos_site_id
 _symmetry_equiv_pos_as_xyz
  1  'x, y, z'
loop_
 _atom_site_type_symbol
 _atom_site_label
 _atom_site_symmetry_multiplicity
 _atom_site_fract_x
 _atom_site_fract_y
 _atom_site_fract_z
 _atom_site_occupancy
  Ho  Ho0  1  0.578564  0.000000  0.000000  1
  Ho  Ho1  1  0.000000  0.578564  0.000000  1
  Ho  Ho2  1  0.421436  0.421436  0.000000  1
  Mg  Mg3  1  0.245681  0.000000  0.500000  1
  Mg  Mg4  1  0.000000  0.245681  0.500000  1
  Mg  Mg5  1  0.754319  0.754319  0.500000  1
  Al  Al6  1  0.333333  0.666667  0.500000  1
  Al  Al7  1  0.666667  0.333333  0.500000  1
  Ag  Ag8  1  0.000000  0.000000  0.000000  1
