# generated using pymatgen
data_Tm2ScB2Ir4Ru
_symmetry_space_group_name_H-M   'P 1'
_cell_length_a   3.11340600
_cell_length_b   9.77282100
_cell_length_c   9.77282100
_cell_angle_alpha   90.00000000
_cell_angle_beta   90.00000000
_cell_angle_gamma   90.00000000
_symmetry_Int_Tables_number   1
_chemical_formula_structural   Tm2ScB2Ir4Ru
_chemical_formula_sum   'Tm4 Sc2 B4 Ir8 Ru2'
_cell_volume   297.35527458
_cell_formula_units_Z   2
loop_
 _symmetry_equiv_pos_site_id
 _symmetry_equiv_pos_as_xyz
  1  'x, y, z'
loop_
 _atom_site_type_symbol
 _atom_site_label
 _atom_site_symmetry_multiplicity
 _atom_site_fract_x
 _atom_site_fract_y
 _atom_site_fract_z
 _atom_site_occupancy
  Tm  Tm0  1  0.000000  0.175214  0.675214  1
  Tm  Tm1  1  0.000000  0.824786  0.324786  1
  Tm  Tm2  1  0.000000  0.324786  0.175214  1
  Tm  Tm3  1  0.000000  0.675214  0.824786  1
  Sc  Sc4  1  0.000000  0.000000  0.000000  1
  Sc  Sc5  1  0.000000  0.500000  0.500000  1
  B  B6  1  0.000000  0.619089  0.119089  1
  B  B7  1  0.000000  0.380911  0.880911  1
  B  B8  1  0.000000  0.880911  0.619089  1
  B  B9  1  0.000000  0.119089  0.380911  1
  Ir  Ir10  1  0.500000  0.070555  0.223765  1
  Ir  Ir11  1  0.500000  0.929445  0.776235  1
  Ir  Ir12  1  0.500000  0.776235  0.070555  1
  Ir  Ir13  1  0.500000  0.429445  0.723765  1
  Ir  Ir14  1  0.500000  0.223765  0.929445  1
  Ir  Ir15  1  0.500000  0.570555  0.276235  1
  Ir  Ir16  1  0.500000  0.723765  0.570555  1
  Ir  Ir17  1  0.500000  0.276235  0.429445  1
  Ru  Ru18  1  0.500000  0.000000  0.500000  1
  Ru  Ru19  1  0.500000  0.500000  0.000000  1
