# generated using pymatgen
data_Lu5HfB4Ir9Ru
_symmetry_space_group_name_H-M   'P 1'
_cell_length_a   9.75930710
_cell_length_b   9.76126004
_cell_length_c   3.16093300
_cell_angle_alpha   90.00000000
_cell_angle_beta   90.00000000
_cell_angle_gamma   90.43730310
_symmetry_Int_Tables_number   1
_chemical_formula_structural   Lu5HfB4Ir9Ru
_chemical_formula_sum   'Lu5 Hf1 B4 Ir9 Ru1'
_cell_volume   301.11161473
_cell_formula_units_Z   1
loop_
 _symmetry_equiv_pos_site_id
 _symmetry_equiv_pos_as_xyz
  1  'x, y, z'
loop_
 _atom_site_type_symbol
 _atom_site_label
 _atom_site_symmetry_multiplicity
 _atom_site_fract_x
 _atom_site_fract_y
 _atom_site_fract_z
 _atom_site_occupancy
  Lu  Lu0  1  0.174058  0.674138  0.000000  1
  Lu  Lu1  1  0.323591  0.176381  0.000000  1
  Lu  Lu2  1  0.825942  0.325862  0.000000  1
  Lu  Lu3  1  0.500000  0.500000  0.000000  1
  Lu  Lu4  1  0.676409  0.823619  0.000000  1
  Hf  Hf5  1  0.000000  0.000000  0.000000  1
  B  B6  1  0.382162  0.879947  0.000000  1
  B  B7  1  0.119254  0.382931  0.000000  1
  B  B8  1  0.880746  0.617069  0.000000  1
  B  B9  1  0.617838  0.120053  0.000000  1
  Ir  Ir10  1  0.223338  0.931892  0.500000  1
  Ir  Ir11  1  0.931833  0.777854  0.500000  1
  Ir  Ir12  1  0.426686  0.728657  0.500000  1
  Ir  Ir13  1  0.573314  0.271343  0.500000  1
  Ir  Ir14  1  0.727825  0.573308  0.500000  1
  Ir  Ir15  1  0.272175  0.426692  0.500000  1
  Ir  Ir16  1  0.068167  0.222146  0.500000  1
  Ir  Ir17  1  0.500000  0.000000  0.500000  1
  Ir  Ir18  1  0.776662  0.068108  0.500000  1
  Ru  Ru19  1  0.000000  0.500000  0.500000  1
