# generated using pymatgen
data_YbEr2Zn11
_symmetry_space_group_name_H-M   'P 1'
_cell_length_a   4.39336110
_cell_length_b   8.11159424
_cell_length_c   8.11159360
_cell_angle_alpha   66.54564753
_cell_angle_beta   74.28766922
_cell_angle_gamma   74.28768153
_symmetry_Int_Tables_number   1
_chemical_formula_structural   YbEr2Zn11
_chemical_formula_sum   'Yb1 Er2 Zn11'
_cell_volume   250.89352453
_cell_formula_units_Z   1
loop_
 _symmetry_equiv_pos_site_id
 _symmetry_equiv_pos_as_xyz
  1  'x, y, z'
loop_
 _atom_site_type_symbol
 _atom_site_label
 _atom_site_symmetry_multiplicity
 _atom_site_fract_x
 _atom_site_fract_y
 _atom_site_fract_z
 _atom_site_occupancy
  Yb  Yb0  1  0.000000  0.000000  0.000000  1
  Er  Er1  1  0.704167  0.295833  0.295833  1
  Er  Er2  1  0.295833  0.704167  0.704167  1
  Zn  Zn3  1  0.000000  0.500000  0.500000  1
  Zn  Zn4  1  0.500000  0.683027  0.316973  1
  Zn  Zn5  1  0.500000  0.316973  0.683027  1
  Zn  Zn6  1  0.662270  0.696447  0.979015  1
  Zn  Zn7  1  0.337730  0.303553  0.020985  1
  Zn  Zn8  1  0.662270  0.979015  0.696447  1
  Zn  Zn9  1  0.337730  0.020985  0.303553  1
  Zn  Zn10  1  0.864165  0.418178  0.853489  1
  Zn  Zn11  1  0.135835  0.581822  0.146511  1
  Zn  Zn12  1  0.864165  0.853489  0.418178  1
  Zn  Zn13  1  0.135835  0.146511  0.581822  1
