# generated using pymatgen
data_K6InTe4I
_symmetry_space_group_name_H-M   'P 1'
_cell_length_a   11.54628100
_cell_length_b   11.54628104
_cell_length_c   8.41234300
_cell_angle_alpha   90.00000000
_cell_angle_beta   90.00000000
_cell_angle_gamma   119.99999702
_symmetry_Int_Tables_number   1
_chemical_formula_structural   K6InTe4I
_chemical_formula_sum   'K12 In2 Te8 I2'
_cell_volume   971.25186015
_cell_formula_units_Z   2
loop_
 _symmetry_equiv_pos_site_id
 _symmetry_equiv_pos_as_xyz
  1  'x, y, z'
loop_
 _atom_site_type_symbol
 _atom_site_label
 _atom_site_symmetry_multiplicity
 _atom_site_fract_x
 _atom_site_fract_y
 _atom_site_fract_z
 _atom_site_occupancy
  K  K0  1  0.138295  0.861705  0.515009  1
  K  K1  1  0.723408  0.861705  0.515009  1
  K  K2  1  0.952142  0.476071  0.321446  1
  K  K3  1  0.523929  0.476071  0.321446  1
  K  K4  1  0.861705  0.723408  0.015009  1
  K  K5  1  0.276592  0.138295  0.015009  1
  K  K6  1  0.523929  0.047858  0.321446  1
  K  K7  1  0.138295  0.276592  0.515009  1
  K  K8  1  0.861705  0.138295  0.015009  1
  K  K9  1  0.047858  0.523929  0.821446  1
  K  K10  1  0.476071  0.952142  0.821446  1
  K  K11  1  0.476071  0.523929  0.821446  1
  In  In12  1  0.666667  0.333333  0.704637  1
  In  In13  1  0.333333  0.666667  0.204637  1
  Te  Te14  1  0.399358  0.199679  0.601693  1
  Te  Te15  1  0.600642  0.800321  0.101693  1
  Te  Te16  1  0.666667  0.333333  0.047220  1
  Te  Te17  1  0.800321  0.600642  0.601693  1
  Te  Te18  1  0.199679  0.399358  0.101693  1
  Te  Te19  1  0.333333  0.666667  0.547220  1
  Te  Te20  1  0.199679  0.800321  0.101693  1
  Te  Te21  1  0.800321  0.199679  0.601693  1
  I  I22  1  0.000000  0.000000  0.274301  1
  I  I23  1  0.000000  0.000000  0.774301  1
