# generated using pymatgen
data_Tm16Al4Ir3Ru
_symmetry_space_group_name_H-M   'P 1'
_cell_length_a   9.41115970
_cell_length_b   9.41116001
_cell_length_c   9.41115919
_cell_angle_alpha   60.04698372
_cell_angle_beta   60.04698678
_cell_angle_gamma   60.04698310
_symmetry_Int_Tables_number   1
_chemical_formula_structural   Tm16Al4Ir3Ru
_chemical_formula_sum   'Tm16 Al4 Ir3 Ru1'
_cell_volume   590.03350519
_cell_formula_units_Z   1
loop_
 _symmetry_equiv_pos_site_id
 _symmetry_equiv_pos_as_xyz
  1  'x, y, z'
loop_
 _atom_site_type_symbol
 _atom_site_label
 _atom_site_symmetry_multiplicity
 _atom_site_fract_x
 _atom_site_fract_y
 _atom_site_fract_z
 _atom_site_occupancy
  Tm  Tm0  1  0.602468  0.602468  0.602468  1
  Tm  Tm1  1  0.601935  0.601935  0.193171  1
  Tm  Tm2  1  0.601935  0.193171  0.601935  1
  Tm  Tm3  1  0.193171  0.601935  0.601935  1
  Tm  Tm4  1  0.056776  0.444498  0.444498  1
  Tm  Tm5  1  0.444928  0.055278  0.055278  1
  Tm  Tm6  1  0.444498  0.056776  0.444498  1
  Tm  Tm7  1  0.055278  0.444928  0.055278  1
  Tm  Tm8  1  0.444498  0.444498  0.056776  1
  Tm  Tm9  1  0.055278  0.055278  0.444928  1
  Tm  Tm10  1  0.188165  0.811738  0.811738  1
  Tm  Tm11  1  0.810824  0.188629  0.188629  1
  Tm  Tm12  1  0.811738  0.188165  0.811738  1
  Tm  Tm13  1  0.188629  0.810824  0.188629  1
  Tm  Tm14  1  0.811738  0.811738  0.188165  1
  Tm  Tm15  1  0.188629  0.188629  0.810824  1
  Al  Al16  1  0.828536  0.828536  0.828536  1
  Al  Al17  1  0.828578  0.828578  0.514214  1
  Al  Al18  1  0.828578  0.514214  0.828578  1
  Al  Al19  1  0.514214  0.828578  0.828578  1
  Ir  Ir20  1  0.391533  0.391533  0.825215  1
  Ir  Ir21  1  0.391533  0.825215  0.391533  1
  Ir  Ir22  1  0.825215  0.391533  0.391533  1
  Ru  Ru23  1  0.391328  0.391328  0.391328  1
