# generated using pymatgen
data_K3Li2VP3
_symmetry_space_group_name_H-M   'P 1'
_cell_length_a   9.74343198
_cell_length_b   9.74343006
_cell_length_c   14.66596400
_cell_angle_alpha   90.00000000
_cell_angle_beta   90.00000000
_cell_angle_gamma   142.93839011
_symmetry_Int_Tables_number   1
_chemical_formula_structural   K3Li2VP3
_chemical_formula_sum   'K12 Li8 V4 P12'
_cell_volume   839.10536864
_cell_formula_units_Z   4
loop_
 _symmetry_equiv_pos_site_id
 _symmetry_equiv_pos_as_xyz
  1  'x, y, z'
loop_
 _atom_site_type_symbol
 _atom_site_label
 _atom_site_symmetry_multiplicity
 _atom_site_fract_x
 _atom_site_fract_y
 _atom_site_fract_z
 _atom_site_occupancy
  K  K0  1  0.105548  0.445458  0.670969  1
  K  K1  1  0.716983  0.716983  0.680018  1
  K  K2  1  0.216983  0.216983  0.819982  1
  K  K3  1  0.783017  0.783017  0.180018  1
  K  K4  1  0.945458  0.605548  0.829031  1
  K  K5  1  0.554542  0.894452  0.329031  1
  K  K6  1  0.394452  0.054542  0.170969  1
  K  K7  1  0.054542  0.394452  0.170969  1
  K  K8  1  0.894452  0.554542  0.329031  1
  K  K9  1  0.445458  0.105548  0.670969  1
  K  K10  1  0.605548  0.945459  0.829031  1
  K  K11  1  0.283017  0.283017  0.319982  1
  Li  Li12  1  0.917231  0.082769  0.000000  1
  Li  Li13  1  0.582769  0.417231  0.500000  1
  Li  Li14  1  0.082769  0.917231  0.000000  1
  Li  Li15  1  0.417231  0.582769  0.500000  1
  Li  Li16  1  0.750470  0.249530  0.000000  1
  Li  Li17  1  0.749530  0.250470  0.500000  1
  Li  Li18  1  0.249530  0.750470  0.000000  1
  Li  Li19  1  0.250470  0.749530  0.500000  1
  V  V20  1  0.083998  0.916002  0.500000  1
  V  V21  1  0.416002  0.583998  0.000000  1
  V  V22  1  0.916002  0.083998  0.500000  1
  V  V23  1  0.583998  0.416002  0.000000  1
  P  P24  1  0.879420  0.562604  0.087745  1
  P  P25  1  0.437396  0.120580  0.912255  1
  P  P26  1  0.620580  0.937396  0.587745  1
  P  P27  1  0.937396  0.620580  0.587745  1
  P  P28  1  0.120580  0.437396  0.912255  1
  P  P29  1  0.562604  0.879420  0.087745  1
  P  P30  1  0.379420  0.062604  0.412255  1
  P  P31  1  0.212554  0.212554  0.582761  1
  P  P32  1  0.712554  0.712554  0.917239  1
  P  P33  1  0.287446  0.287446  0.082761  1
  P  P34  1  0.062604  0.379420  0.412255  1
  P  P35  1  0.787446  0.787446  0.417239  1
