# generated using pymatgen
data_TbTm9(InBi)3
_symmetry_space_group_name_H-M   'P 1'
_cell_length_a   6.54532500
_cell_length_b   8.92048619
_cell_length_c   8.95061686
_cell_angle_alpha   119.88869675
_cell_angle_beta   89.99998797
_cell_angle_gamma   90.00001425
_symmetry_Int_Tables_number   1
_chemical_formula_structural   TbTm9(InBi)3
_chemical_formula_sum   'Tb1 Tm9 In3 Bi3'
_cell_volume   453.09507085
_cell_formula_units_Z   1
loop_
 _symmetry_equiv_pos_site_id
 _symmetry_equiv_pos_as_xyz
  1  'x, y, z'
loop_
 _atom_site_type_symbol
 _atom_site_label
 _atom_site_symmetry_multiplicity
 _atom_site_fract_x
 _atom_site_fract_y
 _atom_site_fract_z
 _atom_site_occupancy
  Tb  Tb0  1  0.750001  0.233491  0.000000  1
  Tm  Tm1  1  0.491815  0.333428  0.667128  1
  Tm  Tm2  1  0.491815  0.666300  0.332872  1
  Tm  Tm3  1  0.008185  0.666300  0.332875  1
  Tm  Tm4  1  0.008185  0.333426  0.667125  1
  Tm  Tm5  1  0.749999  0.765169  0.764616  1
  Tm  Tm6  1  0.749999  0.000552  0.235384  1
  Tm  Tm7  1  0.250001  0.765046  0.000000  1
  Tm  Tm8  1  0.249998  0.235644  0.235985  1
  Tm  Tm9  1  0.249998  0.999659  0.764015  1
  In  In10  1  0.249998  0.393895  0.000000  1
  In  In11  1  0.249999  0.606157  0.605834  1
  In  In12  1  0.249999  0.000322  0.394166  1
  Bi  Bi13  1  0.750004  0.603916  0.000000  1
  Bi  Bi14  1  0.750000  0.397582  0.398468  1
  Bi  Bi15  1  0.750000  0.999115  0.601532  1
