# generated using pymatgen
data_Tb2Zn19Au3
_symmetry_space_group_name_H-M   'P 1'
_cell_length_a   8.34243726
_cell_length_b   8.29106349
_cell_length_c   8.32898786
_cell_angle_alpha   99.66391854
_cell_angle_beta   100.21490773
_cell_angle_gamma   130.88772620
_symmetry_Int_Tables_number   1
_chemical_formula_structural   Tb2Zn19Au3
_chemical_formula_sum   'Tb2 Zn19 Au3'
_cell_volume   396.17837738
_cell_formula_units_Z   1
loop_
 _symmetry_equiv_pos_site_id
 _symmetry_equiv_pos_as_xyz
  1  'x, y, z'
loop_
 _atom_site_type_symbol
 _atom_site_label
 _atom_site_symmetry_multiplicity
 _atom_site_fract_x
 _atom_site_fract_y
 _atom_site_fract_z
 _atom_site_occupancy
  Tb  Tb0  1  0.244827  0.750149  0.497054  1
  Tb  Tb1  1  0.003883  0.999774  0.003723  1
  Zn  Zn2  1  0.626747  0.877307  0.247752  1
  Zn  Zn3  1  0.498918  0.582520  0.675341  1
  Zn  Zn4  1  0.423696  0.096933  0.915099  1
  Zn  Zn5  1  0.752328  0.167758  0.826610  1
  Zn  Zn6  1  0.497671  0.824053  0.914520  1
  Zn  Zn7  1  0.501242  0.498529  0.999015  1
  Zn  Zn8  1  0.755841  0.929234  0.587692  1
  Zn  Zn9  1  0.748584  0.249402  0.499113  1
  Zn  Zn10  1  0.071449  0.659956  0.824893  1
  Zn  Zn11  1  0.345829  0.170395  0.416986  1
  Zn  Zn12  1  0.826265  0.652662  0.585763  1
  Zn  Zn13  1  0.904169  0.822658  0.332870  1
  Zn  Zn14  1  0.179578  0.088517  0.673448  1
  Zn  Zn15  1  0.065682  0.238979  0.411297  1
  Zn  Zn16  1  0.352662  0.936377  0.174361  1
  Zn  Zn17  1  0.825025  0.238579  0.173241  1
  Zn  Zn18  1  0.177066  0.508646  0.084753  1
  Zn  Zn19  1  0.626343  0.373408  0.251949  1
  Zn  Zn20  1  0.620993  0.370269  0.746404  1
  Au  Au21  1  0.906911  0.584987  0.085901  1
  Au  Au22  1  0.417893  0.503681  0.322395  1
  Au  Au23  1  0.126396  0.375229  0.749821  1
