# generated using pymatgen
data_Sc12Si16Ni5Ir3
_symmetry_space_group_name_H-M   'P 1'
_cell_length_a   4.00897400
_cell_length_b   11.61429032
_cell_length_c   12.22208016
_cell_angle_alpha   89.87365031
_cell_angle_beta   90.00000000
_cell_angle_gamma   90.00000000
_symmetry_Int_Tables_number   1
_chemical_formula_structural   Sc12Si16Ni5Ir3
_chemical_formula_sum   'Sc12 Si16 Ni5 Ir3'
_cell_volume   569.07563187
_cell_formula_units_Z   1
loop_
 _symmetry_equiv_pos_site_id
 _symmetry_equiv_pos_as_xyz
  1  'x, y, z'
loop_
 _atom_site_type_symbol
 _atom_site_label
 _atom_site_symmetry_multiplicity
 _atom_site_fract_x
 _atom_site_fract_y
 _atom_site_fract_z
 _atom_site_occupancy
  Sc  Sc0  1  0.750000  0.978985  0.815041  1
  Sc  Sc1  1  0.250000  0.020479  0.178908  1
  Sc  Sc2  1  0.750000  0.478951  0.679309  1
  Sc  Sc3  1  0.250000  0.520693  0.320661  1
  Sc  Sc4  1  0.750000  0.752109  0.650845  1
  Sc  Sc5  1  0.250000  0.242949  0.351156  1
  Sc  Sc6  1  0.750000  0.253326  0.846803  1
  Sc  Sc7  1  0.250000  0.745876  0.150683  1
  Sc  Sc8  1  0.750000  0.693842  0.914286  1
  Sc  Sc9  1  0.250000  0.305667  0.085441  1
  Sc  Sc10  1  0.750000  0.197016  0.583550  1
  Sc  Sc11  1  0.250000  0.813175  0.417562  1
  Si  Si12  1  0.750000  0.939861  0.538857  1
  Si  Si13  1  0.250000  0.060385  0.478006  1
  Si  Si14  1  0.750000  0.435767  0.971071  1
  Si  Si15  1  0.250000  0.563269  0.028531  1
  Si  Si16  1  0.750000  0.896852  0.058531  1
  Si  Si17  1  0.250000  0.102400  0.937647  1
  Si  Si18  1  0.750000  0.395261  0.439207  1
  Si  Si19  1  0.250000  0.607406  0.560032  1
  Si  Si20  1  0.750000  0.878994  0.258744  1
  Si  Si21  1  0.250000  0.119709  0.736106  1
  Si  Si22  1  0.750000  0.377362  0.241677  1
  Si  Si23  1  0.250000  0.621840  0.758351  1
  Si  Si24  1  0.750000  0.677513  0.300935  1
  Si  Si25  1  0.250000  0.323524  0.699335  1
  Si  Si26  1  0.750000  0.175041  0.201343  1
  Si  Si27  1  0.250000  0.824333  0.796067  1
  Ni  Ni28  1  0.250000  0.948558  0.637633  1
  Ni  Ni29  1  0.750000  0.597389  0.472287  1
  Ni  Ni30  1  0.250000  0.403625  0.527436  1
  Ni  Ni31  1  0.750000  0.099604  0.027032  1
  Ni  Ni32  1  0.250000  0.899067  0.969632  1
  Ir  Ir33  1  0.750000  0.550978  0.136082  1
  Ir  Ir34  1  0.250000  0.448425  0.863897  1
  Ir  Ir35  1  0.750000  0.049769  0.367316  1
