# generated using pymatgen
data_Hf4Al6ReRu
_symmetry_space_group_name_H-M   'P 1'
_cell_length_a   5.24965900
_cell_length_b   5.24965920
_cell_length_c   8.59513400
_cell_angle_alpha   90.00000000
_cell_angle_beta   90.00000000
_cell_angle_gamma   120.00000503
_symmetry_Int_Tables_number   1
_chemical_formula_structural   Hf4Al6ReRu
_chemical_formula_sum   'Hf4 Al6 Re1 Ru1'
_cell_volume   205.13769263
_cell_formula_units_Z   1
loop_
 _symmetry_equiv_pos_site_id
 _symmetry_equiv_pos_as_xyz
  1  'x, y, z'
loop_
 _atom_site_type_symbol
 _atom_site_label
 _atom_site_symmetry_multiplicity
 _atom_site_fract_x
 _atom_site_fract_y
 _atom_site_fract_z
 _atom_site_occupancy
  Hf  Hf0  1  0.666668  0.333334  0.057137  1
  Hf  Hf1  1  0.666668  0.333334  0.448891  1
  Hf  Hf2  1  0.333333  0.666667  0.551110  1
  Hf  Hf3  1  0.333333  0.666667  0.942863  1
  Al  Al4  1  0.166574  0.333146  0.253102  1
  Al  Al5  1  0.166574  0.833426  0.253102  1
  Al  Al6  1  0.666853  0.833426  0.253102  1
  Al  Al7  1  0.333146  0.166575  0.746898  1
  Al  Al8  1  0.833427  0.166575  0.746898  1
  Al  Al9  1  0.833428  0.666855  0.746898  1
  Re  Re10  1  0.000000  0.000000  0.000000  1
  Ru  Ru11  1  0.000000  0.000000  0.500001  1
