# generated using pymatgen
data_Cs3K(WO4)2
_symmetry_space_group_name_H-M   'P 1'
_cell_length_a   6.69506800
_cell_length_b   6.69506803
_cell_length_c   8.52806800
_cell_angle_alpha   90.00000000
_cell_angle_beta   90.00000000
_cell_angle_gamma   119.99999986
_symmetry_Int_Tables_number   1
_chemical_formula_structural   Cs3K(WO4)2
_chemical_formula_sum   'Cs3 K1 W2 O8'
_cell_volume   331.04823249
_cell_formula_units_Z   1
loop_
 _symmetry_equiv_pos_site_id
 _symmetry_equiv_pos_as_xyz
  1  'x, y, z'
loop_
 _atom_site_type_symbol
 _atom_site_label
 _atom_site_symmetry_multiplicity
 _atom_site_fract_x
 _atom_site_fract_y
 _atom_site_fract_z
 _atom_site_occupancy
  Cs  Cs0  1  0.666667  0.333334  0.170280  1
  Cs  Cs1  1  0.000000  0.000000  0.499999  1
  Cs  Cs2  1  0.333333  0.666666  0.829720  1
  K  K3  1  0.000000  0.000000  0.000000  1
  W  W4  1  0.333333  0.666666  0.282177  1
  W  W5  1  0.666667  0.333334  0.717823  1
  O  O6  1  0.185795  0.371591  0.207378  1
  O  O7  1  0.185796  0.814206  0.207378  1
  O  O8  1  0.628410  0.814206  0.207378  1
  O  O9  1  0.666667  0.333334  0.505974  1
  O  O10  1  0.333333  0.666666  0.494026  1
  O  O11  1  0.371590  0.185794  0.792622  1
  O  O12  1  0.814204  0.185794  0.792622  1
  O  O13  1  0.814205  0.628409  0.792622  1
