# generated using pymatgen
data_CaSc2Al3Si2Pt
_symmetry_space_group_name_H-M   'P 1'
_cell_length_a   6.71665100
_cell_length_b   6.78684892
_cell_length_c   4.12935300
_cell_angle_alpha   90.00000000
_cell_angle_beta   90.00000000
_cell_angle_gamma   119.65842973
_symmetry_Int_Tables_number   1
_chemical_formula_structural   CaSc2Al3Si2Pt
_chemical_formula_sum   'Ca1 Sc2 Al3 Si2 Pt1'
_cell_volume   163.57545359
_cell_formula_units_Z   1
loop_
 _symmetry_equiv_pos_site_id
 _symmetry_equiv_pos_as_xyz
  1  'x, y, z'
loop_
 _atom_site_type_symbol
 _atom_site_label
 _atom_site_symmetry_multiplicity
 _atom_site_fract_x
 _atom_site_fract_y
 _atom_site_fract_z
 _atom_site_occupancy
  Ca  Ca0  1  0.423700  0.000000  0.000000  1
  Sc  Sc1  1  0.005404  0.420951  0.000000  1
  Sc  Sc2  1  0.584451  0.579049  0.000000  1
  Al  Al3  1  0.759260  0.000000  0.500000  1
  Al  Al4  1  0.237978  0.243904  0.500000  1
  Al  Al5  1  0.994076  0.756096  0.500000  1
  Si  Si6  1  0.677000  0.346140  0.500000  1
  Si  Si7  1  0.330859  0.653860  0.500000  1
  Pt  Pt8  1  0.987268  0.000000  0.000000  1
