# generated using pymatgen
data_MgZn2WN4
_symmetry_space_group_name_H-M   'P 1'
_cell_length_a   6.68789000
_cell_length_b   5.70664400
_cell_length_c   5.37255000
_cell_angle_alpha   90.00000000
_cell_angle_beta   90.00000000
_cell_angle_gamma   90.00000000
_symmetry_Int_Tables_number   1
_chemical_formula_structural   MgZn2WN4
_chemical_formula_sum   'Mg2 Zn4 W2 N8'
_cell_volume   205.04555921
_cell_formula_units_Z   2
loop_
 _symmetry_equiv_pos_site_id
 _symmetry_equiv_pos_as_xyz
  1  'x, y, z'
loop_
 _atom_site_type_symbol
 _atom_site_label
 _atom_site_symmetry_multiplicity
 _atom_site_fract_x
 _atom_site_fract_y
 _atom_site_fract_z
 _atom_site_occupancy
  Mg  Mg0  1  0.000000  0.332641  0.724503  1
  Mg  Mg1  1  0.500000  0.667359  0.224503  1
  Zn  Zn2  1  0.251394  0.831154  0.729680  1
  Zn  Zn3  1  0.248606  0.168846  0.229680  1
  Zn  Zn4  1  0.748606  0.831154  0.729680  1
  Zn  Zn5  1  0.751394  0.168846  0.229680  1
  W  W6  1  0.000000  0.673777  0.229560  1
  W  W7  1  0.500000  0.326223  0.729560  1
  N  N8  1  0.767604  0.828013  0.113290  1
  N  N9  1  0.732396  0.171987  0.613290  1
  N  N10  1  0.232396  0.828013  0.113290  1
  N  N11  1  0.267604  0.171987  0.613290  1
  N  N12  1  0.000000  0.358962  0.119590  1
  N  N13  1  0.500000  0.641038  0.619590  1
  N  N14  1  0.000000  0.676613  0.579667  1
  N  N15  1  0.500000  0.323387  0.079667  1
