# generated using pymatgen
data_LiTb8Zn2Si12Pd
_symmetry_space_group_name_H-M   'P 1'
_cell_length_a   8.13175100
_cell_length_b   8.13174993
_cell_length_c   8.12341300
_cell_angle_alpha   90.00000000
_cell_angle_beta   90.00000000
_cell_angle_gamma   120.00000027
_symmetry_Int_Tables_number   1
_chemical_formula_structural   LiTb8Zn2Si12Pd
_chemical_formula_sum   'Li1 Tb8 Zn2 Si12 Pd1'
_cell_volume   465.19736990
_cell_formula_units_Z   1
loop_
 _symmetry_equiv_pos_site_id
 _symmetry_equiv_pos_as_xyz
  1  'x, y, z'
loop_
 _atom_site_type_symbol
 _atom_site_label
 _atom_site_symmetry_multiplicity
 _atom_site_fract_x
 _atom_site_fract_y
 _atom_site_fract_z
 _atom_site_occupancy
  Li  Li0  1  0.333333  0.666667  0.005394  1
  Tb  Tb1  1  0.501204  0.002406  0.248485  1
  Tb  Tb2  1  0.499747  0.999495  0.751492  1
  Tb  Tb3  1  0.997594  0.498796  0.248485  1
  Tb  Tb4  1  0.000505  0.500253  0.751492  1
  Tb  Tb5  1  0.501204  0.498796  0.248485  1
  Tb  Tb6  1  0.499747  0.500253  0.751492  1
  Tb  Tb7  1  0.000000  0.000000  0.247878  1
  Tb  Tb8  1  0.000000  0.000000  0.752581  1
  Zn  Zn9  1  0.666667  0.333333  0.994896  1
  Zn  Zn10  1  0.666667  0.333333  0.500016  1
  Si  Si11  1  0.169684  0.339369  0.997901  1
  Si  Si12  1  0.835139  0.670278  0.002178  1
  Si  Si13  1  0.660631  0.830316  0.997901  1
  Si  Si14  1  0.835759  0.671518  0.501983  1
  Si  Si15  1  0.329722  0.164861  0.002178  1
  Si  Si16  1  0.167671  0.335342  0.498062  1
  Si  Si17  1  0.169684  0.830316  0.997901  1
  Si  Si18  1  0.328482  0.164241  0.501983  1
  Si  Si19  1  0.835139  0.164861  0.002178  1
  Si  Si20  1  0.664658  0.832329  0.498062  1
  Si  Si21  1  0.835759  0.164241  0.501983  1
  Si  Si22  1  0.167671  0.832329  0.498062  1
  Pd  Pd23  1  0.333333  0.666667  0.498930  1
