# generated using pymatgen
data_Dy5Ho11Cd4TcNi3
_symmetry_space_group_name_H-M   'P 1'
_cell_length_a   9.57766963
_cell_length_b   9.57674292
_cell_length_c   9.57674269
_cell_angle_alpha   59.38110764
_cell_angle_beta   59.38926797
_cell_angle_gamma   59.38927005
_symmetry_Int_Tables_number   1
_chemical_formula_structural   Dy5Ho11Cd4TcNi3
_chemical_formula_sum   'Dy5 Ho11 Cd4 Tc1 Ni3'
_cell_volume   612.45551078
_cell_formula_units_Z   1
loop_
 _symmetry_equiv_pos_site_id
 _symmetry_equiv_pos_as_xyz
  1  'x, y, z'
loop_
 _atom_site_type_symbol
 _atom_site_label
 _atom_site_symmetry_multiplicity
 _atom_site_fract_x
 _atom_site_fract_y
 _atom_site_fract_z
 _atom_site_occupancy
  Dy  Dy0  1  0.346819  0.347190  0.347190  1
  Dy  Dy1  1  0.352216  0.352127  0.952984  1
  Dy  Dy2  1  0.352216  0.952984  0.352127  1
  Dy  Dy3  1  0.953051  0.352236  0.352236  1
  Dy  Dy4  1  0.810855  0.187513  0.187513  1
  Ho  Ho5  1  0.187243  0.811260  0.811260  1
  Ho  Ho6  1  0.187773  0.810584  0.187426  1
  Ho  Ho7  1  0.811199  0.187222  0.811055  1
  Ho  Ho8  1  0.187773  0.187426  0.810584  1
  Ho  Ho9  1  0.811199  0.811055  0.187222  1
  Ho  Ho10  1  0.935841  0.565815  0.565815  1
  Ho  Ho11  1  0.555368  0.939282  0.939282  1
  Ho  Ho12  1  0.565633  0.935877  0.565927  1
  Ho  Ho13  1  0.939272  0.555574  0.939118  1
  Ho  Ho14  1  0.565633  0.565927  0.935877  1
  Ho  Ho15  1  0.939272  0.939118  0.555574  1
  Cd  Cd16  1  0.579892  0.579862  0.579862  1
  Cd  Cd17  1  0.579626  0.579763  0.255560  1
  Cd  Cd18  1  0.579626  0.255560  0.579763  1
  Cd  Cd19  1  0.255537  0.579668  0.579668  1
  Tc  Tc20  1  0.143741  0.143763  0.143763  1
  Ni  Ni21  1  0.142185  0.142210  0.575850  1
  Ni  Ni22  1  0.142185  0.575850  0.142210  1
  Ni  Ni23  1  0.575842  0.142132  0.142132  1
