# generated using pymatgen
data_Tb2GdSc2Pb3
_symmetry_space_group_name_H-M   'P 1'
_cell_length_a   8.92706000
_cell_length_b   8.92041351
_cell_length_c   6.37976900
_cell_angle_alpha   90.00000000
_cell_angle_beta   90.00000000
_cell_angle_gamma   119.97537422
_symmetry_Int_Tables_number   1
_chemical_formula_structural   Tb2GdSc2Pb3
_chemical_formula_sum   'Tb4 Gd2 Sc4 Pb6'
_cell_volume   440.08517720
_cell_formula_units_Z   2
loop_
 _symmetry_equiv_pos_site_id
 _symmetry_equiv_pos_as_xyz
  1  'x, y, z'
loop_
 _atom_site_type_symbol
 _atom_site_label
 _atom_site_symmetry_multiplicity
 _atom_site_fract_x
 _atom_site_fract_y
 _atom_site_fract_z
 _atom_site_occupancy
  Tb  Tb0  1  0.239056  0.000152  0.250000  1
  Tb  Tb1  1  0.239056  0.238905  0.750000  1
  Tb  Tb2  1  0.000224  0.761189  0.750000  1
  Tb  Tb3  1  0.000224  0.239035  0.250000  1
  Gd  Gd4  1  0.760907  0.760617  0.250000  1
  Gd  Gd5  1  0.760907  0.000289  0.750000  1
  Sc  Sc6  1  0.333341  0.666671  0.000000  1
  Sc  Sc7  1  0.666705  0.333352  0.500000  1
  Sc  Sc8  1  0.666705  0.333352  0.000000  1
  Sc  Sc9  1  0.333341  0.666671  0.500000  1
  Pb  Pb10  1  0.600097  0.000430  0.250000  1
  Pb  Pb11  1  0.600097  0.599667  0.750000  1
  Pb  Pb12  1  0.000280  0.400161  0.750000  1
  Pb  Pb13  1  0.000280  0.600120  0.250000  1
  Pb  Pb14  1  0.399390  0.399421  0.250000  1
  Pb  Pb15  1  0.399390  0.999969  0.750000  1
