# generated using pymatgen
data_YbSmCo5B4
_symmetry_space_group_name_H-M   'P 1'
_cell_length_a   7.07939970
_cell_length_b   5.91311305
_cell_length_c   5.31347974
_cell_angle_alpha   77.98583255
_cell_angle_beta   54.78170123
_cell_angle_gamma   47.23250089
_symmetry_Int_Tables_number   1
_chemical_formula_structural   YbSmCo5B4
_chemical_formula_sum   'Yb1 Sm1 Co5 B4'
_cell_volume   127.00749208
_cell_formula_units_Z   1
loop_
 _symmetry_equiv_pos_site_id
 _symmetry_equiv_pos_as_xyz
  1  'x, y, z'
loop_
 _atom_site_type_symbol
 _atom_site_label
 _atom_site_symmetry_multiplicity
 _atom_site_fract_x
 _atom_site_fract_y
 _atom_site_fract_z
 _atom_site_occupancy
  Yb  Yb0  1  0.146256  0.146255  0.853745  1
  Sm  Sm1  1  0.858110  0.858108  0.141891  1
  Co  Co2  1  0.500650  0.500652  0.999349  1
  Co  Co3  1  0.248005  0.248007  0.251994  1
  Co  Co4  1  0.000651  0.000651  0.499350  1
  Co  Co5  1  0.500194  0.500192  0.499807  1
  Co  Co6  1  0.748006  0.748007  0.751994  1
  B  B7  1  0.468409  0.788518  0.211481  1
  B  B8  1  0.208728  0.532472  0.467527  1
  B  B9  1  0.788520  0.468407  0.531592  1
  B  B10  1  0.532473  0.208727  0.791273  1
