# generated using pymatgen
data_Tb2B2IrRhN2
_symmetry_space_group_name_H-M   'P 1'
_cell_length_a   3.75320200
_cell_length_b   3.75320200
_cell_length_c   7.46032900
_cell_angle_alpha   90.00000000
_cell_angle_beta   90.00000000
_cell_angle_gamma   90.00000000
_symmetry_Int_Tables_number   1
_chemical_formula_structural   Tb2B2IrRhN2
_chemical_formula_sum   'Tb2 B2 Ir1 Rh1 N2'
_cell_volume   105.09011285
_cell_formula_units_Z   1
loop_
 _symmetry_equiv_pos_site_id
 _symmetry_equiv_pos_as_xyz
  1  'x, y, z'
loop_
 _atom_site_type_symbol
 _atom_site_label
 _atom_site_symmetry_multiplicity
 _atom_site_fract_x
 _atom_site_fract_y
 _atom_site_fract_z
 _atom_site_occupancy
  Tb  Tb0  1  0.499999  0.000000  0.163585  1
  Tb  Tb1  1  0.000000  0.499999  0.836416  1
  B  B2  1  0.000000  0.499999  0.345789  1
  B  B3  1  0.499999  0.000000  0.654211  1
  Ir  Ir4  1  0.000000  0.000000  0.500000  1
  Rh  Rh5  1  0.499999  0.499999  0.500000  1
  N  N6  1  0.000000  0.499999  0.144662  1
  N  N7  1  0.499999  0.000000  0.855339  1
