# generated using pymatgen
data_Hf4Cr5Re3
_symmetry_space_group_name_H-M   'P 1'
_cell_length_a   5.08125700
_cell_length_b   5.10676799
_cell_length_c   8.46371500
_cell_angle_alpha   90.00000000
_cell_angle_beta   90.00000000
_cell_angle_gamma   119.83488001
_symmetry_Int_Tables_number   1
_chemical_formula_structural   Hf4Cr5Re3
_chemical_formula_sum   'Hf4 Cr5 Re3'
_cell_volume   190.51499069
_cell_formula_units_Z   1
loop_
 _symmetry_equiv_pos_site_id
 _symmetry_equiv_pos_as_xyz
  1  'x, y, z'
loop_
 _atom_site_type_symbol
 _atom_site_label
 _atom_site_symmetry_multiplicity
 _atom_site_fract_x
 _atom_site_fract_y
 _atom_site_fract_z
 _atom_site_occupancy
  Hf  Hf0  1  0.333866  0.667732  0.062887  1
  Hf  Hf1  1  0.666656  0.333310  0.560903  1
  Hf  Hf2  1  0.666656  0.333310  0.939097  1
  Hf  Hf3  1  0.333866  0.667732  0.437113  1
  Cr  Cr4  1  0.825676  0.651354  0.250000  1
  Cr  Cr5  1  0.170835  0.831483  0.750000  1
  Cr  Cr6  1  0.660648  0.831483  0.750000  1
  Cr  Cr7  1  0.345940  0.172758  0.250000  1
  Cr  Cr8  1  0.826817  0.172758  0.250000  1
  Re  Re9  1  0.998211  0.996422  0.006568  1
  Re  Re10  1  0.998211  0.996422  0.493432  1
  Re  Re11  1  0.172619  0.345236  0.750000  1
