# generated using pymatgen
data_Tm2Re7Si4Tc
_symmetry_space_group_name_H-M   'P 1'
_cell_length_a   7.19010448
_cell_length_b   7.57841352
_cell_length_c   4.14467100
_cell_angle_alpha   90.00000000
_cell_angle_beta   90.00000000
_cell_angle_gamma   90.04217521
_symmetry_Int_Tables_number   1
_chemical_formula_structural   Tm2Re7Si4Tc
_chemical_formula_sum   'Tm2 Re7 Si4 Tc1'
_cell_volume   225.84134160
_cell_formula_units_Z   1
loop_
 _symmetry_equiv_pos_site_id
 _symmetry_equiv_pos_as_xyz
  1  'x, y, z'
loop_
 _atom_site_type_symbol
 _atom_site_label
 _atom_site_symmetry_multiplicity
 _atom_site_fract_x
 _atom_site_fract_y
 _atom_site_fract_z
 _atom_site_occupancy
  Tm  Tm0  1  0.500344  0.500589  0.000000  1
  Tm  Tm1  1  0.999592  0.000332  0.500000  1
  Re  Re2  1  0.154511  0.604777  0.500000  1
  Re  Re3  1  0.082979  0.338764  0.000000  1
  Re  Re4  1  0.918629  0.658593  0.000000  1
  Re  Re5  1  0.415593  0.840474  0.500000  1
  Re  Re6  1  0.581694  0.160098  0.500000  1
  Re  Re7  1  0.346941  0.104463  0.000000  1
  Re  Re8  1  0.844720  0.395656  0.500000  1
  Si  Si9  1  0.220474  0.804699  0.000000  1
  Si  Si10  1  0.779056  0.194833  0.000000  1
  Si  Si11  1  0.719589  0.697759  0.500000  1
  Si  Si12  1  0.279424  0.304288  0.500000  1
  Tc  Tc13  1  0.656454  0.894674  0.000000  1
