# generated using pymatgen
data_La2Nd2DySi4
_symmetry_space_group_name_H-M   'P 1'
_cell_length_a   7.88219500
_cell_length_b   7.88219500
_cell_length_c   15.22944800
_cell_angle_alpha   90.00000000
_cell_angle_beta   90.00000000
_cell_angle_gamma   90.00000000
_symmetry_Int_Tables_number   1
_chemical_formula_structural   La2Nd2DySi4
_chemical_formula_sum   'La8 Nd8 Dy4 Si16'
_cell_volume   946.19034461
_cell_formula_units_Z   4
loop_
 _symmetry_equiv_pos_site_id
 _symmetry_equiv_pos_as_xyz
  1  'x, y, z'
loop_
 _atom_site_type_symbol
 _atom_site_label
 _atom_site_symmetry_multiplicity
 _atom_site_fract_x
 _atom_site_fract_y
 _atom_site_fract_z
 _atom_site_occupancy
  La  La0  1  0.987072  0.623354  0.052484  1
  La  La1  1  0.012928  0.376646  0.552484  1
  La  La2  1  0.623354  0.987072  0.947516  1
  La  La3  1  0.123354  0.512928  0.802484  1
  La  La4  1  0.876646  0.487072  0.302484  1
  La  La5  1  0.512928  0.123354  0.197516  1
  La  La6  1  0.487072  0.876646  0.697516  1
  La  La7  1  0.376646  0.012928  0.447516  1
  Nd  Nd8  1  0.373198  0.480789  0.372987  1
  Nd  Nd9  1  0.873198  0.019211  0.377013  1
  Nd  Nd10  1  0.980789  0.126802  0.122987  1
  Nd  Nd11  1  0.019211  0.873198  0.622987  1
  Nd  Nd12  1  0.626802  0.519211  0.872987  1
  Nd  Nd13  1  0.480789  0.373198  0.627013  1
  Nd  Nd14  1  0.519211  0.626802  0.127013  1
  Nd  Nd15  1  0.126802  0.980789  0.877013  1
  Dy  Dy16  1  0.690601  0.690601  0.500000  1
  Dy  Dy17  1  0.809399  0.190601  0.750000  1
  Dy  Dy18  1  0.190601  0.809399  0.250000  1
  Dy  Dy19  1  0.309399  0.309399  0.000000  1
  Si  Si20  1  0.078292  0.714269  0.437697  1
  Si  Si21  1  0.921708  0.285731  0.937697  1
  Si  Si22  1  0.714269  0.078292  0.562303  1
  Si  Si23  1  0.214270  0.421708  0.187697  1
  Si  Si24  1  0.785731  0.578292  0.687697  1
  Si  Si25  1  0.421708  0.214270  0.812303  1
  Si  Si26  1  0.578292  0.785731  0.312303  1
  Si  Si27  1  0.285731  0.921708  0.062303  1
  Si  Si28  1  0.829708  0.808674  0.795638  1
  Si  Si29  1  0.170292  0.191326  0.295638  1
  Si  Si30  1  0.808674  0.829708  0.204362  1
  Si  Si31  1  0.308674  0.670292  0.545638  1
  Si  Si32  1  0.691326  0.329708  0.045638  1
  Si  Si33  1  0.670292  0.308674  0.454362  1
  Si  Si34  1  0.329708  0.691326  0.954362  1
  Si  Si35  1  0.191326  0.170292  0.704362  1
