# generated using pymatgen
data_Pr3Nd3(SnRu)4
_symmetry_space_group_name_H-M   'P 1'
_cell_length_a   5.91279527
_cell_length_b   8.46575000
_cell_length_c   14.07409264
_cell_angle_alpha   90.00000000
_cell_angle_beta   89.96543136
_cell_angle_gamma   90.00000000
_symmetry_Int_Tables_number   1
_chemical_formula_structural   Pr3Nd3(SnRu)4
_chemical_formula_sum   'Pr6 Nd6 Sn8 Ru8'
_cell_volume   704.49612294
_cell_formula_units_Z   2
loop_
 _symmetry_equiv_pos_site_id
 _symmetry_equiv_pos_as_xyz
  1  'x, y, z'
loop_
 _atom_site_type_symbol
 _atom_site_label
 _atom_site_symmetry_multiplicity
 _atom_site_fract_x
 _atom_site_fract_y
 _atom_site_fract_z
 _atom_site_occupancy
  Pr  Pr0  1  0.840580  0.906399  0.593110  1
  Pr  Pr1  1  0.159420  0.406399  0.906890  1
  Pr  Pr2  1  0.622824  0.279453  0.749840  1
  Pr  Pr3  1  0.622631  0.220477  0.249914  1
  Pr  Pr4  1  0.377369  0.720477  0.250086  1
  Pr  Pr5  1  0.377176  0.779453  0.750160  1
  Nd  Nd6  1  0.839878  0.593717  0.093230  1
  Nd  Nd7  1  0.840055  0.593491  0.406873  1
  Nd  Nd8  1  0.159945  0.093491  0.093127  1
  Nd  Nd9  1  0.160122  0.093717  0.406770  1
  Nd  Nd10  1  0.159811  0.406287  0.592946  1
  Nd  Nd11  1  0.840189  0.906287  0.907054  1
  Sn  Sn12  1  0.364147  0.749772  0.499875  1
  Sn  Sn13  1  0.364752  0.750321  0.000232  1
  Sn  Sn14  1  0.119042  0.120210  0.750011  1
  Sn  Sn15  1  0.635248  0.250321  0.499768  1
  Sn  Sn16  1  0.118288  0.379755  0.250036  1
  Sn  Sn17  1  0.881712  0.879755  0.249964  1
  Sn  Sn18  1  0.880958  0.620210  0.749989  1
  Sn  Sn19  1  0.635853  0.249772  0.000125  1
  Ru  Ru20  1  0.350499  0.033020  0.909726  1
  Ru  Ru21  1  0.351070  0.466921  0.090616  1
  Ru  Ru22  1  0.649850  0.966682  0.090332  1
  Ru  Ru23  1  0.649579  0.533496  0.909799  1
  Ru  Ru24  1  0.648930  0.966921  0.409384  1
  Ru  Ru25  1  0.649501  0.533020  0.590274  1
  Ru  Ru26  1  0.350150  0.466682  0.409668  1
  Ru  Ru27  1  0.350421  0.033496  0.590201  1
