# generated using pymatgen
data_Th3AlGa2TcPd2
_symmetry_space_group_name_H-M   'P 1'
_cell_length_a   7.30706271
_cell_length_b   7.23781664
_cell_length_c   4.15973200
_cell_angle_alpha   90.00000000
_cell_angle_beta   90.00000000
_cell_angle_gamma   119.95496714
_symmetry_Int_Tables_number   1
_chemical_formula_structural   Th3AlGa2TcPd2
_chemical_formula_sum   'Th3 Al1 Ga2 Tc1 Pd2'
_cell_volume   190.60895023
_cell_formula_units_Z   1
loop_
 _symmetry_equiv_pos_site_id
 _symmetry_equiv_pos_as_xyz
  1  'x, y, z'
loop_
 _atom_site_type_symbol
 _atom_site_label
 _atom_site_symmetry_multiplicity
 _atom_site_fract_x
 _atom_site_fract_y
 _atom_site_fract_z
 _atom_site_occupancy
  Th  Th0  1  0.428474  0.417798  0.500000  1
  Th  Th1  1  0.581708  0.008529  0.500000  1
  Th  Th2  1  0.990770  0.576992  0.500000  1
  Al  Al3  1  0.994801  0.231296  0.000000  1
  Ga  Ga4  1  0.762386  0.759248  0.000000  1
  Ga  Ga5  1  0.242833  0.005728  0.000000  1
  Tc  Tc6  1  0.669472  0.331707  0.000000  1
  Pd  Pd7  1  0.329114  0.661564  0.000000  1
  Pd  Pd8  1  0.000442  0.007139  0.500000  1
