# generated using pymatgen
data_Y2Si(PRu2)6
_symmetry_space_group_name_H-M   'P 1'
_cell_length_a   9.43481000
_cell_length_b   9.43480938
_cell_length_c   3.96104700
_cell_angle_alpha   90.00000000
_cell_angle_beta   90.00000000
_cell_angle_gamma   119.99999517
_symmetry_Int_Tables_number   1
_chemical_formula_structural   Y2Si(PRu2)6
_chemical_formula_sum   'Y2 Si1 P6 Ru12'
_cell_volume   305.35633697
_cell_formula_units_Z   1
loop_
 _symmetry_equiv_pos_site_id
 _symmetry_equiv_pos_as_xyz
  1  'x, y, z'
loop_
 _atom_site_type_symbol
 _atom_site_label
 _atom_site_symmetry_multiplicity
 _atom_site_fract_x
 _atom_site_fract_y
 _atom_site_fract_z
 _atom_site_occupancy
  Y  Y0  1  0.666667  0.333333  0.500000  1
  Y  Y1  1  0.333333  0.666667  0.000000  1
  Si  Si2  1  0.000000  0.000000  0.000000  1
  P  P3  1  0.602821  0.719005  0.500000  1
  P  P4  1  0.280995  0.883816  0.500000  1
  P  P5  1  0.116184  0.397179  0.500000  1
  P  P6  1  0.886927  0.575434  0.000000  1
  P  P7  1  0.424566  0.311492  0.000000  1
  P  P8  1  0.688508  0.113073  0.000000  1
  Ru  Ru9  1  0.555717  0.950881  0.500000  1
  Ru  Ru10  1  0.395165  0.444283  0.500000  1
  Ru  Ru11  1  0.912550  0.120317  0.500000  1
  Ru  Ru12  1  0.207767  0.087450  0.500000  1
  Ru  Ru13  1  0.879683  0.792233  0.500000  1
  Ru  Ru14  1  0.720973  0.887094  0.000000  1
  Ru  Ru15  1  0.112906  0.833878  0.000000  1
  Ru  Ru16  1  0.166122  0.279027  0.000000  1
  Ru  Ru17  1  0.423902  0.067298  0.000000  1
  Ru  Ru18  1  0.932702  0.356605  0.000000  1
  Ru  Ru19  1  0.643395  0.576098  0.000000  1
  Ru  Ru20  1  0.049119  0.604835  0.500000  1
