# generated using pymatgen
data_Dy(BeB14)2
_symmetry_space_group_name_H-M   'P 1'
_cell_length_a   7.18324254
_cell_length_b   7.18324229
_cell_length_c   5.72555532
_cell_angle_alpha   66.65115949
_cell_angle_beta   66.65116937
_cell_angle_gamma   92.06624135
_symmetry_Int_Tables_number   1
_chemical_formula_structural   Dy(BeB14)2
_chemical_formula_sum   'Dy1 Be2 B28'
_cell_volume   242.40276593
_cell_formula_units_Z   1
loop_
 _symmetry_equiv_pos_site_id
 _symmetry_equiv_pos_as_xyz
  1  'x, y, z'
loop_
 _atom_site_type_symbol
 _atom_site_label
 _atom_site_symmetry_multiplicity
 _atom_site_fract_x
 _atom_site_fract_y
 _atom_site_fract_z
 _atom_site_occupancy
  Dy  Dy0  1  0.884002  0.884002  0.372093  1
  Be  Be1  1  0.531562  0.531562  0.443204  1
  Be  Be2  1  0.247711  0.247711  0.307307  1
  B  B3  1  0.415321  0.732378  0.183103  1
  B  B4  1  0.578454  0.255387  0.837077  1
  B  B5  1  0.255387  0.578454  0.837077  1
  B  B6  1  0.732378  0.415321  0.183103  1
  B  B7  1  0.692186  0.858451  0.981293  1
  B  B8  1  0.301652  0.129209  0.040041  1
  B  B9  1  0.129209  0.301652  0.040041  1
  B  B10  1  0.858451  0.692186  0.981293  1
  B  B11  1  0.527876  0.868647  0.310724  1
  B  B12  1  0.466940  0.118430  0.219704  1
  B  B13  1  0.118430  0.466940  0.219704  1
  B  B14  1  0.868647  0.527876  0.310724  1
  B  B15  1  0.459969  0.116788  0.717599  1
  B  B16  1  0.528355  0.866318  0.804957  1
  B  B17  1  0.866318  0.528355  0.804957  1
  B  B18  1  0.116788  0.459969  0.717599  1
  B  B19  1  0.719245  0.097275  0.008508  1
  B  B20  1  0.274214  0.889508  0.336670  1
  B  B21  1  0.889508  0.274214  0.336670  1
  B  B22  1  0.097275  0.719245  0.008508  1
  B  B23  1  0.273328  0.890011  0.015212  1
  B  B24  1  0.716730  0.096339  0.690492  1
  B  B25  1  0.096339  0.716730  0.690492  1
  B  B26  1  0.890011  0.273328  0.015212  1
  B  B27  1  0.283427  0.465009  0.390474  1
  B  B28  1  0.698140  0.517139  0.652845  1
  B  B29  1  0.517139  0.698140  0.652845  1
  B  B30  1  0.465009  0.283427  0.390474  1
