# generated using pymatgen
data_DyPa7Ti3Si16W9
_symmetry_space_group_name_H-M   'P 1'
_cell_length_a   6.90508285
_cell_length_b   6.89836466
_cell_length_c   13.04007328
_cell_angle_alpha   90.09519537
_cell_angle_beta   90.04120082
_cell_angle_gamma   89.79818723
_symmetry_Int_Tables_number   1
_chemical_formula_structural   DyPa7Ti3Si16W9
_chemical_formula_sum   'Dy1 Pa7 Ti3 Si16 W9'
_cell_volume   621.14310704
_cell_formula_units_Z   1
loop_
 _symmetry_equiv_pos_site_id
 _symmetry_equiv_pos_as_xyz
  1  'x, y, z'
loop_
 _atom_site_type_symbol
 _atom_site_label
 _atom_site_symmetry_multiplicity
 _atom_site_fract_x
 _atom_site_fract_y
 _atom_site_fract_z
 _atom_site_occupancy
  Dy  Dy0  1  0.337565  0.995041  0.469947  1
  Pa  Pa1  1  0.001547  0.665269  0.028064  1
  Pa  Pa2  1  0.995691  0.339333  0.528546  1
  Pa  Pa3  1  0.665411  0.000923  0.972224  1
  Pa  Pa4  1  0.168489  0.498515  0.776940  1
  Pa  Pa5  1  0.831671  0.504380  0.280183  1
  Pa  Pa6  1  0.498900  0.168605  0.220985  1
  Pa  Pa7  1  0.506111  0.832577  0.720812  1
  Ti  Ti8  1  0.836091  0.162711  0.748204  1
  Ti  Ti9  1  0.160576  0.834732  0.249912  1
  Ti  Ti10  1  0.334367  0.335551  0.999994  1
  Si  Si11  1  0.026742  0.723901  0.438822  1
  Si  Si12  1  0.973228  0.280890  0.936297  1
  Si  Si13  1  0.719942  0.026090  0.561098  1
  Si  Si14  1  0.214494  0.473342  0.186960  1
  Si  Si15  1  0.785678  0.527828  0.685736  1
  Si  Si16  1  0.471757  0.213666  0.813677  1
  Si  Si17  1  0.525989  0.783341  0.314351  1
  Si  Si18  1  0.280241  0.973186  0.063008  1
  Si  Si19  1  0.798267  0.879097  0.181608  1
  Si  Si20  1  0.301940  0.620405  0.567363  1
  Si  Si21  1  0.700044  0.382312  0.067657  1
  Si  Si22  1  0.615335  0.299440  0.433625  1
  Si  Si23  1  0.381540  0.699696  0.932407  1
  Si  Si24  1  0.120204  0.200471  0.317817  1
  Si  Si25  1  0.202350  0.118455  0.680581  1
  Si  Si26  1  0.880113  0.797974  0.818754  1
  W  W27  1  0.320644  0.495089  0.380479  1
  W  W28  1  0.821701  0.008265  0.368970  1
  W  W29  1  0.992708  0.178095  0.130957  1
  W  W30  1  0.007668  0.819141  0.633221  1
  W  W31  1  0.495723  0.325649  0.624056  1
  W  W32  1  0.178646  0.992483  0.868673  1
  W  W33  1  0.669500  0.662659  0.499522  1
  W  W34  1  0.502450  0.679484  0.120880  1
  W  W35  1  0.676679  0.501407  0.877670  1
