# generated using pymatgen
data_Ca4Ga13Au9
_symmetry_space_group_name_H-M   'P 1'
_cell_length_a   12.07793700
_cell_length_b   12.07793652
_cell_length_c   4.18153000
_cell_angle_alpha   90.00000000
_cell_angle_beta   90.00000000
_cell_angle_gamma   119.99999858
_symmetry_Int_Tables_number   1
_chemical_formula_structural   Ca4Ga13Au9
_chemical_formula_sum   'Ca4 Ga13 Au9'
_cell_volume   528.26441590
_cell_formula_units_Z   1
loop_
 _symmetry_equiv_pos_site_id
 _symmetry_equiv_pos_as_xyz
  1  'x, y, z'
loop_
 _atom_site_type_symbol
 _atom_site_label
 _atom_site_symmetry_multiplicity
 _atom_site_fract_x
 _atom_site_fract_y
 _atom_site_fract_z
 _atom_site_occupancy
  Ca  Ca0  1  0.206571  0.793429  0.500000  1
  Ca  Ca1  1  0.586857  0.793429  0.500000  1
  Ca  Ca2  1  0.206571  0.413143  0.500000  1
  Ca  Ca3  1  0.666667  0.333333  0.000000  1
  Ga  Ga4  1  0.952045  0.294420  0.000000  1
  Ga  Ga5  1  0.705580  0.657625  0.000000  1
  Ga  Ga6  1  0.952045  0.657625  0.000000  1
  Ga  Ga7  1  0.342375  0.047955  0.000000  1
  Ga  Ga8  1  0.166431  0.083215  0.500000  1
  Ga  Ga9  1  0.916785  0.833569  0.500000  1
  Ga  Ga10  1  0.705580  0.047955  0.000000  1
  Ga  Ga11  1  0.532272  0.064543  0.500000  1
  Ga  Ga12  1  0.916785  0.083215  0.500000  1
  Ga  Ga13  1  0.342375  0.294420  0.000000  1
  Ga  Ga14  1  0.532272  0.467728  0.500000  1
  Ga  Ga15  1  0.935457  0.467728  0.500000  1
  Ga  Ga16  1  0.333333  0.666667  0.000000  1
  Au  Au17  1  0.453496  0.546504  0.000000  1
  Au  Au18  1  0.824587  0.912294  0.000000  1
  Au  Au19  1  0.453496  0.906991  0.000000  1
  Au  Au20  1  0.087706  0.175413  0.000000  1
  Au  Au21  1  0.087706  0.912294  0.000000  1
  Au  Au22  1  0.785636  0.571270  0.500000  1
  Au  Au23  1  0.093009  0.546504  0.000000  1
  Au  Au24  1  0.785636  0.214364  0.500000  1
  Au  Au25  1  0.428730  0.214364  0.500000  1
