# generated using pymatgen
data_DyPu3O12
_symmetry_space_group_name_H-M   'P 1'
_cell_length_a   7.01245998
_cell_length_b   7.10152464
_cell_length_c   7.00791600
_cell_angle_alpha   109.74724058
_cell_angle_beta   109.45053869
_cell_angle_gamma   109.70548109
_symmetry_Int_Tables_number   1
_chemical_formula_structural   DyPu3O12
_chemical_formula_sum   'Dy1 Pu3 O12'
_cell_volume   267.01415235
_cell_formula_units_Z   1
loop_
 _symmetry_equiv_pos_site_id
 _symmetry_equiv_pos_as_xyz
  1  'x, y, z'
loop_
 _atom_site_type_symbol
 _atom_site_label
 _atom_site_symmetry_multiplicity
 _atom_site_fract_x
 _atom_site_fract_y
 _atom_site_fract_z
 _atom_site_occupancy
  Dy  Dy0  1  0.499816  0.996554  0.996608  1
  Pu  Pu1  1  0.500126  0.496647  0.496660  1
  Pu  Pu2  1  0.999959  0.496528  0.996697  1
  Pu  Pu3  1  0.999962  0.996672  0.496492  1
  O  O4  1  0.234220  0.403989  0.218580  1
  O  O5  1  0.766043  0.589320  0.774820  1
  O  O6  1  0.184796  0.996555  0.763785  1
  O  O7  1  0.815148  0.996818  0.229230  1
  O  O8  1  0.277808  0.194554  0.519859  1
  O  O9  1  0.722128  0.798695  0.473086  1
  O  O10  1  0.732139  0.239028  0.926018  1
  O  O11  1  0.267736  0.753965  0.067250  1
  O  O12  1  0.003627  0.682435  0.266548  1
  O  O13  1  0.996220  0.310644  0.726687  1
  O  O14  1  0.574615  0.301688  0.313205  1
  O  O15  1  0.425654  0.691628  0.680196  1
