# generated using pymatgen
data_Hf3Zr7AlCuSb6
_symmetry_space_group_name_H-M   'P 1'
_cell_length_a   8.65982500
_cell_length_b   8.65982760
_cell_length_c   5.82867200
_cell_angle_alpha   90.00002666
_cell_angle_beta   89.99998355
_cell_angle_gamma   120.00002902
_symmetry_Int_Tables_number   1
_chemical_formula_structural   Hf3Zr7AlCuSb6
_chemical_formula_sum   'Hf3 Zr7 Al1 Cu1 Sb6'
_cell_volume   378.54584470
_cell_formula_units_Z   1
loop_
 _symmetry_equiv_pos_site_id
 _symmetry_equiv_pos_as_xyz
  1  'x, y, z'
loop_
 _atom_site_type_symbol
 _atom_site_label
 _atom_site_symmetry_multiplicity
 _atom_site_fract_x
 _atom_site_fract_y
 _atom_site_fract_z
 _atom_site_occupancy
  Hf  Hf0  1  0.666667  0.333333  0.000000  1
  Hf  Hf1  1  0.333333  0.666667  0.000000  1
  Hf  Hf2  1  0.333333  0.666667  0.500000  1
  Zr  Zr3  1  0.666667  0.333333  0.500000  1
  Zr  Zr4  1  0.730704  0.731035  0.752518  1
  Zr  Zr5  1  0.268965  0.999669  0.752518  1
  Zr  Zr6  1  0.000331  0.269296  0.752517  1
  Zr  Zr7  1  0.268965  0.269296  0.247482  1
  Zr  Zr8  1  0.730704  0.999669  0.247482  1
  Zr  Zr9  1  0.000331  0.731035  0.247483  1
  Al  Al10  1  0.000000  0.000000  0.500000  1
  Cu  Cu11  1  0.000001  0.000001  0.000001  1
  Sb  Sb12  1  0.385906  0.386282  0.750183  1
  Sb  Sb13  1  0.613718  0.999623  0.750183  1
  Sb  Sb14  1  0.000377  0.614094  0.750183  1
  Sb  Sb15  1  0.613717  0.614094  0.249817  1
  Sb  Sb16  1  0.385905  0.999623  0.249817  1
  Sb  Sb17  1  0.000377  0.386282  0.249816  1
