# generated using pymatgen
data_Ca6Ga7Hg5
_symmetry_space_group_name_H-M   'P 1'
_cell_length_a   5.98410864
_cell_length_b   5.98410951
_cell_length_c   16.77423928
_cell_angle_alpha   77.56518082
_cell_angle_beta   77.56517890
_cell_angle_gamma   46.41600990
_symmetry_Int_Tables_number   1
_chemical_formula_structural   Ca6Ga7Hg5
_chemical_formula_sum   'Ca6 Ga7 Hg5'
_cell_volume   422.99970849
_cell_formula_units_Z   1
loop_
 _symmetry_equiv_pos_site_id
 _symmetry_equiv_pos_as_xyz
  1  'x, y, z'
loop_
 _atom_site_type_symbol
 _atom_site_label
 _atom_site_symmetry_multiplicity
 _atom_site_fract_x
 _atom_site_fract_y
 _atom_site_fract_z
 _atom_site_occupancy
  Ca  Ca0  1  0.271917  0.271917  0.238003  1
  Ca  Ca1  1  0.603449  0.603449  0.573603  1
  Ca  Ca2  1  0.937631  0.937631  0.907142  1
  Ca  Ca3  1  0.059365  0.059365  0.095231  1
  Ca  Ca4  1  0.393932  0.393932  0.427714  1
  Ca  Ca5  1  0.726693  0.726693  0.762487  1
  Ga  Ga6  1  0.763972  0.763972  0.087120  1
  Ga  Ga7  1  0.090192  0.090192  0.423833  1
  Ga  Ga8  1  0.421610  0.421610  0.758776  1
  Ga  Ga9  1  0.379594  0.379594  0.041821  1
  Ga  Ga10  1  0.965641  0.965641  0.298020  1
  Ga  Ga11  1  0.297528  0.297528  0.632632  1
  Ga  Ga12  1  0.621604  0.621604  0.968489  1
  Hg  Hg13  1  0.716034  0.716034  0.378485  1
  Hg  Hg14  1  0.047314  0.047314  0.711762  1
  Hg  Hg15  1  0.568783  0.568783  0.227909  1
  Hg  Hg16  1  0.899037  0.899037  0.563157  1
  Hg  Hg17  1  0.235715  0.235715  0.903814  1
