# generated using pymatgen
data_NaTcP2Rh
_symmetry_space_group_name_H-M   'P 1'
_cell_length_a   5.63556201
_cell_length_b   5.63556246
_cell_length_c   5.63556274
_cell_angle_alpha   137.50136415
_cell_angle_beta   137.50136447
_cell_angle_gamma   61.66755123
_symmetry_Int_Tables_number   1
_chemical_formula_structural   NaTcP2Rh
_chemical_formula_sum   'Na1 Tc1 P2 Rh1'
_cell_volume   80.74820940
_cell_formula_units_Z   1
loop_
 _symmetry_equiv_pos_site_id
 _symmetry_equiv_pos_as_xyz
  1  'x, y, z'
loop_
 _atom_site_type_symbol
 _atom_site_label
 _atom_site_symmetry_multiplicity
 _atom_site_fract_x
 _atom_site_fract_y
 _atom_site_fract_z
 _atom_site_occupancy
  Na  Na0  1  0.000000  0.000000  0.000000  1
  Tc  Tc1  1  0.750000  0.250000  0.500000  1
  P  P2  1  0.629654  0.629654  0.000000  1
  P  P3  1  0.370346  0.370346  0.000000  1
  Rh  Rh4  1  0.250000  0.750000  0.500000  1
