# generated using pymatgen
data_Ce6SmBiF30
_symmetry_space_group_name_H-M   'P 1'
_cell_length_a   8.67815357
_cell_length_b   8.67815440
_cell_length_c   8.68578551
_cell_angle_alpha   79.65888194
_cell_angle_beta   79.65888411
_cell_angle_gamma   100.27232842
_symmetry_Int_Tables_number   1
_chemical_formula_structural   Ce6SmBiF30
_chemical_formula_sum   'Ce6 Sm1 Bi1 F30'
_cell_volume   617.88783575
_cell_formula_units_Z   1
loop_
 _symmetry_equiv_pos_site_id
 _symmetry_equiv_pos_as_xyz
  1  'x, y, z'
loop_
 _atom_site_type_symbol
 _atom_site_label
 _atom_site_symmetry_multiplicity
 _atom_site_fract_x
 _atom_site_fract_y
 _atom_site_fract_z
 _atom_site_occupancy
  Ce  Ce0  1  0.750886  0.249114  0.250000  1
  Ce  Ce1  1  0.249129  0.750871  0.750000  1
  Ce  Ce2  1  0.751417  0.678188  0.674673  1
  Ce  Ce3  1  0.321812  0.248583  0.825327  1
  Ce  Ce4  1  0.248831  0.322021  0.324882  1
  Ce  Ce5  1  0.677979  0.751169  0.175118  1
  Sm  Sm6  1  0.178074  0.821926  0.250000  1
  Bi  Bi7  1  0.821276  0.178724  0.750000  1
  F  F8  1  0.466722  0.533278  0.250000  1
  F  F9  1  0.749294  0.958289  0.968616  1
  F  F10  1  0.041711  0.250706  0.531384  1
  F  F11  1  0.250600  0.041161  0.031976  1
  F  F12  1  0.958839  0.749400  0.468024  1
  F  F13  1  0.534103  0.465897  0.750000  1
  F  F14  1  0.222619  0.492169  0.777543  1
  F  F15  1  0.224070  0.725116  0.007345  1
  F  F16  1  0.990045  0.724387  0.781166  1
  F  F17  1  0.724535  0.990066  0.281334  1
  F  F18  1  0.722070  0.224985  0.507392  1
  F  F19  1  0.492492  0.222427  0.277351  1
  F  F20  1  0.777574  0.507508  0.222649  1
  F  F21  1  0.775015  0.277930  0.992608  1
  F  F22  1  0.009934  0.275465  0.218666  1
  F  F23  1  0.275613  0.009955  0.718834  1
  F  F24  1  0.274884  0.775930  0.492655  1
  F  F25  1  0.507831  0.777381  0.722457  1
  F  F26  1  0.543589  0.154452  0.817623  1
  F  F27  1  0.187998  0.060241  0.344372  1
  F  F28  1  0.651367  0.682686  0.446441  1
  F  F29  1  0.682932  0.651407  0.946077  1
  F  F30  1  0.059882  0.186996  0.847630  1
  F  F31  1  0.157597  0.544935  0.315681  1
  F  F32  1  0.455065  0.842403  0.184319  1
  F  F33  1  0.813004  0.940118  0.652370  1
  F  F34  1  0.348593  0.317068  0.553923  1
  F  F35  1  0.317314  0.348633  0.053559  1
  F  F36  1  0.939759  0.812002  0.155628  1
  F  F37  1  0.845548  0.456411  0.682377  1
