# generated using pymatgen
data_TmHf3Si5GeIr7
_symmetry_space_group_name_H-M   'P 1'
_cell_length_a   7.04964826
_cell_length_b   7.04000065
_cell_length_c   7.05313845
_cell_angle_alpha   109.67663461
_cell_angle_beta   109.73172748
_cell_angle_gamma   108.95812554
_symmetry_Int_Tables_number   1
_chemical_formula_structural   TmHf3Si5GeIr7
_chemical_formula_sum   'Tm1 Hf3 Si5 Ge1 Ir7'
_cell_volume   269.60925799
_cell_formula_units_Z   1
loop_
 _symmetry_equiv_pos_site_id
 _symmetry_equiv_pos_as_xyz
  1  'x, y, z'
loop_
 _atom_site_type_symbol
 _atom_site_label
 _atom_site_symmetry_multiplicity
 _atom_site_fract_x
 _atom_site_fract_y
 _atom_site_fract_z
 _atom_site_occupancy
  Tm  Tm0  1  0.001315  0.488624  0.000001  1
  Hf  Hf1  1  0.001555  0.001379  0.524178  1
  Hf  Hf2  1  0.474412  0.001183  0.000001  1
  Hf  Hf3  1  0.477376  0.477200  0.475821  1
  Si  Si4  1  0.318183  0.996890  0.322810  1
  Si  Si5  1  0.995107  0.313778  0.318900  1
  Si  Si6  1  0.332351  0.333074  0.000000  1
  Si  Si7  1  0.676209  0.994878  0.681100  1
  Si  Si8  1  0.995371  0.674079  0.677189  1
  Ge  Ge9  1  0.696475  0.699540  0.000001  1
  Ir  Ir10  1  0.747357  0.246691  0.494735  1
  Ir  Ir11  1  0.750267  0.500107  0.254412  1
  Ir  Ir12  1  0.495854  0.245694  0.745588  1
  Ir  Ir13  1  0.250931  0.499558  0.744984  1
  Ir  Ir14  1  0.252620  0.751957  0.505265  1
  Ir  Ir15  1  0.505949  0.754575  0.255017  1
  Ir  Ir16  1  0.028667  0.020793  0.000000  1
