# generated using pymatgen
data_Dy5CoRuO12
_symmetry_space_group_name_H-M   'P 1'
_cell_length_a   6.79742378
_cell_length_b   6.79742477
_cell_length_c   7.24993231
_cell_angle_alpha   74.44877555
_cell_angle_beta   74.44877386
_cell_angle_gamma   50.86691822
_symmetry_Int_Tables_number   1
_chemical_formula_structural   Dy5CoRuO12
_chemical_formula_sum   'Dy5 Co1 Ru1 O12'
_cell_volume   248.12605288
_cell_formula_units_Z   1
loop_
 _symmetry_equiv_pos_site_id
 _symmetry_equiv_pos_as_xyz
  1  'x, y, z'
loop_
 _atom_site_type_symbol
 _atom_site_label
 _atom_site_symmetry_multiplicity
 _atom_site_fract_x
 _atom_site_fract_y
 _atom_site_fract_z
 _atom_site_occupancy
  Dy  Dy0  1  0.685750  0.694266  0.668348  1
  Dy  Dy1  1  0.678183  0.713041  0.142539  1
  Dy  Dy2  1  0.995198  0.004802  0.000000  1
  Dy  Dy3  1  0.286959  0.321817  0.857461  1
  Dy  Dy4  1  0.305734  0.314250  0.331652  1
  Co  Co5  1  0.259966  0.740034  0.500000  1
  Ru  Ru6  1  0.771626  0.228374  0.500000  1
  O  O7  1  0.396697  0.913944  0.921387  1
  O  O8  1  0.578170  0.102038  0.582130  1
  O  O9  1  0.897962  0.421830  0.417870  1
  O  O10  1  0.086056  0.603303  0.078613  1
  O  O11  1  0.017033  0.983293  0.324536  1
  O  O12  1  0.504109  0.495912  0.681260  1
  O  O13  1  0.893223  0.405332  0.929024  1
  O  O14  1  0.097677  0.569807  0.581817  1
  O  O15  1  0.430193  0.902323  0.418183  1
  O  O16  1  0.594668  0.106777  0.070976  1
  O  O17  1  0.504088  0.495891  0.318740  1
  O  O18  1  0.016707  0.982967  0.675464  1
