# generated using pymatgen
data_Nd2AlGa8Cu17
_symmetry_space_group_name_H-M   'P 1'
_cell_length_a   8.36131403
_cell_length_b   8.36471579
_cell_length_c   8.35619500
_cell_angle_alpha   120.34799177
_cell_angle_beta   120.97970388
_cell_angle_gamma   88.95028771
_symmetry_Int_Tables_number   1
_chemical_formula_structural   Nd2AlGa8Cu17
_chemical_formula_sum   'Nd2 Al1 Ga8 Cu17'
_cell_volume   408.66980070
_cell_formula_units_Z   1
loop_
 _symmetry_equiv_pos_site_id
 _symmetry_equiv_pos_as_xyz
  1  'x, y, z'
loop_
 _atom_site_type_symbol
 _atom_site_label
 _atom_site_symmetry_multiplicity
 _atom_site_fract_x
 _atom_site_fract_y
 _atom_site_fract_z
 _atom_site_occupancy
  Nd  Nd0  1  0.748254  0.746378  0.997736  1
  Nd  Nd1  1  0.251461  0.249621  0.997873  1
  Al  Al2  1  0.198151  0.060224  0.258403  1
  Ga  Ga3  1  0.801197  0.303035  0.860187  1
  Ga  Ga4  1  0.451584  0.936966  0.136505  1
  Ga  Ga5  1  0.696767  0.557500  0.500244  1
  Ga  Ga6  1  0.055329  0.201534  0.509743  1
  Ga  Ga7  1  0.199462  0.684905  0.136524  1
  Ga  Ga8  1  0.557220  0.058968  0.860205  1
  Ga  Ga9  1  0.942693  0.803421  0.500334  1
  Ga  Ga10  1  0.308204  0.454496  0.509736  1
  Cu  Cu11  1  0.799961  0.938080  0.738012  1
  Cu  Cu12  1  0.298270  0.562119  0.860273  1
  Cu  Cu13  1  0.701383  0.438110  0.139580  1
  Cu  Cu14  1  0.435733  0.296880  0.732389  1
  Cu  Cu15  1  0.563810  0.703058  0.266997  1
  Cu  Cu16  1  0.937747  0.205105  0.142631  1
  Cu  Cu17  1  0.065130  0.794706  0.859960  1
  Cu  Cu18  1  0.499175  0.998601  0.497771  1
  Cu  Cu19  1  0.000039  0.499436  0.499499  1
  Cu  Cu20  1  0.294622  0.797192  0.732672  1
  Cu  Cu21  1  0.060097  0.563115  0.267170  1
  Cu  Cu22  1  0.203088  0.939214  0.495585  1
  Cu  Cu23  1  0.439867  0.707500  0.502233  1
  Cu  Cu24  1  0.704069  0.206974  0.267205  1
  Cu  Cu25  1  0.935540  0.438109  0.732663  1
  Cu  Cu26  1  0.556318  0.292427  0.495519  1
  Cu  Cu27  1  0.794833  0.062330  0.502364  1
