# generated using pymatgen
data_Tm4Lu8ZnCo4Bi
_symmetry_space_group_name_H-M   'P 1'
_cell_length_a   8.20295618
_cell_length_b   8.20295683
_cell_length_c   8.20295608
_cell_angle_alpha   109.99053113
_cell_angle_beta   111.37722708
_cell_angle_gamma   107.07531110
_symmetry_Int_Tables_number   1
_chemical_formula_structural   Tm4Lu8ZnCo4Bi
_chemical_formula_sum   'Tm4 Lu8 Zn1 Co4 Bi1'
_cell_volume   424.28320264
_cell_formula_units_Z   1
loop_
 _symmetry_equiv_pos_site_id
 _symmetry_equiv_pos_as_xyz
  1  'x, y, z'
loop_
 _atom_site_type_symbol
 _atom_site_label
 _atom_site_symmetry_multiplicity
 _atom_site_fract_x
 _atom_site_fract_y
 _atom_site_fract_z
 _atom_site_occupancy
  Tm  Tm0  1  0.220844  0.428529  0.207685  1
  Tm  Tm1  1  0.779156  0.571471  0.792315  1
  Tm  Tm2  1  0.220844  0.013159  0.792315  1
  Tm  Tm3  1  0.779156  0.986841  0.207685  1
  Lu  Lu4  1  0.284860  0.181281  0.466141  1
  Lu  Lu5  1  0.715140  0.818719  0.533859  1
  Lu  Lu6  1  0.284860  0.818719  0.103579  1
  Lu  Lu7  1  0.715140  0.181281  0.896421  1
  Lu  Lu8  1  0.620609  0.313380  0.307229  1
  Lu  Lu9  1  0.379391  0.686620  0.692771  1
  Lu  Lu10  1  0.006151  0.313380  0.692771  1
  Lu  Lu11  1  0.993849  0.686620  0.307229  1
  Zn  Zn12  1  0.000000  0.000000  0.000000  1
  Co  Co13  1  0.000000  0.377427  0.377427  1
  Co  Co14  1  0.000000  0.622573  0.622573  1
  Co  Co15  1  0.386745  0.886745  0.500000  1
  Co  Co16  1  0.613255  0.113255  0.500000  1
  Bi  Bi17  1  0.500000  0.500000  0.000000  1
