# generated using pymatgen
data_Y8Sc11Si16Au
_symmetry_space_group_name_H-M   'P 1'
_cell_length_a   7.02615800
_cell_length_b   7.40142708
_cell_length_c   14.04033300
_cell_angle_alpha   90.00000000
_cell_angle_beta   90.00000000
_cell_angle_gamma   89.83773081
_symmetry_Int_Tables_number   1
_chemical_formula_structural   Y8Sc11Si16Au
_chemical_formula_sum   'Y8 Sc11 Si16 Au1'
_cell_volume   730.14487872
_cell_formula_units_Z   1
loop_
 _symmetry_equiv_pos_site_id
 _symmetry_equiv_pos_as_xyz
  1  'x, y, z'
loop_
 _atom_site_type_symbol
 _atom_site_label
 _atom_site_symmetry_multiplicity
 _atom_site_fract_x
 _atom_site_fract_y
 _atom_site_fract_z
 _atom_site_occupancy
  Y  Y0  1  0.010696  0.174899  0.096221  1
  Y  Y1  1  0.991293  0.814796  0.901051  1
  Y  Y2  1  0.485192  0.672777  0.901351  1
  Y  Y3  1  0.991293  0.814796  0.598949  1
  Y  Y4  1  0.510285  0.323704  0.096314  1
  Y  Y5  1  0.010696  0.174899  0.403779  1
  Y  Y6  1  0.510285  0.323704  0.403686  1
  Y  Y7  1  0.485192  0.672777  0.598649  1
  Sc  Sc8  1  0.838607  0.498060  0.250000  1
  Sc  Sc9  1  0.340158  0.002669  0.250000  1
  Sc  Sc10  1  0.656880  0.998381  0.750000  1
  Sc  Sc11  1  0.324730  0.183261  0.627094  1
  Sc  Sc12  1  0.671215  0.823619  0.374962  1
  Sc  Sc13  1  0.170655  0.678501  0.373894  1
  Sc  Sc14  1  0.671215  0.823619  0.125038  1
  Sc  Sc15  1  0.836534  0.327644  0.627080  1
  Sc  Sc16  1  0.324730  0.183261  0.872906  1
  Sc  Sc17  1  0.836534  0.327644  0.872920  1
  Sc  Sc18  1  0.170655  0.678501  0.126106  1
  Si  Si19  1  0.027219  0.097194  0.750000  1
  Si  Si20  1  0.968745  0.887190  0.250000  1
  Si  Si21  1  0.467329  0.617832  0.250000  1
  Si  Si22  1  0.536305  0.384513  0.750000  1
  Si  Si23  1  0.288732  0.883756  0.750000  1
  Si  Si24  1  0.713583  0.127293  0.250000  1
  Si  Si25  1  0.212715  0.372946  0.250000  1
  Si  Si26  1  0.778411  0.628319  0.750000  1
  Si  Si27  1  0.161294  0.459423  0.530947  1
  Si  Si28  1  0.843130  0.535766  0.462121  1
  Si  Si29  1  0.344934  0.964944  0.462935  1
  Si  Si30  1  0.843130  0.535766  0.037879  1
  Si  Si31  1  0.657275  0.034075  0.540454  1
  Si  Si32  1  0.161294  0.459423  0.969053  1
  Si  Si33  1  0.657275  0.034075  0.959546  1
  Si  Si34  1  0.344934  0.964944  0.037065  1
  Au  Au35  1  0.156853  0.515028  0.750000  1
