# generated using pymatgen
data_PrDyMn3Re14C3
_symmetry_space_group_name_H-M   'P 1'
_cell_length_a   6.96269709
_cell_length_b   6.96269747
_cell_length_c   6.96269734
_cell_angle_alpha   82.52791467
_cell_angle_beta   82.52791321
_cell_angle_gamma   82.52790494
_symmetry_Int_Tables_number   1
_chemical_formula_structural   PrDyMn3Re14C3
_chemical_formula_sum   'Pr1 Dy1 Mn3 Re14 C3'
_cell_volume   329.63277976
_cell_formula_units_Z   1
loop_
 _symmetry_equiv_pos_site_id
 _symmetry_equiv_pos_as_xyz
  1  'x, y, z'
loop_
 _atom_site_type_symbol
 _atom_site_label
 _atom_site_symmetry_multiplicity
 _atom_site_fract_x
 _atom_site_fract_y
 _atom_site_fract_z
 _atom_site_occupancy
  Pr  Pr0  1  0.647560  0.647560  0.647560  1
  Dy  Dy1  1  0.350998  0.350998  0.350998  1
  Mn  Mn2  1  0.998974  0.998974  0.500768  1
  Mn  Mn3  1  0.500768  0.998974  0.998974  1
  Mn  Mn4  1  0.998974  0.500768  0.998974  1
  Re  Re5  1  0.721567  0.277758  0.000623  1
  Re  Re6  1  0.000623  0.721567  0.277758  1
  Re  Re7  1  0.277758  0.000623  0.721567  1
  Re  Re8  1  0.000623  0.277758  0.721567  1
  Re  Re9  1  0.721567  0.000623  0.277758  1
  Re  Re10  1  0.277758  0.721567  0.000623  1
  Re  Re11  1  0.345121  0.345121  0.863076  1
  Re  Re12  1  0.863076  0.345121  0.345121  1
  Re  Re13  1  0.345121  0.863076  0.345121  1
  Re  Re14  1  0.653421  0.653421  0.140785  1
  Re  Re15  1  0.140785  0.653421  0.653421  1
  Re  Re16  1  0.653421  0.140785  0.653421  1
  Re  Re17  1  0.900234  0.900234  0.900234  1
  Re  Re18  1  0.100532  0.100532  0.100532  1
  C  C19  1  0.496549  0.496549  0.008017  1
  C  C20  1  0.008017  0.496549  0.496549  1
  C  C21  1  0.496549  0.008017  0.496549  1
