# generated using pymatgen
data_Tb16Cd4OsPt3
_symmetry_space_group_name_H-M   'P 1'
_cell_length_a   9.74128191
_cell_length_b   9.74128184
_cell_length_c   9.74128162
_cell_angle_alpha   59.59399722
_cell_angle_beta   59.59399550
_cell_angle_gamma   59.59400017
_symmetry_Int_Tables_number   1
_chemical_formula_structural   Tb16Cd4OsPt3
_chemical_formula_sum   'Tb16 Cd4 Os1 Pt3'
_cell_volume   647.60011119
_cell_formula_units_Z   1
loop_
 _symmetry_equiv_pos_site_id
 _symmetry_equiv_pos_as_xyz
  1  'x, y, z'
loop_
 _atom_site_type_symbol
 _atom_site_label
 _atom_site_symmetry_multiplicity
 _atom_site_fract_x
 _atom_site_fract_y
 _atom_site_fract_z
 _atom_site_occupancy
  Tb  Tb0  1  0.351501  0.351501  0.351501  1
  Tb  Tb1  1  0.349674  0.349674  0.948729  1
  Tb  Tb2  1  0.349674  0.948729  0.349674  1
  Tb  Tb3  1  0.948729  0.349674  0.349674  1
  Tb  Tb4  1  0.814254  0.189176  0.189176  1
  Tb  Tb5  1  0.188134  0.809538  0.809538  1
  Tb  Tb6  1  0.189176  0.814254  0.189176  1
  Tb  Tb7  1  0.809538  0.188134  0.809538  1
  Tb  Tb8  1  0.189176  0.189176  0.814254  1
  Tb  Tb9  1  0.809538  0.809538  0.188134  1
  Tb  Tb10  1  0.935866  0.565313  0.565313  1
  Tb  Tb11  1  0.558558  0.937549  0.937549  1
  Tb  Tb12  1  0.565313  0.935866  0.565313  1
  Tb  Tb13  1  0.937549  0.558558  0.937549  1
  Tb  Tb14  1  0.565313  0.565313  0.935866  1
  Tb  Tb15  1  0.937549  0.937549  0.558558  1
  Cd  Cd16  1  0.580352  0.580352  0.580352  1
  Cd  Cd17  1  0.580971  0.580971  0.254603  1
  Cd  Cd18  1  0.580971  0.254603  0.580971  1
  Cd  Cd19  1  0.254603  0.580971  0.580971  1
  Os  Os20  1  0.143274  0.143274  0.143274  1
  Pt  Pt21  1  0.143993  0.143993  0.572304  1
  Pt  Pt22  1  0.143993  0.572304  0.143993  1
  Pt  Pt23  1  0.572304  0.143993  0.143993  1
