# generated using pymatgen
data_Ce7YF30
_symmetry_space_group_name_H-M   'P 1'
_cell_length_a   8.65205672
_cell_length_b   8.65205792
_cell_length_c   8.65205839
_cell_angle_alpha   100.29724527
_cell_angle_beta   100.29724877
_cell_angle_gamma   100.29724995
_symmetry_Int_Tables_number   1
_chemical_formula_structural   Ce7YF30
_chemical_formula_sum   'Ce7 Y1 F30'
_cell_volume   611.94862685
_cell_formula_units_Z   1
loop_
 _symmetry_equiv_pos_site_id
 _symmetry_equiv_pos_as_xyz
  1  'x, y, z'
loop_
 _atom_site_type_symbol
 _atom_site_label
 _atom_site_symmetry_multiplicity
 _atom_site_fract_x
 _atom_site_fract_y
 _atom_site_fract_z
 _atom_site_occupancy
  Ce  Ce0  1  0.180148  0.750000  0.319852  1
  Ce  Ce1  1  0.250000  0.678921  0.821079  1
  Ce  Ce2  1  0.678921  0.821079  0.250000  1
  Ce  Ce3  1  0.750000  0.750000  0.750000  1
  Ce  Ce4  1  0.319852  0.180148  0.750000  1
  Ce  Ce5  1  0.750000  0.319852  0.180148  1
  Ce  Ce6  1  0.821079  0.250000  0.678921  1
  Y  Y7  1  0.250000  0.250000  0.250000  1
  F  F8  1  0.959912  0.540088  0.250000  1
  F  F9  1  0.818459  0.349312  0.452608  1
  F  F10  1  0.490608  0.724380  0.719703  1
  F  F11  1  0.349312  0.452608  0.818459  1
  F  F12  1  0.009392  0.780297  0.775620  1
  F  F13  1  0.750000  0.035914  0.464086  1
  F  F14  1  0.945718  0.845903  0.317863  1
  F  F15  1  0.227924  0.220827  0.986206  1
  F  F16  1  0.775620  0.009392  0.780297  1
  F  F17  1  0.317863  0.945718  0.845903  1
  F  F18  1  0.279173  0.272076  0.513794  1
  F  F19  1  0.452608  0.818459  0.349312  1
  F  F20  1  0.540088  0.250000  0.959912  1
  F  F21  1  0.272076  0.513794  0.279173  1
  F  F22  1  0.150688  0.681541  0.047392  1
  F  F23  1  0.845903  0.317863  0.945718  1
  F  F24  1  0.719703  0.490608  0.724380  1
  F  F25  1  0.464086  0.750000  0.035914  1
  F  F26  1  0.554282  0.182137  0.654097  1
  F  F27  1  0.724380  0.719703  0.490608  1
  F  F28  1  0.681541  0.047392  0.150688  1
  F  F29  1  0.220827  0.986206  0.227924  1
  F  F30  1  0.780297  0.775620  0.009392  1
  F  F31  1  0.047392  0.150688  0.681541  1
  F  F32  1  0.250000  0.959912  0.540088  1
  F  F33  1  0.986206  0.227924  0.220827  1
  F  F34  1  0.654097  0.554282  0.182137  1
  F  F35  1  0.513794  0.279173  0.272076  1
  F  F36  1  0.182137  0.654097  0.554282  1
  F  F37  1  0.035914  0.464086  0.750000  1
