# generated using pymatgen
data_Nd4Tc5B12Ru
_symmetry_space_group_name_H-M   'P 1'
_cell_length_a   6.30440907
_cell_length_b   6.30180104
_cell_length_c   7.60975032
_cell_angle_alpha   90.61669531
_cell_angle_beta   90.57940663
_cell_angle_gamma   114.95352886
_symmetry_Int_Tables_number   1
_chemical_formula_structural   Nd4Tc5B12Ru
_chemical_formula_sum   'Nd4 Tc5 B12 Ru1'
_cell_volume   274.05477984
_cell_formula_units_Z   1
loop_
 _symmetry_equiv_pos_site_id
 _symmetry_equiv_pos_as_xyz
  1  'x, y, z'
loop_
 _atom_site_type_symbol
 _atom_site_label
 _atom_site_symmetry_multiplicity
 _atom_site_fract_x
 _atom_site_fract_y
 _atom_site_fract_z
 _atom_site_occupancy
  Nd  Nd0  1  0.091455  0.436049  0.326611  1
  Nd  Nd1  1  0.560679  0.907152  0.174375  1
  Nd  Nd2  1  0.908195  0.566245  0.673461  1
  Nd  Nd3  1  0.443537  0.093849  0.826376  1
  Tc  Tc4  1  0.584677  0.417490  0.251921  1
  Tc  Tc5  1  0.415804  0.584393  0.750263  1
  Tc  Tc6  1  0.988442  0.802326  0.088100  1
  Tc  Tc7  1  0.200335  0.011034  0.413681  1
  Tc  Tc8  1  0.011712  0.197732  0.910025  1
  B  B9  1  0.238940  0.152249  0.130361  1
  B  B10  1  0.850598  0.759700  0.365916  1
  B  B11  1  0.759154  0.847541  0.870694  1
  B  B12  1  0.150267  0.235116  0.631996  1
  B  B13  1  0.582910  0.159853  0.480367  1
  B  B14  1  0.842473  0.417013  0.017105  1
  B  B15  1  0.414699  0.839849  0.519082  1
  B  B16  1  0.158050  0.582553  0.982822  1
  B  B17  1  0.441730  0.350732  0.533845  1
  B  B18  1  0.650480  0.558343  0.967001  1
  B  B19  1  0.556950  0.650626  0.466948  1
  B  B20  1  0.349460  0.441274  0.033299  1
  Ru  Ru21  1  0.799455  0.988880  0.585752  1
