# generated using pymatgen
data_Dy4Cr5Co4P12Rh11
_symmetry_space_group_name_H-M   'P 1'
_cell_length_a   3.77677500
_cell_length_b   10.73639451
_cell_length_c   12.40458246
_cell_angle_alpha   90.11651460
_cell_angle_beta   90.00000000
_cell_angle_gamma   90.00000000
_symmetry_Int_Tables_number   1
_chemical_formula_structural   Dy4Cr5Co4P12Rh11
_chemical_formula_sum   'Dy4 Cr5 Co4 P12 Rh11'
_cell_volume   502.99170888
_cell_formula_units_Z   1
loop_
 _symmetry_equiv_pos_site_id
 _symmetry_equiv_pos_as_xyz
  1  'x, y, z'
loop_
 _atom_site_type_symbol
 _atom_site_label
 _atom_site_symmetry_multiplicity
 _atom_site_fract_x
 _atom_site_fract_y
 _atom_site_fract_z
 _atom_site_occupancy
  Dy  Dy0  1  0.250000  0.582619  0.708246  1
  Dy  Dy1  1  0.250000  0.917109  0.208285  1
  Dy  Dy2  1  0.750000  0.415591  0.292115  1
  Dy  Dy3  1  0.750000  0.084369  0.791253  1
  Cr  Cr4  1  0.250000  0.708191  0.987062  1
  Cr  Cr5  1  0.250000  0.791961  0.485477  1
  Cr  Cr6  1  0.750000  0.290691  0.012337  1
  Cr  Cr7  1  0.750000  0.209710  0.511141  1
  Cr  Cr8  1  0.250000  0.405175  0.491390  1
  Co  Co9  1  0.250000  0.464966  0.937216  1
  Co  Co10  1  0.250000  0.035611  0.436568  1
  Co  Co11  1  0.750000  0.534713  0.063485  1
  Co  Co12  1  0.750000  0.965184  0.563708  1
  P  P13  1  0.250000  0.421525  0.107154  1
  P  P14  1  0.250000  0.077664  0.607130  1
  P  P15  1  0.750000  0.577582  0.893463  1
  P  P16  1  0.750000  0.923360  0.392904  1
  P  P17  1  0.250000  0.271041  0.874189  1
  P  P18  1  0.250000  0.235361  0.377712  1
  P  P19  1  0.750000  0.728918  0.126724  1
  P  P20  1  0.750000  0.770460  0.625244  1
  P  P21  1  0.250000  0.592603  0.390120  1
  P  P22  1  0.250000  0.900260  0.889304  1
  P  P23  1  0.750000  0.401279  0.608454  1
  P  P24  1  0.750000  0.101610  0.110652  1
  Rh  Rh25  1  0.250000  0.094906  0.985545  1
  Rh  Rh26  1  0.750000  0.594069  0.511981  1
  Rh  Rh27  1  0.750000  0.904413  0.013614  1
  Rh  Rh28  1  0.250000  0.227999  0.178814  1
  Rh  Rh29  1  0.250000  0.271403  0.677939  1
  Rh  Rh30  1  0.750000  0.770929  0.820775  1
  Rh  Rh31  1  0.750000  0.729427  0.320739  1
  Rh  Rh32  1  0.250000  0.886713  0.696700  1
  Rh  Rh33  1  0.250000  0.611750  0.196581  1
  Rh  Rh34  1  0.750000  0.112192  0.302940  1
  Rh  Rh35  1  0.750000  0.388646  0.803039  1
