# generated using pymatgen
data_Nd8GeAsI12
_symmetry_space_group_name_H-M   'P 1'
_cell_length_a   4.34305200
_cell_length_b   14.33335007
_cell_length_c   15.16649100
_cell_angle_alpha   90.06792342
_cell_angle_beta   90.00000000
_cell_angle_gamma   90.00000000
_symmetry_Int_Tables_number   1
_chemical_formula_structural   Nd8GeAsI12
_chemical_formula_sum   'Nd8 Ge1 As1 I12'
_cell_volume   944.12075247
_cell_formula_units_Z   1
loop_
 _symmetry_equiv_pos_site_id
 _symmetry_equiv_pos_as_xyz
  1  'x, y, z'
loop_
 _atom_site_type_symbol
 _atom_site_label
 _atom_site_symmetry_multiplicity
 _atom_site_fract_x
 _atom_site_fract_y
 _atom_site_fract_z
 _atom_site_occupancy
  Nd  Nd0  1  0.500000  0.115218  0.346194  1
  Nd  Nd1  1  0.500000  0.884782  0.653806  1
  Nd  Nd2  1  0.500000  0.616655  0.155378  1
  Nd  Nd3  1  0.500000  0.383345  0.844622  1
  Nd  Nd4  1  0.000000  0.111031  0.574397  1
  Nd  Nd5  1  0.000000  0.888969  0.425603  1
  Nd  Nd6  1  0.000000  0.614610  0.923130  1
  Nd  Nd7  1  0.000000  0.385390  0.076870  1
  Ge  Ge8  1  0.500000  0.500000  0.000000  1
  As  As9  1  0.500000  0.000000  0.500000  1
  I  I10  1  0.500000  0.242542  0.163392  1
  I  I11  1  0.500000  0.757458  0.836608  1
  I  I12  1  0.500000  0.745778  0.339653  1
  I  I13  1  0.500000  0.254222  0.660347  1
  I  I14  1  0.000000  0.259417  0.415113  1
  I  I15  1  0.000000  0.740583  0.584887  1
  I  I16  1  0.000000  0.760809  0.085245  1
  I  I17  1  0.000000  0.239191  0.914755  1
  I  I18  1  0.000000  0.998156  0.240139  1
  I  I19  1  0.000000  0.001844  0.759861  1
  I  I20  1  0.000000  0.498688  0.261334  1
  I  I21  1  0.000000  0.501312  0.738666  1
