# generated using pymatgen
data_Dy2Sc2ReB12Ir
_symmetry_space_group_name_H-M   'P 1'
_cell_length_a   3.58295000
_cell_length_b   8.98183703
_cell_length_c   11.38957379
_cell_angle_alpha   90.11288126
_cell_angle_beta   90.00000000
_cell_angle_gamma   90.00000000
_symmetry_Int_Tables_number   1
_chemical_formula_structural   Dy2Sc2ReB12Ir
_chemical_formula_sum   'Dy4 Sc4 Re2 B24 Ir2'
_cell_volume   366.53255004
_cell_formula_units_Z   2
loop_
 _symmetry_equiv_pos_site_id
 _symmetry_equiv_pos_as_xyz
  1  'x, y, z'
loop_
 _atom_site_type_symbol
 _atom_site_label
 _atom_site_symmetry_multiplicity
 _atom_site_fract_x
 _atom_site_fract_y
 _atom_site_fract_z
 _atom_site_occupancy
  Dy  Dy0  1  0.500000  0.316268  0.411358  1
  Dy  Dy1  1  0.500000  0.683732  0.588642  1
  Dy  Dy2  1  0.500000  0.177055  0.916781  1
  Dy  Dy3  1  0.500000  0.822945  0.083219  1
  Sc  Sc4  1  0.500000  0.442002  0.124515  1
  Sc  Sc5  1  0.500000  0.557998  0.875485  1
  Sc  Sc6  1  0.500000  0.051994  0.626629  1
  Sc  Sc7  1  0.500000  0.948006  0.373371  1
  Re  Re8  1  0.500000  0.140459  0.182445  1
  Re  Re9  1  0.500000  0.859541  0.817555  1
  B  B10  1  0.000000  0.099761  0.473451  1
  B  B11  1  0.000000  0.900239  0.526549  1
  B  B12  1  0.000000  0.400591  0.972598  1
  B  B13  1  0.000000  0.599409  0.027402  1
  B  B14  1  0.000000  0.128780  0.317111  1
  B  B15  1  0.000000  0.871220  0.682889  1
  B  B16  1  0.000000  0.371503  0.818312  1
  B  B17  1  0.000000  0.628497  0.181688  1
  B  B18  1  0.000000  0.054033  0.067530  1
  B  B19  1  0.000000  0.945967  0.932470  1
  B  B20  1  0.000000  0.444775  0.566409  1
  B  B21  1  0.000000  0.555225  0.433591  1
  B  B22  1  0.000000  0.481335  0.285731  1
  B  B23  1  0.000000  0.518665  0.714269  1
  B  B24  1  0.000000  0.019227  0.785163  1
  B  B25  1  0.000000  0.980773  0.214837  1
  B  B26  1  0.000000  0.252385  0.081123  1
  B  B27  1  0.000000  0.747615  0.918877  1
  B  B28  1  0.000000  0.246034  0.579864  1
  B  B29  1  0.000000  0.753966  0.420136  1
  B  B30  1  0.000000  0.294464  0.234758  1
  B  B31  1  0.000000  0.705536  0.765242  1
  B  B32  1  0.000000  0.207158  0.734589  1
  B  B33  1  0.000000  0.792842  0.265411  1
  Ir  Ir34  1  0.500000  0.360729  0.680352  1
  Ir  Ir35  1  0.500000  0.639271  0.319648  1
