# generated using pymatgen
data_CsFeGe3O8
_symmetry_space_group_name_H-M   'P 1'
_cell_length_a   7.82661682
_cell_length_b   8.28016625
_cell_length_c   8.61120905
_cell_angle_alpha   111.45241788
_cell_angle_beta   103.97340923
_cell_angle_gamma   103.75839411
_symmetry_Int_Tables_number   1
_chemical_formula_structural   CsFeGe3O8
_chemical_formula_sum   'Cs2 Fe2 Ge6 O16'
_cell_volume   470.01555828
_cell_formula_units_Z   2
loop_
 _symmetry_equiv_pos_site_id
 _symmetry_equiv_pos_as_xyz
  1  'x, y, z'
loop_
 _atom_site_type_symbol
 _atom_site_label
 _atom_site_symmetry_multiplicity
 _atom_site_fract_x
 _atom_site_fract_y
 _atom_site_fract_z
 _atom_site_occupancy
  Cs  Cs0  1  0.136588  0.293394  0.286827  1
  Cs  Cs1  1  0.863412  0.706606  0.713173  1
  Fe  Fe2  1  0.218327  0.811008  0.203458  1
  Fe  Fe3  1  0.781673  0.188992  0.796542  1
  Ge  Ge4  1  0.233936  0.198927  0.826634  1
  Ge  Ge5  1  0.766064  0.801073  0.173366  1
  Ge  Ge6  1  0.349708  0.600703  0.846999  1
  Ge  Ge7  1  0.356897  0.838305  0.609738  1
  Ge  Ge8  1  0.650292  0.399297  0.153001  1
  Ge  Ge9  1  0.643103  0.161695  0.390262  1
  O  O10  1  0.281224  0.647061  0.660692  1
  O  O11  1  0.718776  0.352939  0.339308  1
  O  O12  1  0.399161  0.050536  0.290478  1
  O  O13  1  0.400861  0.286438  0.047676  1
  O  O14  1  0.600838  0.949464  0.709522  1
  O  O15  1  0.599139  0.713562  0.952324  1
  O  O16  1  0.983382  0.842522  0.147444  1
  O  O17  1  0.016618  0.157478  0.852556  1
  O  O18  1  0.267308  0.722672  0.375541  1
  O  O19  1  0.294523  0.354311  0.733673  1
  O  O20  1  0.732692  0.277328  0.624459  1
  O  O21  1  0.705477  0.645689  0.266327  1
  O  O22  1  0.217734  0.650564  0.981138  1
  O  O23  1  0.221959  0.977543  0.680044  1
  O  O24  1  0.782266  0.349436  0.018862  1
  O  O25  1  0.778041  0.022457  0.319956  1
