# generated using pymatgen
data_LiZr3(Co4P3)2
_symmetry_space_group_name_H-M   'P 1'
_cell_length_a   11.94195948
_cell_length_b   12.00663568
_cell_length_c   3.64788600
_cell_angle_alpha   90.00000000
_cell_angle_beta   90.00000000
_cell_angle_gamma   120.17931066
_symmetry_Int_Tables_number   1
_chemical_formula_structural   LiZr3(Co4P3)2
_chemical_formula_sum   'Li2 Zr6 Co16 P12'
_cell_volume   452.14868320
_cell_formula_units_Z   2
loop_
 _symmetry_equiv_pos_site_id
 _symmetry_equiv_pos_as_xyz
  1  'x, y, z'
loop_
 _atom_site_type_symbol
 _atom_site_label
 _atom_site_symmetry_multiplicity
 _atom_site_fract_x
 _atom_site_fract_y
 _atom_site_fract_z
 _atom_site_occupancy
  Li  Li0  1  0.442741  0.441582  0.000000  1
  Li  Li1  1  0.557259  0.998841  0.000000  1
  Zr  Zr2  1  0.000000  0.556787  0.000000  1
  Zr  Zr3  1  0.666181  0.331103  0.000000  1
  Zr  Zr4  1  0.333819  0.664922  0.000000  1
  Zr  Zr5  1  0.813124  0.812457  0.500000  1
  Zr  Zr6  1  0.186876  0.999333  0.500000  1
  Zr  Zr7  1  0.000000  0.180648  0.500000  1
  Co  Co8  1  0.200860  0.376248  0.000000  1
  Co  Co9  1  0.181784  0.810611  0.000000  1
  Co  Co10  1  0.818216  0.628827  0.000000  1
  Co  Co11  1  0.799140  0.175387  0.000000  1
  Co  Co12  1  0.376181  0.198507  0.000000  1
  Co  Co13  1  0.127703  0.478697  0.500000  1
  Co  Co14  1  0.358467  0.874346  0.500000  1
  Co  Co15  1  0.519045  0.646941  0.500000  1
  Co  Co16  1  0.641533  0.515879  0.500000  1
  Co  Co17  1  0.872297  0.350993  0.500000  1
  Co  Co18  1  0.480955  0.127896  0.500000  1
  Co  Co19  1  0.000000  0.002744  0.000000  1
  Co  Co20  1  0.716394  0.999929  0.500000  1
  Co  Co21  1  0.000000  0.723683  0.500000  1
  Co  Co22  1  0.623819  0.822326  0.000000  1
  Co  Co23  1  0.283606  0.283535  0.500000  1
  P  P24  1  0.634129  0.639091  0.000000  1
  P  P25  1  0.365871  0.004963  0.000000  1
  P  P26  1  0.000000  0.344929  0.000000  1
  P  P27  1  0.482352  0.313717  0.500000  1
  P  P28  1  0.683230  0.166536  0.500000  1
  P  P29  1  0.823625  0.516950  0.500000  1
  P  P30  1  0.517648  0.831366  0.500000  1
  P  P31  1  0.176375  0.693326  0.500000  1
  P  P32  1  0.820366  0.998449  0.000000  1
  P  P33  1  0.000000  0.827061  0.000000  1
  P  P34  1  0.316770  0.483306  0.500000  1
  P  P35  1  0.179634  0.178083  0.000000  1
