# generated using pymatgen
data_PmUO4
_symmetry_space_group_name_H-M   'P 1'
_cell_length_a   6.63150610
_cell_length_b   6.63150668
_cell_length_c   6.63150554
_cell_angle_alpha   131.44902665
_cell_angle_beta   131.44903349
_cell_angle_gamma   71.10062984
_symmetry_Int_Tables_number   1
_chemical_formula_structural   PmUO4
_chemical_formula_sum   'Pm2 U2 O8'
_cell_volume   160.41932308
_cell_formula_units_Z   2
loop_
 _symmetry_equiv_pos_site_id
 _symmetry_equiv_pos_as_xyz
  1  'x, y, z'
loop_
 _atom_site_type_symbol
 _atom_site_label
 _atom_site_symmetry_multiplicity
 _atom_site_fract_x
 _atom_site_fract_y
 _atom_site_fract_z
 _atom_site_occupancy
  Pm  Pm0  1  0.000000  0.000000  0.000000  1
  Pm  Pm1  1  0.750000  0.250000  0.500000  1
  U  U2  1  0.500000  0.500000  0.000000  1
  U  U3  1  0.250000  0.750000  0.500000  1
  O  O4  1  0.375000  0.393729  0.518729  1
  O  O5  1  0.875000  0.856271  0.481271  1
  O  O6  1  0.143729  0.125000  0.518729  1
  O  O7  1  0.606271  0.125000  0.981271  1
  O  O8  1  0.875000  0.393729  0.018729  1
  O  O9  1  0.606271  0.625000  0.481271  1
  O  O10  1  0.143729  0.625000  0.018729  1
  O  O11  1  0.375000  0.856271  0.981271  1
