# generated using pymatgen
data_Ho8Re2B24RuRh
_symmetry_space_group_name_H-M   'P 1'
_cell_length_a   3.66712800
_cell_length_b   9.13376648
_cell_length_c   11.52248920
_cell_angle_alpha   90.32182762
_cell_angle_beta   90.00000000
_cell_angle_gamma   90.00000000
_symmetry_Int_Tables_number   1
_chemical_formula_structural   Ho8Re2B24RuRh
_chemical_formula_sum   'Ho8 Re2 B24 Ru1 Rh1'
_cell_volume   385.93612464
_cell_formula_units_Z   1
loop_
 _symmetry_equiv_pos_site_id
 _symmetry_equiv_pos_as_xyz
  1  'x, y, z'
loop_
 _atom_site_type_symbol
 _atom_site_label
 _atom_site_symmetry_multiplicity
 _atom_site_fract_x
 _atom_site_fract_y
 _atom_site_fract_z
 _atom_site_occupancy
  Ho  Ho0  1  0.000000  0.320341  0.409631  1
  Ho  Ho1  1  0.000000  0.682138  0.586069  1
  Ho  Ho2  1  0.000000  0.824267  0.084785  1
  Ho  Ho3  1  0.000000  0.173440  0.918413  1
  Ho  Ho4  1  0.000000  0.943487  0.371337  1
  Ho  Ho5  1  0.000000  0.055641  0.628788  1
  Ho  Ho6  1  0.000000  0.443628  0.127990  1
  Ho  Ho7  1  0.000000  0.558296  0.872877  1
  Re  Re8  1  0.000000  0.138068  0.179604  1
  Re  Re9  1  0.000000  0.862055  0.820089  1
  B  B10  1  0.500000  0.553909  0.433612  1
  B  B11  1  0.500000  0.445712  0.565696  1
  B  B12  1  0.500000  0.052964  0.067253  1
  B  B13  1  0.500000  0.947104  0.933046  1
  B  B14  1  0.500000  0.748403  0.419562  1
  B  B15  1  0.500000  0.250654  0.578890  1
  B  B16  1  0.500000  0.248647  0.081257  1
  B  B17  1  0.500000  0.751317  0.918958  1
  B  B18  1  0.500000  0.790348  0.266328  1
  B  B19  1  0.500000  0.209147  0.734156  1
  B  B20  1  0.500000  0.292200  0.234506  1
  B  B21  1  0.500000  0.707799  0.765007  1
  B  B22  1  0.500000  0.630944  0.185737  1
  B  B23  1  0.500000  0.368384  0.816398  1
  B  B24  1  0.500000  0.131570  0.314847  1
  B  B25  1  0.500000  0.868531  0.684717  1
  B  B26  1  0.500000  0.982337  0.212693  1
  B  B27  1  0.500000  0.017557  0.787607  1
  B  B28  1  0.500000  0.483186  0.288029  1
  B  B29  1  0.500000  0.516857  0.712341  1
  B  B30  1  0.500000  0.605045  0.029107  1
  B  B31  1  0.500000  0.394320  0.970450  1
  B  B32  1  0.500000  0.106818  0.471033  1
  B  B33  1  0.500000  0.894316  0.529175  1
  Ru  Ru34  1  0.000000  0.637568  0.321714  1
  Rh  Rh35  1  0.000000  0.363004  0.678305  1
