# generated using pymatgen
data_Ta2Nb4Re5Si6Ru
_symmetry_space_group_name_H-M   'P 1'
_cell_length_a   7.57427734
_cell_length_b   7.53922137
_cell_length_c   7.55827477
_cell_angle_alpha   127.25531929
_cell_angle_beta   124.16644665
_cell_angle_gamma   80.46117294
_symmetry_Int_Tables_number   1
_chemical_formula_structural   Ta2Nb4Re5Si6Ru
_chemical_formula_sum   'Ta2 Nb4 Re5 Si6 Ru1'
_cell_volume   274.11506989
_cell_formula_units_Z   1
loop_
 _symmetry_equiv_pos_site_id
 _symmetry_equiv_pos_as_xyz
  1  'x, y, z'
loop_
 _atom_site_type_symbol
 _atom_site_label
 _atom_site_symmetry_multiplicity
 _atom_site_fract_x
 _atom_site_fract_y
 _atom_site_fract_z
 _atom_site_occupancy
  Ta  Ta0  1  0.557721  0.091429  0.034872  1
  Ta  Ta1  1  0.449704  0.492759  0.546007  1
  Nb  Nb2  1  0.958072  0.496879  0.032729  1
  Nb  Nb3  1  0.035085  0.067081  0.533493  1
  Nb  Nb4  1  0.758296  0.917576  0.668222  1
  Nb  Nb5  1  0.244337  0.904819  0.155510  1
  Re  Re6  1  0.476781  0.247803  0.723523  1
  Re  Re7  1  0.021391  0.248731  0.266714  1
  Re  Re8  1  0.159198  0.748813  0.651531  1
  Re  Re9  1  0.839291  0.496223  0.589245  1
  Re  Re10  1  0.592434  0.747815  0.086789  1
  Si  Si11  1  0.770670  0.518158  0.244580  1
  Si  Si12  1  0.221373  0.489026  0.771557  1
  Si  Si13  1  0.335320  0.824223  0.492140  1
  Si  Si14  1  0.661226  0.161431  0.488932  1
  Si  Si15  1  0.831199  0.827620  0.993963  1
  Si  Si16  1  0.175104  0.166343  0.001574  1
  Ru  Ru17  1  0.412801  0.495470  0.160820  1
