# generated using pymatgen
data_Sm5HoAl24(Ru3Au)2
_symmetry_space_group_name_H-M   'P 1'
_cell_length_a   8.92841797
_cell_length_b   8.88521766
_cell_length_c   9.63238887
_cell_angle_alpha   90.05725033
_cell_angle_beta   89.87290826
_cell_angle_gamma   119.72146724
_symmetry_Int_Tables_number   1
_chemical_formula_structural   Sm5HoAl24(Ru3Au)2
_chemical_formula_sum   'Sm5 Ho1 Al24 Ru6 Au2'
_cell_volume   663.61813900
_cell_formula_units_Z   1
loop_
 _symmetry_equiv_pos_site_id
 _symmetry_equiv_pos_as_xyz
  1  'x, y, z'
loop_
 _atom_site_type_symbol
 _atom_site_label
 _atom_site_symmetry_multiplicity
 _atom_site_fract_x
 _atom_site_fract_y
 _atom_site_fract_z
 _atom_site_occupancy
  Sm  Sm0  1  0.189856  0.382336  0.252772  1
  Sm  Sm1  1  0.810338  0.617096  0.747197  1
  Sm  Sm2  1  0.618293  0.808826  0.247555  1
  Sm  Sm3  1  0.381903  0.190866  0.752586  1
  Sm  Sm4  1  0.190773  0.808370  0.253237  1
  Ho  Ho5  1  0.808193  0.194193  0.745998  1
  Al  Al6  1  0.320588  0.660702  0.025427  1
  Al  Al7  1  0.679460  0.338271  0.971967  1
  Al  Al8  1  0.666854  0.333076  0.525066  1
  Al  Al9  1  0.333594  0.666473  0.476863  1
  Al  Al10  1  0.163231  0.327533  0.575027  1
  Al  Al11  1  0.835420  0.671483  0.426188  1
  Al  Al12  1  0.673852  0.837739  0.571661  1
  Al  Al13  1  0.847972  0.676129  0.079336  1
  Al  Al14  1  0.327288  0.163943  0.429800  1
  Al  Al15  1  0.150420  0.322593  0.919225  1
  Al  Al16  1  0.163949  0.836608  0.576461  1
  Al  Al17  1  0.318647  0.159851  0.082654  1
  Al  Al18  1  0.836403  0.163443  0.425669  1
  Al  Al19  1  0.682189  0.841636  0.916095  1
  Al  Al20  1  0.847809  0.171450  0.079406  1
  Al  Al21  1  0.152006  0.828378  0.918835  1
  Al  Al22  1  0.565325  0.128802  0.257421  1
  Al  Al23  1  0.436796  0.872476  0.743108  1
  Al  Al24  1  0.877243  0.438368  0.249556  1
  Al  Al25  1  0.121615  0.559783  0.750211  1
  Al  Al26  1  0.564727  0.435908  0.257746  1
  Al  Al27  1  0.435272  0.564035  0.742611  1
  Al  Al28  1  0.996496  0.998859  0.250910  1
  Al  Al29  1  0.001812  0.002539  0.748976  1
  Ru  Ru30  1  0.999465  0.498982  0.999124  1
  Ru  Ru31  1  0.501035  0.000454  0.500801  1
  Ru  Ru32  1  0.999655  0.499105  0.500613  1
  Ru  Ru33  1  0.500271  0.500077  0.500332  1
  Ru  Ru34  1  0.000072  0.999832  0.999912  1
  Ru  Ru35  1  0.000412  0.999941  0.499984  1
  Au  Au36  1  0.500330  0.999884  0.999944  1
  Au  Au37  1  0.500435  0.499959  0.999727  1
