# generated using pymatgen
data_Dy20(OsRh3)3
_symmetry_space_group_name_H-M   'P 1'
_cell_length_a   10.88949500
_cell_length_b   10.88949500
_cell_length_c   6.39720700
_cell_angle_alpha   90.00000000
_cell_angle_beta   90.00000000
_cell_angle_gamma   90.00000000
_symmetry_Int_Tables_number   1
_chemical_formula_structural   Dy20(OsRh3)3
_chemical_formula_sum   'Dy20 Os3 Rh9'
_cell_volume   758.58785166
_cell_formula_units_Z   1
loop_
 _symmetry_equiv_pos_site_id
 _symmetry_equiv_pos_as_xyz
  1  'x, y, z'
loop_
 _atom_site_type_symbol
 _atom_site_label
 _atom_site_symmetry_multiplicity
 _atom_site_fract_x
 _atom_site_fract_y
 _atom_site_fract_z
 _atom_site_occupancy
  Dy  Dy0  1  0.295007  0.086484  0.377693  1
  Dy  Dy1  1  0.295095  0.913874  0.877782  1
  Dy  Dy2  1  0.704905  0.086126  0.877782  1
  Dy  Dy3  1  0.704993  0.913516  0.377693  1
  Dy  Dy4  1  0.586126  0.795095  0.877782  1
  Dy  Dy5  1  0.586484  0.204993  0.377693  1
  Dy  Dy6  1  0.413516  0.795007  0.377693  1
  Dy  Dy7  1  0.413874  0.204905  0.877782  1
  Dy  Dy8  1  0.207498  0.412634  0.625069  1
  Dy  Dy9  1  0.207045  0.587523  0.118380  1
  Dy  Dy10  1  0.792955  0.412477  0.118380  1
  Dy  Dy11  1  0.792502  0.587366  0.625069  1
  Dy  Dy12  1  0.912477  0.707045  0.118380  1
  Dy  Dy13  1  0.912634  0.292502  0.625069  1
  Dy  Dy14  1  0.087366  0.707498  0.625069  1
  Dy  Dy15  1  0.087523  0.292955  0.118380  1
  Dy  Dy16  1  0.000000  0.000000  0.499297  1
  Dy  Dy17  1  0.000000  0.000000  0.999969  1
  Dy  Dy18  1  0.500000  0.500000  0.999969  1
  Dy  Dy19  1  0.500000  0.500000  0.499297  1
  Os  Os20  1  0.500000  0.000000  0.124744  1
  Os  Os21  1  0.500000  0.000000  0.624431  1
  Os  Os22  1  0.000000  0.500000  0.875922  1
  Rh  Rh23  1  0.849132  0.153177  0.250708  1
  Rh  Rh24  1  0.848924  0.847117  0.750011  1
  Rh  Rh25  1  0.151076  0.152883  0.750011  1
  Rh  Rh26  1  0.150868  0.846823  0.250708  1
  Rh  Rh27  1  0.652883  0.348924  0.750011  1
  Rh  Rh28  1  0.653177  0.650868  0.250708  1
  Rh  Rh29  1  0.346823  0.349132  0.250708  1
  Rh  Rh30  1  0.347117  0.651076  0.750011  1
  Rh  Rh31  1  0.000000  0.500000  0.377795  1
