# generated using pymatgen
data_Sm7Lu3(Tl3Cl)2
_symmetry_space_group_name_H-M   'P 1'
_cell_length_a   9.32135600
_cell_length_b   9.32135455
_cell_length_c   6.65951200
_cell_angle_alpha   90.00000000
_cell_angle_beta   90.00000000
_cell_angle_gamma   119.99999804
_symmetry_Int_Tables_number   1
_chemical_formula_structural   Sm7Lu3(Tl3Cl)2
_chemical_formula_sum   'Sm7 Lu3 Tl6 Cl2'
_cell_volume   501.10780633
_cell_formula_units_Z   1
loop_
 _symmetry_equiv_pos_site_id
 _symmetry_equiv_pos_as_xyz
  1  'x, y, z'
loop_
 _atom_site_type_symbol
 _atom_site_label
 _atom_site_symmetry_multiplicity
 _atom_site_fract_x
 _atom_site_fract_y
 _atom_site_fract_z
 _atom_site_occupancy
  Sm  Sm0  1  0.333333  0.666667  0.500000  1
  Sm  Sm1  1  0.260927  0.000592  0.249305  1
  Sm  Sm2  1  0.739665  0.000592  0.750695  1
  Sm  Sm3  1  0.999408  0.260335  0.249305  1
  Sm  Sm4  1  0.999408  0.739073  0.750695  1
  Sm  Sm5  1  0.739665  0.739073  0.249305  1
  Sm  Sm6  1  0.260927  0.260335  0.750695  1
  Lu  Lu7  1  0.333333  0.666667  0.000000  1
  Lu  Lu8  1  0.666667  0.333333  0.000000  1
  Lu  Lu9  1  0.666667  0.333333  0.500000  1
  Tl  Tl10  1  0.606992  0.002970  0.248736  1
  Tl  Tl11  1  0.395978  0.002970  0.751264  1
  Tl  Tl12  1  0.997030  0.604022  0.248736  1
  Tl  Tl13  1  0.997030  0.393008  0.751264  1
  Tl  Tl14  1  0.395978  0.393008  0.248736  1
  Tl  Tl15  1  0.606992  0.604022  0.751264  1
  Cl  Cl16  1  0.000000  0.000000  0.000000  1
  Cl  Cl17  1  0.000000  0.000000  0.500000  1
