# generated using pymatgen
data_Ho3TmFe4Co8(P3Ru2)4
_symmetry_space_group_name_H-M   'P 1'
_cell_length_a   3.75035200
_cell_length_b   10.44647950
_cell_length_c   11.97307300
_cell_angle_alpha   90.03963243
_cell_angle_beta   90.00000000
_cell_angle_gamma   90.00000000
_symmetry_Int_Tables_number   1
_chemical_formula_structural   Ho3TmFe4Co8(P3Ru2)4
_chemical_formula_sum   'Ho3 Tm1 Fe4 Co8 P12 Ru8'
_cell_volume   469.08064583
_cell_formula_units_Z   1
loop_
 _symmetry_equiv_pos_site_id
 _symmetry_equiv_pos_as_xyz
  1  'x, y, z'
loop_
 _atom_site_type_symbol
 _atom_site_label
 _atom_site_symmetry_multiplicity
 _atom_site_fract_x
 _atom_site_fract_y
 _atom_site_fract_z
 _atom_site_occupancy
  Ho  Ho0  1  0.250000  0.582662  0.709306  1
  Ho  Ho1  1  0.250000  0.917450  0.209323  1
  Ho  Ho2  1  0.750000  0.417379  0.290638  1
  Tm  Tm3  1  0.750000  0.082526  0.790887  1
  Fe  Fe4  1  0.250000  0.461900  0.933471  1
  Fe  Fe5  1  0.250000  0.037810  0.434279  1
  Fe  Fe6  1  0.750000  0.537761  0.066118  1
  Fe  Fe7  1  0.750000  0.962613  0.566903  1
  Co  Co8  1  0.250000  0.226039  0.177190  1
  Co  Co9  1  0.250000  0.273134  0.677333  1
  Co  Co10  1  0.750000  0.773744  0.822612  1
  Co  Co11  1  0.750000  0.726488  0.322667  1
  Co  Co12  1  0.250000  0.881316  0.700854  1
  Co  Co13  1  0.250000  0.619215  0.200300  1
  Co  Co14  1  0.750000  0.119120  0.299849  1
  Co  Co15  1  0.750000  0.380305  0.799448  1
  P  P16  1  0.250000  0.425586  0.112467  1
  P  P17  1  0.250000  0.074236  0.613553  1
  P  P18  1  0.750000  0.574074  0.887178  1
  P  P19  1  0.750000  0.925831  0.387774  1
  P  P20  1  0.250000  0.271284  0.862264  1
  P  P21  1  0.250000  0.227937  0.362865  1
  P  P22  1  0.750000  0.728201  0.137093  1
  P  P23  1  0.750000  0.771956  0.637300  1
  P  P24  1  0.250000  0.602116  0.386910  1
  P  P25  1  0.250000  0.898476  0.886682  1
  P  P26  1  0.750000  0.398098  0.612975  1
  P  P27  1  0.750000  0.102060  0.113008  1
  Ru  Ru28  1  0.250000  0.704145  0.984029  1
  Ru  Ru29  1  0.250000  0.796281  0.484615  1
  Ru  Ru30  1  0.750000  0.295870  0.015572  1
  Ru  Ru31  1  0.750000  0.203959  0.515743  1
  Ru  Ru32  1  0.250000  0.402606  0.485145  1
  Ru  Ru33  1  0.250000  0.097464  0.984127  1
  Ru  Ru34  1  0.750000  0.597561  0.514863  1
  Ru  Ru35  1  0.750000  0.902798  0.014659  1
