# generated using pymatgen
data_LiZr7(Si4Ru3)4
_symmetry_space_group_name_H-M   'P 1'
_cell_length_a   9.91806087
_cell_length_b   9.91742943
_cell_length_c   13.38535079
_cell_angle_alpha   53.77446996
_cell_angle_beta   126.11017745
_cell_angle_gamma   148.66651035
_symmetry_Int_Tables_number   1
_chemical_formula_structural   LiZr7(Si4Ru3)4
_chemical_formula_sum   'Li1 Zr7 Si16 Ru12'
_cell_volume   540.97420648
_cell_formula_units_Z   1
loop_
 _symmetry_equiv_pos_site_id
 _symmetry_equiv_pos_as_xyz
  1  'x, y, z'
loop_
 _atom_site_type_symbol
 _atom_site_label
 _atom_site_symmetry_multiplicity
 _atom_site_fract_x
 _atom_site_fract_y
 _atom_site_fract_z
 _atom_site_occupancy
  Li  Li0  1  0.559379  0.700813  0.353423  1
  Zr  Zr1  1  0.703650  0.556777  0.149042  1
  Zr  Zr2  1  0.444923  0.304904  0.640306  1
  Zr  Zr3  1  0.295730  0.443871  0.852171  1
  Zr  Zr4  1  0.296908  0.961646  0.363860  1
  Zr  Zr5  1  0.958759  0.292103  0.137872  1
  Zr  Zr6  1  0.703314  0.037720  0.634266  1
  Zr  Zr7  1  0.042420  0.707352  0.865071  1
  Si  Si8  1  0.571066  0.905297  0.429611  1
  Si  Si9  1  0.920758  0.577550  0.066257  1
  Si  Si10  1  0.428614  0.087763  0.563623  1
  Si  Si11  1  0.082023  0.424928  0.933738  1
  Si  Si12  1  0.391989  0.850364  0.112760  1
  Si  Si13  1  0.854035  0.382595  0.396717  1
  Si  Si14  1  0.609907  0.142377  0.894775  1
  Si  Si15  1  0.141532  0.612322  0.602834  1
  Si  Si16  1  0.255031  0.030321  0.104920  1
  Si  Si17  1  0.035035  0.260247  0.393713  1
  Si  Si18  1  0.745799  0.972981  0.893733  1
  Si  Si19  1  0.981442  0.753732  0.608532  1
  Si  Si20  1  0.380514  0.382302  0.252341  1
  Si  Si21  1  0.616018  0.616677  0.751091  1
  Si  Si22  1  0.866279  0.870545  0.252353  1
  Si  Si23  1  0.126768  0.127181  0.749156  1
  Ru  Ru24  1  0.645943  0.171647  0.216931  1
  Ru  Ru25  1  0.167302  0.648565  0.280098  1
  Ru  Ru26  1  0.353866  0.831657  0.779692  1
  Ru  Ru27  1  0.829795  0.355207  0.718459  1
  Ru  Ru28  1  0.512127  0.756664  0.065812  1
  Ru  Ru29  1  0.761552  0.514914  0.432877  1
  Ru  Ru30  1  0.484400  0.241050  0.931075  1
  Ru  Ru31  1  0.239912  0.484844  0.567667  1
  Ru  Ru32  1  0.137765  0.095627  0.416023  1
  Ru  Ru33  1  0.093939  0.137025  0.085813  1
  Ru  Ru34  1  0.858989  0.899251  0.588491  1
  Ru  Ru35  1  0.902514  0.861178  0.914889  1
