# generated using pymatgen
data_Ba4PuS6
_symmetry_space_group_name_H-M   'P 1'
_cell_length_a   8.73209503
_cell_length_b   8.73209530
_cell_length_c   8.73209625
_cell_angle_alpha   89.39265704
_cell_angle_beta   89.39265715
_cell_angle_gamma   89.39266615
_symmetry_Int_Tables_number   1
_chemical_formula_structural   Ba4PuS6
_chemical_formula_sum   'Ba8 Pu2 S12'
_cell_volume   665.70642007
_cell_formula_units_Z   2
loop_
 _symmetry_equiv_pos_site_id
 _symmetry_equiv_pos_as_xyz
  1  'x, y, z'
loop_
 _atom_site_type_symbol
 _atom_site_label
 _atom_site_symmetry_multiplicity
 _atom_site_fract_x
 _atom_site_fract_y
 _atom_site_fract_z
 _atom_site_occupancy
  Ba  Ba0  1  0.876658  0.623342  0.250000  1
  Ba  Ba1  1  0.250000  0.876658  0.623342  1
  Ba  Ba2  1  0.623342  0.250000  0.876658  1
  Ba  Ba3  1  0.750000  0.123342  0.376658  1
  Ba  Ba4  1  0.376658  0.750000  0.123342  1
  Ba  Ba5  1  0.123342  0.376658  0.750000  1
  Ba  Ba6  1  0.250000  0.250000  0.250000  1
  Ba  Ba7  1  0.750000  0.750000  0.750000  1
  Pu  Pu8  1  0.500000  0.500000  0.500000  1
  Pu  Pu9  1  0.000000  0.000000  0.000000  1
  S  S10  1  0.206051  0.561110  0.424728  1
  S  S11  1  0.424728  0.206051  0.561110  1
  S  S12  1  0.561110  0.424728  0.206051  1
  S  S13  1  0.924728  0.061110  0.706051  1
  S  S14  1  0.706051  0.924728  0.061110  1
  S  S15  1  0.061110  0.706051  0.924728  1
  S  S16  1  0.793949  0.438890  0.575272  1
  S  S17  1  0.575272  0.793949  0.438890  1
  S  S18  1  0.438890  0.575272  0.793949  1
  S  S19  1  0.075272  0.938890  0.293949  1
  S  S20  1  0.293949  0.075272  0.938890  1
  S  S21  1  0.938890  0.293949  0.075272  1
