# generated using pymatgen
data_Pa3Ru5
_symmetry_space_group_name_H-M   'P 1'
_cell_length_a   4.19269951
_cell_length_b   4.11630066
_cell_length_c   10.12767812
_cell_angle_alpha   106.23278034
_cell_angle_beta   65.42291051
_cell_angle_gamma   90.03825250
_symmetry_Int_Tables_number   1
_chemical_formula_structural   Pa3Ru5
_chemical_formula_sum   'Pa3 Ru5'
_cell_volume   151.27209446
_cell_formula_units_Z   1
loop_
 _symmetry_equiv_pos_site_id
 _symmetry_equiv_pos_as_xyz
  1  'x, y, z'
loop_
 _atom_site_type_symbol
 _atom_site_label
 _atom_site_symmetry_multiplicity
 _atom_site_fract_x
 _atom_site_fract_y
 _atom_site_fract_z
 _atom_site_occupancy
  Pa  Pa0  1  0.663537  0.659960  0.095415  1
  Pa  Pa1  1  0.913401  0.345891  0.345722  1
  Pa  Pa2  1  0.477849  0.640944  0.781643  1
  Ru  Ru3  1  0.686260  0.001603  0.573372  1
  Ru  Ru4  1  0.939045  0.185697  0.821036  1
  Ru  Ru5  1  0.183900  0.503985  0.575544  1
  Ru  Ru6  1  0.217436  0.150974  0.041656  1
  Ru  Ru7  1  0.392256  0.862740  0.366960  1
