# generated using pymatgen
data_Y6Ni17MoAs12
_symmetry_space_group_name_H-M   'P 1'
_cell_length_a   3.89839000
_cell_length_b   10.94422500
_cell_length_c   12.76632100
_cell_angle_alpha   90.00000000
_cell_angle_beta   90.00000000
_cell_angle_gamma   90.00000000
_symmetry_Int_Tables_number   1
_chemical_formula_structural   Y6Ni17MoAs12
_chemical_formula_sum   'Y6 Ni17 Mo1 As12'
_cell_volume   544.67326368
_cell_formula_units_Z   1
loop_
 _symmetry_equiv_pos_site_id
 _symmetry_equiv_pos_as_xyz
  1  'x, y, z'
loop_
 _atom_site_type_symbol
 _atom_site_label
 _atom_site_symmetry_multiplicity
 _atom_site_fract_x
 _atom_site_fract_y
 _atom_site_fract_z
 _atom_site_occupancy
  Y  Y0  1  0.000000  0.500000  0.524466  1
  Y  Y1  1  0.500000  0.000000  0.478351  1
  Y  Y2  1  0.500000  0.818831  0.207754  1
  Y  Y3  1  0.500000  0.181169  0.207754  1
  Y  Y4  1  0.000000  0.684285  0.794090  1
  Y  Y5  1  0.000000  0.315715  0.794090  1
  Ni  Ni6  1  0.000000  0.000000  0.843431  1
  Ni  Ni7  1  0.500000  0.500000  0.700046  1
  Ni  Ni8  1  0.000000  0.000000  0.301900  1
  Ni  Ni9  1  0.000000  0.500000  0.983889  1
  Ni  Ni10  1  0.500000  0.000000  0.018217  1
  Ni  Ni11  1  0.500000  0.329571  0.992786  1
  Ni  Ni12  1  0.500000  0.670429  0.992786  1
  Ni  Ni13  1  0.000000  0.162594  0.003335  1
  Ni  Ni14  1  0.000000  0.837406  0.003335  1
  Ni  Ni15  1  0.500000  0.303241  0.426955  1
  Ni  Ni16  1  0.500000  0.696759  0.426955  1
  Ni  Ni17  1  0.000000  0.196697  0.573021  1
  Ni  Ni18  1  0.000000  0.803303  0.573021  1
  Ni  Ni19  1  0.500000  0.879042  0.707651  1
  Ni  Ni20  1  0.500000  0.120958  0.707651  1
  Ni  Ni21  1  0.000000  0.619782  0.291596  1
  Ni  Ni22  1  0.000000  0.380218  0.291596  1
  Mo  Mo23  1  0.500000  0.500000  0.150911  1
  As  As24  1  0.500000  0.500000  0.878494  1
  As  As25  1  0.000000  0.000000  0.124874  1
  As  As26  1  0.500000  0.500000  0.348153  1
  As  As27  1  0.000000  0.000000  0.654961  1
  As  As28  1  0.500000  0.313726  0.614294  1
  As  As29  1  0.500000  0.686274  0.614294  1
  As  As30  1  0.000000  0.185427  0.386737  1
  As  As31  1  0.000000  0.814573  0.386737  1
  As  As32  1  0.500000  0.849926  0.889775  1
  As  As33  1  0.500000  0.150074  0.889775  1
  As  As34  1  0.000000  0.658063  0.108159  1
  As  As35  1  0.000000  0.341937  0.108159  1
