# generated using pymatgen
data_Rb2MgTi(ZnAs2)2
_symmetry_space_group_name_H-M   'P 1'
_cell_length_a   8.00228407
_cell_length_b   8.00228404
_cell_length_c   5.97427500
_cell_angle_alpha   90.00000000
_cell_angle_beta   90.00000000
_cell_angle_gamma   136.09421941
_symmetry_Int_Tables_number   1
_chemical_formula_structural   Rb2MgTi(ZnAs2)2
_chemical_formula_sum   'Rb2 Mg1 Ti1 Zn2 As4'
_cell_volume   265.30390703
_cell_formula_units_Z   1
loop_
 _symmetry_equiv_pos_site_id
 _symmetry_equiv_pos_as_xyz
  1  'x, y, z'
loop_
 _atom_site_type_symbol
 _atom_site_label
 _atom_site_symmetry_multiplicity
 _atom_site_fract_x
 _atom_site_fract_y
 _atom_site_fract_z
 _atom_site_occupancy
  Rb  Rb0  1  0.500000  0.000000  0.254956  1
  Rb  Rb1  1  0.000000  0.500000  0.745044  1
  Mg  Mg2  1  0.500000  0.500000  0.500000  1
  Ti  Ti3  1  0.000000  0.000000  0.000000  1
  Zn  Zn4  1  0.500000  0.500000  0.000000  1
  Zn  Zn5  1  0.000000  0.000000  0.500000  1
  As  As6  1  0.662091  0.862790  0.763177  1
  As  As7  1  0.137210  0.337909  0.236823  1
  As  As8  1  0.862790  0.662091  0.236823  1
  As  As9  1  0.337909  0.137210  0.763177  1
