# generated using pymatgen
data_Tb12Nb5Re12(RuN16)3
_symmetry_space_group_name_H-M   'P 1'
_cell_length_a   11.11787541
_cell_length_b   11.10175977
_cell_length_c   11.10580755
_cell_angle_alpha   109.38395782
_cell_angle_beta   109.57819405
_cell_angle_gamma   109.58820536
_symmetry_Int_Tables_number   1
_chemical_formula_structural   Tb12Nb5Re12(RuN16)3
_chemical_formula_sum   'Tb12 Nb5 Re12 Ru3 N48'
_cell_volume   1053.43014489
_cell_formula_units_Z   1
loop_
 _symmetry_equiv_pos_site_id
 _symmetry_equiv_pos_as_xyz
  1  'x, y, z'
loop_
 _atom_site_type_symbol
 _atom_site_label
 _atom_site_symmetry_multiplicity
 _atom_site_fract_x
 _atom_site_fract_y
 _atom_site_fract_z
 _atom_site_occupancy
  Tb  Tb0  1  0.374541  0.749613  0.124902  1
  Tb  Tb1  1  0.249004  0.373126  0.126748  1
  Tb  Tb2  1  0.373795  0.126765  0.250022  1
  Tb  Tb3  1  0.876186  0.623565  0.251976  1
  Tb  Tb4  1  0.752171  0.129125  0.375030  1
  Tb  Tb5  1  0.125001  0.252527  0.373642  1
  Tb  Tb6  1  0.874995  0.747472  0.626357  1
  Tb  Tb7  1  0.247824  0.870867  0.624969  1
  Tb  Tb8  1  0.123817  0.376437  0.748031  1
  Tb  Tb9  1  0.626204  0.873234  0.749973  1
  Tb  Tb10  1  0.625465  0.250390  0.875098  1
  Tb  Tb11  1  0.750994  0.626875  0.873250  1
  Nb  Nb12  1  0.500000  0.000001  0.999999  1
  Nb  Nb13  1  0.000001  0.500002  0.000000  1
  Nb  Nb14  1  0.499993  0.499997  0.999998  1
  Nb  Nb15  1  0.000000  0.999996  0.500004  1
  Nb  Nb16  1  0.500000  0.999999  0.500007  1
  Re  Re17  1  0.875940  0.249261  0.125814  1
  Re  Re18  1  0.752415  0.875579  0.125523  1
  Re  Re19  1  0.626927  0.375696  0.252994  1
  Re  Re20  1  0.123958  0.874639  0.247644  1
  Re  Re21  1  0.252110  0.624737  0.377395  1
  Re  Re22  1  0.624926  0.748453  0.375502  1
  Re  Re23  1  0.375066  0.251555  0.624507  1
  Re  Re24  1  0.747891  0.375261  0.622602  1
  Re  Re25  1  0.876045  0.125363  0.752358  1
  Re  Re26  1  0.373075  0.624306  0.747005  1
  Re  Re27  1  0.247579  0.124417  0.874472  1
  Re  Re28  1  0.124062  0.750735  0.874183  1
  Ru  Ru29  1  0.000001  0.999999  0.999998  1
  Ru  Ru30  1  0.000004  0.500002  0.499999  1
  Ru  Ru31  1  0.500000  0.500003  0.499998  1
  N  N32  1  0.315145  0.901625  0.020297  1
  N  N33  1  0.202009  0.115411  0.015965  1
  N  N34  1  0.881338  0.400116  0.085676  1
  N  N35  1  0.707971  0.684728  0.086487  1
  N  N36  1  0.620509  0.415733  0.100309  1
  N  N37  1  0.978599  0.684502  0.097531  1
  N  N38  1  0.019957  0.204993  0.120121  1
  N  N39  1  0.600639  0.914078  0.118451  1
  N  N40  1  0.205727  0.584963  0.184967  1
  N  N41  1  0.479884  0.598401  0.184982  1
  N  N42  1  0.115626  0.016151  0.201799  1
  N  N43  1  0.584500  0.183834  0.205485  1
  N  N44  1  0.314727  0.913893  0.292814  1
  N  N45  1  0.484907  0.384278  0.299197  1
  N  N46  1  0.914939  0.295562  0.314763  1
  N  N47  1  0.902557  0.021818  0.314984  1
  N  N48  1  0.299077  0.484314  0.385588  1
  N  N49  1  0.585984  0.900214  0.381514  1
  N  N50  1  0.815641  0.515349  0.401073  1
  N  N51  1  0.085418  0.881289  0.399887  1
  N  N52  1  0.101515  0.615046  0.415197  1
  N  N53  1  0.814900  0.792073  0.413576  1
  N  N54  1  0.598227  0.183051  0.476774  1
  N  N55  1  0.384622  0.297651  0.483597  1
  N  N56  1  0.615381  0.702357  0.516411  1
  N  N57  1  0.401778  0.816948  0.523224  1
  N  N58  1  0.185095  0.207927  0.586430  1
  N  N59  1  0.898489  0.384958  0.584803  1
  N  N60  1  0.914580  0.118712  0.600114  1
  N  N61  1  0.184359  0.484662  0.598928  1
  N  N62  1  0.414014  0.099793  0.618480  1
  N  N63  1  0.700921  0.515681  0.614406  1
  N  N64  1  0.085067  0.704436  0.685235  1
  N  N65  1  0.097434  0.978168  0.685014  1
  N  N66  1  0.515091  0.615719  0.700797  1
  N  N67  1  0.685271  0.086104  0.707181  1
  N  N68  1  0.884373  0.983852  0.798207  1
  N  N69  1  0.415509  0.816170  0.794519  1
  N  N70  1  0.520119  0.401609  0.815023  1
  N  N71  1  0.794274  0.415034  0.815032  1
  N  N72  1  0.399356  0.085917  0.881549  1
  N  N73  1  0.980045  0.795004  0.879875  1
  N  N74  1  0.021405  0.315498  0.902473  1
  N  N75  1  0.379493  0.584265  0.899689  1
  N  N76  1  0.292028  0.315274  0.913520  1
  N  N77  1  0.118671  0.599882  0.914324  1
  N  N78  1  0.684857  0.098376  0.979700  1
  N  N79  1  0.797984  0.884584  0.984027  1
