# generated using pymatgen
data_Dy2Ho2Ga12Au
_symmetry_space_group_name_H-M   'P 1'
_cell_length_a   7.53535056
_cell_length_b   7.52986547
_cell_length_c   7.52986528
_cell_angle_alpha   109.43998990
_cell_angle_beta   109.47207616
_cell_angle_gamma   109.47207736
_symmetry_Int_Tables_number   1
_chemical_formula_structural   Dy2Ho2Ga12Au
_chemical_formula_sum   'Dy2 Ho2 Ga12 Au1'
_cell_volume   329.01376774
_cell_formula_units_Z   1
loop_
 _symmetry_equiv_pos_site_id
 _symmetry_equiv_pos_as_xyz
  1  'x, y, z'
loop_
 _atom_site_type_symbol
 _atom_site_label
 _atom_site_symmetry_multiplicity
 _atom_site_fract_x
 _atom_site_fract_y
 _atom_site_fract_z
 _atom_site_occupancy
  Dy  Dy0  1  0.000000  0.000000  0.500000  1
  Dy  Dy1  1  0.000000  0.500000  0.000000  1
  Ho  Ho2  1  0.500000  0.500000  0.500000  1
  Ho  Ho3  1  0.500000  0.000000  0.000000  1
  Ga  Ga4  1  0.500000  0.750000  0.250000  1
  Ga  Ga5  1  0.500000  0.250000  0.750000  1
  Ga  Ga6  1  0.250099  0.500095  0.750004  1
  Ga  Ga7  1  0.749901  0.499905  0.249996  1
  Ga  Ga8  1  0.749901  0.249996  0.499905  1
  Ga  Ga9  1  0.250099  0.750004  0.500095  1
  Ga  Ga10  1  0.000000  0.304432  0.304432  1
  Ga  Ga11  1  0.000000  0.695568  0.695568  1
  Ga  Ga12  1  0.304500  0.000068  0.304432  1
  Ga  Ga13  1  0.695500  0.999932  0.695568  1
  Ga  Ga14  1  0.304500  0.304432  0.000068  1
  Ga  Ga15  1  0.695500  0.695568  0.999932  1
  Au  Au16  1  0.000000  0.000000  0.000000  1
