# generated using pymatgen
data_Dy5Tl2Os
_symmetry_space_group_name_H-M   'P 1'
_cell_length_a   7.72970500
_cell_length_b   9.07700400
_cell_length_c   12.60282200
_cell_angle_alpha   90.00000000
_cell_angle_beta   90.00000000
_cell_angle_gamma   90.00000000
_symmetry_Int_Tables_number   1
_chemical_formula_structural   Dy5Tl2Os
_chemical_formula_sum   'Dy20 Tl8 Os4'
_cell_volume   884.24629512
_cell_formula_units_Z   4
loop_
 _symmetry_equiv_pos_site_id
 _symmetry_equiv_pos_as_xyz
  1  'x, y, z'
loop_
 _atom_site_type_symbol
 _atom_site_label
 _atom_site_symmetry_multiplicity
 _atom_site_fract_x
 _atom_site_fract_y
 _atom_site_fract_z
 _atom_site_occupancy
  Dy  Dy0  1  0.846436  0.750000  0.775431  1
  Dy  Dy1  1  0.153564  0.250000  0.224569  1
  Dy  Dy2  1  0.346436  0.250000  0.724569  1
  Dy  Dy3  1  0.653564  0.750000  0.275431  1
  Dy  Dy4  1  0.394525  0.750000  0.686658  1
  Dy  Dy5  1  0.605475  0.250000  0.313342  1
  Dy  Dy6  1  0.894525  0.250000  0.813342  1
  Dy  Dy7  1  0.105475  0.750000  0.186658  1
  Dy  Dy8  1  0.945932  0.750000  0.499345  1
  Dy  Dy9  1  0.054068  0.250000  0.500655  1
  Dy  Dy10  1  0.445932  0.250000  0.000655  1
  Dy  Dy11  1  0.554068  0.750000  0.999345  1
  Dy  Dy12  1  0.671922  0.038669  0.576072  1
  Dy  Dy13  1  0.328078  0.961331  0.423928  1
  Dy  Dy14  1  0.171922  0.961331  0.923928  1
  Dy  Dy15  1  0.328078  0.538669  0.423928  1
  Dy  Dy16  1  0.828078  0.038669  0.076072  1
  Dy  Dy17  1  0.671922  0.461331  0.576072  1
  Dy  Dy18  1  0.828078  0.461331  0.076072  1
  Dy  Dy19  1  0.171922  0.538669  0.923928  1
  Tl  Tl20  1  0.588139  0.489915  0.835348  1
  Tl  Tl21  1  0.411861  0.510085  0.164652  1
  Tl  Tl22  1  0.088139  0.510085  0.664652  1
  Tl  Tl23  1  0.411861  0.989915  0.164652  1
  Tl  Tl24  1  0.911861  0.489915  0.335348  1
  Tl  Tl25  1  0.588139  0.010085  0.835348  1
  Tl  Tl26  1  0.911861  0.010085  0.335348  1
  Tl  Tl27  1  0.088139  0.989915  0.664652  1
  Os  Os28  1  0.581823  0.750000  0.497059  1
  Os  Os29  1  0.418177  0.250000  0.502941  1
  Os  Os30  1  0.081823  0.250000  0.002941  1
  Os  Os31  1  0.918177  0.750000  0.997059  1
