# generated using pymatgen
data_Nd4Gd2OsI10
_symmetry_space_group_name_H-M   'P 1'
_cell_length_a   7.96591845
_cell_length_b   10.00787991
_cell_length_c   9.99089800
_cell_angle_alpha   107.27263459
_cell_angle_beta   96.33326950
_cell_angle_gamma   104.61439185
_symmetry_Int_Tables_number   1
_chemical_formula_structural   Nd4Gd2OsI10
_chemical_formula_sum   'Nd4 Gd2 Os1 I10'
_cell_volume   721.02753892
_cell_formula_units_Z   1
loop_
 _symmetry_equiv_pos_site_id
 _symmetry_equiv_pos_as_xyz
  1  'x, y, z'
loop_
 _atom_site_type_symbol
 _atom_site_label
 _atom_site_symmetry_multiplicity
 _atom_site_fract_x
 _atom_site_fract_y
 _atom_site_fract_z
 _atom_site_occupancy
  Nd  Nd0  1  0.116912  0.042249  0.759565  1
  Nd  Nd1  1  0.883088  0.957751  0.240435  1
  Nd  Nd2  1  0.967678  0.281106  0.083754  1
  Nd  Nd3  1  0.032322  0.718894  0.916246  1
  Gd  Gd4  1  0.352678  0.126292  0.168010  1
  Gd  Gd5  1  0.647322  0.873708  0.831990  1
  Os  Os6  1  0.000000  0.000000  0.000000  1
  I  I7  1  0.350404  0.445446  0.270291  1
  I  I8  1  0.649596  0.554554  0.729709  1
  I  I9  1  0.258606  0.086068  0.455106  1
  I  I10  1  0.741394  0.913932  0.544894  1
  I  I11  1  0.086985  0.368542  0.818458  1
  I  I12  1  0.913015  0.631458  0.181542  1
  I  I13  1  0.454168  0.818755  0.090470  1
  I  I14  1  0.545832  0.181245  0.909530  1
  I  I15  1  0.775208  0.255372  0.345969  1
  I  I16  1  0.224792  0.744628  0.654031  1
