# generated using pymatgen
data_Yb4DySn3H
_symmetry_space_group_name_H-M   'P 1'
_cell_length_a   9.33858150
_cell_length_b   9.35049441
_cell_length_c   9.35463866
_cell_angle_alpha   128.81336325
_cell_angle_beta   128.86073177
_cell_angle_gamma   75.22047327
_symmetry_Int_Tables_number   1
_chemical_formula_structural   Yb4DySn3H
_chemical_formula_sum   'Yb8 Dy2 Sn6 H2'
_cell_volume   482.59148905
_cell_formula_units_Z   2
loop_
 _symmetry_equiv_pos_site_id
 _symmetry_equiv_pos_as_xyz
  1  'x, y, z'
loop_
 _atom_site_type_symbol
 _atom_site_label
 _atom_site_symmetry_multiplicity
 _atom_site_fract_x
 _atom_site_fract_y
 _atom_site_fract_z
 _atom_site_occupancy
  Yb  Yb0  1  0.498232  0.501988  0.000935  1
  Yb  Yb1  1  0.185247  0.683682  0.173016  1
  Yb  Yb2  1  0.009139  0.186846  0.501043  1
  Yb  Yb3  1  0.684290  0.507093  0.496996  1
  Yb  Yb4  1  0.490802  0.989316  0.178226  1
  Yb  Yb5  1  0.812317  0.313425  0.822703  1
  Yb  Yb6  1  0.988260  0.812601  0.497727  1
  Yb  Yb7  1  0.313269  0.489396  0.500007  1
  Dy  Dy8  1  0.003169  0.998024  0.000607  1
  Dy  Dy9  1  0.514296  0.013932  0.826186  1
  Sn  Sn10  1  0.250949  0.241027  0.995468  1
  Sn  Sn11  1  0.748072  0.759483  0.995115  1
  Sn  Sn12  1  0.871137  0.364259  0.235681  1
  Sn  Sn13  1  0.122063  0.629788  0.753962  1
  Sn  Sn14  1  0.366119  0.124886  0.497382  1
  Sn  Sn15  1  0.631915  0.873127  0.510112  1
  H  H16  1  0.260786  0.760956  0.512446  1
  H  H17  1  0.749939  0.250171  0.502388  1
