# generated using pymatgen
data_Dy3ErCd2CuNi3
_symmetry_space_group_name_H-M   'P 1'
_cell_length_a   7.39561569
_cell_length_b   7.39561467
_cell_length_c   3.63706200
_cell_angle_alpha   90.00000000
_cell_angle_beta   90.00000000
_cell_angle_gamma   90.17018509
_symmetry_Int_Tables_number   1
_chemical_formula_structural   Dy3ErCd2CuNi3
_chemical_formula_sum   'Dy3 Er1 Cd2 Cu1 Ni3'
_cell_volume   198.92867908
_cell_formula_units_Z   1
loop_
 _symmetry_equiv_pos_site_id
 _symmetry_equiv_pos_as_xyz
  1  'x, y, z'
loop_
 _atom_site_type_symbol
 _atom_site_label
 _atom_site_symmetry_multiplicity
 _atom_site_fract_x
 _atom_site_fract_y
 _atom_site_fract_z
 _atom_site_occupancy
  Dy  Dy0  1  0.685726  0.170606  0.500000  1
  Dy  Dy1  1  0.329394  0.814274  0.500000  1
  Dy  Dy2  1  0.825128  0.674872  0.500000  1
  Er  Er3  1  0.162139  0.337861  0.500000  1
  Cd  Cd4  1  0.005534  0.999235  0.000000  1
  Cd  Cd5  1  0.500765  0.494466  0.000000  1
  Cu  Cu6  1  0.378776  0.121224  0.000000  1
  Ni  Ni7  1  0.117663  0.623581  0.000000  1
  Ni  Ni8  1  0.876419  0.382337  0.000000  1
  Ni  Ni9  1  0.618455  0.881545  0.000000  1
