# generated using pymatgen
data_Cs4PaS4
_symmetry_space_group_name_H-M   'P 1'
_cell_length_a   8.55150245
_cell_length_b   8.49102105
_cell_length_c   12.75108003
_cell_angle_alpha   78.63898097
_cell_angle_beta   71.64838762
_cell_angle_gamma   66.86327526
_symmetry_Int_Tables_number   1
_chemical_formula_structural   Cs4PaS4
_chemical_formula_sum   'Cs8 Pa2 S8'
_cell_volume   805.24728657
_cell_formula_units_Z   2
loop_
 _symmetry_equiv_pos_site_id
 _symmetry_equiv_pos_as_xyz
  1  'x, y, z'
loop_
 _atom_site_type_symbol
 _atom_site_label
 _atom_site_symmetry_multiplicity
 _atom_site_fract_x
 _atom_site_fract_y
 _atom_site_fract_z
 _atom_site_occupancy
  Cs  Cs0  1  0.768523  0.248974  0.033389  1
  Cs  Cs1  1  0.580050  0.755239  0.161276  1
  Cs  Cs2  1  0.036056  0.783583  0.379502  1
  Cs  Cs3  1  0.501407  0.288495  0.435268  1
  Cs  Cs4  1  0.498523  0.711473  0.564761  1
  Cs  Cs5  1  0.963968  0.216403  0.620522  1
  Cs  Cs6  1  0.419969  0.244763  0.838737  1
  Cs  Cs7  1  0.231501  0.750991  0.966613  1
  Pa  Pa8  1  0.156187  0.273007  0.247144  1
  Pa  Pa9  1  0.843805  0.727064  0.752809  1
  S  S10  1  0.171946  0.105527  0.093165  1
  S  S11  1  0.344936  0.466860  0.188896  1
  S  S12  1  0.843743  0.456867  0.354409  1
  S  S13  1  0.302936  0.030122  0.380213  1
  S  S14  1  0.697002  0.969915  0.619752  1
  S  S15  1  0.156269  0.543071  0.645625  1
  S  S16  1  0.655099  0.533175  0.811114  1
  S  S17  1  0.828082  0.894473  0.906800  1
