# generated using pymatgen
data_Nd2Ga9Ir2Pt
_symmetry_space_group_name_H-M   'P 1'
_cell_length_a   7.69319062
_cell_length_b   7.69318780
_cell_length_c   9.59719800
_cell_angle_alpha   90.00000000
_cell_angle_beta   90.00000000
_cell_angle_gamma   119.75789867
_symmetry_Int_Tables_number   1
_chemical_formula_structural   Nd2Ga9Ir2Pt
_chemical_formula_sum   'Nd4 Ga18 Ir4 Pt2'
_cell_volume   493.10822499
_cell_formula_units_Z   2
loop_
 _symmetry_equiv_pos_site_id
 _symmetry_equiv_pos_as_xyz
  1  'x, y, z'
loop_
 _atom_site_type_symbol
 _atom_site_label
 _atom_site_symmetry_multiplicity
 _atom_site_fract_x
 _atom_site_fract_y
 _atom_site_fract_z
 _atom_site_occupancy
  Nd  Nd0  1  0.997414  0.671244  0.250000  1
  Nd  Nd1  1  0.002586  0.328756  0.750000  1
  Nd  Nd2  1  0.671244  0.997414  0.250000  1
  Nd  Nd3  1  0.328756  0.002586  0.750000  1
  Ga  Ga4  1  0.134190  0.134190  0.250000  1
  Ga  Ga5  1  0.865810  0.865810  0.750000  1
  Ga  Ga6  1  0.000767  0.338438  0.078488  1
  Ga  Ga7  1  0.999233  0.661562  0.921512  1
  Ga  Ga8  1  0.999233  0.661562  0.578488  1
  Ga  Ga9  1  0.338438  0.000767  0.421512  1
  Ga  Ga10  1  0.000767  0.338438  0.421512  1
  Ga  Ga11  1  0.661562  0.999233  0.578488  1
  Ga  Ga12  1  0.661562  0.999233  0.921512  1
  Ga  Ga13  1  0.338438  0.000767  0.078488  1
  Ga  Ga14  1  0.337573  0.337573  0.564660  1
  Ga  Ga15  1  0.662428  0.662428  0.435339  1
  Ga  Ga16  1  0.662427  0.662427  0.064660  1
  Ga  Ga17  1  0.337572  0.337572  0.935339  1
  Ga  Ga18  1  0.336886  0.545769  0.250000  1
  Ga  Ga19  1  0.663114  0.454231  0.750000  1
  Ga  Ga20  1  0.545769  0.336886  0.250000  1
  Ga  Ga21  1  0.454231  0.663114  0.750000  1
  Ir  Ir22  1  0.670480  0.329520  0.000000  1
  Ir  Ir23  1  0.329520  0.670480  0.000000  1
  Ir  Ir24  1  0.329520  0.670480  0.500000  1
  Ir  Ir25  1  0.670480  0.329520  0.500000  1
  Pt  Pt26  1  0.000000  0.000000  0.000000  1
  Pt  Pt27  1  0.000000  0.000000  0.500000  1
