# generated using pymatgen
data_Ac5Pr2Ho13Pb16
_symmetry_space_group_name_H-M   'P 1'
_cell_length_a   8.37791837
_cell_length_b   8.46629133
_cell_length_c   16.02818700
_cell_angle_alpha   89.96880851
_cell_angle_beta   90.43850797
_cell_angle_gamma   89.75418498
_symmetry_Int_Tables_number   1
_chemical_formula_structural   Ac5Pr2Ho13Pb16
_chemical_formula_sum   'Ac5 Pr2 Ho13 Pb16'
_cell_volume   1136.83371469
_cell_formula_units_Z   1
loop_
 _symmetry_equiv_pos_site_id
 _symmetry_equiv_pos_as_xyz
  1  'x, y, z'
loop_
 _atom_site_type_symbol
 _atom_site_label
 _atom_site_symmetry_multiplicity
 _atom_site_fract_x
 _atom_site_fract_y
 _atom_site_fract_z
 _atom_site_occupancy
  Ac  Ac0  1  0.981418  0.821322  0.901355  1
  Ac  Ac1  1  0.517869  0.326067  0.093831  1
  Ac  Ac2  1  0.019046  0.175106  0.408212  1
  Ac  Ac3  1  0.518018  0.325171  0.407936  1
  Ac  Ac4  1  0.015917  0.176526  0.092843  1
  Pr  Pr5  1  0.479673  0.677178  0.899612  1
  Pr  Pr6  1  0.976207  0.819642  0.600058  1
  Ho  Ho7  1  0.641324  0.155648  0.624369  1
  Ho  Ho8  1  0.145203  0.344607  0.873887  1
  Ho  Ho9  1  0.358860  0.839446  0.124091  1
  Ho  Ho10  1  0.862311  0.657883  0.380124  1
  Ho  Ho11  1  0.363484  0.842191  0.379491  1
  Ho  Ho12  1  0.856909  0.656923  0.121812  1
  Ho  Ho13  1  0.643672  0.157472  0.872047  1
  Ho  Ho14  1  0.143210  0.345150  0.623091  1
  Ho  Ho15  1  0.474982  0.679911  0.599630  1
  Ho  Ho16  1  0.807725  0.496106  0.748061  1
  Ho  Ho17  1  0.308058  0.003433  0.747370  1
  Ho  Ho18  1  0.194432  0.506485  0.250931  1
  Ho  Ho19  1  0.693031  0.994381  0.252300  1
  Pb  Pb20  1  0.698308  0.948440  0.460931  1
  Pb  Pb21  1  0.198041  0.549450  0.040897  1
  Pb  Pb22  1  0.311309  0.041014  0.952379  1
  Pb  Pb23  1  0.795406  0.467410  0.549296  1
  Pb  Pb24  1  0.301182  0.032614  0.548904  1
  Pb  Pb25  1  0.801458  0.456876  0.951371  1
  Pb  Pb26  1  0.686780  0.950245  0.041796  1
  Pb  Pb27  1  0.202043  0.554415  0.462273  1
  Pb  Pb28  1  0.447666  0.372187  0.748088  1
  Pb  Pb29  1  0.948848  0.131921  0.747709  1
  Pb  Pb30  1  0.555226  0.634078  0.252380  1
  Pb  Pb31  1  0.052415  0.864872  0.250023  1
  Pb  Pb32  1  0.662740  0.844821  0.746211  1
  Pb  Pb33  1  0.176164  0.649282  0.746049  1
  Pb  Pb34  1  0.329890  0.146555  0.250472  1
  Pb  Pb35  1  0.831172  0.355174  0.250170  1
