# generated using pymatgen
data_SbPdRuF12
_symmetry_space_group_name_H-M   'P 1'
_cell_length_a   5.33861213
_cell_length_b   5.63941902
_cell_length_c   9.23765800
_cell_angle_alpha   73.83102594
_cell_angle_beta   88.67515751
_cell_angle_gamma   62.37476050
_symmetry_Int_Tables_number   1
_chemical_formula_structural   SbPdRuF12
_chemical_formula_sum   'Sb1 Pd1 Ru1 F12'
_cell_volume   234.81962171
_cell_formula_units_Z   1
loop_
 _symmetry_equiv_pos_site_id
 _symmetry_equiv_pos_as_xyz
  1  'x, y, z'
loop_
 _atom_site_type_symbol
 _atom_site_label
 _atom_site_symmetry_multiplicity
 _atom_site_fract_x
 _atom_site_fract_y
 _atom_site_fract_z
 _atom_site_occupancy
  Sb  Sb0  1  0.227741  0.995519  0.760326  1
  Pd  Pd1  1  0.500475  0.503722  0.495393  1
  Ru  Ru2  1  0.774622  0.001054  0.245668  1
  F  F3  1  0.946358  0.228304  0.200273  1
  F  F4  1  0.052774  0.764094  0.793800  1
  F  F5  1  0.012683  0.764834  0.140442  1
  F  F6  1  0.474532  0.781241  0.629805  1
  F  F7  1  0.521711  0.222607  0.369988  1
  F  F8  1  0.962803  0.234785  0.569564  1
  F  F9  1  0.042875  0.764641  0.432061  1
  F  F10  1  0.407458  0.237369  0.692093  1
  F  F11  1  0.591548  0.760079  0.300866  1
  F  F12  1  0.513874  0.773685  0.927301  1
  F  F13  1  0.495203  0.224815  0.081349  1
  F  F14  1  0.975344  0.243250  0.861070  1
