# generated using pymatgen
data_LaNdPaSn7
_symmetry_space_group_name_H-M   'P 1'
_cell_length_a   12.88731330
_cell_length_b   12.88731179
_cell_length_c   4.57286800
_cell_angle_alpha   90.00000000
_cell_angle_beta   90.00000000
_cell_angle_gamma   158.75328990
_symmetry_Int_Tables_number   1
_chemical_formula_structural   LaNdPaSn7
_chemical_formula_sum   'La1 Nd1 Pa1 Sn7'
_cell_volume   275.22192473
_cell_formula_units_Z   1
loop_
 _symmetry_equiv_pos_site_id
 _symmetry_equiv_pos_as_xyz
  1  'x, y, z'
loop_
 _atom_site_type_symbol
 _atom_site_label
 _atom_site_symmetry_multiplicity
 _atom_site_fract_x
 _atom_site_fract_y
 _atom_site_fract_z
 _atom_site_occupancy
  La  La0  1  0.817431  0.182569  0.000000  1
  Nd  Nd1  1  0.181935  0.818065  0.000000  1
  Pa  Pa2  1  0.000424  0.999576  0.000000  1
  Sn  Sn3  1  0.289110  0.710890  0.500000  1
  Sn  Sn4  1  0.709665  0.290335  0.500000  1
  Sn  Sn5  1  0.407735  0.592265  0.000000  1
  Sn  Sn6  1  0.592761  0.407239  0.000000  1
  Sn  Sn7  1  0.092060  0.907940  0.500000  1
  Sn  Sn8  1  0.908895  0.091105  0.500000  1
  Sn  Sn9  1  0.499984  0.500016  0.500000  1
