# generated using pymatgen
data_Yb6CoReO12
_symmetry_space_group_name_H-M   'P 1'
_cell_length_a   5.75836083
_cell_length_b   5.41508252
_cell_length_c   9.51300022
_cell_angle_alpha   55.30678836
_cell_angle_beta   89.01440695
_cell_angle_gamma   90.39678558
_symmetry_Int_Tables_number   1
_chemical_formula_structural   Yb6CoReO12
_chemical_formula_sum   'Yb6 Co1 Re1 O12'
_cell_volume   243.80968102
_cell_formula_units_Z   1
loop_
 _symmetry_equiv_pos_site_id
 _symmetry_equiv_pos_as_xyz
  1  'x, y, z'
loop_
 _atom_site_type_symbol
 _atom_site_label
 _atom_site_symmetry_multiplicity
 _atom_site_fract_x
 _atom_site_fract_y
 _atom_site_fract_z
 _atom_site_occupancy
  Yb  Yb0  1  0.573814  0.254777  0.225317  1
  Yb  Yb1  1  0.059733  0.797763  0.217696  1
  Yb  Yb2  1  0.500000  0.000000  0.000000  1
  Yb  Yb3  1  0.000000  0.000000  0.500000  1
  Yb  Yb4  1  0.940267  0.202237  0.782304  1
  Yb  Yb5  1  0.426186  0.745223  0.774683  1
  Co  Co6  1  0.000000  0.500000  0.000000  1
  Re  Re7  1  0.500000  0.500000  0.500000  1
  O  O8  1  0.551767  0.396117  0.724118  1
  O  O9  1  0.040979  0.623152  0.776281  1
  O  O10  1  0.448233  0.603883  0.275882  1
  O  O11  1  0.959021  0.376848  0.223719  1
  O  O12  1  0.779282  0.738456  0.421570  1
  O  O13  1  0.278520  0.271192  0.053379  1
  O  O14  1  0.220718  0.261544  0.578430  1
  O  O15  1  0.721480  0.728808  0.946621  1
  O  O16  1  0.181586  0.827867  0.955251  1
  O  O17  1  0.667728  0.158084  0.554826  1
  O  O18  1  0.818414  0.172133  0.044749  1
  O  O19  1  0.332272  0.841916  0.445174  1
