# generated using pymatgen
data_TaBe3NiRu
_symmetry_space_group_name_H-M   'P 1'
_cell_length_a   4.47540588
_cell_length_b   4.47540569
_cell_length_c   4.47540620
_cell_angle_alpha   61.01727061
_cell_angle_beta   61.01726842
_cell_angle_gamma   61.01726639
_symmetry_Int_Tables_number   1
_chemical_formula_structural   TaBe3NiRu
_chemical_formula_sum   'Ta1 Be3 Ni1 Ru1'
_cell_volume   64.83659797
_cell_formula_units_Z   1
loop_
 _symmetry_equiv_pos_site_id
 _symmetry_equiv_pos_as_xyz
  1  'x, y, z'
loop_
 _atom_site_type_symbol
 _atom_site_label
 _atom_site_symmetry_multiplicity
 _atom_site_fract_x
 _atom_site_fract_y
 _atom_site_fract_z
 _atom_site_occupancy
  Ta  Ta0  1  0.248761  0.248761  0.248761  1
  Be  Be1  1  0.119670  0.626154  0.626154  1
  Be  Be2  1  0.626154  0.119670  0.626154  1
  Be  Be3  1  0.626154  0.626154  0.119670  1
  Ni  Ni4  1  0.622324  0.622324  0.622324  1
  Ru  Ru5  1  0.006937  0.006937  0.006937  1
