# generated using pymatgen
data_Li2Tm8Sc10Si15Ge
_symmetry_space_group_name_H-M   'P 1'
_cell_length_a   6.95646024
_cell_length_b   7.35630518
_cell_length_c   13.93127207
_cell_angle_alpha   90.01813114
_cell_angle_beta   89.94022449
_cell_angle_gamma   89.98542025
_symmetry_Int_Tables_number   1
_chemical_formula_structural   Li2Tm8Sc10Si15Ge
_chemical_formula_sum   'Li2 Tm8 Sc10 Si15 Ge1'
_cell_volume   712.91630320
_cell_formula_units_Z   1
loop_
 _symmetry_equiv_pos_site_id
 _symmetry_equiv_pos_as_xyz
  1  'x, y, z'
loop_
 _atom_site_type_symbol
 _atom_site_label
 _atom_site_symmetry_multiplicity
 _atom_site_fract_x
 _atom_site_fract_y
 _atom_site_fract_z
 _atom_site_occupancy
  Li  Li0  1  0.159879  0.506727  0.750280  1
  Li  Li1  1  0.840096  0.493329  0.250027  1
  Tm  Tm2  1  0.010187  0.184718  0.097985  1
  Tm  Tm3  1  0.989909  0.815282  0.901968  1
  Tm  Tm4  1  0.485291  0.674872  0.902926  1
  Tm  Tm5  1  0.989080  0.816509  0.598137  1
  Tm  Tm6  1  0.514639  0.325111  0.097031  1
  Tm  Tm7  1  0.009399  0.183796  0.401533  1
  Tm  Tm8  1  0.515566  0.324411  0.402440  1
  Tm  Tm9  1  0.486927  0.675958  0.597336  1
  Sc  Sc10  1  0.341349  0.004196  0.249916  1
  Sc  Sc11  1  0.658671  0.995760  0.750089  1
  Sc  Sc12  1  0.327318  0.179547  0.626796  1
  Sc  Sc13  1  0.673637  0.819068  0.373609  1
  Sc  Sc14  1  0.165342  0.675615  0.372533  1
  Sc  Sc15  1  0.673800  0.818845  0.126274  1
  Sc  Sc16  1  0.833040  0.324895  0.627085  1
  Sc  Sc17  1  0.326181  0.181213  0.873749  1
  Sc  Sc18  1  0.834263  0.325212  0.873077  1
  Sc  Sc19  1  0.165645  0.674793  0.126918  1
  Si  Si20  1  0.029157  0.099892  0.749977  1
  Si  Si21  1  0.970862  0.900331  0.249900  1
  Si  Si22  1  0.466559  0.610892  0.249988  1
  Si  Si23  1  0.533235  0.389041  0.749993  1
  Si  Si24  1  0.287063  0.876190  0.750018  1
  Si  Si25  1  0.712910  0.123633  0.249988  1
  Si  Si26  1  0.220165  0.371004  0.250050  1
  Si  Si27  1  0.779985  0.629004  0.749972  1
  Si  Si28  1  0.834857  0.539238  0.465874  1
  Si  Si29  1  0.341929  0.967042  0.461197  1
  Si  Si30  1  0.838863  0.538337  0.033388  1
  Si  Si31  1  0.658057  0.033110  0.538784  1
  Si  Si32  1  0.161201  0.461626  0.966650  1
  Si  Si33  1  0.657942  0.032917  0.961234  1
  Si  Si34  1  0.342066  0.967066  0.038780  1
  Ge  Ge35  1  0.164931  0.460820  0.534497  1
