# generated using pymatgen
data_Tb11Cd(Hg2Pd)4
_symmetry_space_group_name_H-M   'P 1'
_cell_length_a   13.16664170
_cell_length_b   13.16664153
_cell_length_c   3.70003400
_cell_angle_alpha   90.00000000
_cell_angle_beta   90.00000000
_cell_angle_gamma   112.48812723
_symmetry_Int_Tables_number   1
_chemical_formula_structural   Tb11Cd(Hg2Pd)4
_chemical_formula_sum   'Tb11 Cd1 Hg8 Pd4'
_cell_volume   592.66373765
_cell_formula_units_Z   1
loop_
 _symmetry_equiv_pos_site_id
 _symmetry_equiv_pos_as_xyz
  1  'x, y, z'
loop_
 _atom_site_type_symbol
 _atom_site_label
 _atom_site_symmetry_multiplicity
 _atom_site_fract_x
 _atom_site_fract_y
 _atom_site_fract_z
 _atom_site_occupancy
  Tb  Tb0  1  0.415496  0.075449  0.000000  1
  Tb  Tb1  1  0.584504  0.924551  0.000000  1
  Tb  Tb2  1  0.075449  0.415496  0.000000  1
  Tb  Tb3  1  0.924551  0.584504  0.000000  1
  Tb  Tb4  1  0.166461  0.833539  0.000000  1
  Tb  Tb5  1  0.833539  0.166461  0.000000  1
  Tb  Tb6  1  0.371131  0.628869  0.000000  1
  Tb  Tb7  1  0.628869  0.371131  0.000000  1
  Tb  Tb8  1  0.299062  0.299062  0.000000  1
  Tb  Tb9  1  0.700938  0.700938  0.000000  1
  Tb  Tb10  1  0.000000  0.000000  0.000000  1
  Cd  Cd11  1  0.500000  0.500000  0.500000  1
  Hg  Hg12  1  0.369409  0.844313  0.500000  1
  Hg  Hg13  1  0.630591  0.155687  0.500000  1
  Hg  Hg14  1  0.844315  0.369409  0.500000  1
  Hg  Hg15  1  0.155685  0.630591  0.500000  1
  Hg  Hg16  1  0.213306  0.063851  0.500000  1
  Hg  Hg17  1  0.786694  0.936149  0.500000  1
  Hg  Hg18  1  0.063850  0.213305  0.500000  1
  Hg  Hg19  1  0.936150  0.786695  0.500000  1
  Pd  Pd20  1  0.448711  0.250915  0.500000  1
  Pd  Pd21  1  0.551289  0.749085  0.500000  1
  Pd  Pd22  1  0.250916  0.448711  0.500000  1
  Pd  Pd23  1  0.749084  0.551289  0.500000  1
