# generated using pymatgen
data_Zr10In3Bi3S2
_symmetry_space_group_name_H-M   'P 1'
_cell_length_a   8.69926800
_cell_length_b   8.69220824
_cell_length_c   6.31240600
_cell_angle_alpha   90.00000000
_cell_angle_beta   90.00000000
_cell_angle_gamma   120.40558019
_symmetry_Int_Tables_number   1
_chemical_formula_structural   Zr10In3Bi3S2
_chemical_formula_sum   'Zr10 In3 Bi3 S2'
_cell_volume   411.66972073
_cell_formula_units_Z   1
loop_
 _symmetry_equiv_pos_site_id
 _symmetry_equiv_pos_as_xyz
  1  'x, y, z'
loop_
 _atom_site_type_symbol
 _atom_site_label
 _atom_site_symmetry_multiplicity
 _atom_site_fract_x
 _atom_site_fract_y
 _atom_site_fract_z
 _atom_site_occupancy
  Zr  Zr0  1  0.247137  0.996161  0.750000  1
  Zr  Zr1  1  0.750933  0.000097  0.250000  1
  Zr  Zr2  1  0.996889  0.245903  0.750000  1
  Zr  Zr3  1  0.003490  0.757588  0.250000  1
  Zr  Zr4  1  0.757819  0.756702  0.750000  1
  Zr  Zr5  1  0.243888  0.240650  0.250000  1
  Zr  Zr6  1  0.333445  0.671266  0.502590  1
  Zr  Zr7  1  0.666881  0.329111  0.502665  1
  Zr  Zr8  1  0.666881  0.329111  0.997335  1
  Zr  Zr9  1  0.333445  0.671266  0.997410  1
  In  In10  1  0.600292  0.998985  0.750000  1
  In  In11  1  0.401074  0.000387  0.250000  1
  In  In12  1  0.998690  0.600375  0.750000  1
  Bi  Bi13  1  0.000932  0.402808  0.250000  1
  Bi  Bi14  1  0.398541  0.398729  0.750000  1
  Bi  Bi15  1  0.600312  0.599039  0.250000  1
  S  S16  1  0.999677  0.000911  0.500139  1
  S  S17  1  0.999677  0.000911  0.999861  1
