# generated using pymatgen
data_Sm4Ga18(PtRh)3
_symmetry_space_group_name_H-M   'P 1'
_cell_length_a   7.67565651
_cell_length_b   7.67565708
_cell_length_c   9.56425783
_cell_angle_alpha   89.97633008
_cell_angle_beta   89.97632734
_cell_angle_gamma   119.91434323
_symmetry_Int_Tables_number   1
_chemical_formula_structural   Sm4Ga18(PtRh)3
_chemical_formula_sum   'Sm4 Ga18 Pt3 Rh3'
_cell_volume   488.41282877
_cell_formula_units_Z   1
loop_
 _symmetry_equiv_pos_site_id
 _symmetry_equiv_pos_as_xyz
  1  'x, y, z'
loop_
 _atom_site_type_symbol
 _atom_site_label
 _atom_site_symmetry_multiplicity
 _atom_site_fract_x
 _atom_site_fract_y
 _atom_site_fract_z
 _atom_site_occupancy
  Sm  Sm0  1  0.995925  0.669220  0.249892  1
  Sm  Sm1  1  0.002449  0.329465  0.750414  1
  Sm  Sm2  1  0.670535  0.997551  0.249586  1
  Sm  Sm3  1  0.330780  0.004075  0.750108  1
  Ga  Ga4  1  0.133238  0.132079  0.250408  1
  Ga  Ga5  1  0.867921  0.866762  0.749592  1
  Ga  Ga6  1  0.004143  0.338194  0.079523  1
  Ga  Ga7  1  0.004559  0.665985  0.920848  1
  Ga  Ga8  1  0.000867  0.661880  0.577448  1
  Ga  Ga9  1  0.338120  0.999133  0.422552  1
  Ga  Ga10  1  0.999579  0.338002  0.422146  1
  Ga  Ga11  1  0.661998  0.000421  0.577854  1
  Ga  Ga12  1  0.661806  0.995857  0.920477  1
  Ga  Ga13  1  0.334015  0.995441  0.079152  1
  Ga  Ga14  1  0.336649  0.336830  0.563397  1
  Ga  Ga15  1  0.663170  0.663351  0.436603  1
  Ga  Ga16  1  0.662057  0.665666  0.065726  1
  Ga  Ga17  1  0.334334  0.337943  0.934274  1
  Ga  Ga18  1  0.337771  0.547196  0.250603  1
  Ga  Ga19  1  0.662738  0.456547  0.746509  1
  Ga  Ga20  1  0.543453  0.337262  0.253491  1
  Ga  Ga21  1  0.452804  0.662229  0.749397  1
  Pt  Pt22  1  0.670911  0.329089  0.000000  1
  Pt  Pt23  1  0.999885  0.000115  0.000000  1
  Pt  Pt24  1  0.999926  0.000074  0.500000  1
  Rh  Rh25  1  0.329881  0.670119  0.000000  1
  Rh  Rh26  1  0.329513  0.670487  0.500000  1
  Rh  Rh27  1  0.670975  0.329025  0.500000  1
