# generated using pymatgen
data_ReBi4Cl3O20
_symmetry_space_group_name_H-M   'P 1'
_cell_length_a   4.45067185
_cell_length_b   8.54926831
_cell_length_c   12.58684217
_cell_angle_alpha   88.69435845
_cell_angle_beta   87.58785732
_cell_angle_gamma   82.42339308
_symmetry_Int_Tables_number   1
_chemical_formula_structural   ReBi4Cl3O20
_chemical_formula_sum   'Re1 Bi4 Cl3 O20'
_cell_volume   474.25538090
_cell_formula_units_Z   1
loop_
 _symmetry_equiv_pos_site_id
 _symmetry_equiv_pos_as_xyz
  1  'x, y, z'
loop_
 _atom_site_type_symbol
 _atom_site_label
 _atom_site_symmetry_multiplicity
 _atom_site_fract_x
 _atom_site_fract_y
 _atom_site_fract_z
 _atom_site_occupancy
  Re  Re0  1  0.367659  0.434511  0.834861  1
  Bi  Bi1  1  0.186142  0.143189  0.070142  1
  Bi  Bi2  1  0.742519  0.876288  0.940204  1
  Bi  Bi3  1  0.705800  0.646959  0.432844  1
  Bi  Bi4  1  0.245093  0.359606  0.546464  1
  Cl  Cl5  1  0.808484  0.930673  0.666775  1
  Cl  Cl6  1  0.199410  0.054013  0.338288  1
  Cl  Cl7  1  0.662352  0.570513  0.164401  1
  O  O8  1  0.599888  0.425450  0.117227  1
  O  O9  1  0.159110  0.338024  0.933808  1
  O  O10  1  0.394093  0.672586  0.197088  1
  O  O11  1  0.736238  0.434839  0.526358  1
  O  O12  1  0.846777  0.524831  0.260970  1
  O  O13  1  0.402742  0.008029  0.244708  1
  O  O14  1  0.638415  0.847079  0.593695  1
  O  O15  1  0.370788  0.135450  0.413010  1
  O  O16  1  0.212511  0.569685  0.452042  1
  O  O17  1  0.891920  0.072557  0.615058  1
  O  O18  1  0.161613  0.475602  0.717226  1
  O  O19  1  0.460321  0.610773  0.883536  1
  O  O20  1  0.114399  0.911672  0.390076  1
  O  O21  1  0.598671  0.979872  0.760782  1
  O  O22  1  0.700857  0.088893  0.028371  1
  O  O23  1  0.245537  0.937791  0.974791  1
  O  O24  1  0.691548  0.310646  0.799919  1
  O  O25  1  0.851745  0.653248  0.088849  1
  O  O26  1  0.065025  0.827680  0.705308  1
  O  O27  1  0.940340  0.159540  0.303200  1
