# generated using pymatgen
data_TiNb4Rh18W
_symmetry_space_group_name_H-M   'P 1'
_cell_length_a   5.53121200
_cell_length_b   5.53121191
_cell_length_c   13.41796000
_cell_angle_alpha   90.00000000
_cell_angle_beta   90.00000000
_cell_angle_gamma   120.00000055
_symmetry_Int_Tables_number   1
_chemical_formula_structural   TiNb4Rh18W
_chemical_formula_sum   'Ti1 Nb4 Rh18 W1'
_cell_volume   355.51483174
_cell_formula_units_Z   1
loop_
 _symmetry_equiv_pos_site_id
 _symmetry_equiv_pos_as_xyz
  1  'x, y, z'
loop_
 _atom_site_type_symbol
 _atom_site_label
 _atom_site_symmetry_multiplicity
 _atom_site_fract_x
 _atom_site_fract_y
 _atom_site_fract_z
 _atom_site_occupancy
  Ti  Ti0  1  0.000000  0.000000  0.248711  1
  Nb  Nb1  1  0.000000  0.000000  0.750316  1
  Nb  Nb2  1  0.666667  0.333333  0.588874  1
  Nb  Nb3  1  0.666667  0.333333  0.912638  1
  Nb  Nb4  1  0.333333  0.666667  0.089319  1
  Rh  Rh5  1  0.502448  0.497552  0.251721  1
  Rh  Rh6  1  0.502448  0.004896  0.251721  1
  Rh  Rh7  1  0.995104  0.497552  0.251721  1
  Rh  Rh8  1  0.496191  0.503809  0.749719  1
  Rh  Rh9  1  0.496191  0.992381  0.749719  1
  Rh  Rh10  1  0.007619  0.503809  0.749719  1
  Rh  Rh11  1  0.165530  0.331057  0.917747  1
  Rh  Rh12  1  0.668943  0.834470  0.917747  1
  Rh  Rh13  1  0.165530  0.834470  0.917747  1
  Rh  Rh14  1  0.834650  0.669302  0.084095  1
  Rh  Rh15  1  0.330698  0.165350  0.084095  1
  Rh  Rh16  1  0.834650  0.165350  0.084095  1
  Rh  Rh17  1  0.835073  0.670148  0.416557  1
  Rh  Rh18  1  0.329852  0.164927  0.416557  1
  Rh  Rh19  1  0.835073  0.164927  0.416557  1
  Rh  Rh20  1  0.166518  0.333035  0.580586  1
  Rh  Rh21  1  0.666965  0.833482  0.580586  1
  Rh  Rh22  1  0.166518  0.833482  0.580586  1
  W  W23  1  0.333333  0.666667  0.408868  1
