# generated using pymatgen
data_SrCrP3N5O2
_symmetry_space_group_name_H-M   'P 1'
_cell_length_a   6.73792400
_cell_length_b   7.16074429
_cell_length_c   14.02439292
_cell_angle_alpha   60.27824784
_cell_angle_beta   90.00000000
_cell_angle_gamma   90.00000000
_symmetry_Int_Tables_number   1
_chemical_formula_structural   SrCrP3N5O2
_chemical_formula_sum   'Sr4 Cr4 P12 N20 O8'
_cell_volume   587.63795591
_cell_formula_units_Z   4
loop_
 _symmetry_equiv_pos_site_id
 _symmetry_equiv_pos_as_xyz
  1  'x, y, z'
loop_
 _atom_site_type_symbol
 _atom_site_label
 _atom_site_symmetry_multiplicity
 _atom_site_fract_x
 _atom_site_fract_y
 _atom_site_fract_z
 _atom_site_occupancy
  Sr  Sr0  1  0.759117  0.517455  0.603250  1
  Sr  Sr1  1  0.259117  0.482545  0.896750  1
  Sr  Sr2  1  0.240883  0.482545  0.396750  1
  Sr  Sr3  1  0.740883  0.517455  0.103250  1
  Cr  Cr4  1  0.488556  0.990348  0.872725  1
  Cr  Cr5  1  0.988556  0.009652  0.627275  1
  Cr  Cr6  1  0.511444  0.009652  0.127275  1
  Cr  Cr7  1  0.011444  0.990348  0.372725  1
  P  P8  1  0.006546  0.941630  0.878749  1
  P  P9  1  0.506546  0.058370  0.621251  1
  P  P10  1  0.993454  0.058370  0.121251  1
  P  P11  1  0.493454  0.941630  0.378749  1
  P  P12  1  0.279790  0.743467  0.588844  1
  P  P13  1  0.779790  0.256533  0.911156  1
  P  P14  1  0.720210  0.256533  0.411156  1
  P  P15  1  0.220210  0.743467  0.088844  1
  P  P16  1  0.757642  0.712913  0.794833  1
  P  P17  1  0.257642  0.287087  0.705167  1
  P  P18  1  0.242358  0.287087  0.205167  1
  P  P19  1  0.742358  0.712913  0.294833  1
  N  N20  1  0.302809  0.936699  0.619263  1
  N  N21  1  0.802809  0.063301  0.880737  1
  N  N22  1  0.697191  0.063301  0.380737  1
  N  N23  1  0.197191  0.936699  0.119263  1
  N  N24  1  0.693474  0.889461  0.667348  1
  N  N25  1  0.193474  0.110539  0.832652  1
  N  N26  1  0.306526  0.110539  0.332652  1
  N  N27  1  0.806526  0.889461  0.167348  1
  N  N28  1  0.971256  0.821498  0.804646  1
  N  N29  1  0.471256  0.178502  0.695354  1
  N  N30  1  0.028744  0.178502  0.195354  1
  N  N31  1  0.528744  0.821498  0.304646  1
  N  N32  1  0.802201  0.486856  0.797724  1
  N  N33  1  0.302201  0.513144  0.702276  1
  N  N34  1  0.197799  0.513144  0.202276  1
  N  N35  1  0.697799  0.486856  0.297724  1
  N  N36  1  0.563590  0.257305  0.499681  1
  N  N37  1  0.063590  0.742695  0.000319  1
  N  N38  1  0.436410  0.742695  0.500319  1
  N  N39  1  0.936410  0.257305  0.999681  1
  O  O40  1  0.062112  0.776272  0.542224  1
  O  O41  1  0.562112  0.223728  0.957776  1
  O  O42  1  0.937888  0.223728  0.457776  1
  O  O43  1  0.437888  0.776272  0.042224  1
  O  O44  1  0.602617  0.684399  0.882626  1
  O  O45  1  0.102617  0.315601  0.617374  1
  O  O46  1  0.397383  0.315601  0.117374  1
  O  O47  1  0.897383  0.684399  0.382626  1
