# generated using pymatgen
data_ErLu4GaSb2
_symmetry_space_group_name_H-M   'P 1'
_cell_length_a   8.67697291
_cell_length_b   8.67697218
_cell_length_c   6.27953000
_cell_angle_alpha   90.00000000
_cell_angle_beta   90.00000000
_cell_angle_gamma   120.10014580
_symmetry_Int_Tables_number   1
_chemical_formula_structural   ErLu4GaSb2
_chemical_formula_sum   'Er2 Lu8 Ga2 Sb4'
_cell_volume   409.02991374
_cell_formula_units_Z   2
loop_
 _symmetry_equiv_pos_site_id
 _symmetry_equiv_pos_as_xyz
  1  'x, y, z'
loop_
 _atom_site_type_symbol
 _atom_site_label
 _atom_site_symmetry_multiplicity
 _atom_site_fract_x
 _atom_site_fract_y
 _atom_site_fract_z
 _atom_site_occupancy
  Er  Er0  1  0.761090  0.761090  0.750000  1
  Er  Er1  1  0.235723  0.235723  0.250000  1
  Lu  Lu2  1  0.667738  0.325166  0.003988  1
  Lu  Lu3  1  0.325166  0.667738  0.003988  1
  Lu  Lu4  1  0.325166  0.667738  0.496012  1
  Lu  Lu5  1  0.667738  0.325166  0.496012  1
  Lu  Lu6  1  0.238699  0.998092  0.750000  1
  Lu  Lu7  1  0.998092  0.238699  0.750000  1
  Lu  Lu8  1  0.765103  0.014468  0.250000  1
  Lu  Lu9  1  0.014468  0.765103  0.250000  1
  Ga  Ga10  1  0.395416  0.001001  0.250000  1
  Ga  Ga11  1  0.001001  0.395416  0.250000  1
  Sb  Sb12  1  0.393475  0.393475  0.750000  1
  Sb  Sb13  1  0.602239  0.995882  0.750000  1
  Sb  Sb14  1  0.995882  0.602239  0.750000  1
  Sb  Sb15  1  0.613007  0.613007  0.250000  1
