# generated using pymatgen
data_SrGa2(SnIr)4
_symmetry_space_group_name_H-M   'P 1'
_cell_length_a   6.88284000
_cell_length_b   6.88283932
_cell_length_c   6.87933668
_cell_angle_alpha   119.21317107
_cell_angle_beta   119.21315543
_cell_angle_gamma   91.39679999
_symmetry_Int_Tables_number   1
_chemical_formula_structural   SrGa2(SnIr)4
_chemical_formula_sum   'Sr1 Ga2 Sn4 Ir4'
_cell_volume   233.05414136
_cell_formula_units_Z   1
loop_
 _symmetry_equiv_pos_site_id
 _symmetry_equiv_pos_as_xyz
  1  'x, y, z'
loop_
 _atom_site_type_symbol
 _atom_site_label
 _atom_site_symmetry_multiplicity
 _atom_site_fract_x
 _atom_site_fract_y
 _atom_site_fract_z
 _atom_site_occupancy
  Sr  Sr0  1  0.981730  0.981730  0.000000  1
  Ga  Ga1  1  0.884503  0.524376  0.000000  1
  Ga  Ga2  1  0.524376  0.884503  0.000000  1
  Sn  Sn3  1  0.465647  0.465647  0.344833  1
  Sn  Sn4  1  0.505971  0.005971  0.500000  1
  Sn  Sn5  1  0.005971  0.505971  0.500000  1
  Sn  Sn6  1  0.120812  0.120812  0.655166  1
  Ir  Ir7  1  0.596445  0.240551  0.000000  1
  Ir  Ir8  1  0.240551  0.596445  0.000000  1
  Ir  Ir9  1  0.744832  0.744832  0.315671  1
  Ir  Ir10  1  0.429161  0.429161  0.684329  1
