# generated using pymatgen
data_Hf6Mn18Al5
_symmetry_space_group_name_H-M   'P 1'
_cell_length_a   8.24579480
_cell_length_b   8.24579502
_cell_length_c   8.25126046
_cell_angle_alpha   60.02190575
_cell_angle_beta   60.02191371
_cell_angle_gamma   60.00000022
_symmetry_Int_Tables_number   1
_chemical_formula_structural   Hf6Mn18Al5
_chemical_formula_sum   'Hf6 Mn18 Al5'
_cell_volume   396.83877495
_cell_formula_units_Z   1
loop_
 _symmetry_equiv_pos_site_id
 _symmetry_equiv_pos_as_xyz
  1  'x, y, z'
loop_
 _atom_site_type_symbol
 _atom_site_label
 _atom_site_symmetry_multiplicity
 _atom_site_fract_x
 _atom_site_fract_y
 _atom_site_fract_z
 _atom_site_occupancy
  Hf  Hf0  1  0.697972  0.697972  0.301693  1
  Hf  Hf1  1  0.302363  0.697972  0.301693  1
  Hf  Hf2  1  0.697972  0.302363  0.301693  1
  Hf  Hf3  1  0.303690  0.303690  0.699122  1
  Hf  Hf4  1  0.693499  0.303690  0.699122  1
  Hf  Hf5  1  0.303690  0.693499  0.699122  1
  Mn  Mn6  1  0.995640  0.995640  0.013080  1
  Mn  Mn7  1  0.999887  0.999887  0.497350  1
  Mn  Mn8  1  0.502875  0.999887  0.497350  1
  Mn  Mn9  1  0.999887  0.502875  0.497350  1
  Mn  Mn10  1  0.501429  0.501429  0.998422  1
  Mn  Mn11  1  0.998721  0.501429  0.998422  1
  Mn  Mn12  1  0.501429  0.998721  0.998422  1
  Mn  Mn13  1  0.118501  0.646093  0.116904  1
  Mn  Mn14  1  0.646093  0.118501  0.116904  1
  Mn  Mn15  1  0.118501  0.118501  0.116904  1
  Mn  Mn16  1  0.672619  0.672619  0.982143  1
  Mn  Mn17  1  0.673734  0.977390  0.675143  1
  Mn  Mn18  1  0.977390  0.673734  0.675143  1
  Mn  Mn19  1  0.673734  0.673734  0.675143  1
  Mn  Mn20  1  0.324081  0.324081  0.027756  1
  Mn  Mn21  1  0.326023  0.027623  0.320330  1
  Mn  Mn22  1  0.027623  0.326023  0.320330  1
  Mn  Mn23  1  0.326023  0.326023  0.320330  1
  Al  Al24  1  0.879244  0.879244  0.362269  1
  Al  Al25  1  0.879894  0.357151  0.883062  1
  Al  Al26  1  0.357151  0.879894  0.883062  1
  Al  Al27  1  0.879894  0.879894  0.883062  1
  Al  Al28  1  0.120443  0.120443  0.638672  1
