# generated using pymatgen
data_Eu6Os2N7
_symmetry_space_group_name_H-M   'P 1'
_cell_length_a   6.84180557
_cell_length_b   6.84180505
_cell_length_c   6.84180472
_cell_angle_alpha   66.96699603
_cell_angle_beta   66.96700620
_cell_angle_gamma   66.96700784
_symmetry_Int_Tables_number   1
_chemical_formula_structural   Eu6Os2N7
_chemical_formula_sum   'Eu6 Os2 N7'
_cell_volume   260.29186096
_cell_formula_units_Z   1
loop_
 _symmetry_equiv_pos_site_id
 _symmetry_equiv_pos_as_xyz
  1  'x, y, z'
loop_
 _atom_site_type_symbol
 _atom_site_label
 _atom_site_symmetry_multiplicity
 _atom_site_fract_x
 _atom_site_fract_y
 _atom_site_fract_z
 _atom_site_occupancy
  Eu  Eu0  1  0.338228  0.185241  0.731316  1
  Eu  Eu1  1  0.185241  0.731316  0.338228  1
  Eu  Eu2  1  0.731316  0.338228  0.185241  1
  Eu  Eu3  1  0.661772  0.814759  0.268684  1
  Eu  Eu4  1  0.814759  0.268684  0.661772  1
  Eu  Eu5  1  0.268684  0.661772  0.814759  1
  Os  Os6  1  0.250769  0.250769  0.250769  1
  Os  Os7  1  0.749231  0.749231  0.749231  1
  N  N8  1  0.239976  0.012342  0.505331  1
  N  N9  1  0.012342  0.505331  0.239976  1
  N  N10  1  0.505331  0.239976  0.012342  1
  N  N11  1  0.760024  0.987658  0.494669  1
  N  N12  1  0.987658  0.494669  0.760024  1
  N  N13  1  0.494669  0.760024  0.987658  1
  N  N14  1  0.500000  0.500000  0.500000  1
