# generated using pymatgen
data_TbYB5
_symmetry_space_group_name_H-M   'P 1'
_cell_length_a   7.11485700
_cell_length_b   7.11273357
_cell_length_c   7.14298719
_cell_angle_alpha   76.97680370
_cell_angle_beta   90.00000000
_cell_angle_gamma   90.00000000
_symmetry_Int_Tables_number   1
_chemical_formula_structural   TbYB5
_chemical_formula_sum   'Tb4 Y4 B20'
_cell_volume   352.18097448
_cell_formula_units_Z   4
loop_
 _symmetry_equiv_pos_site_id
 _symmetry_equiv_pos_as_xyz
  1  'x, y, z'
loop_
 _atom_site_type_symbol
 _atom_site_label
 _atom_site_symmetry_multiplicity
 _atom_site_fract_x
 _atom_site_fract_y
 _atom_site_fract_z
 _atom_site_occupancy
  Tb  Tb0  1  0.692410  0.767925  0.628275  1
  Tb  Tb1  1  0.192410  0.232075  0.871725  1
  Tb  Tb2  1  0.307590  0.232075  0.371725  1
  Tb  Tb3  1  0.807590  0.767925  0.128275  1
  Y  Y4  1  0.314988  0.756987  0.253778  1
  Y  Y5  1  0.814988  0.243013  0.246222  1
  Y  Y6  1  0.685012  0.243013  0.746222  1
  Y  Y7  1  0.185012  0.756987  0.753778  1
  B  B8  1  0.502057  0.314382  0.040127  1
  B  B9  1  0.002057  0.685618  0.459873  1
  B  B10  1  0.497943  0.685618  0.959873  1
  B  B11  1  0.997943  0.314382  0.540127  1
  B  B12  1  0.490312  0.925013  0.926355  1
  B  B13  1  0.990312  0.074987  0.573645  1
  B  B14  1  0.509688  0.074987  0.073645  1
  B  B15  1  0.009688  0.925013  0.426355  1
  B  B16  1  0.326231  0.496528  0.039621  1
  B  B17  1  0.826231  0.503472  0.460379  1
  B  B18  1  0.673769  0.503472  0.960379  1
  B  B19  1  0.173769  0.496528  0.539621  1
  B  B20  1  0.910750  0.499078  0.910771  1
  B  B21  1  0.410750  0.500922  0.589229  1
  B  B22  1  0.089250  0.500922  0.089229  1
  B  B23  1  0.589250  0.499078  0.410771  1
  B  B24  1  0.961704  0.496661  0.674221  1
  B  B25  1  0.461704  0.503339  0.825779  1
  B  B26  1  0.038296  0.503339  0.325779  1
  B  B27  1  0.538296  0.496661  0.174221  1
