# generated using pymatgen
data_AcPm(ZnSi)2
_symmetry_space_group_name_H-M   'P 1'
_cell_length_a   6.09962527
_cell_length_b   6.09962477
_cell_length_c   6.09962620
_cell_angle_alpha   139.23039443
_cell_angle_beta   105.20570793
_cell_angle_gamma   88.87538861
_symmetry_Int_Tables_number   1
_chemical_formula_structural   AcPm(ZnSi)2
_chemical_formula_sum   'Ac1 Pm1 Zn2 Si2'
_cell_volume   137.11565327
_cell_formula_units_Z   1
loop_
 _symmetry_equiv_pos_site_id
 _symmetry_equiv_pos_as_xyz
  1  'x, y, z'
loop_
 _atom_site_type_symbol
 _atom_site_label
 _atom_site_symmetry_multiplicity
 _atom_site_fract_x
 _atom_site_fract_y
 _atom_site_fract_z
 _atom_site_occupancy
  Ac  Ac0  1  0.994001  0.000000  0.994001  1
  Pm  Pm1  1  0.505069  0.500000  0.005069  1
  Zn  Zn2  1  0.561793  0.227615  0.334178  1
  Zn  Zn3  1  0.106563  0.772385  0.334178  1
  Si  Si4  1  0.910294  0.244008  0.666286  1
  Si  Si5  1  0.422279  0.755992  0.666286  1
