# generated using pymatgen
data_Ho5Bi3O14
_symmetry_space_group_name_H-M   'P 1'
_cell_length_a   6.56859720
_cell_length_b   6.58237722
_cell_length_c   7.71471790
_cell_angle_alpha   106.84411362
_cell_angle_beta   89.68686216
_cell_angle_gamma   98.72105016
_symmetry_Int_Tables_number   1
_chemical_formula_structural   Ho5Bi3O14
_chemical_formula_sum   'Ho5 Bi3 O14'
_cell_volume   315.29814356
_cell_formula_units_Z   1
loop_
 _symmetry_equiv_pos_site_id
 _symmetry_equiv_pos_as_xyz
  1  'x, y, z'
loop_
 _atom_site_type_symbol
 _atom_site_label
 _atom_site_symmetry_multiplicity
 _atom_site_fract_x
 _atom_site_fract_y
 _atom_site_fract_z
 _atom_site_occupancy
  Ho  Ho0  1  0.462414  0.007505  0.253165  1
  Ho  Ho1  1  0.538235  0.998274  0.751036  1
  Ho  Ho2  1  0.272134  0.535697  0.882468  1
  Ho  Ho3  1  0.736262  0.460650  0.112593  1
  Ho  Ho4  1  0.738875  0.476208  0.618339  1
  Bi  Bi5  1  0.994012  0.000068  0.500835  1
  Bi  Bi6  1  0.999381  0.996022  0.997528  1
  Bi  Bi7  1  0.280016  0.531553  0.387613  1
  O  O8  1  0.454242  0.653148  0.164318  1
  O  O9  1  0.555284  0.352410  0.834753  1
  O  O10  1  0.302803  0.918774  0.950157  1
  O  O11  1  0.698274  0.078909  0.050843  1
  O  O12  1  0.298808  0.932526  0.517780  1
  O  O13  1  0.697096  0.085026  0.492033  1
  O  O14  1  0.551604  0.362315  0.343760  1
  O  O15  1  0.461172  0.639264  0.659026  1
  O  O16  1  0.926753  0.660622  0.952823  1
  O  O17  1  0.070445  0.326812  0.027719  1
  O  O18  1  0.065026  0.343857  0.630191  1
  O  O19  1  0.904710  0.662880  0.378033  1
  O  O20  1  0.868761  0.897124  0.724820  1
  O  O21  1  0.123689  0.080357  0.270166  1
