# generated using pymatgen
data_TbGa3NiAg
_symmetry_space_group_name_H-M   'P 1'
_cell_length_a   4.10182624
_cell_length_b   6.53965500
_cell_length_c   8.09647062
_cell_angle_alpha   90.00000000
_cell_angle_beta   104.67345127
_cell_angle_gamma   90.00000000
_symmetry_Int_Tables_number   1
_chemical_formula_structural   TbGa3NiAg
_chemical_formula_sum   'Tb2 Ga6 Ni2 Ag2'
_cell_volume   210.10060042
_cell_formula_units_Z   2
loop_
 _symmetry_equiv_pos_site_id
 _symmetry_equiv_pos_as_xyz
  1  'x, y, z'
loop_
 _atom_site_type_symbol
 _atom_site_label
 _atom_site_symmetry_multiplicity
 _atom_site_fract_x
 _atom_site_fract_y
 _atom_site_fract_z
 _atom_site_occupancy
  Tb  Tb0  1  0.874248  0.750000  0.748496  1
  Tb  Tb1  1  0.125752  0.250000  0.251504  1
  Ga  Ga2  1  0.069657  0.750000  0.139313  1
  Ga  Ga3  1  0.930343  0.250000  0.860687  1
  Ga  Ga4  1  0.685318  0.550051  0.370637  1
  Ga  Ga5  1  0.314682  0.449949  0.629363  1
  Ga  Ga6  1  0.685318  0.949949  0.370637  1
  Ga  Ga7  1  0.314682  0.050051  0.629363  1
  Ni  Ni8  1  0.222983  0.750000  0.445966  1
  Ni  Ni9  1  0.777017  0.250000  0.554034  1
  Ag  Ag10  1  0.500000  0.500000  0.000000  1
  Ag  Ag11  1  0.500000  0.000000  0.000000  1
