# generated using pymatgen
data_Sm7HoSc12Ga15Si
_symmetry_space_group_name_H-M   'P 1'
_cell_length_a   7.35562190
_cell_length_b   7.59228498
_cell_length_c   14.55906572
_cell_angle_alpha   89.96599452
_cell_angle_beta   90.01195265
_cell_angle_gamma   90.12474544
_symmetry_Int_Tables_number   1
_chemical_formula_structural   Sm7HoSc12Ga15Si
_chemical_formula_sum   'Sm7 Ho1 Sc12 Ga15 Si1'
_cell_volume   813.06317188
_cell_formula_units_Z   1
loop_
 _symmetry_equiv_pos_site_id
 _symmetry_equiv_pos_as_xyz
  1  'x, y, z'
loop_
 _atom_site_type_symbol
 _atom_site_label
 _atom_site_symmetry_multiplicity
 _atom_site_fract_x
 _atom_site_fract_y
 _atom_site_fract_z
 _atom_site_occupancy
  Sm  Sm0  1  0.011529  0.177764  0.094812  1
  Sm  Sm1  1  0.987400  0.819608  0.903546  1
  Sm  Sm2  1  0.488718  0.678425  0.904413  1
  Sm  Sm3  1  0.987404  0.819018  0.596376  1
  Sm  Sm4  1  0.511357  0.321180  0.094294  1
  Sm  Sm5  1  0.011626  0.177745  0.405296  1
  Sm  Sm6  1  0.511332  0.321464  0.406205  1
  Ho  Ho7  1  0.488894  0.679864  0.596386  1
  Sc  Sc8  1  0.158983  0.501231  0.749662  1
  Sc  Sc9  1  0.836569  0.498920  0.250077  1
  Sc  Sc10  1  0.338004  0.999992  0.250054  1
  Sc  Sc11  1  0.663830  0.995691  0.749674  1
  Sc  Sc12  1  0.333261  0.173058  0.624060  1
  Sc  Sc13  1  0.669301  0.827520  0.376115  1
  Sc  Sc14  1  0.169831  0.672076  0.375313  1
  Sc  Sc15  1  0.669598  0.828076  0.124276  1
  Sc  Sc16  1  0.827766  0.331150  0.624196  1
  Sc  Sc17  1  0.333232  0.172928  0.875654  1
  Sc  Sc18  1  0.828686  0.330901  0.875247  1
  Sc  Sc19  1  0.169463  0.671926  0.124967  1
  Ga  Ga20  1  0.032511  0.121098  0.749809  1
  Ga  Ga21  1  0.968048  0.881103  0.250059  1
  Ga  Ga22  1  0.468024  0.618895  0.250081  1
  Ga  Ga23  1  0.531272  0.388025  0.749398  1
  Ga  Ga24  1  0.286834  0.873852  0.749331  1
  Ga  Ga25  1  0.714962  0.126243  0.250056  1
  Ga  Ga26  1  0.215191  0.372682  0.250208  1
  Ga  Ga27  1  0.161601  0.465150  0.541200  1
  Ga  Ga28  1  0.839424  0.536104  0.459725  1
  Ga  Ga29  1  0.339888  0.961512  0.460642  1
  Ga  Ga30  1  0.840004  0.535975  0.040416  1
  Ga  Ga31  1  0.661163  0.034401  0.541527  1
  Ga  Ga32  1  0.159835  0.464063  0.959101  1
  Ga  Ga33  1  0.661730  0.036337  0.958754  1
  Ga  Ga34  1  0.339357  0.962590  0.039732  1
  Si  Si35  1  0.783371  0.623433  0.749337  1
