# generated using pymatgen
data_Rb4BiSbAu7
_symmetry_space_group_name_H-M   'P 1'
_cell_length_a   11.01456763
_cell_length_b   11.01456886
_cell_length_c   11.01456925
_cell_angle_alpha   36.99141844
_cell_angle_beta   36.99141092
_cell_angle_gamma   36.99141402
_symmetry_Int_Tables_number   1
_chemical_formula_structural   Rb4BiSbAu7
_chemical_formula_sum   'Rb4 Bi1 Sb1 Au7'
_cell_volume   433.47549667
_cell_formula_units_Z   1
loop_
 _symmetry_equiv_pos_site_id
 _symmetry_equiv_pos_as_xyz
  1  'x, y, z'
loop_
 _atom_site_type_symbol
 _atom_site_label
 _atom_site_symmetry_multiplicity
 _atom_site_fract_x
 _atom_site_fract_y
 _atom_site_fract_z
 _atom_site_occupancy
  Rb  Rb0  1  0.683979  0.683979  0.683979  1
  Rb  Rb1  1  0.315437  0.315437  0.315437  1
  Rb  Rb2  1  0.812632  0.812632  0.812632  1
  Rb  Rb3  1  0.187790  0.187790  0.187790  1
  Bi  Bi4  1  0.551272  0.551272  0.551272  1
  Sb  Sb5  1  0.442504  0.442504  0.442504  1
  Au  Au6  1  0.000731  0.000731  0.000731  1
  Au  Au7  1  0.190139  0.792262  0.792262  1
  Au  Au8  1  0.792262  0.792262  0.190139  1
  Au  Au9  1  0.792262  0.190139  0.792262  1
  Au  Au10  1  0.209651  0.811691  0.209651  1
  Au  Au11  1  0.811691  0.209651  0.209651  1
  Au  Au12  1  0.209651  0.209651  0.811691  1
