# generated using pymatgen
data_Li2Tc(NiP)3
_symmetry_space_group_name_H-M   'P 1'
_cell_length_a   5.80839433
_cell_length_b   5.80839468
_cell_length_c   3.59852600
_cell_angle_alpha   90.00000000
_cell_angle_beta   90.00000000
_cell_angle_gamma   117.11299459
_symmetry_Int_Tables_number   1
_chemical_formula_structural   Li2Tc(NiP)3
_chemical_formula_sum   'Li2 Tc1 Ni3 P3'
_cell_volume   108.06381001
_cell_formula_units_Z   1
loop_
 _symmetry_equiv_pos_site_id
 _symmetry_equiv_pos_as_xyz
  1  'x, y, z'
loop_
 _atom_site_type_symbol
 _atom_site_label
 _atom_site_symmetry_multiplicity
 _atom_site_fract_x
 _atom_site_fract_y
 _atom_site_fract_z
 _atom_site_occupancy
  Li  Li0  1  0.578882  0.994204  0.000000  1
  Li  Li1  1  0.994204  0.578882  0.000000  1
  Tc  Tc2  1  0.408533  0.408533  0.000000  1
  Ni  Ni3  1  0.252062  0.994740  0.500000  1
  Ni  Ni4  1  0.994740  0.252062  0.500000  1
  Ni  Ni5  1  0.763717  0.763717  0.500000  1
  P  P6  1  0.014149  0.014149  0.000000  1
  P  P7  1  0.338233  0.655479  0.500000  1
  P  P8  1  0.655479  0.338233  0.500000  1
