# generated using pymatgen
data_Lu5InGa2
_symmetry_space_group_name_H-M   'P 1'
_cell_length_a   7.57971900
_cell_length_b   7.57971900
_cell_length_c   14.06332000
_cell_angle_alpha   90.00000000
_cell_angle_beta   90.00000000
_cell_angle_gamma   90.00000000
_symmetry_Int_Tables_number   1
_chemical_formula_structural   Lu5InGa2
_chemical_formula_sum   'Lu20 In4 Ga8'
_cell_volume   807.96783118
_cell_formula_units_Z   4
loop_
 _symmetry_equiv_pos_site_id
 _symmetry_equiv_pos_as_xyz
  1  'x, y, z'
loop_
 _atom_site_type_symbol
 _atom_site_label
 _atom_site_symmetry_multiplicity
 _atom_site_fract_x
 _atom_site_fract_y
 _atom_site_fract_z
 _atom_site_occupancy
  Lu  Lu0  1  0.835065  0.831899  0.894060  1
  Lu  Lu1  1  0.168101  0.164935  0.605940  1
  Lu  Lu2  1  0.835065  0.168101  0.394060  1
  Lu  Lu3  1  0.164935  0.831899  0.394060  1
  Lu  Lu4  1  0.331899  0.335065  0.394060  1
  Lu  Lu5  1  0.831899  0.164935  0.105940  1
  Lu  Lu6  1  0.331899  0.664935  0.894060  1
  Lu  Lu7  1  0.168101  0.835065  0.105940  1
  Lu  Lu8  1  0.500000  0.000000  0.752327  1
  Lu  Lu9  1  0.000000  0.500000  0.247673  1
  Lu  Lu10  1  0.335065  0.668101  0.605940  1
  Lu  Lu11  1  0.664935  0.668101  0.105940  1
  Lu  Lu12  1  0.664935  0.331899  0.605940  1
  Lu  Lu13  1  0.000000  0.500000  0.747673  1
  Lu  Lu14  1  0.831899  0.835065  0.605940  1
  Lu  Lu15  1  0.668101  0.335065  0.894060  1
  Lu  Lu16  1  0.164935  0.168101  0.894060  1
  Lu  Lu17  1  0.500000  0.000000  0.252327  1
  Lu  Lu18  1  0.668101  0.664935  0.394060  1
  Lu  Lu19  1  0.335065  0.331899  0.105940  1
  In  In20  1  0.000000  0.500000  0.001226  1
  In  In21  1  0.500000  0.000000  0.998774  1
  In  In22  1  0.500000  0.000000  0.498774  1
  In  In23  1  0.000000  0.500000  0.501226  1
  Ga  Ga24  1  0.624527  0.375473  0.250000  1
  Ga  Ga25  1  0.375473  0.624527  0.250000  1
  Ga  Ga26  1  0.124527  0.124527  0.250000  1
  Ga  Ga27  1  0.375473  0.375473  0.750000  1
  Ga  Ga28  1  0.124527  0.875473  0.750000  1
  Ga  Ga29  1  0.875473  0.875473  0.250000  1
  Ga  Ga30  1  0.624527  0.624527  0.750000  1
  Ga  Ga31  1  0.875473  0.124527  0.750000  1
