# generated using pymatgen
data_Al2ZnCuPd8
_symmetry_space_group_name_H-M   'P 1'
_cell_length_a   4.12571400
_cell_length_b   5.40908906
_cell_length_c   7.88457465
_cell_angle_alpha   89.96467510
_cell_angle_beta   90.00000000
_cell_angle_gamma   90.00000000
_symmetry_Int_Tables_number   1
_chemical_formula_structural   Al2ZnCuPd8
_chemical_formula_sum   'Al2 Zn1 Cu1 Pd8'
_cell_volume   175.95492917
_cell_formula_units_Z   1
loop_
 _symmetry_equiv_pos_site_id
 _symmetry_equiv_pos_as_xyz
  1  'x, y, z'
loop_
 _atom_site_type_symbol
 _atom_site_label
 _atom_site_symmetry_multiplicity
 _atom_site_fract_x
 _atom_site_fract_y
 _atom_site_fract_z
 _atom_site_occupancy
  Al  Al0  1  0.250000  0.176880  0.095089  1
  Al  Al1  1  0.250000  0.687254  0.399155  1
  Zn  Zn2  1  0.750000  0.310201  0.606449  1
  Cu  Cu3  1  0.750000  0.818931  0.898445  1
  Pd  Pd4  1  0.750000  0.461015  0.281753  1
  Pd  Pd5  1  0.250000  0.551425  0.722270  1
  Pd  Pd6  1  0.750000  0.960645  0.219512  1
  Pd  Pd7  1  0.250000  0.049194  0.776572  1
  Pd  Pd8  1  0.750000  0.329754  0.937006  1
  Pd  Pd9  1  0.250000  0.662415  0.072561  1
  Pd  Pd10  1  0.750000  0.825910  0.564945  1
  Pd  Pd11  1  0.250000  0.166377  0.426242  1
