# generated using pymatgen
data_Er9Lu(Zn2Sb)2
_symmetry_space_group_name_H-M   'P 1'
_cell_length_a   8.48976764
_cell_length_b   8.48976677
_cell_length_c   8.48976703
_cell_angle_alpha   123.73436934
_cell_angle_beta   123.73436838
_cell_angle_gamma   83.64510300
_symmetry_Int_Tables_number   1
_chemical_formula_structural   Er9Lu(Zn2Sb)2
_chemical_formula_sum   'Er9 Lu1 Zn4 Sb2'
_cell_volume   405.52988944
_cell_formula_units_Z   1
loop_
 _symmetry_equiv_pos_site_id
 _symmetry_equiv_pos_as_xyz
  1  'x, y, z'
loop_
 _atom_site_type_symbol
 _atom_site_label
 _atom_site_symmetry_multiplicity
 _atom_site_fract_x
 _atom_site_fract_y
 _atom_site_fract_z
 _atom_site_occupancy
  Er  Er0  1  0.000000  0.000000  0.000000  1
  Er  Er1  1  0.010858  0.510586  0.809547  1
  Er  Er2  1  0.701040  0.201311  0.190453  1
  Er  Er3  1  0.510586  0.701040  0.499729  1
  Er  Er4  1  0.201311  0.010858  0.500271  1
  Er  Er5  1  0.989142  0.489414  0.190453  1
  Er  Er6  1  0.298960  0.798689  0.809547  1
  Er  Er7  1  0.489414  0.298960  0.500271  1
  Er  Er8  1  0.798689  0.989142  0.499729  1
  Lu  Lu9  1  0.500000  0.500000  0.000000  1
  Zn  Zn10  1  0.635973  0.136831  0.772803  1
  Zn  Zn11  1  0.364027  0.863169  0.227197  1
  Zn  Zn12  1  0.136831  0.364027  0.500858  1
  Zn  Zn13  1  0.863169  0.635973  0.499142  1
  Sb  Sb14  1  0.749540  0.749540  0.000000  1
  Sb  Sb15  1  0.250460  0.250460  0.000000  1
