# generated using pymatgen
data_Mg5P12Ir4Ru15
_symmetry_space_group_name_H-M   'P 1'
_cell_length_a   12.44128200
_cell_length_b   12.44128227
_cell_length_c   3.94277500
_cell_angle_alpha   90.00000000
_cell_angle_beta   90.00000000
_cell_angle_gamma   120.00000460
_symmetry_Int_Tables_number   1
_chemical_formula_structural   Mg5P12Ir4Ru15
_chemical_formula_sum   'Mg5 P12 Ir4 Ru15'
_cell_volume   528.52177310
_cell_formula_units_Z   1
loop_
 _symmetry_equiv_pos_site_id
 _symmetry_equiv_pos_as_xyz
  1  'x, y, z'
loop_
 _atom_site_type_symbol
 _atom_site_label
 _atom_site_symmetry_multiplicity
 _atom_site_fract_x
 _atom_site_fract_y
 _atom_site_fract_z
 _atom_site_occupancy
  Mg  Mg0  1  0.333333  0.666667  0.000000  1
  Mg  Mg1  1  0.666667  0.333333  0.000000  1
  Mg  Mg2  1  0.820254  0.001099  0.500000  1
  Mg  Mg3  1  0.998901  0.819154  0.500000  1
  Mg  Mg4  1  0.180846  0.179746  0.500000  1
  P  P5  1  0.179195  0.995841  0.000000  1
  P  P6  1  0.004159  0.183354  0.000000  1
  P  P7  1  0.816646  0.820805  0.000000  1
  P  P8  1  0.168654  0.475103  0.500000  1
  P  P9  1  0.524897  0.693551  0.500000  1
  P  P10  1  0.306449  0.831346  0.500000  1
  P  P11  1  0.689806  0.523270  0.500000  1
  P  P12  1  0.833463  0.310194  0.500000  1
  P  P13  1  0.476730  0.166537  0.500000  1
  P  P14  1  0.622205  0.995911  0.000000  1
  P  P15  1  0.004089  0.626294  0.000000  1
  P  P16  1  0.373706  0.377795  0.000000  1
  Ir  Ir17  1  0.818123  0.629934  0.000000  1
  Ir  Ir18  1  0.811811  0.181877  0.000000  1
  Ir  Ir19  1  0.370066  0.188189  0.000000  1
  Ir  Ir20  1  0.000000  0.000000  0.000000  1
  Ru  Ru21  1  0.445617  0.005933  0.000000  1
  Ru  Ru22  1  0.994067  0.439684  0.000000  1
  Ru  Ru23  1  0.560316  0.554383  0.000000  1
  Ru  Ru24  1  0.366665  0.494394  0.500000  1
  Ru  Ru25  1  0.505606  0.872271  0.500000  1
  Ru  Ru26  1  0.127729  0.633335  0.500000  1
  Ru  Ru27  1  0.866973  0.505192  0.500000  1
  Ru  Ru28  1  0.638218  0.133027  0.500000  1
  Ru  Ru29  1  0.494808  0.361782  0.500000  1
  Ru  Ru30  1  0.186323  0.377117  0.000000  1
  Ru  Ru31  1  0.622883  0.809207  0.000000  1
  Ru  Ru32  1  0.190793  0.813677  0.000000  1
  Ru  Ru33  1  0.276617  0.001473  0.500000  1
  Ru  Ru34  1  0.998527  0.275144  0.500000  1
  Ru  Ru35  1  0.724856  0.723383  0.500000  1
