# generated using pymatgen
data_La2B8Os5RuRh2
_symmetry_space_group_name_H-M   'P 1'
_cell_length_a   4.01526542
_cell_length_b   7.65050985
_cell_length_c   7.64159219
_cell_angle_alpha   89.98954772
_cell_angle_beta   89.95146507
_cell_angle_gamma   90.10142930
_symmetry_Int_Tables_number   1
_chemical_formula_structural   La2B8Os5RuRh2
_chemical_formula_sum   'La2 B8 Os5 Ru1 Rh2'
_cell_volume   234.74029742
_cell_formula_units_Z   1
loop_
 _symmetry_equiv_pos_site_id
 _symmetry_equiv_pos_as_xyz
  1  'x, y, z'
loop_
 _atom_site_type_symbol
 _atom_site_label
 _atom_site_symmetry_multiplicity
 _atom_site_fract_x
 _atom_site_fract_y
 _atom_site_fract_z
 _atom_site_occupancy
  La  La0  1  0.253131  0.251809  0.251165  1
  La  La1  1  0.758310  0.750099  0.749731  1
  B  B2  1  0.361395  0.914456  0.037391  1
  B  B3  1  0.356270  0.584765  0.464564  1
  B  B4  1  0.856093  0.530632  0.085583  1
  B  B5  1  0.859907  0.959648  0.413675  1
  B  B6  1  0.644075  0.094767  0.974121  1
  B  B7  1  0.639093  0.419760  0.538765  1
  B  B8  1  0.138796  0.465650  0.913538  1
  B  B9  1  0.142331  0.034771  0.583045  1
  Os  Os10  1  0.638402  0.358600  0.892642  1
  Os  Os11  1  0.856474  0.605758  0.357159  1
  Os  Os12  1  0.858556  0.897332  0.141788  1
  Os  Os13  1  0.358072  0.857848  0.394725  1
  Os  Os14  1  0.356651  0.643483  0.103730  1
  Ru  Ru15  1  0.140748  0.391908  0.637918  1
  Rh  Rh16  1  0.140197  0.100525  0.857891  1
  Rh  Rh17  1  0.641500  0.138190  0.602569  1
