# generated using pymatgen
data_Ca6MgSi3Pd4
_symmetry_space_group_name_H-M   'P 1'
_cell_length_a   5.74267700
_cell_length_b   8.14314700
_cell_length_c   13.60743100
_cell_angle_alpha   90.00000000
_cell_angle_beta   90.00000000
_cell_angle_gamma   90.00000000
_symmetry_Int_Tables_number   1
_chemical_formula_structural   Ca6MgSi3Pd4
_chemical_formula_sum   'Ca12 Mg2 Si6 Pd8'
_cell_volume   636.33059588
_cell_formula_units_Z   2
loop_
 _symmetry_equiv_pos_site_id
 _symmetry_equiv_pos_as_xyz
  1  'x, y, z'
loop_
 _atom_site_type_symbol
 _atom_site_label
 _atom_site_symmetry_multiplicity
 _atom_site_fract_x
 _atom_site_fract_y
 _atom_site_fract_z
 _atom_site_occupancy
  Ca  Ca0  1  0.133762  0.617054  0.104807  1
  Ca  Ca1  1  0.133762  0.882946  0.895193  1
  Ca  Ca2  1  0.866238  0.117054  0.395193  1
  Ca  Ca3  1  0.866238  0.382946  0.604807  1
  Ca  Ca4  1  0.858921  0.397725  0.892497  1
  Ca  Ca5  1  0.858921  0.102275  0.107503  1
  Ca  Ca6  1  0.141079  0.897725  0.607503  1
  Ca  Ca7  1  0.141079  0.602275  0.392497  1
  Ca  Ca8  1  0.350335  0.255852  0.252245  1
  Ca  Ca9  1  0.350335  0.244148  0.747755  1
  Ca  Ca10  1  0.649665  0.755852  0.247755  1
  Ca  Ca11  1  0.649665  0.744148  0.752245  1
  Mg  Mg12  1  0.374223  0.250000  0.000000  1
  Mg  Mg13  1  0.625777  0.750000  0.500000  1
  Si  Si14  1  0.623105  0.750000  0.000000  1
  Si  Si15  1  0.376895  0.250000  0.500000  1
  Si  Si16  1  0.838150  0.405710  0.246669  1
  Si  Si17  1  0.838150  0.094290  0.753331  1
  Si  Si18  1  0.161850  0.905710  0.253331  1
  Si  Si19  1  0.161850  0.594290  0.746669  1
  Pd  Pd20  1  0.636643  0.483718  0.091107  1
  Pd  Pd21  1  0.636643  0.016282  0.908893  1
  Pd  Pd22  1  0.363357  0.983718  0.408893  1
  Pd  Pd23  1  0.363357  0.516282  0.591107  1
  Pd  Pd24  1  0.376820  0.547158  0.905557  1
  Pd  Pd25  1  0.376820  0.952842  0.094443  1
  Pd  Pd26  1  0.623180  0.047158  0.594443  1
  Pd  Pd27  1  0.623180  0.452842  0.405557  1
