# generated using pymatgen
data_Gd3TlF10
_symmetry_space_group_name_H-M   'P 1'
_cell_length_a   8.48519389
_cell_length_b   8.48521543
_cell_length_c   8.46389700
_cell_angle_alpha   60.08290796
_cell_angle_beta   60.08285544
_cell_angle_gamma   59.83392869
_symmetry_Int_Tables_number   1
_chemical_formula_structural   Gd3TlF10
_chemical_formula_sum   'Gd6 Tl2 F20'
_cell_volume   430.89707668
_cell_formula_units_Z   2
loop_
 _symmetry_equiv_pos_site_id
 _symmetry_equiv_pos_as_xyz
  1  'x, y, z'
loop_
 _atom_site_type_symbol
 _atom_site_label
 _atom_site_symmetry_multiplicity
 _atom_site_fract_x
 _atom_site_fract_y
 _atom_site_fract_z
 _atom_site_occupancy
  Gd  Gd0  1  0.759045  0.759042  0.240954  1
  Gd  Gd1  1  0.759211  0.240767  0.240787  1
  Gd  Gd2  1  0.240769  0.759215  0.759233  1
  Gd  Gd3  1  0.240769  0.759212  0.240789  1
  Gd  Gd4  1  0.759214  0.240769  0.759230  1
  Gd  Gd5  1  0.240958  0.240961  0.759044  1
  Tl  Tl6  1  0.249737  0.249736  0.250264  1
  Tl  Tl7  1  0.749737  0.749735  0.750264  1
  F  F8  1  0.828608  0.499708  0.500287  1
  F  F9  1  0.171926  0.500144  0.499861  1
  F  F10  1  0.499712  0.828604  0.171394  1
  F  F11  1  0.500143  0.171930  0.828071  1
  F  F12  1  0.499709  0.828607  0.500288  1
  F  F13  1  0.171927  0.500147  0.828073  1
  F  F14  1  0.500141  0.171926  0.499860  1
  F  F15  1  0.828604  0.499708  0.171394  1
  F  F16  1  0.500123  0.500122  0.827652  1
  F  F17  1  0.500121  0.500121  0.172103  1
  F  F18  1  0.172351  0.827892  0.499880  1
  F  F19  1  0.827891  0.172351  0.499875  1
  F  F20  1  0.110201  0.110202  0.110779  1
  F  F21  1  0.889624  0.889623  0.889476  1
  F  F22  1  0.110201  0.110202  0.668821  1
  F  F23  1  0.110527  0.668724  0.110375  1
  F  F24  1  0.889627  0.889624  0.331273  1
  F  F25  1  0.889224  0.331181  0.889799  1
  F  F26  1  0.668727  0.110524  0.110372  1
  F  F27  1  0.331178  0.889225  0.889800  1
