# generated using pymatgen
data_Cd3Mo4(PO4)6
_symmetry_space_group_name_H-M   'P 1'
_cell_length_a   6.64757566
_cell_length_b   9.11139190
_cell_length_c   9.21511784
_cell_angle_alpha   90.66140527
_cell_angle_beta   108.21695887
_cell_angle_gamma   107.09054462
_symmetry_Int_Tables_number   1
_chemical_formula_structural   Cd3Mo4(PO4)6
_chemical_formula_sum   'Cd3 Mo4 P6 O24'
_cell_volume   503.46316200
_cell_formula_units_Z   1
loop_
 _symmetry_equiv_pos_site_id
 _symmetry_equiv_pos_as_xyz
  1  'x, y, z'
loop_
 _atom_site_type_symbol
 _atom_site_label
 _atom_site_symmetry_multiplicity
 _atom_site_fract_x
 _atom_site_fract_y
 _atom_site_fract_z
 _atom_site_occupancy
  Cd  Cd0  1  0.259213  0.757512  0.244764  1
  Cd  Cd1  1  0.747786  0.237901  0.764326  1
  Cd  Cd2  1  0.028956  0.983356  0.985490  1
  Mo  Mo3  1  0.139262  0.880798  0.566384  1
  Mo  Mo4  1  0.360855  0.434019  0.117820  1
  Mo  Mo5  1  0.858316  0.119682  0.430215  1
  Mo  Mo6  1  0.636897  0.565604  0.881910  1
  P  P7  1  0.244593  0.214966  0.780335  1
  P  P8  1  0.755090  0.786477  0.216879  1
  P  P9  1  0.351518  0.143630  0.357549  1
  P  P10  1  0.133293  0.642926  0.855168  1
  P  P11  1  0.651171  0.854208  0.641869  1
  P  P12  1  0.864828  0.358094  0.143291  1
  O  O13  1  0.260601  0.050457  0.763166  1
  O  O14  1  0.221886  0.233346  0.943669  1
  O  O15  1  0.731962  0.947251  0.237236  1
  O  O16  1  0.778189  0.767108  0.054011  1
  O  O17  1  0.967038  0.759684  0.334462  1
  O  O18  1  0.543982  0.665147  0.236182  1
  O  O19  1  0.033607  0.241784  0.663140  1
  O  O20  1  0.457133  0.333276  0.761918  1
  O  O21  1  0.139233  0.695543  0.700220  1
  O  O22  1  0.349241  0.298878  0.300911  1
  O  O23  1  0.858144  0.306471  0.298916  1
  O  O24  1  0.651685  0.697117  0.695251  1
  O  O25  1  0.420732  0.845532  0.524277  1
  O  O26  1  0.091160  0.489381  0.163546  1
  O  O27  1  0.580829  0.155385  0.479220  1
  O  O28  1  0.908905  0.513168  0.837976  1
  O  O29  1  0.289611  0.016129  0.223301  1
  O  O30  1  0.168011  0.775035  0.976128  1
  O  O31  1  0.723253  0.979188  0.780264  1
  O  O32  1  0.833072  0.228600  0.023220  1
  O  O33  1  0.176490  0.090541  0.445487  1
  O  O34  1  0.323687  0.563766  0.916860  1
  O  O35  1  0.821450  0.907738  0.550710  1
  O  O36  1  0.674619  0.439200  0.083428  1
