# generated using pymatgen
data_Lu5ZrCo5
_symmetry_space_group_name_H-M   'P 1'
_cell_length_a   5.54471599
_cell_length_b   5.54471598
_cell_length_c   20.76255000
_cell_angle_alpha   90.00000000
_cell_angle_beta   90.00000000
_cell_angle_gamma   138.61066872
_symmetry_Int_Tables_number   1
_chemical_formula_structural   Lu5ZrCo5
_chemical_formula_sum   'Lu10 Zr2 Co10'
_cell_volume   422.04025127
_cell_formula_units_Z   2
loop_
 _symmetry_equiv_pos_site_id
 _symmetry_equiv_pos_as_xyz
  1  'x, y, z'
loop_
 _atom_site_type_symbol
 _atom_site_label
 _atom_site_symmetry_multiplicity
 _atom_site_fract_x
 _atom_site_fract_y
 _atom_site_fract_z
 _atom_site_occupancy
  Lu  Lu0  1  0.289202  0.710798  0.250000  1
  Lu  Lu1  1  0.289930  0.710070  0.071411  1
  Lu  Lu2  1  0.994260  0.005740  0.837862  1
  Lu  Lu3  1  0.710798  0.289202  0.750000  1
  Lu  Lu4  1  0.710070  0.289930  0.571411  1
  Lu  Lu5  1  0.005740  0.994260  0.337862  1
  Lu  Lu6  1  0.994260  0.005740  0.662138  1
  Lu  Lu7  1  0.710070  0.289930  0.928589  1
  Lu  Lu8  1  0.005740  0.994260  0.162138  1
  Lu  Lu9  1  0.289930  0.710070  0.428589  1
  Zr  Zr10  1  0.000000  0.000000  0.500000  1
  Zr  Zr11  1  0.000000  0.000000  0.000000  1
  Co  Co12  1  0.291348  0.708652  0.656332  1
  Co  Co13  1  0.587488  0.412512  0.436453  1
  Co  Co14  1  0.410880  0.589120  0.750000  1
  Co  Co15  1  0.412512  0.587488  0.936453  1
  Co  Co16  1  0.589120  0.410880  0.250000  1
  Co  Co17  1  0.412512  0.587488  0.563547  1
  Co  Co18  1  0.708652  0.291348  0.343668  1
  Co  Co19  1  0.708652  0.291348  0.156332  1
  Co  Co20  1  0.587488  0.412512  0.063547  1
  Co  Co21  1  0.291348  0.708652  0.843668  1
