# generated using pymatgen
data_La6YbTcBr12
_symmetry_space_group_name_H-M   'P 1'
_cell_length_a   9.73786803
_cell_length_b   9.78444156
_cell_length_c   9.80302451
_cell_angle_alpha   107.58946855
_cell_angle_beta   107.65326256
_cell_angle_gamma   106.41593304
_symmetry_Int_Tables_number   1
_chemical_formula_structural   La6YbTcBr12
_chemical_formula_sum   'La6 Yb1 Tc1 Br12'
_cell_volume   773.07365493
_cell_formula_units_Z   1
loop_
 _symmetry_equiv_pos_site_id
 _symmetry_equiv_pos_as_xyz
  1  'x, y, z'
loop_
 _atom_site_type_symbol
 _atom_site_label
 _atom_site_symmetry_multiplicity
 _atom_site_fract_x
 _atom_site_fract_y
 _atom_site_fract_z
 _atom_site_occupancy
  La  La0  1  0.313676  0.108115  0.026918  1
  La  La1  1  0.024260  0.314105  0.110709  1
  La  La2  1  0.112721  0.027290  0.315682  1
  La  La3  1  0.887279  0.972710  0.684319  1
  La  La4  1  0.975740  0.685896  0.889292  1
  La  La5  1  0.686325  0.891885  0.973083  1
  Yb  Yb6  1  0.500000  0.500000  0.500000  1
  Tc  Tc7  1  0.000000  0.000000  0.000000  1
  Br  Br8  1  0.680028  0.215169  0.067171  1
  Br  Br9  1  0.378791  0.458399  0.176037  1
  Br  Br10  1  0.068693  0.683180  0.214072  1
  Br  Br11  1  0.786893  0.933094  0.315997  1
  Br  Br12  1  0.464632  0.176560  0.382221  1
  Br  Br13  1  0.173240  0.379633  0.461068  1
  Br  Br14  1  0.826760  0.620368  0.538932  1
  Br  Br15  1  0.535368  0.823441  0.617779  1
  Br  Br16  1  0.213108  0.066907  0.684003  1
  Br  Br17  1  0.931307  0.316820  0.785929  1
  Br  Br18  1  0.621210  0.541601  0.823963  1
  Br  Br19  1  0.319973  0.784831  0.932829  1
