# generated using pymatgen
data_Ho5TmMnFeB14
_symmetry_space_group_name_H-M   'P 1'
_cell_length_a   7.99263410
_cell_length_b   7.99263448
_cell_length_c   9.24453700
_cell_angle_alpha   90.00000000
_cell_angle_beta   90.00000000
_cell_angle_gamma   155.31172699
_symmetry_Int_Tables_number   1
_chemical_formula_structural   Ho5TmMnFeB14
_chemical_formula_sum   'Ho5 Tm1 Mn1 Fe1 B14'
_cell_volume   246.66634012
_cell_formula_units_Z   1
loop_
 _symmetry_equiv_pos_site_id
 _symmetry_equiv_pos_as_xyz
  1  'x, y, z'
loop_
 _atom_site_type_symbol
 _atom_site_label
 _atom_site_symmetry_multiplicity
 _atom_site_fract_x
 _atom_site_fract_y
 _atom_site_fract_z
 _atom_site_occupancy
  Ho  Ho0  1  0.895081  0.104919  0.437756  1
  Ho  Ho1  1  0.104780  0.895220  0.559469  1
  Ho  Ho2  1  0.895081  0.104919  0.062244  1
  Ho  Ho3  1  0.104780  0.895220  0.940531  1
  Ho  Ho4  1  0.757816  0.242184  0.750000  1
  Tm  Tm5  1  0.240648  0.759352  0.250000  1
  Mn  Mn6  1  0.053384  0.946616  0.250000  1
  Fe  Fe7  1  0.945912  0.054088  0.750000  1
  B  B8  1  0.728025  0.271975  0.465753  1
  B  B9  1  0.272622  0.727378  0.532673  1
  B  B10  1  0.728025  0.271975  0.034247  1
  B  B11  1  0.272622  0.727378  0.967327  1
  B  B12  1  0.630524  0.369476  0.153099  1
  B  B13  1  0.370032  0.629968  0.847255  1
  B  B14  1  0.630524  0.369476  0.346901  1
  B  B15  1  0.370032  0.629968  0.652745  1
  B  B16  1  0.521475  0.478525  0.097952  1
  B  B17  1  0.478703  0.521297  0.902180  1
  B  B18  1  0.521475  0.478525  0.402048  1
  B  B19  1  0.478703  0.521297  0.597820  1
  B  B20  1  0.459090  0.540910  0.250000  1
  B  B21  1  0.540663  0.459337  0.750000  1
