# generated using pymatgen
data_HoPa3(InPd2)2
_symmetry_space_group_name_H-M   'P 1'
_cell_length_a   7.80237993
_cell_length_b   7.80237993
_cell_length_c   3.66846800
_cell_angle_alpha   90.00000000
_cell_angle_beta   90.00000000
_cell_angle_gamma   89.14548792
_symmetry_Int_Tables_number   1
_chemical_formula_structural   HoPa3(InPd2)2
_chemical_formula_sum   'Ho1 Pa3 In2 Pd4'
_cell_volume   223.30097637
_cell_formula_units_Z   1
loop_
 _symmetry_equiv_pos_site_id
 _symmetry_equiv_pos_as_xyz
  1  'x, y, z'
loop_
 _atom_site_type_symbol
 _atom_site_label
 _atom_site_symmetry_multiplicity
 _atom_site_fract_x
 _atom_site_fract_y
 _atom_site_fract_z
 _atom_site_occupancy
  Ho  Ho0  1  0.675330  0.175330  0.500000  1
  Pa  Pa1  1  0.329417  0.829417  0.500000  1
  Pa  Pa2  1  0.825769  0.673096  0.500000  1
  Pa  Pa3  1  0.173096  0.325769  0.500000  1
  In  In4  1  0.995242  0.001899  0.000000  1
  In  In5  1  0.501899  0.495242  0.000000  1
  Pd  Pd6  1  0.362269  0.123943  0.000000  1
  Pd  Pd7  1  0.880124  0.380124  0.000000  1
  Pd  Pd8  1  0.132909  0.632909  0.000000  1
  Pd  Pd9  1  0.623943  0.862269  0.000000  1
