# generated using pymatgen
data_Sr8Cd3Si12Pt
_symmetry_space_group_name_H-M   'P 1'
_cell_length_a   11.94657122
_cell_length_b   10.29264990
_cell_length_c   8.52340190
_cell_angle_alpha   78.20459577
_cell_angle_beta   57.53312003
_cell_angle_gamma   44.29833591
_symmetry_Int_Tables_number   1
_chemical_formula_structural   Sr8Cd3Si12Pt
_chemical_formula_sum   'Sr8 Cd3 Si12 Pt1'
_cell_volume   588.10372848
_cell_formula_units_Z   1
loop_
 _symmetry_equiv_pos_site_id
 _symmetry_equiv_pos_as_xyz
  1  'x, y, z'
loop_
 _atom_site_type_symbol
 _atom_site_label
 _atom_site_symmetry_multiplicity
 _atom_site_fract_x
 _atom_site_fract_y
 _atom_site_fract_z
 _atom_site_occupancy
  Sr  Sr0  1  0.122157  0.131713  0.881477  1
  Sr  Sr1  1  0.881478  0.864655  0.122156  1
  Sr  Sr2  1  0.123313  0.135425  0.368811  1
  Sr  Sr3  1  0.368812  0.372452  0.123312  1
  Sr  Sr4  1  0.633528  0.617830  0.370839  1
  Sr  Sr5  1  0.370839  0.377804  0.633528  1
  Sr  Sr6  1  0.626820  0.630258  0.872825  1
  Sr  Sr7  1  0.872826  0.870098  0.626819  1
  Cd  Cd8  1  0.832891  0.167109  0.832891  1
  Cd  Cd9  1  0.167998  0.832002  0.167998  1
  Cd  Cd10  1  0.417683  0.082317  0.417683  1
  Si  Si11  1  0.921269  0.585802  0.408857  1
  Si  Si12  1  0.059673  0.433680  0.596830  1
  Si  Si13  1  0.408857  0.084072  0.921269  1
  Si  Si14  1  0.596830  0.909817  0.059673  1
  Si  Si15  1  0.340724  0.659504  0.818514  1
  Si  Si16  1  0.654894  0.336008  0.186215  1
  Si  Si17  1  0.818514  0.181258  0.340724  1
  Si  Si18  1  0.186215  0.822883  0.654894  1
  Si  Si19  1  0.918954  0.581047  0.918953  1
  Si  Si20  1  0.592727  0.907274  0.592726  1
  Si  Si21  1  0.340443  0.659558  0.340443  1
  Si  Si22  1  0.660334  0.339666  0.660334  1
  Pt  Pt23  1  0.082226  0.417774  0.082226  1
