# generated using pymatgen
data_NdHoMn6P7Ir6
_symmetry_space_group_name_H-M   'P 1'
_cell_length_a   9.42641500
_cell_length_b   9.42641451
_cell_length_c   3.87073200
_cell_angle_alpha   90.00000000
_cell_angle_beta   90.00000000
_cell_angle_gamma   120.00000524
_symmetry_Int_Tables_number   1
_chemical_formula_structural   NdHoMn6P7Ir6
_chemical_formula_sum   'Nd1 Ho1 Mn6 P7 Ir6'
_cell_volume   297.86316544
_cell_formula_units_Z   1
loop_
 _symmetry_equiv_pos_site_id
 _symmetry_equiv_pos_as_xyz
  1  'x, y, z'
loop_
 _atom_site_type_symbol
 _atom_site_label
 _atom_site_symmetry_multiplicity
 _atom_site_fract_x
 _atom_site_fract_y
 _atom_site_fract_z
 _atom_site_occupancy
  Nd  Nd0  1  0.333333  0.666667  0.500000  1
  Ho  Ho1  1  0.666667  0.333333  0.000000  1
  Mn  Mn2  1  0.269342  0.158584  0.000000  1
  Mn  Mn3  1  0.841416  0.110758  0.000000  1
  Mn  Mn4  1  0.889242  0.730658  0.000000  1
  Mn  Mn5  1  0.095750  0.215152  0.500000  1
  Mn  Mn6  1  0.784848  0.880598  0.500000  1
  Mn  Mn7  1  0.119402  0.904250  0.500000  1
  P  P8  1  0.297938  0.407516  0.000000  1
  P  P9  1  0.592484  0.890423  0.000000  1
  P  P10  1  0.109577  0.702062  0.000000  1
  P  P11  1  0.397854  0.117686  0.500000  1
  P  P12  1  0.882314  0.280167  0.500000  1
  P  P13  1  0.719833  0.602146  0.500000  1
  P  P14  1  0.000000  0.000000  0.000000  1
  Ir  Ir15  1  0.059413  0.423059  0.000000  1
  Ir  Ir16  1  0.576941  0.636354  0.000000  1
  Ir  Ir17  1  0.363646  0.940587  0.000000  1
  Ir  Ir18  1  0.442067  0.384611  0.500000  1
  Ir  Ir19  1  0.615389  0.057456  0.500000  1
  Ir  Ir20  1  0.942544  0.557933  0.500000  1
