# generated using pymatgen
data_Eu4Co3RuI2
_symmetry_space_group_name_H-M   'P 1'
_cell_length_a   4.17467900
_cell_length_b   4.17467869
_cell_length_c   18.27655100
_cell_angle_alpha   90.00000000
_cell_angle_beta   90.00000000
_cell_angle_gamma   119.99999451
_symmetry_Int_Tables_number   1
_chemical_formula_structural   Eu4Co3RuI2
_chemical_formula_sum   'Eu4 Co3 Ru1 I2'
_cell_volume   275.84876307
_cell_formula_units_Z   1
loop_
 _symmetry_equiv_pos_site_id
 _symmetry_equiv_pos_as_xyz
  1  'x, y, z'
loop_
 _atom_site_type_symbol
 _atom_site_label
 _atom_site_symmetry_multiplicity
 _atom_site_fract_x
 _atom_site_fract_y
 _atom_site_fract_z
 _atom_site_occupancy
  Eu  Eu0  1  0.000000  0.000000  0.109524  1
  Eu  Eu1  1  0.000000  0.000000  0.393193  1
  Eu  Eu2  1  0.000000  0.000000  0.890805  1
  Eu  Eu3  1  0.000000  0.000000  0.607019  1
  Co  Co4  1  0.666667  0.333333  0.998505  1
  Co  Co5  1  0.333333  0.666667  0.498273  1
  Co  Co6  1  0.666667  0.333333  0.501817  1
  Ru  Ru7  1  0.333333  0.666667  0.001138  1
  I  I8  1  0.333333  0.666667  0.747322  1
  I  I9  1  0.666667  0.333333  0.252403  1
