# generated using pymatgen
data_Nd7Ho13Pt16
_symmetry_space_group_name_H-M   'P 1'
_cell_length_a   7.56077671
_cell_length_b   7.65359026
_cell_length_c   14.79831789
_cell_angle_alpha   90.03679798
_cell_angle_beta   89.95746989
_cell_angle_gamma   89.95785184
_symmetry_Int_Tables_number   1
_chemical_formula_structural   Nd7Ho13Pt16
_chemical_formula_sum   'Nd7 Ho13 Pt16'
_cell_volume   856.33490474
_cell_formula_units_Z   1
loop_
 _symmetry_equiv_pos_site_id
 _symmetry_equiv_pos_as_xyz
  1  'x, y, z'
loop_
 _atom_site_type_symbol
 _atom_site_label
 _atom_site_symmetry_multiplicity
 _atom_site_fract_x
 _atom_site_fract_y
 _atom_site_fract_z
 _atom_site_occupancy
  Nd  Nd0  1  0.498947  0.677659  0.094394  1
  Nd  Nd1  1  0.500913  0.322635  0.594042  1
  Nd  Nd2  1  0.000846  0.178034  0.906264  1
  Nd  Nd3  1  0.000355  0.175409  0.592876  1
  Nd  Nd4  1  0.501020  0.322425  0.905870  1
  Nd  Nd5  1  0.498982  0.678897  0.406526  1
  Nd  Nd6  1  0.999641  0.822268  0.094227  1
  Ho  Ho7  1  0.680678  0.990149  0.251316  1
  Ho  Ho8  1  0.180162  0.510598  0.251059  1
  Ho  Ho9  1  0.820203  0.489942  0.749476  1
  Ho  Ho10  1  0.319783  0.009971  0.749798  1
  Ho  Ho11  1  0.657315  0.832865  0.622687  1
  Ho  Ho12  1  0.156910  0.667372  0.876463  1
  Ho  Ho13  1  0.843266  0.332296  0.377113  1
  Ho  Ho14  1  0.342823  0.167537  0.123811  1
  Ho  Ho15  1  0.340929  0.166260  0.377648  1
  Ho  Ho16  1  0.843333  0.331930  0.123997  1
  Ho  Ho17  1  0.155185  0.668908  0.621989  1
  Ho  Ho18  1  0.656997  0.832158  0.876711  1
  Ho  Ho19  1  0.996717  0.819893  0.405026  1
  Pt  Pt20  1  0.817466  0.640498  0.252834  1
  Pt  Pt21  1  0.313004  0.861785  0.251422  1
  Pt  Pt22  1  0.685641  0.138018  0.749505  1
  Pt  Pt23  1  0.185629  0.362219  0.749422  1
  Pt  Pt24  1  0.547201  0.379545  0.250556  1
  Pt  Pt25  1  0.045573  0.118665  0.251399  1
  Pt  Pt26  1  0.953373  0.878940  0.749640  1
  Pt  Pt27  1  0.453423  0.621152  0.749436  1
  Pt  Pt28  1  0.821445  0.538610  0.541555  1
  Pt  Pt29  1  0.320614  0.964237  0.956874  1
  Pt  Pt30  1  0.685864  0.031391  0.455957  1
  Pt  Pt31  1  0.178952  0.464377  0.043047  1
  Pt  Pt32  1  0.177122  0.469448  0.455516  1
  Pt  Pt33  1  0.679364  0.035712  0.042998  1
  Pt  Pt34  1  0.320063  0.962752  0.541570  1
  Pt  Pt35  1  0.820262  0.535447  0.956970  1
