# generated using pymatgen
data_YbBeCuSi2
_symmetry_space_group_name_H-M   'P 1'
_cell_length_a   3.94681831
_cell_length_b   3.94681953
_cell_length_c   5.67755526
_cell_angle_alpha   110.33940443
_cell_angle_beta   110.33941405
_cell_angle_gamma   90.00000398
_symmetry_Int_Tables_number   1
_chemical_formula_structural   YbBeCuSi2
_chemical_formula_sum   'Yb1 Be1 Cu1 Si2'
_cell_volume   77.01899962
_cell_formula_units_Z   1
loop_
 _symmetry_equiv_pos_site_id
 _symmetry_equiv_pos_as_xyz
  1  'x, y, z'
loop_
 _atom_site_type_symbol
 _atom_site_label
 _atom_site_symmetry_multiplicity
 _atom_site_fract_x
 _atom_site_fract_y
 _atom_site_fract_z
 _atom_site_occupancy
  Yb  Yb0  1  0.000000  0.000000  0.000000  1
  Be  Be1  1  0.750001  0.250000  0.500001  1
  Cu  Cu2  1  0.250000  0.750001  0.500001  1
  Si  Si3  1  0.620002  0.620002  0.240002  1
  Si  Si4  1  0.379999  0.379999  0.759998  1
