# generated using pymatgen
data_KRb5(GaTe3)2
_symmetry_space_group_name_H-M   'P 1'
_cell_length_a   14.29679600
_cell_length_b   8.93037438
_cell_length_c   11.68655492
_cell_angle_alpha   52.85727223
_cell_angle_beta   90.00000000
_cell_angle_gamma   90.00000000
_symmetry_Int_Tables_number   1
_chemical_formula_structural   KRb5(GaTe3)2
_chemical_formula_sum   'K2 Rb10 Ga4 Te12'
_cell_volume   1189.39512353
_cell_formula_units_Z   2
loop_
 _symmetry_equiv_pos_site_id
 _symmetry_equiv_pos_as_xyz
  1  'x, y, z'
loop_
 _atom_site_type_symbol
 _atom_site_label
 _atom_site_symmetry_multiplicity
 _atom_site_fract_x
 _atom_site_fract_y
 _atom_site_fract_z
 _atom_site_occupancy
  K  K0  1  0.385675  0.638584  0.523732  1
  K  K1  1  0.885675  0.361416  0.976268  1
  Rb  Rb2  1  0.906503  0.337822  0.397737  1
  Rb  Rb3  1  0.406503  0.662178  0.102263  1
  Rb  Rb4  1  0.093204  0.662333  0.602648  1
  Rb  Rb5  1  0.593204  0.337667  0.897352  1
  Rb  Rb6  1  0.190106  0.124868  0.590172  1
  Rb  Rb7  1  0.690106  0.875132  0.909828  1
  Rb  Rb8  1  0.810379  0.876052  0.409596  1
  Rb  Rb9  1  0.310379  0.123948  0.090404  1
  Rb  Rb10  1  0.615202  0.364357  0.476143  1
  Rb  Rb11  1  0.115202  0.635643  0.023857  1
  Ga  Ga12  1  0.936598  0.065196  0.836874  1
  Ga  Ga13  1  0.436598  0.934804  0.663126  1
  Ga  Ga14  1  0.063807  0.933666  0.163929  1
  Ga  Ga15  1  0.563807  0.066334  0.336071  1
  Te  Te16  1  0.393270  0.158531  0.375691  1
  Te  Te17  1  0.893270  0.841469  0.124309  1
  Te  Te18  1  0.606942  0.841381  0.623529  1
  Te  Te19  1  0.106942  0.158619  0.876471  1
  Te  Te20  1  0.684129  0.349120  0.186980  1
  Te  Te21  1  0.184129  0.650880  0.313020  1
  Te  Te22  1  0.318756  0.648924  0.807598  1
  Te  Te23  1  0.818756  0.351076  0.692402  1
  Te  Te24  1  0.553242  0.869917  0.237374  1
  Te  Te25  1  0.053242  0.130083  0.262626  1
  Te  Te26  1  0.442188  0.130766  0.763356  1
  Te  Te27  1  0.942188  0.869234  0.736644  1
