# generated using pymatgen
data_Hf10Si6C
_symmetry_space_group_name_H-M   'P 1'
_cell_length_a   7.86377600
_cell_length_b   7.86377569
_cell_length_c   5.56250300
_cell_angle_alpha   90.00000000
_cell_angle_beta   90.00000000
_cell_angle_gamma   119.99999291
_symmetry_Int_Tables_number   1
_chemical_formula_structural   Hf10Si6C
_chemical_formula_sum   'Hf10 Si6 C1'
_cell_volume   297.89497112
_cell_formula_units_Z   1
loop_
 _symmetry_equiv_pos_site_id
 _symmetry_equiv_pos_as_xyz
  1  'x, y, z'
loop_
 _atom_site_type_symbol
 _atom_site_label
 _atom_site_symmetry_multiplicity
 _atom_site_fract_x
 _atom_site_fract_y
 _atom_site_fract_z
 _atom_site_occupancy
  Hf  Hf0  1  0.000000  0.758314  0.258644  1
  Hf  Hf1  1  0.241686  0.241686  0.258644  1
  Hf  Hf2  1  0.758314  0.000000  0.258644  1
  Hf  Hf3  1  0.000000  0.241686  0.741356  1
  Hf  Hf4  1  0.758314  0.758314  0.741356  1
  Hf  Hf5  1  0.241686  0.000000  0.741356  1
  Hf  Hf6  1  0.333333  0.666667  0.000000  1
  Hf  Hf7  1  0.666667  0.333333  0.000000  1
  Hf  Hf8  1  0.666667  0.333333  0.500000  1
  Hf  Hf9  1  0.333333  0.666667  0.500000  1
  Si  Si10  1  0.000000  0.398180  0.248565  1
  Si  Si11  1  0.601820  0.601820  0.248565  1
  Si  Si12  1  0.398180  0.000000  0.248565  1
  Si  Si13  1  0.000000  0.601820  0.751435  1
  Si  Si14  1  0.398180  0.398180  0.751435  1
  Si  Si15  1  0.601820  0.000000  0.751435  1
  C  C16  1  0.000000  0.000000  0.500000  1
