# generated using pymatgen
data_NaFeP3Rh4
_symmetry_space_group_name_H-M   'P 1'
_cell_length_a   3.80718400
_cell_length_b   10.68353200
_cell_length_c   12.46929300
_cell_angle_alpha   90.00000000
_cell_angle_beta   90.00000000
_cell_angle_gamma   90.00000000
_symmetry_Int_Tables_number   1
_chemical_formula_structural   NaFeP3Rh4
_chemical_formula_sum   'Na4 Fe4 P12 Rh16'
_cell_volume   507.17816937
_cell_formula_units_Z   4
loop_
 _symmetry_equiv_pos_site_id
 _symmetry_equiv_pos_as_xyz
  1  'x, y, z'
loop_
 _atom_site_type_symbol
 _atom_site_label
 _atom_site_symmetry_multiplicity
 _atom_site_fract_x
 _atom_site_fract_y
 _atom_site_fract_z
 _atom_site_occupancy
  Na  Na0  1  0.250000  0.583292  0.708931  1
  Na  Na1  1  0.250000  0.916708  0.208931  1
  Na  Na2  1  0.750000  0.416708  0.291069  1
  Na  Na3  1  0.750000  0.083292  0.791069  1
  Fe  Fe4  1  0.250000  0.463643  0.934512  1
  Fe  Fe5  1  0.250000  0.036357  0.434512  1
  Fe  Fe6  1  0.750000  0.536357  0.065488  1
  Fe  Fe7  1  0.750000  0.963643  0.565488  1
  P  P8  1  0.250000  0.429424  0.105905  1
  P  P9  1  0.250000  0.070576  0.605905  1
  P  P10  1  0.750000  0.570576  0.894095  1
  P  P11  1  0.750000  0.929424  0.394095  1
  P  P12  1  0.250000  0.272019  0.868486  1
  P  P13  1  0.250000  0.227981  0.368486  1
  P  P14  1  0.750000  0.727981  0.131514  1
  P  P15  1  0.750000  0.772019  0.631514  1
  P  P16  1  0.250000  0.603031  0.392216  1
  P  P17  1  0.250000  0.896969  0.892216  1
  P  P18  1  0.750000  0.396969  0.607784  1
  P  P19  1  0.750000  0.103031  0.107784  1
  Rh  Rh20  1  0.250000  0.709938  0.988372  1
  Rh  Rh21  1  0.250000  0.790062  0.488372  1
  Rh  Rh22  1  0.750000  0.290062  0.011628  1
  Rh  Rh23  1  0.750000  0.209938  0.511628  1
  Rh  Rh24  1  0.250000  0.406922  0.483028  1
  Rh  Rh25  1  0.250000  0.093078  0.983028  1
  Rh  Rh26  1  0.750000  0.593078  0.516972  1
  Rh  Rh27  1  0.750000  0.906922  0.016972  1
  Rh  Rh28  1  0.250000  0.230980  0.176131  1
  Rh  Rh29  1  0.250000  0.269020  0.676131  1
  Rh  Rh30  1  0.750000  0.769020  0.823869  1
  Rh  Rh31  1  0.750000  0.730980  0.323869  1
  Rh  Rh32  1  0.250000  0.883301  0.702745  1
  Rh  Rh33  1  0.250000  0.616699  0.202745  1
  Rh  Rh34  1  0.750000  0.116699  0.297255  1
  Rh  Rh35  1  0.750000  0.383301  0.797255  1
