# generated using pymatgen
data_SmHo3Fe4(WO6)4
_symmetry_space_group_name_H-M   'P 1'
_cell_length_a   5.24307840
_cell_length_b   7.44960799
_cell_length_c   11.10401639
_cell_angle_alpha   90.11078634
_cell_angle_beta   90.10093431
_cell_angle_gamma   89.95884107
_symmetry_Int_Tables_number   1
_chemical_formula_structural   SmHo3Fe4(WO6)4
_chemical_formula_sum   'Sm1 Ho3 Fe4 W4 O24'
_cell_volume   433.70883499
_cell_formula_units_Z   1
loop_
 _symmetry_equiv_pos_site_id
 _symmetry_equiv_pos_as_xyz
  1  'x, y, z'
loop_
 _atom_site_type_symbol
 _atom_site_label
 _atom_site_symmetry_multiplicity
 _atom_site_fract_x
 _atom_site_fract_y
 _atom_site_fract_z
 _atom_site_occupancy
  Sm  Sm0  1  0.457999  0.751304  0.955704  1
  Ho  Ho1  1  0.547486  0.251324  0.045118  1
  Ho  Ho2  1  0.045764  0.751333  0.455179  1
  Ho  Ho3  1  0.954122  0.251366  0.544478  1
  Fe  Fe4  1  0.043328  0.997896  0.140014  1
  Fe  Fe5  1  0.543861  0.496051  0.361377  1
  Fe  Fe6  1  0.456961  0.996577  0.637961  1
  Fe  Fe7  1  0.957932  0.494239  0.860727  1
  W  W8  1  0.052217  0.505667  0.143939  1
  W  W9  1  0.551862  0.006623  0.357550  1
  W  W10  1  0.448036  0.506450  0.641439  1
  W  W11  1  0.949275  0.009059  0.856661  1
  O  O12  1  0.759490  0.966483  0.020628  1
  O  O13  1  0.765382  0.540951  0.029826  1
  O  O14  1  0.168343  0.748551  0.119184  1
  O  O15  1  0.933287  0.258034  0.145812  1
  O  O16  1  0.376785  0.433323  0.206788  1
  O  O17  1  0.392984  0.067283  0.211599  1
  O  O18  1  0.891731  0.566682  0.289318  1
  O  O19  1  0.874516  0.933031  0.293625  1
  O  O20  1  0.433120  0.758689  0.356804  1
  O  O21  1  0.675792  0.248324  0.383742  1
  O  O22  1  0.262420  0.046011  0.470743  1
  O  O23  1  0.255214  0.460755  0.479261  1
  O  O24  1  0.744783  0.960940  0.519978  1
  O  O25  1  0.737453  0.545941  0.528584  1
  O  O26  1  0.323449  0.748646  0.616513  1
  O  O27  1  0.566707  0.258730  0.642012  1
  O  O28  1  0.125900  0.433024  0.706473  1
  O  O29  1  0.109400  0.068852  0.711576  1
  O  O30  1  0.610892  0.565594  0.786172  1
  O  O31  1  0.626348  0.937415  0.791106  1
  O  O32  1  0.056724  0.759025  0.856444  1
  O  O33  1  0.821319  0.249624  0.882614  1
  O  O34  1  0.236830  0.048836  0.970455  1
  O  O35  1  0.242282  0.457769  0.980599  1
