# generated using pymatgen
data_NdDy(SnRh)2
_symmetry_space_group_name_H-M   'P 1'
_cell_length_a   7.54803600
_cell_length_b   7.54803743
_cell_length_c   8.01993100
_cell_angle_alpha   90.00000000
_cell_angle_beta   90.00000000
_cell_angle_gamma   120.00000249
_symmetry_Int_Tables_number   1
_chemical_formula_structural   NdDy(SnRh)2
_chemical_formula_sum   'Nd3 Dy3 Sn6 Rh6'
_cell_volume   395.70292509
_cell_formula_units_Z   3
loop_
 _symmetry_equiv_pos_site_id
 _symmetry_equiv_pos_as_xyz
  1  'x, y, z'
loop_
 _atom_site_type_symbol
 _atom_site_label
 _atom_site_symmetry_multiplicity
 _atom_site_fract_x
 _atom_site_fract_y
 _atom_site_fract_z
 _atom_site_occupancy
  Nd  Nd0  1  0.999957  0.410089  0.750000  1
  Nd  Nd1  1  0.589911  0.589868  0.750000  1
  Nd  Nd2  1  0.410132  0.000043  0.750000  1
  Dy  Dy3  1  0.999805  0.405735  0.250000  1
  Dy  Dy4  1  0.594265  0.594071  0.250000  1
  Dy  Dy5  1  0.405929  0.000195  0.250000  1
  Sn  Sn6  1  0.255972  0.256012  0.494953  1
  Sn  Sn7  1  0.000040  0.744028  0.494953  1
  Sn  Sn8  1  0.000040  0.744028  0.005047  1
  Sn  Sn9  1  0.743988  0.999960  0.494953  1
  Sn  Sn10  1  0.743988  0.999960  0.005047  1
  Sn  Sn11  1  0.255972  0.256012  0.005047  1
  Rh  Rh12  1  0.333333  0.666667  0.485616  1
  Rh  Rh13  1  0.666667  0.333333  0.486067  1
  Rh  Rh14  1  0.333333  0.666667  0.014384  1
  Rh  Rh15  1  0.000000  0.000000  0.750000  1
  Rh  Rh16  1  0.000000  0.000000  0.250000  1
  Rh  Rh17  1  0.666667  0.333333  0.013933  1
