# generated using pymatgen
data_YEr15In2(AgIr2)2
_symmetry_space_group_name_H-M   'P 1'
_cell_length_a   9.52346835
_cell_length_b   9.53320474
_cell_length_c   9.52160444
_cell_angle_alpha   60.05752199
_cell_angle_beta   60.05397888
_cell_angle_gamma   60.03377689
_symmetry_Int_Tables_number   1
_chemical_formula_structural   YEr15In2(AgIr2)2
_chemical_formula_sum   'Y1 Er15 In2 Ag2 Ir4'
_cell_volume   611.93540044
_cell_formula_units_Z   1
loop_
 _symmetry_equiv_pos_site_id
 _symmetry_equiv_pos_as_xyz
  1  'x, y, z'
loop_
 _atom_site_type_symbol
 _atom_site_label
 _atom_site_symmetry_multiplicity
 _atom_site_fract_x
 _atom_site_fract_y
 _atom_site_fract_z
 _atom_site_occupancy
  Y  Y0  1  0.058623  0.065355  0.437098  1
  Er  Er1  1  0.648456  0.049481  0.648974  1
  Er  Er2  1  0.192048  0.808279  0.191778  1
  Er  Er3  1  0.437542  0.061676  0.436955  1
  Er  Er4  1  0.190390  0.189304  0.811435  1
  Er  Er5  1  0.649843  0.652454  0.649967  1
  Er  Er6  1  0.049799  0.649943  0.649631  1
  Er  Er7  1  0.437924  0.065127  0.057728  1
  Er  Er8  1  0.649503  0.650183  0.049692  1
  Er  Er9  1  0.191345  0.809644  0.810502  1
  Er  Er10  1  0.810119  0.190224  0.810877  1
  Er  Er11  1  0.811141  0.189384  0.190257  1
  Er  Er12  1  0.810156  0.809906  0.191229  1
  Er  Er13  1  0.057917  0.439335  0.437216  1
  Er  Er14  1  0.437182  0.438534  0.058121  1
  Er  Er15  1  0.061114  0.439286  0.060562  1
  In  In16  1  0.421211  0.742606  0.421048  1
  In  In17  1  0.421163  0.416404  0.421199  1
  Ag  Ag18  1  0.749108  0.417255  0.417129  1
  Ag  Ag19  1  0.417265  0.416476  0.749761  1
  Ir  Ir20  1  0.857563  0.858673  0.858188  1
  Ir  Ir21  1  0.425225  0.857410  0.858334  1
  Ir  Ir22  1  0.858201  0.857195  0.425138  1
  Ir  Ir23  1  0.857162  0.425869  0.857180  1
