# generated using pymatgen
data_La11Yb5(YSn4)4
_symmetry_space_group_name_H-M   'P 1'
_cell_length_a   8.09404798
_cell_length_b   8.50490626
_cell_length_c   16.06625100
_cell_angle_alpha   90.05004763
_cell_angle_beta   89.87923636
_cell_angle_gamma   90.02809679
_symmetry_Int_Tables_number   1
_chemical_formula_structural   La11Yb5(YSn4)4
_chemical_formula_sum   'La11 Yb5 Y4 Sn16'
_cell_volume   1105.98355904
_cell_formula_units_Z   1
loop_
 _symmetry_equiv_pos_site_id
 _symmetry_equiv_pos_as_xyz
  1  'x, y, z'
loop_
 _atom_site_type_symbol
 _atom_site_label
 _atom_site_symmetry_multiplicity
 _atom_site_fract_x
 _atom_site_fract_y
 _atom_site_fract_z
 _atom_site_occupancy
  La  La0  1  0.167505  0.327402  0.375378  1
  La  La1  1  0.334787  0.828172  0.624109  1
  La  La2  1  0.832315  0.672418  0.877489  1
  La  La3  1  0.492967  0.317772  0.904639  1
  La  La4  1  0.990648  0.181711  0.597043  1
  La  La5  1  0.509550  0.683887  0.402354  1
  La  La6  1  0.008577  0.815926  0.097502  1
  La  La7  1  0.508266  0.680997  0.095998  1
  La  La8  1  0.006137  0.818730  0.403263  1
  La  La9  1  0.491813  0.319014  0.595961  1
  La  La10  1  0.991834  0.183279  0.904698  1
  Yb  Yb11  1  0.669676  0.167889  0.123709  1
  Yb  Yb12  1  0.162439  0.497843  0.751391  1
  Yb  Yb13  1  0.662921  0.003017  0.749478  1
  Yb  Yb14  1  0.836449  0.500222  0.250050  1
  Yb  Yb15  1  0.337480  0.999163  0.247272  1
  Y  Y16  1  0.330615  0.830799  0.876016  1
  Y  Y17  1  0.831116  0.670881  0.624990  1
  Y  Y18  1  0.666958  0.171590  0.374216  1
  Y  Y19  1  0.168101  0.329241  0.125078  1
  Sn  Sn20  1  0.323724  0.039026  0.037349  1
  Sn  Sn21  1  0.818238  0.461207  0.464151  1
  Sn  Sn22  1  0.682183  0.961349  0.535197  1
  Sn  Sn23  1  0.180398  0.538028  0.964394  1
  Sn  Sn24  1  0.661456  0.965430  0.961501  1
  Sn  Sn25  1  0.162483  0.538038  0.539859  1
  Sn  Sn26  1  0.334785  0.037591  0.459475  1
  Sn  Sn27  1  0.835492  0.459692  0.042056  1
  Sn  Sn28  1  0.529193  0.609193  0.749403  1
  Sn  Sn29  1  0.029545  0.891555  0.751866  1
  Sn  Sn30  1  0.471910  0.388501  0.245633  1
  Sn  Sn31  1  0.967703  0.110232  0.249510  1
  Sn  Sn32  1  0.291458  0.138655  0.751276  1
  Sn  Sn33  1  0.792359  0.361799  0.749462  1
  Sn  Sn34  1  0.708474  0.863093  0.249671  1
  Sn  Sn35  1  0.210447  0.636661  0.248559  1
