# generated using pymatgen
data_Re3Tc3PtRh
_symmetry_space_group_name_H-M   'P 1'
_cell_length_a   5.56716500
_cell_length_b   5.56716448
_cell_length_c   4.40425900
_cell_angle_alpha   90.00000000
_cell_angle_beta   90.00000000
_cell_angle_gamma   119.99999718
_symmetry_Int_Tables_number   1
_chemical_formula_structural   Re3Tc3PtRh
_chemical_formula_sum   'Re3 Tc3 Pt1 Rh1'
_cell_volume   118.21474232
_cell_formula_units_Z   1
loop_
 _symmetry_equiv_pos_site_id
 _symmetry_equiv_pos_as_xyz
  1  'x, y, z'
loop_
 _atom_site_type_symbol
 _atom_site_label
 _atom_site_symmetry_multiplicity
 _atom_site_fract_x
 _atom_site_fract_y
 _atom_site_fract_z
 _atom_site_occupancy
  Re  Re0  1  0.158833  0.317666  0.250000  1
  Re  Re1  1  0.682334  0.841167  0.250000  1
  Re  Re2  1  0.158833  0.841167  0.250000  1
  Tc  Tc3  1  0.840497  0.680994  0.750000  1
  Tc  Tc4  1  0.319006  0.159503  0.750000  1
  Tc  Tc5  1  0.840497  0.159503  0.750000  1
  Pt  Pt6  1  0.333333  0.666667  0.750000  1
  Rh  Rh7  1  0.666667  0.333333  0.250000  1
