# generated using pymatgen
data_Sc10Si5Ge
_symmetry_space_group_name_H-M   'P 1'
_cell_length_a   7.91524300
_cell_length_b   7.91572049
_cell_length_c   5.84383600
_cell_angle_alpha   90.00000000
_cell_angle_beta   90.00000000
_cell_angle_gamma   119.99801714
_symmetry_Int_Tables_number   1
_chemical_formula_structural   Sc10Si5Ge
_chemical_formula_sum   'Sc10 Si5 Ge1'
_cell_volume   317.09692545
_cell_formula_units_Z   1
loop_
 _symmetry_equiv_pos_site_id
 _symmetry_equiv_pos_as_xyz
  1  'x, y, z'
loop_
 _atom_site_type_symbol
 _atom_site_label
 _atom_site_symmetry_multiplicity
 _atom_site_fract_x
 _atom_site_fract_y
 _atom_site_fract_z
 _atom_site_occupancy
  Sc  Sc0  1  0.333217  0.665752  0.000739  1
  Sc  Sc1  1  0.667466  0.334248  0.499261  1
  Sc  Sc2  1  0.667466  0.334248  0.000739  1
  Sc  Sc3  1  0.333217  0.665752  0.499261  1
  Sc  Sc4  1  0.240608  0.000000  0.250000  1
  Sc  Sc5  1  0.240587  0.241915  0.750000  1
  Sc  Sc6  1  0.998672  0.758085  0.750000  1
  Sc  Sc7  1  0.999906  0.240945  0.250000  1
  Sc  Sc8  1  0.758961  0.759055  0.250000  1
  Sc  Sc9  1  0.759913  0.000000  0.750000  1
  Si  Si10  1  0.605682  0.000000  0.250000  1
  Si  Si11  1  0.605222  0.605257  0.750000  1
  Si  Si12  1  0.999965  0.394743  0.750000  1
  Si  Si13  1  0.000064  0.605341  0.250000  1
  Si  Si14  1  0.394724  0.394659  0.250000  1
  Ge  Ge15  1  0.394328  0.000000  0.750000  1
