# generated using pymatgen
data_Tb8Ti11Si16Os
_symmetry_space_group_name_H-M   'P 1'
_cell_length_a   7.03671571
_cell_length_b   7.03671586
_cell_length_c   12.92551482
_cell_angle_alpha   90.04816919
_cell_angle_beta   89.95183427
_cell_angle_gamma   89.95607395
_symmetry_Int_Tables_number   1
_chemical_formula_structural   Tb8Ti11Si16Os
_chemical_formula_sum   'Tb8 Ti11 Si16 Os1'
_cell_volume   640.01099551
_cell_formula_units_Z   1
loop_
 _symmetry_equiv_pos_site_id
 _symmetry_equiv_pos_as_xyz
  1  'x, y, z'
loop_
 _atom_site_type_symbol
 _atom_site_label
 _atom_site_symmetry_multiplicity
 _atom_site_fract_x
 _atom_site_fract_y
 _atom_site_fract_z
 _atom_site_occupancy
  Tb  Tb0  1  0.340235  0.004244  0.467427  1
  Tb  Tb1  1  0.496502  0.840727  0.718004  1
  Tb  Tb2  1  0.500609  0.159483  0.214808  1
  Tb  Tb3  1  0.840727  0.496502  0.281996  1
  Tb  Tb4  1  0.159483  0.500609  0.785192  1
  Tb  Tb5  1  0.658290  0.998286  0.968668  1
  Tb  Tb6  1  0.004244  0.340235  0.532573  1
  Tb  Tb7  1  0.998286  0.658290  0.031332  1
  Ti  Ti8  1  0.175042  0.827231  0.248458  1
  Ti  Ti9  1  0.827231  0.175042  0.751542  1
  Ti  Ti10  1  0.673727  0.673727  0.500000  1
  Ti  Ti11  1  0.151437  0.004795  0.876449  1
  Ti  Ti12  1  0.492701  0.656045  0.124997  1
  Ti  Ti13  1  0.507033  0.348513  0.628118  1
  Ti  Ti14  1  0.656045  0.492701  0.875003  1
  Ti  Ti15  1  0.348513  0.507033  0.371882  1
  Ti  Ti16  1  0.847888  0.993013  0.375537  1
  Ti  Ti17  1  0.004795  0.151437  0.123551  1
  Ti  Ti18  1  0.993013  0.847888  0.624463  1
  Si  Si19  1  0.201724  0.130858  0.685975  1
  Si  Si20  1  0.373587  0.698345  0.934443  1
  Si  Si21  1  0.630246  0.297195  0.435069  1
  Si  Si22  1  0.698345  0.373587  0.065557  1
  Si  Si23  1  0.297195  0.630246  0.564931  1
  Si  Si24  1  0.797283  0.869357  0.184533  1
  Si  Si25  1  0.130858  0.201724  0.314025  1
  Si  Si26  1  0.869357  0.797283  0.815467  1
  Si  Si27  1  0.286994  0.954006  0.064650  1
  Si  Si28  1  0.547286  0.791415  0.315632  1
  Si  Si29  1  0.450195  0.210234  0.818579  1
  Si  Si30  1  0.791415  0.547286  0.684368  1
  Si  Si31  1  0.210234  0.450195  0.181421  1
  Si  Si32  1  0.709064  0.047875  0.565616  1
  Si  Si33  1  0.954006  0.286994  0.935350  1
  Si  Si34  1  0.047875  0.709064  0.434384  1
  Os  Os35  1  0.328532  0.328532  0.000000  1
