# generated using pymatgen
data_Tb11Ho9(Ir3Rh)3
_symmetry_space_group_name_H-M   'P 1'
_cell_length_a   10.88484215
_cell_length_b   10.88455804
_cell_length_c   6.39160106
_cell_angle_alpha   90.00037844
_cell_angle_beta   90.01591914
_cell_angle_gamma   89.99001965
_symmetry_Int_Tables_number   1
_chemical_formula_structural   Tb11Ho9(Ir3Rh)3
_chemical_formula_sum   'Tb11 Ho9 Ir9 Rh3'
_cell_volume   757.25573593
_cell_formula_units_Z   1
loop_
 _symmetry_equiv_pos_site_id
 _symmetry_equiv_pos_as_xyz
  1  'x, y, z'
loop_
 _atom_site_type_symbol
 _atom_site_label
 _atom_site_symmetry_multiplicity
 _atom_site_fract_x
 _atom_site_fract_y
 _atom_site_fract_z
 _atom_site_occupancy
  Tb  Tb0  1  0.289646  0.088883  0.379138  1
  Tb  Tb1  1  0.289556  0.910592  0.879017  1
  Tb  Tb2  1  0.710461  0.089337  0.879042  1
  Tb  Tb3  1  0.710361  0.911021  0.379341  1
  Tb  Tb4  1  0.589516  0.789568  0.879067  1
  Tb  Tb5  1  0.588688  0.210031  0.379560  1
  Tb  Tb6  1  0.411393  0.790040  0.379476  1
  Tb  Tb7  1  0.410861  0.210117  0.879319  1
  Tb  Tb8  1  0.208752  0.411638  0.619443  1
  Tb  Tb9  1  0.209113  0.588777  0.121665  1
  Tb  Tb10  1  0.790753  0.411524  0.121579  1
  Ho  Ho11  1  0.791878  0.588256  0.618523  1
  Ho  Ho12  1  0.911407  0.709026  0.121166  1
  Ho  Ho13  1  0.911911  0.291521  0.618604  1
  Ho  Ho14  1  0.087473  0.708691  0.618521  1
  Ho  Ho15  1  0.088181  0.290892  0.121158  1
  Ho  Ho16  1  0.999877  0.999996  0.501424  1
  Ho  Ho17  1  0.999944  0.999918  0.001104  1
  Ho  Ho18  1  0.500054  0.500046  0.000540  1
  Ho  Ho19  1  0.500460  0.500197  0.500941  1
  Ir  Ir20  1  0.847234  0.152982  0.250645  1
  Ir  Ir21  1  0.847360  0.845842  0.750394  1
  Ir  Ir22  1  0.152537  0.153438  0.750720  1
  Ir  Ir23  1  0.152797  0.847025  0.250749  1
  Ir  Ir24  1  0.653743  0.347066  0.749150  1
  Ir  Ir25  1  0.653378  0.653469  0.250639  1
  Ir  Ir26  1  0.346990  0.346324  0.249518  1
  Ir  Ir27  1  0.346551  0.653469  0.749576  1
  Ir  Ir28  1  0.999453  0.500226  0.377130  1
  Rh  Rh29  1  0.500039  0.000014  0.122438  1
  Rh  Rh30  1  0.500061  0.999961  0.622950  1
  Rh  Rh31  1  0.999570  0.500113  0.877466  1
