# generated using pymatgen
data_Ti(OF2)2
_symmetry_space_group_name_H-M   'P 1'
_cell_length_a   4.45809703
_cell_length_b   5.21040138
_cell_length_c   6.30189664
_cell_angle_alpha   87.08475452
_cell_angle_beta   86.92927898
_cell_angle_gamma   65.93476535
_symmetry_Int_Tables_number   1
_chemical_formula_structural   Ti(OF2)2
_chemical_formula_sum   'Ti1 O2 F4'
_cell_volume   133.40054941
_cell_formula_units_Z   1
loop_
 _symmetry_equiv_pos_site_id
 _symmetry_equiv_pos_as_xyz
  1  'x, y, z'
loop_
 _atom_site_type_symbol
 _atom_site_label
 _atom_site_symmetry_multiplicity
 _atom_site_fract_x
 _atom_site_fract_y
 _atom_site_fract_z
 _atom_site_occupancy
  Ti  Ti0  1  0.593639  0.099814  0.301321  1
  O  O1  1  0.371905  0.578483  0.808327  1
  O  O2  1  0.601762  0.642674  0.842578  1
  F  F3  1  0.220505  0.399921  0.266099  1
  F  F4  1  0.498177  0.803791  0.354430  1
  F  F5  1  0.842584  0.052371  0.066327  1
  F  F6  1  0.803917  0.141789  0.517407  1
