# generated using pymatgen
data_UPa3(SiIr)4
_symmetry_space_group_name_H-M   'P 1'
_cell_length_a   4.25036700
_cell_length_b   6.96419796
_cell_length_c   7.50705493
_cell_angle_alpha   90.05861334
_cell_angle_beta   90.00000000
_cell_angle_gamma   90.00000000
_symmetry_Int_Tables_number   1
_chemical_formula_structural   UPa3(SiIr)4
_chemical_formula_sum   'U1 Pa3 Si4 Ir4'
_cell_volume   222.21169141
_cell_formula_units_Z   1
loop_
 _symmetry_equiv_pos_site_id
 _symmetry_equiv_pos_as_xyz
  1  'x, y, z'
loop_
 _atom_site_type_symbol
 _atom_site_label
 _atom_site_symmetry_multiplicity
 _atom_site_fract_x
 _atom_site_fract_y
 _atom_site_fract_z
 _atom_site_occupancy
  U  U0  1  0.750000  0.006778  0.205020  1
  Pa  Pa1  1  0.250000  0.492819  0.701802  1
  Pa  Pa2  1  0.750000  0.507602  0.296135  1
  Pa  Pa3  1  0.250000  0.993183  0.799128  1
  Si  Si4  1  0.250000  0.313877  0.085880  1
  Si  Si5  1  0.750000  0.686433  0.915463  1
  Si  Si6  1  0.250000  0.817591  0.413799  1
  Si  Si7  1  0.750000  0.188586  0.583965  1
  Ir  Ir8  1  0.750000  0.782959  0.586677  1
  Ir  Ir9  1  0.250000  0.212956  0.409871  1
  Ir  Ir10  1  0.750000  0.277152  0.914165  1
  Ir  Ir11  1  0.250000  0.720066  0.088095  1
