# generated using pymatgen
data_Nd10SnSb5C2
_symmetry_space_group_name_H-M   'P 1'
_cell_length_a   9.27550819
_cell_length_b   9.27550785
_cell_length_c   6.70426500
_cell_angle_alpha   90.00000000
_cell_angle_beta   90.00000000
_cell_angle_gamma   120.02161745
_symmetry_Int_Tables_number   1
_chemical_formula_structural   Nd10SnSb5C2
_chemical_formula_sum   'Nd10 Sn1 Sb5 C2'
_cell_volume   499.41613582
_cell_formula_units_Z   1
loop_
 _symmetry_equiv_pos_site_id
 _symmetry_equiv_pos_as_xyz
  1  'x, y, z'
loop_
 _atom_site_type_symbol
 _atom_site_label
 _atom_site_symmetry_multiplicity
 _atom_site_fract_x
 _atom_site_fract_y
 _atom_site_fract_z
 _atom_site_occupancy
  Nd  Nd0  1  0.666763  0.333297  0.499334  1
  Nd  Nd1  1  0.333297  0.666763  0.499334  1
  Nd  Nd2  1  0.333297  0.666763  0.000666  1
  Nd  Nd3  1  0.666763  0.333297  0.000666  1
  Nd  Nd4  1  0.784175  0.784175  0.250000  1
  Nd  Nd5  1  0.215335  0.001056  0.250000  1
  Nd  Nd6  1  0.001056  0.215335  0.250000  1
  Nd  Nd7  1  0.216320  0.216320  0.750000  1
  Nd  Nd8  1  0.785226  0.999765  0.750000  1
  Nd  Nd9  1  0.999765  0.785226  0.750000  1
  Sn  Sn10  1  0.403799  0.403799  0.250000  1
  Sb  Sb11  1  0.598369  0.000141  0.250000  1
  Sb  Sb12  1  0.000141  0.598369  0.250000  1
  Sb  Sb13  1  0.596473  0.596473  0.750000  1
  Sb  Sb14  1  0.401252  0.000400  0.750000  1
  Sb  Sb15  1  0.000400  0.401252  0.750000  1
  C  C16  1  0.998783  0.998783  0.500657  1
  C  C17  1  0.998783  0.998783  0.999343  1
