# generated using pymatgen
data_Pr5NpU4O19
_symmetry_space_group_name_H-M   'P 1'
_cell_length_a   6.75994555
_cell_length_b   7.73801846
_cell_length_c   8.68280000
_cell_angle_alpha   100.88163926
_cell_angle_beta   97.16946071
_cell_angle_gamma   107.28375714
_symmetry_Int_Tables_number   1
_chemical_formula_structural   Pr5NpU4O19
_chemical_formula_sum   'Pr5 Np1 U4 O19'
_cell_volume   417.87851520
_cell_formula_units_Z   1
loop_
 _symmetry_equiv_pos_site_id
 _symmetry_equiv_pos_as_xyz
  1  'x, y, z'
loop_
 _atom_site_type_symbol
 _atom_site_label
 _atom_site_symmetry_multiplicity
 _atom_site_fract_x
 _atom_site_fract_y
 _atom_site_fract_z
 _atom_site_occupancy
  Pr  Pr0  1  0.801596  0.101540  0.602785  1
  Pr  Pr1  1  0.390699  0.296195  0.798808  1
  Pr  Pr2  1  0.605875  0.702887  0.205345  1
  Pr  Pr3  1  0.999148  0.499599  0.994949  1
  Pr  Pr4  1  0.203464  0.910222  0.388614  1
  Np  Np5  1  0.776860  0.598260  0.601147  1
  U  U6  1  0.605119  0.204692  0.196649  1
  U  U7  1  0.000061  0.003297  0.997549  1
  U  U8  1  0.410830  0.807395  0.814383  1
  U  U9  1  0.199569  0.387765  0.389300  1
  O  O10  1  0.345438  0.061614  0.956113  1
  O  O11  1  0.426797  0.984670  0.651602  1
  O  O12  1  0.040950  0.212846  0.858702  1
  O  O13  1  0.732282  0.382981  0.738474  1
  O  O14  1  0.154212  0.185236  0.535418  1
  O  O15  1  0.363447  0.593941  0.949899  1
  O  O16  1  0.952889  0.266378  0.159580  1
  O  O17  1  0.902056  0.387899  0.457775  1
  O  O18  1  0.746786  0.862890  0.767860  1
  O  O19  1  0.541739  0.450561  0.358187  1
  O  O20  1  0.402780  0.556534  0.630009  1
  O  O21  1  0.252614  0.131209  0.233737  1
  O  O22  1  0.069673  0.722618  0.801599  1
  O  O23  1  0.645493  0.409565  0.061670  1
  O  O24  1  0.860515  0.806897  0.461734  1
  O  O25  1  0.247014  0.617309  0.275394  1
  O  O26  1  0.955583  0.786487  0.125663  1
  O  O27  1  0.572180  0.008679  0.345320  1
  O  O28  1  0.658245  0.947472  0.049972  1
