# generated using pymatgen
data_LuZr(Tc2P)4
_symmetry_space_group_name_H-M   'P 1'
_cell_length_a   7.34478898
_cell_length_b   7.34478898
_cell_length_c   3.94187700
_cell_angle_alpha   90.00000000
_cell_angle_beta   90.00000000
_cell_angle_gamma   90.18889047
_symmetry_Int_Tables_number   1
_chemical_formula_structural   LuZr(Tc2P)4
_chemical_formula_sum   'Lu1 Zr1 Tc8 P4'
_cell_volume   212.64704595
_cell_formula_units_Z   1
loop_
 _symmetry_equiv_pos_site_id
 _symmetry_equiv_pos_as_xyz
  1  'x, y, z'
loop_
 _atom_site_type_symbol
 _atom_site_label
 _atom_site_symmetry_multiplicity
 _atom_site_fract_x
 _atom_site_fract_y
 _atom_site_fract_z
 _atom_site_occupancy
  Lu  Lu0  1  0.000000  0.000000  0.500000  1
  Zr  Zr1  1  0.500000  0.500000  0.000000  1
  Tc  Tc2  1  0.339635  0.084297  0.000000  1
  Tc  Tc3  1  0.580078  0.162879  0.500000  1
  Tc  Tc4  1  0.419922  0.837121  0.500000  1
  Tc  Tc5  1  0.660365  0.915703  0.000000  1
  Tc  Tc6  1  0.162879  0.580078  0.500000  1
  Tc  Tc7  1  0.837121  0.419922  0.500000  1
  Tc  Tc8  1  0.084297  0.339635  0.000000  1
  Tc  Tc9  1  0.915703  0.660365  0.000000  1
  P  P10  1  0.786140  0.213860  0.000000  1
  P  P11  1  0.711198  0.711198  0.500000  1
  P  P12  1  0.288802  0.288802  0.500000  1
  P  P13  1  0.213860  0.786140  0.000000  1
