# generated using pymatgen
data_Ca9ErSn6F2
_symmetry_space_group_name_H-M   'P 1'
_cell_length_a   9.45878249
_cell_length_b   9.45878365
_cell_length_c   9.45878396
_cell_angle_alpha   128.98010072
_cell_angle_beta   128.98010714
_cell_angle_gamma   75.04259274
_symmetry_Int_Tables_number   1
_chemical_formula_structural   Ca9ErSn6F2
_chemical_formula_sum   'Ca9 Er1 Sn6 F2'
_cell_volume   497.95876275
_cell_formula_units_Z   1
loop_
 _symmetry_equiv_pos_site_id
 _symmetry_equiv_pos_as_xyz
  1  'x, y, z'
loop_
 _atom_site_type_symbol
 _atom_site_label
 _atom_site_symmetry_multiplicity
 _atom_site_fract_x
 _atom_site_fract_y
 _atom_site_fract_z
 _atom_site_occupancy
  Ca  Ca0  1  0.000000  0.000000  0.000000  1
  Ca  Ca1  1  0.509043  0.008993  0.821588  1
  Ca  Ca2  1  0.187406  0.687456  0.178412  1
  Ca  Ca3  1  0.008993  0.187406  0.499951  1
  Ca  Ca4  1  0.687456  0.509043  0.500049  1
  Ca  Ca5  1  0.490957  0.991007  0.178412  1
  Ca  Ca6  1  0.812594  0.312544  0.821588  1
  Ca  Ca7  1  0.991007  0.812594  0.500049  1
  Ca  Ca8  1  0.312544  0.490957  0.499951  1
  Er  Er9  1  0.500000  0.500000  0.000000  1
  Sn  Sn10  1  0.252095  0.252095  0.000000  1
  Sn  Sn11  1  0.747905  0.747905  0.000000  1
  Sn  Sn12  1  0.865256  0.375006  0.240263  1
  Sn  Sn13  1  0.134744  0.624994  0.759737  1
  Sn  Sn14  1  0.375006  0.134744  0.509750  1
  Sn  Sn15  1  0.624994  0.865256  0.490250  1
  F  F16  1  0.250000  0.750000  0.500000  1
  F  F17  1  0.750000  0.250000  0.500000  1
