# generated using pymatgen
data_Th7Tc2Ru
_symmetry_space_group_name_H-M   'P 1'
_cell_length_a   9.96457629
_cell_length_b   9.93865997
_cell_length_c   6.33719260
_cell_angle_alpha   89.99999801
_cell_angle_beta   89.84578522
_cell_angle_gamma   119.91400253
_symmetry_Int_Tables_number   1
_chemical_formula_structural   Th7Tc2Ru
_chemical_formula_sum   'Th14 Tc4 Ru2'
_cell_volume   543.98610448
_cell_formula_units_Z   2
loop_
 _symmetry_equiv_pos_site_id
 _symmetry_equiv_pos_as_xyz
  1  'x, y, z'
loop_
 _atom_site_type_symbol
 _atom_site_label
 _atom_site_symmetry_multiplicity
 _atom_site_fract_x
 _atom_site_fract_y
 _atom_site_fract_z
 _atom_site_occupancy
  Th  Th0  1  0.460163  0.539039  0.298680  1
  Th  Th1  1  0.078615  0.539308  0.297712  1
  Th  Th2  1  0.919381  0.459691  0.801215  1
  Th  Th3  1  0.251864  0.125932  0.504885  1
  Th  Th4  1  0.541235  0.079862  0.799996  1
  Th  Th5  1  0.751556  0.875778  0.004429  1
  Th  Th6  1  0.666615  0.333307  0.286093  1
  Th  Th7  1  0.125334  0.875084  0.002602  1
  Th  Th8  1  0.460163  0.921124  0.298680  1
  Th  Th9  1  0.541235  0.461373  0.799996  1
  Th  Th10  1  0.873372  0.124514  0.503596  1
  Th  Th11  1  0.125334  0.250249  0.002602  1
  Th  Th12  1  0.873372  0.748859  0.503596  1
  Th  Th13  1  0.333182  0.666592  0.788716  1
  Tc  Tc14  1  0.816495  0.631356  0.048610  1
  Tc  Tc15  1  0.816495  0.185140  0.048610  1
  Tc  Tc16  1  0.626954  0.813477  0.549692  1
  Tc  Tc17  1  0.367802  0.183901  0.047342  1
  Ru  Ru18  1  0.185416  0.372878  0.548473  1
  Ru  Ru19  1  0.185416  0.812537  0.548473  1
