# generated using pymatgen
data_Lu2In4(TeO6)3
_symmetry_space_group_name_H-M   'P 1'
_cell_length_a   9.02926804
_cell_length_b   9.02926875
_cell_length_c   4.98851288
_cell_angle_alpha   89.87573456
_cell_angle_beta   90.12426729
_cell_angle_gamma   119.95533323
_symmetry_Int_Tables_number   1
_chemical_formula_structural   Lu2In4(TeO6)3
_chemical_formula_sum   'Lu2 In4 Te3 O18'
_cell_volume   352.37151094
_cell_formula_units_Z   1
loop_
 _symmetry_equiv_pos_site_id
 _symmetry_equiv_pos_as_xyz
  1  'x, y, z'
loop_
 _atom_site_type_symbol
 _atom_site_label
 _atom_site_symmetry_multiplicity
 _atom_site_fract_x
 _atom_site_fract_y
 _atom_site_fract_z
 _atom_site_occupancy
  Lu  Lu0  1  0.626671  0.000075  0.000077  1
  Lu  Lu1  1  0.000075  0.626671  0.999923  1
  In  In2  1  0.370370  0.370370  0.000000  1
  In  In3  1  0.291960  0.998520  0.501472  1
  In  In4  1  0.998520  0.291960  0.498528  1
  In  In5  1  0.708909  0.708909  0.500000  1
  Te  Te6  1  0.001461  0.001461  0.000000  1
  Te  Te7  1  0.333479  0.664907  0.508072  1
  Te  Te8  1  0.664907  0.333479  0.491928  1
  O  O9  1  0.088789  0.881597  0.786640  1
  O  O10  1  0.119523  0.207596  0.782868  1
  O  O11  1  0.794700  0.913851  0.784589  1
  O  O12  1  0.207596  0.119523  0.217132  1
  O  O13  1  0.913851  0.794700  0.215411  1
  O  O14  1  0.881597  0.088789  0.213360  1
  O  O15  1  0.461398  0.588983  0.733211  1
  O  O16  1  0.410605  0.868177  0.729755  1
  O  O17  1  0.128538  0.540069  0.725201  1
  O  O18  1  0.868177  0.410605  0.270245  1
  O  O19  1  0.540069  0.128538  0.274799  1
  O  O20  1  0.588983  0.461398  0.266789  1
  O  O21  1  0.221552  0.759977  0.286425  1
  O  O22  1  0.238162  0.459258  0.284093  1
  O  O23  1  0.540693  0.780182  0.291491  1
  O  O24  1  0.459258  0.238162  0.715907  1
  O  O25  1  0.780182  0.540693  0.708509  1
  O  O26  1  0.759977  0.221552  0.713575  1
