# generated using pymatgen
data_SrDy3(Ga8Pt3)3
_symmetry_space_group_name_H-M   'P 1'
_cell_length_a   7.53493626
_cell_length_b   7.60307324
_cell_length_c   13.43474359
_cell_angle_alpha   84.68566248
_cell_angle_beta   79.48005547
_cell_angle_gamma   60.31008252
_symmetry_Int_Tables_number   1
_chemical_formula_structural   SrDy3(Ga8Pt3)3
_chemical_formula_sum   'Sr1 Dy3 Ga24 Pt9'
_cell_volume   657.37616698
_cell_formula_units_Z   1
loop_
 _symmetry_equiv_pos_site_id
 _symmetry_equiv_pos_as_xyz
  1  'x, y, z'
loop_
 _atom_site_type_symbol
 _atom_site_label
 _atom_site_symmetry_multiplicity
 _atom_site_fract_x
 _atom_site_fract_y
 _atom_site_fract_z
 _atom_site_occupancy
  Sr  Sr0  1  0.394268  0.168435  0.811060  1
  Dy  Dy1  1  0.604077  0.832275  0.190019  1
  Dy  Dy2  1  0.732208  0.497237  0.812175  1
  Dy  Dy3  1  0.266798  0.502021  0.189017  1
  Ga  Ga4  1  0.688741  0.831484  0.943119  1
  Ga  Ga5  1  0.312808  0.166531  0.064337  1
  Ga  Ga6  1  0.145448  0.833041  0.558042  1
  Ga  Ga7  1  0.855638  0.167162  0.439178  1
  Ga  Ga8  1  0.478897  0.166773  0.554146  1
  Ga  Ga9  1  0.522681  0.832696  0.442128  1
  Ga  Ga10  1  0.223479  0.164882  0.321594  1
  Ga  Ga11  1  0.781437  0.833090  0.672464  1
  Ga  Ga12  1  0.438720  0.505774  0.670311  1
  Ga  Ga13  1  0.562769  0.496634  0.323699  1
  Ga  Ga14  1  0.105798  0.163660  0.669558  1
  Ga  Ga15  1  0.893841  0.836019  0.324039  1
  Ga  Ga16  1  0.355052  0.501849  0.943965  1
  Ga  Ga17  1  0.640814  0.503193  0.062468  1
  Ga  Ga18  1  0.015475  0.167908  0.950113  1
  Ga  Ga19  1  0.978723  0.830066  0.058311  1
  Ga  Ga20  1  0.188195  0.498675  0.441337  1
  Ga  Ga21  1  0.812728  0.501678  0.556380  1
  Ga  Ga22  1  0.734034  0.164506  0.182495  1
  Ga  Ga23  1  0.271046  0.823118  0.818171  1
  Ga  Ga24  1  0.051454  0.637125  0.817391  1
  Ga  Ga25  1  0.936495  0.370352  0.183779  1
  Ga  Ga26  1  0.864610  0.043734  0.816815  1
  Ga  Ga27  1  0.142321  0.959135  0.184226  1
  Pt  Pt28  1  0.117701  0.496570  0.637178  1
  Pt  Pt29  1  0.884373  0.503250  0.360230  1
  Pt  Pt30  1  0.659114  0.169570  0.001555  1
  Pt  Pt31  1  0.338373  0.832091  0.003613  1
  Pt  Pt32  1  0.542669  0.166229  0.359487  1
  Pt  Pt33  1  0.457321  0.834926  0.637742  1
  Pt  Pt34  1  0.779889  0.171554  0.635068  1
  Pt  Pt35  1  0.221653  0.827514  0.362040  1
  Pt  Pt36  1  0.000355  0.499244  0.002750  1
