# generated using pymatgen
data_TbY3ReOs7
_symmetry_space_group_name_H-M   'P 1'
_cell_length_a   5.31052212
_cell_length_b   5.31052233
_cell_length_c   8.85455404
_cell_angle_alpha   90.00901963
_cell_angle_beta   89.99097950
_cell_angle_gamma   118.34284141
_symmetry_Int_Tables_number   1
_chemical_formula_structural   TbY3ReOs7
_chemical_formula_sum   'Tb1 Y3 Re1 Os7'
_cell_volume   219.77805732
_cell_formula_units_Z   1
loop_
 _symmetry_equiv_pos_site_id
 _symmetry_equiv_pos_as_xyz
  1  'x, y, z'
loop_
 _atom_site_type_symbol
 _atom_site_label
 _atom_site_symmetry_multiplicity
 _atom_site_fract_x
 _atom_site_fract_y
 _atom_site_fract_z
 _atom_site_occupancy
  Tb  Tb0  1  0.330459  0.669541  0.064013  1
  Y  Y1  1  0.330398  0.669602  0.435840  1
  Y  Y2  1  0.665820  0.334180  0.566137  1
  Y  Y3  1  0.665802  0.334198  0.933852  1
  Re  Re4  1  0.834235  0.165765  0.250164  1
  Os  Os5  1  0.992594  0.007406  0.499964  1
  Os  Os6  1  0.992507  0.007493  0.000087  1
  Os  Os7  1  0.827555  0.649515  0.250177  1
  Os  Os8  1  0.350485  0.172445  0.250177  1
  Os  Os9  1  0.177178  0.822822  0.749882  1
  Os  Os10  1  0.171350  0.338381  0.749853  1
  Os  Os11  1  0.661619  0.828650  0.749853  1
