# generated using pymatgen
data_BaLa2Cd11
_symmetry_space_group_name_H-M   'P 1'
_cell_length_a   5.13718924
_cell_length_b   9.34053919
_cell_length_c   9.34054008
_cell_angle_alpha   107.70153587
_cell_angle_beta   105.96166825
_cell_angle_gamma   105.96166131
_symmetry_Int_Tables_number   1
_chemical_formula_structural   BaLa2Cd11
_chemical_formula_sum   'Ba1 La2 Cd11'
_cell_volume   377.74252931
_cell_formula_units_Z   1
loop_
 _symmetry_equiv_pos_site_id
 _symmetry_equiv_pos_as_xyz
  1  'x, y, z'
loop_
 _atom_site_type_symbol
 _atom_site_label
 _atom_site_symmetry_multiplicity
 _atom_site_fract_x
 _atom_site_fract_y
 _atom_site_fract_z
 _atom_site_occupancy
  Ba  Ba0  1  0.000000  0.000000  0.000000  1
  La  La1  1  0.000001  0.700629  0.299371  1
  La  La2  1  0.000001  0.299371  0.700629  1
  Cd  Cd3  1  0.355106  0.691451  0.018761  1
  Cd  Cd4  1  0.288282  0.431476  0.145088  1
  Cd  Cd5  1  0.644896  0.981240  0.308549  1
  Cd  Cd6  1  0.828798  0.328798  0.328798  1
  Cd  Cd7  1  0.288282  0.145088  0.431476  1
  Cd  Cd8  1  0.500000  0.500000  0.500000  1
  Cd  Cd9  1  0.711719  0.854912  0.568524  1
  Cd  Cd10  1  0.171203  0.671202  0.671202  1
  Cd  Cd11  1  0.355106  0.018761  0.691451  1
  Cd  Cd12  1  0.711719  0.568524  0.854912  1
  Cd  Cd13  1  0.644896  0.308549  0.981240  1
