# generated using pymatgen
data_Tb4Al4Ru3Au
_symmetry_space_group_name_H-M   'P 1'
_cell_length_a   4.20667700
_cell_length_b   7.02229198
_cell_length_c   8.06951348
_cell_angle_alpha   89.83136363
_cell_angle_beta   90.00000000
_cell_angle_gamma   90.00000000
_symmetry_Int_Tables_number   1
_chemical_formula_structural   Tb4Al4Ru3Au
_chemical_formula_sum   'Tb4 Al4 Ru3 Au1'
_cell_volume   238.37654488
_cell_formula_units_Z   1
loop_
 _symmetry_equiv_pos_site_id
 _symmetry_equiv_pos_as_xyz
  1  'x, y, z'
loop_
 _atom_site_type_symbol
 _atom_site_label
 _atom_site_symmetry_multiplicity
 _atom_site_fract_x
 _atom_site_fract_y
 _atom_site_fract_z
 _atom_site_occupancy
  Tb  Tb0  1  0.250000  0.024442  0.328854  1
  Tb  Tb1  1  0.250000  0.544480  0.184245  1
  Tb  Tb2  1  0.750000  0.967672  0.680420  1
  Tb  Tb3  1  0.750000  0.472784  0.810610  1
  Al  Al4  1  0.250000  0.134758  0.930858  1
  Al  Al5  1  0.250000  0.640667  0.560061  1
  Al  Al6  1  0.750000  0.847648  0.057683  1
  Al  Al7  1  0.750000  0.363516  0.445540  1
  Ru  Ru8  1  0.250000  0.270347  0.620139  1
  Ru  Ru9  1  0.250000  0.769619  0.881957  1
  Ru  Ru10  1  0.750000  0.734720  0.378864  1
  Au  Au11  1  0.750000  0.229346  0.120768  1
