# generated using pymatgen
data_Ca2CdBiOs2(RuO7)2
_symmetry_space_group_name_H-M   'P 1'
_cell_length_a   7.29779113
_cell_length_b   7.17694438
_cell_length_c   7.29779100
_cell_angle_alpha   60.54628750
_cell_angle_beta   60.86700089
_cell_angle_gamma   60.54628242
_symmetry_Int_Tables_number   1
_chemical_formula_structural   Ca2CdBiOs2(RuO7)2
_chemical_formula_sum   'Ca2 Cd1 Bi1 Os2 Ru2 O14'
_cell_volume   274.25614938
_cell_formula_units_Z   1
loop_
 _symmetry_equiv_pos_site_id
 _symmetry_equiv_pos_as_xyz
  1  'x, y, z'
loop_
 _atom_site_type_symbol
 _atom_site_label
 _atom_site_symmetry_multiplicity
 _atom_site_fract_x
 _atom_site_fract_y
 _atom_site_fract_z
 _atom_site_occupancy
  Ca  Ca0  1  0.625000  0.125000  0.125000  1
  Ca  Ca1  1  0.125000  0.125000  0.625000  1
  Cd  Cd2  1  0.125000  0.625000  0.125000  1
  Bi  Bi3  1  0.125000  0.125000  0.125000  1
  Os  Os4  1  0.125000  0.625000  0.625000  1
  Os  Os5  1  0.625000  0.625000  0.125000  1
  Ru  Ru6  1  0.625000  0.625000  0.625000  1
  Ru  Ru7  1  0.625000  0.125000  0.625000  1
  O  O8  1  0.246899  0.264944  0.246899  1
  O  O9  1  0.003101  0.985056  0.003101  1
  O  O10  1  0.550281  0.951648  0.550281  1
  O  O11  1  0.305073  0.704022  0.305073  1
  O  O12  1  0.557021  0.559273  0.947015  1
  O  O13  1  0.947015  0.559273  0.557021  1
  O  O14  1  0.538659  0.949338  0.954635  1
  O  O15  1  0.954635  0.949338  0.538659  1
  O  O16  1  0.944927  0.545978  0.944927  1
  O  O17  1  0.711341  0.300662  0.295365  1
  O  O18  1  0.302985  0.690727  0.692979  1
  O  O19  1  0.699719  0.298352  0.699719  1
  O  O20  1  0.295365  0.300662  0.711341  1
  O  O21  1  0.692979  0.690727  0.302985  1
