# generated using pymatgen
data_CdInP7Ru12
_symmetry_space_group_name_H-M   'P 1'
_cell_length_a   9.55962300
_cell_length_b   9.55962193
_cell_length_c   3.80432200
_cell_angle_alpha   90.00000000
_cell_angle_beta   90.00000000
_cell_angle_gamma   119.99999931
_symmetry_Int_Tables_number   1
_chemical_formula_structural   CdInP7Ru12
_chemical_formula_sum   'Cd1 In1 P7 Ru12'
_cell_volume   301.08518458
_cell_formula_units_Z   1
loop_
 _symmetry_equiv_pos_site_id
 _symmetry_equiv_pos_as_xyz
  1  'x, y, z'
loop_
 _atom_site_type_symbol
 _atom_site_label
 _atom_site_symmetry_multiplicity
 _atom_site_fract_x
 _atom_site_fract_y
 _atom_site_fract_z
 _atom_site_occupancy
  Cd  Cd0  1  0.666667  0.333333  0.500000  1
  In  In1  1  0.333333  0.666667  0.000000  1
  P  P2  1  0.615303  0.693304  0.500000  1
  P  P3  1  0.000000  0.000000  0.000000  1
  P  P4  1  0.306696  0.922000  0.500000  1
  P  P5  1  0.078000  0.384697  0.500000  1
  P  P6  1  0.911033  0.611568  0.000000  1
  P  P7  1  0.388432  0.299466  0.000000  1
  P  P8  1  0.700534  0.088967  0.000000  1
  Ru  Ru9  1  0.537145  0.900281  0.500000  1
  Ru  Ru10  1  0.363136  0.462855  0.500000  1
  Ru  Ru11  1  0.867945  0.118776  0.500000  1
  Ru  Ru12  1  0.250831  0.132055  0.500000  1
  Ru  Ru13  1  0.881224  0.749169  0.500000  1
  Ru  Ru14  1  0.732074  0.861458  0.000000  1
  Ru  Ru15  1  0.138542  0.870615  0.000000  1
  Ru  Ru16  1  0.129385  0.267926  0.000000  1
  Ru  Ru17  1  0.459857  0.091247  0.000000  1
  Ru  Ru18  1  0.908753  0.368611  0.000000  1
  Ru  Ru19  1  0.631389  0.540143  0.000000  1
  Ru  Ru20  1  0.099719  0.636864  0.500000  1
