# generated using pymatgen
data_Sm8SiHgBr12
_symmetry_space_group_name_H-M   'P 1'
_cell_length_a   4.16775200
_cell_length_b   13.74257240
_cell_length_c   14.51789140
_cell_angle_alpha   89.77028954
_cell_angle_beta   90.00000000
_cell_angle_gamma   90.00000000
_symmetry_Int_Tables_number   1
_chemical_formula_structural   Sm8SiHgBr12
_chemical_formula_sum   'Sm8 Si1 Hg1 Br12'
_cell_volume   831.51474540
_cell_formula_units_Z   1
loop_
 _symmetry_equiv_pos_site_id
 _symmetry_equiv_pos_as_xyz
  1  'x, y, z'
loop_
 _atom_site_type_symbol
 _atom_site_label
 _atom_site_symmetry_multiplicity
 _atom_site_fract_x
 _atom_site_fract_y
 _atom_site_fract_z
 _atom_site_occupancy
  Sm  Sm0  1  0.500000  0.122924  0.335029  1
  Sm  Sm1  1  0.500000  0.877076  0.664971  1
  Sm  Sm2  1  0.500000  0.616012  0.156776  1
  Sm  Sm3  1  0.500000  0.383988  0.843224  1
  Sm  Sm4  1  0.000000  0.127652  0.584791  1
  Sm  Sm5  1  0.000000  0.872348  0.415209  1
  Sm  Sm6  1  0.000000  0.616689  0.922565  1
  Sm  Sm7  1  0.000000  0.383311  0.077435  1
  Si  Si8  1  0.500000  0.500000  0.000000  1
  Hg  Hg9  1  0.500000  0.000000  0.500000  1
  Br  Br10  1  0.500000  0.247555  0.160347  1
  Br  Br11  1  0.500000  0.752445  0.839653  1
  Br  Br12  1  0.500000  0.739822  0.334067  1
  Br  Br13  1  0.500000  0.260178  0.665933  1
  Br  Br14  1  0.000000  0.254505  0.409749  1
  Br  Br15  1  0.000000  0.745495  0.590251  1
  Br  Br16  1  0.000000  0.750541  0.088280  1
  Br  Br17  1  0.000000  0.249459  0.911720  1
  Br  Br18  1  0.000000  0.003051  0.243876  1
  Br  Br19  1  0.000000  0.996949  0.756124  1
  Br  Br20  1  0.000000  0.501655  0.252665  1
  Br  Br21  1  0.000000  0.498345  0.747335  1
