# generated using pymatgen
data_Ho2Lu14Cd3InNi4
_symmetry_space_group_name_H-M   'P 1'
_cell_length_a   9.36926814
_cell_length_b   9.36926932
_cell_length_c   9.36065290
_cell_angle_alpha   60.12137925
_cell_angle_beta   60.12137241
_cell_angle_gamma   60.11292433
_symmetry_Int_Tables_number   1
_chemical_formula_structural   Ho2Lu14Cd3InNi4
_chemical_formula_sum   'Ho2 Lu14 Cd3 In1 Ni4'
_cell_volume   582.59597796
_cell_formula_units_Z   1
loop_
 _symmetry_equiv_pos_site_id
 _symmetry_equiv_pos_as_xyz
  1  'x, y, z'
loop_
 _atom_site_type_symbol
 _atom_site_label
 _atom_site_symmetry_multiplicity
 _atom_site_fract_x
 _atom_site_fract_y
 _atom_site_fract_z
 _atom_site_occupancy
  Ho  Ho0  1  0.348271  0.348271  0.348835  1
  Ho  Ho1  1  0.348955  0.348955  0.953885  1
  Lu  Lu2  1  0.348589  0.952923  0.349544  1
  Lu  Lu3  1  0.952923  0.348589  0.349544  1
  Lu  Lu4  1  0.813186  0.187453  0.186740  1
  Lu  Lu5  1  0.188008  0.812039  0.811699  1
  Lu  Lu6  1  0.187453  0.813186  0.186740  1
  Lu  Lu7  1  0.812039  0.188008  0.811699  1
  Lu  Lu8  1  0.186935  0.186935  0.812439  1
  Lu  Lu9  1  0.811037  0.811037  0.188670  1
  Lu  Lu10  1  0.938144  0.564145  0.563791  1
  Lu  Lu11  1  0.564496  0.936924  0.936386  1
  Lu  Lu12  1  0.564145  0.938144  0.563791  1
  Lu  Lu13  1  0.936924  0.564496  0.936386  1
  Lu  Lu14  1  0.565053  0.565053  0.936834  1
  Lu  Lu15  1  0.937269  0.937269  0.563627  1
  Cd  Cd16  1  0.582234  0.582234  0.252378  1
  Cd  Cd17  1  0.582819  0.253233  0.580877  1
  Cd  Cd18  1  0.253233  0.582819  0.580877  1
  In  In19  1  0.582945  0.582945  0.580798  1
  Ni  Ni20  1  0.141508  0.141508  0.143663  1
  Ni  Ni21  1  0.140370  0.140370  0.573662  1
  Ni  Ni22  1  0.138349  0.575111  0.143567  1
  Ni  Ni23  1  0.575111  0.138349  0.143567  1
