# generated using pymatgen
data_NaPrSiS4
_symmetry_space_group_name_H-M   'P 1'
_cell_length_a   6.68117800
_cell_length_b   6.54789918
_cell_length_c   8.10548998
_cell_angle_alpha   74.81820117
_cell_angle_beta   90.00000000
_cell_angle_gamma   90.00000000
_symmetry_Int_Tables_number   1
_chemical_formula_structural   NaPrSiS4
_chemical_formula_sum   'Na2 Pr2 Si2 S8'
_cell_volume   342.22087391
_cell_formula_units_Z   2
loop_
 _symmetry_equiv_pos_site_id
 _symmetry_equiv_pos_as_xyz
  1  'x, y, z'
loop_
 _atom_site_type_symbol
 _atom_site_label
 _atom_site_symmetry_multiplicity
 _atom_site_fract_x
 _atom_site_fract_y
 _atom_site_fract_z
 _atom_site_occupancy
  Na  Na0  1  0.999223  0.740983  0.062952  1
  Na  Na1  1  0.499223  0.259017  0.937048  1
  Pr  Pr2  1  0.491749  0.224564  0.447031  1
  Pr  Pr3  1  0.991749  0.775436  0.552969  1
  Si  Si4  1  0.459420  0.768694  0.306100  1
  Si  Si5  1  0.959420  0.231306  0.693900  1
  S  S6  1  0.442386  0.564287  0.144986  1
  S  S7  1  0.230446  0.005466  0.252458  1
  S  S8  1  0.725214  0.958667  0.268959  1
  S  S9  1  0.918564  0.400612  0.431107  1
  S  S10  1  0.418564  0.599388  0.568893  1
  S  S11  1  0.225214  0.041333  0.731041  1
  S  S12  1  0.730446  0.994534  0.747542  1
  S  S13  1  0.942386  0.435713  0.855014  1
