# generated using pymatgen
data_Pu4InBiRh4
_symmetry_space_group_name_H-M   'P 1'
_cell_length_a   7.64635400
_cell_length_b   7.64635400
_cell_length_c   3.74726400
_cell_angle_alpha   90.00000000
_cell_angle_beta   90.00000000
_cell_angle_gamma   90.00000000
_symmetry_Int_Tables_number   1
_chemical_formula_structural   Pu4InBiRh4
_chemical_formula_sum   'Pu4 In1 Bi1 Rh4'
_cell_volume   219.09027063
_cell_formula_units_Z   1
loop_
 _symmetry_equiv_pos_site_id
 _symmetry_equiv_pos_as_xyz
  1  'x, y, z'
loop_
 _atom_site_type_symbol
 _atom_site_label
 _atom_site_symmetry_multiplicity
 _atom_site_fract_x
 _atom_site_fract_y
 _atom_site_fract_z
 _atom_site_occupancy
  Pu  Pu0  1  0.668038  0.169515  0.500000  1
  Pu  Pu1  1  0.169515  0.331962  0.500000  1
  Pu  Pu2  1  0.830485  0.668038  0.500000  1
  Pu  Pu3  1  0.331962  0.830485  0.500000  1
  In  In4  1  0.500000  0.500000  0.000000  1
  Bi  Bi5  1  0.000000  0.000000  0.000000  1
  Rh  Rh6  1  0.858067  0.369508  0.000000  1
  Rh  Rh7  1  0.141933  0.630492  0.000000  1
  Rh  Rh8  1  0.630492  0.858067  0.000000  1
  Rh  Rh9  1  0.369508  0.141933  0.000000  1
