# generated using pymatgen
data_Pr2Ho7LuBi6
_symmetry_space_group_name_H-M   'P 1'
_cell_length_a   8.33939800
_cell_length_b   9.51366300
_cell_length_c   12.17488800
_cell_angle_alpha   90.00000000
_cell_angle_beta   90.00000000
_cell_angle_gamma   90.00000000
_symmetry_Int_Tables_number   1
_chemical_formula_structural   Pr2Ho7LuBi6
_chemical_formula_sum   'Pr4 Ho14 Lu2 Bi12'
_cell_volume   965.93396934
_cell_formula_units_Z   2
loop_
 _symmetry_equiv_pos_site_id
 _symmetry_equiv_pos_as_xyz
  1  'x, y, z'
loop_
 _atom_site_type_symbol
 _atom_site_label
 _atom_site_symmetry_multiplicity
 _atom_site_fract_x
 _atom_site_fract_y
 _atom_site_fract_z
 _atom_site_occupancy
  Pr  Pr0  1  0.170161  0.750000  0.225028  1
  Pr  Pr1  1  0.329839  0.750000  0.725028  1
  Pr  Pr2  1  0.829778  0.250000  0.774886  1
  Pr  Pr3  1  0.670222  0.250000  0.274886  1
  Ho  Ho4  1  0.810560  0.563150  0.063810  1
  Ho  Ho5  1  0.689440  0.936850  0.563810  1
  Ho  Ho6  1  0.189074  0.062814  0.936150  1
  Ho  Ho7  1  0.310926  0.437186  0.436150  1
  Ho  Ho8  1  0.189074  0.437186  0.936150  1
  Ho  Ho9  1  0.310926  0.062814  0.436150  1
  Ho  Ho10  1  0.810560  0.936850  0.063810  1
  Ho  Ho11  1  0.689440  0.563150  0.563810  1
  Ho  Ho12  1  0.521352  0.250000  0.997166  1
  Ho  Ho13  1  0.978648  0.250000  0.497166  1
  Ho  Ho14  1  0.664567  0.750000  0.288377  1
  Ho  Ho15  1  0.835433  0.750000  0.788377  1
  Ho  Ho16  1  0.335172  0.250000  0.711562  1
  Ho  Ho17  1  0.164828  0.250000  0.211562  1
  Lu  Lu18  1  0.479520  0.750000  0.002836  1
  Lu  Lu19  1  0.020480  0.750000  0.502836  1
  Bi  Bi20  1  0.401705  0.750000  0.465733  1
  Bi  Bi21  1  0.098295  0.750000  0.965733  1
  Bi  Bi22  1  0.596899  0.250000  0.534386  1
  Bi  Bi23  1  0.903101  0.250000  0.034386  1
  Bi  Bi24  1  0.935223  0.506973  0.329396  1
  Bi  Bi25  1  0.564777  0.993027  0.829396  1
  Bi  Bi26  1  0.065310  0.005565  0.670656  1
  Bi  Bi27  1  0.434690  0.494435  0.170656  1
  Bi  Bi28  1  0.065310  0.494435  0.670656  1
  Bi  Bi29  1  0.434690  0.005565  0.170656  1
  Bi  Bi30  1  0.935223  0.993027  0.329396  1
  Bi  Bi31  1  0.564777  0.506973  0.829396  1
