# generated using pymatgen
data_Yb2Lu2Sb6Rh7
_symmetry_space_group_name_H-M   'P 1'
_cell_length_a   7.59070101
_cell_length_b   7.59070087
_cell_length_c   7.55717407
_cell_angle_alpha   109.48791892
_cell_angle_beta   109.48791758
_cell_angle_gamma   109.61698293
_symmetry_Int_Tables_number   1
_chemical_formula_structural   Yb2Lu2Sb6Rh7
_chemical_formula_sum   'Yb2 Lu2 Sb6 Rh7'
_cell_volume   334.45429262
_cell_formula_units_Z   1
loop_
 _symmetry_equiv_pos_site_id
 _symmetry_equiv_pos_as_xyz
  1  'x, y, z'
loop_
 _atom_site_type_symbol
 _atom_site_label
 _atom_site_symmetry_multiplicity
 _atom_site_fract_x
 _atom_site_fract_y
 _atom_site_fract_z
 _atom_site_occupancy
  Yb  Yb0  1  0.000000  0.000000  0.500000  1
  Yb  Yb1  1  0.500000  0.500000  0.500000  1
  Lu  Lu2  1  0.500000  0.000000  0.000000  1
  Lu  Lu3  1  0.000000  0.500000  0.000000  1
  Sb  Sb4  1  0.317014  0.001256  0.318270  1
  Sb  Sb5  1  0.998744  0.682986  0.681730  1
  Sb  Sb6  1  0.682511  0.682511  0.000000  1
  Sb  Sb7  1  0.682986  0.998744  0.681730  1
  Sb  Sb8  1  0.001256  0.317014  0.318270  1
  Sb  Sb9  1  0.317489  0.317489  0.000000  1
  Rh  Rh10  1  0.249692  0.504909  0.754601  1
  Rh  Rh11  1  0.504909  0.249692  0.754601  1
  Rh  Rh12  1  0.750000  0.250000  0.500000  1
  Rh  Rh13  1  0.495091  0.750308  0.245399  1
  Rh  Rh14  1  0.000000  0.000000  0.000000  1
  Rh  Rh15  1  0.250000  0.750000  0.500000  1
  Rh  Rh16  1  0.750308  0.495091  0.245399  1
