# generated using pymatgen
data_Sr20GeBi8As3
_symmetry_space_group_name_H-M   'P 1'
_cell_length_a   8.76327272
_cell_length_b   10.04548900
_cell_length_c   13.53023698
_cell_angle_alpha   90.00000000
_cell_angle_beta   90.28684769
_cell_angle_gamma   90.00000000
_symmetry_Int_Tables_number   1
_chemical_formula_structural   Sr20GeBi8As3
_chemical_formula_sum   'Sr20 Ge1 Bi8 As3'
_cell_volume   1191.07023213
_cell_formula_units_Z   1
loop_
 _symmetry_equiv_pos_site_id
 _symmetry_equiv_pos_as_xyz
  1  'x, y, z'
loop_
 _atom_site_type_symbol
 _atom_site_label
 _atom_site_symmetry_multiplicity
 _atom_site_fract_x
 _atom_site_fract_y
 _atom_site_fract_z
 _atom_site_occupancy
  Sr  Sr0  1  0.817643  0.535623  0.075603  1
  Sr  Sr1  1  0.679248  0.966611  0.574392  1
  Sr  Sr2  1  0.182548  0.036460  0.925228  1
  Sr  Sr3  1  0.318684  0.465028  0.424313  1
  Sr  Sr4  1  0.182548  0.463540  0.925228  1
  Sr  Sr5  1  0.318684  0.034972  0.424313  1
  Sr  Sr6  1  0.817643  0.964377  0.075603  1
  Sr  Sr7  1  0.679248  0.533389  0.574392  1
  Sr  Sr8  1  0.170587  0.750000  0.216355  1
  Sr  Sr9  1  0.334125  0.750000  0.712964  1
  Sr  Sr10  1  0.831812  0.250000  0.786728  1
  Sr  Sr11  1  0.665949  0.250000  0.286067  1
  Sr  Sr12  1  0.453541  0.750000  0.001261  1
  Sr  Sr13  1  0.051069  0.750000  0.499681  1
  Sr  Sr14  1  0.545520  0.250000  0.997953  1
  Sr  Sr15  1  0.953735  0.250000  0.498919  1
  Sr  Sr16  1  0.637883  0.750000  0.299606  1
  Sr  Sr17  1  0.861476  0.750000  0.802652  1
  Sr  Sr18  1  0.361336  0.250000  0.700253  1
  Sr  Sr19  1  0.139313  0.250000  0.199536  1
  Ge  Ge20  1  0.431484  0.750000  0.487786  1
  Bi  Bi21  1  0.937149  0.508133  0.328109  1
  Bi  Bi22  1  0.565168  0.989959  0.829349  1
  Bi  Bi23  1  0.059830  0.009170  0.671748  1
  Bi  Bi24  1  0.435175  0.488391  0.169084  1
  Bi  Bi25  1  0.059830  0.490830  0.671748  1
  Bi  Bi26  1  0.435175  0.011609  0.169084  1
  Bi  Bi27  1  0.937149  0.991867  0.328109  1
  Bi  Bi28  1  0.565168  0.510041  0.829349  1
  As  As29  1  0.071854  0.750000  0.988272  1
  As  As30  1  0.571763  0.250000  0.513338  1
  As  As31  1  0.927664  0.250000  0.012980  1
