# generated using pymatgen
data_YTm2Hf(Co4P3)2
_symmetry_space_group_name_H-M   'P 1'
_cell_length_a   3.71528300
_cell_length_b   10.67219200
_cell_length_c   12.37880700
_cell_angle_alpha   90.00000000
_cell_angle_beta   90.00000000
_cell_angle_gamma   90.00000000
_symmetry_Int_Tables_number   1
_chemical_formula_structural   YTm2Hf(Co4P3)2
_chemical_formula_sum   'Y2 Tm4 Hf2 Co16 P12'
_cell_volume   490.82234055
_cell_formula_units_Z   2
loop_
 _symmetry_equiv_pos_site_id
 _symmetry_equiv_pos_as_xyz
  1  'x, y, z'
loop_
 _atom_site_type_symbol
 _atom_site_label
 _atom_site_symmetry_multiplicity
 _atom_site_fract_x
 _atom_site_fract_y
 _atom_site_fract_z
 _atom_site_occupancy
  Y  Y0  1  0.000000  0.500000  0.529173  1
  Y  Y1  1  0.500000  0.000000  0.470827  1
  Tm  Tm2  1  0.500000  0.822229  0.204303  1
  Tm  Tm3  1  0.500000  0.177771  0.204303  1
  Tm  Tm4  1  0.000000  0.677771  0.795697  1
  Tm  Tm5  1  0.000000  0.322229  0.795697  1
  Hf  Hf6  1  0.500000  0.500000  0.157485  1
  Hf  Hf7  1  0.000000  0.000000  0.842515  1
  Co  Co8  1  0.500000  0.500000  0.704618  1
  Co  Co9  1  0.000000  0.000000  0.295382  1
  Co  Co10  1  0.000000  0.500000  0.986783  1
  Co  Co11  1  0.500000  0.000000  0.013217  1
  Co  Co12  1  0.500000  0.331909  0.993365  1
  Co  Co13  1  0.500000  0.668091  0.993365  1
  Co  Co14  1  0.000000  0.168091  0.006635  1
  Co  Co15  1  0.000000  0.831909  0.006635  1
  Co  Co16  1  0.500000  0.294963  0.432839  1
  Co  Co17  1  0.500000  0.705037  0.432839  1
  Co  Co18  1  0.000000  0.205037  0.567161  1
  Co  Co19  1  0.000000  0.794963  0.567161  1
  Co  Co20  1  0.500000  0.877200  0.703322  1
  Co  Co21  1  0.500000  0.122800  0.703322  1
  Co  Co22  1  0.000000  0.622800  0.296678  1
  Co  Co23  1  0.000000  0.377200  0.296678  1
  P  P24  1  0.500000  0.500000  0.883231  1
  P  P25  1  0.000000  0.000000  0.116769  1
  P  P26  1  0.500000  0.500000  0.361952  1
  P  P27  1  0.000000  0.000000  0.638048  1
  P  P28  1  0.500000  0.310244  0.616715  1
  P  P29  1  0.500000  0.689756  0.616715  1
  P  P30  1  0.000000  0.189756  0.383285  1
  P  P31  1  0.000000  0.810244  0.383285  1
  P  P32  1  0.500000  0.837878  0.892256  1
  P  P33  1  0.500000  0.162122  0.892256  1
  P  P34  1  0.000000  0.662122  0.107744  1
  P  P35  1  0.000000  0.337878  0.107744  1
