# generated using pymatgen
data_Sm4BI5
_symmetry_space_group_name_H-M   'P 1'
_cell_length_a   9.86323634
_cell_length_b   9.86323678
_cell_length_c   8.77128007
_cell_angle_alpha   102.23031531
_cell_angle_beta   102.23030920
_cell_angle_gamma   24.54839834
_symmetry_Int_Tables_number   1
_chemical_formula_structural   Sm4BI5
_chemical_formula_sum   'Sm4 B1 I5'
_cell_volume   346.08207272
_cell_formula_units_Z   1
loop_
 _symmetry_equiv_pos_site_id
 _symmetry_equiv_pos_as_xyz
  1  'x, y, z'
loop_
 _atom_site_type_symbol
 _atom_site_label
 _atom_site_symmetry_multiplicity
 _atom_site_fract_x
 _atom_site_fract_y
 _atom_site_fract_z
 _atom_site_occupancy
  Sm  Sm0  1  0.636885  0.636885  0.069160  1
  Sm  Sm1  1  0.999058  0.999058  0.197741  1
  Sm  Sm2  1  0.000942  0.000942  0.802260  1
  Sm  Sm3  1  0.363115  0.363115  0.930841  1
  B  B4  1  0.500000  0.500000  0.000000  1
  I  I5  1  0.829178  0.829178  0.177548  1
  I  I6  1  0.164744  0.164744  0.342987  1
  I  I7  1  0.500000  0.500000  0.500000  1
  I  I8  1  0.835256  0.835256  0.657013  1
  I  I9  1  0.170822  0.170822  0.822453  1
