# generated using pymatgen
data_Tb4Dy8CoTc3
_symmetry_space_group_name_H-M   'P 1'
_cell_length_a   6.29269209
_cell_length_b   7.31340779
_cell_length_c   9.19121700
_cell_angle_alpha   90.00000000
_cell_angle_beta   90.00000000
_cell_angle_gamma   90.08753736
_symmetry_Int_Tables_number   1
_chemical_formula_structural   Tb4Dy8CoTc3
_chemical_formula_sum   'Tb4 Dy8 Co1 Tc3'
_cell_volume   422.98871824
_cell_formula_units_Z   1
loop_
 _symmetry_equiv_pos_site_id
 _symmetry_equiv_pos_as_xyz
  1  'x, y, z'
loop_
 _atom_site_type_symbol
 _atom_site_label
 _atom_site_symmetry_multiplicity
 _atom_site_fract_x
 _atom_site_fract_y
 _atom_site_fract_z
 _atom_site_occupancy
  Tb  Tb0  1  0.128201  0.457874  0.750000  1
  Tb  Tb1  1  0.373326  0.957913  0.750000  1
  Tb  Tb2  1  0.857617  0.543786  0.250000  1
  Tb  Tb3  1  0.626810  0.049332  0.250000  1
  Dy  Dy4  1  0.669439  0.322401  0.934934  1
  Dy  Dy5  1  0.168033  0.178147  0.435921  1
  Dy  Dy6  1  0.836537  0.823581  0.562219  1
  Dy  Dy7  1  0.168033  0.178147  0.064079  1
  Dy  Dy8  1  0.836537  0.823581  0.937781  1
  Dy  Dy9  1  0.669439  0.322401  0.565066  1
  Dy  Dy10  1  0.334180  0.673391  0.065243  1
  Dy  Dy11  1  0.334180  0.673391  0.434757  1
  Co  Co12  1  0.460547  0.385489  0.250000  1
  Tc  Tc13  1  0.540163  0.610374  0.750000  1
  Tc  Tc14  1  0.961241  0.112277  0.750000  1
  Tc  Tc15  1  0.035719  0.887914  0.250000  1
