# generated using pymatgen
data_Sc3Co2CuSn3
_symmetry_space_group_name_H-M   'P 1'
_cell_length_a   7.34268000
_cell_length_b   7.34267964
_cell_length_c   3.43284100
_cell_angle_alpha   90.00000000
_cell_angle_beta   90.00000000
_cell_angle_gamma   120.00000161
_symmetry_Int_Tables_number   1
_chemical_formula_structural   Sc3Co2CuSn3
_chemical_formula_sum   'Sc3 Co2 Cu1 Sn3'
_cell_volume   160.28522660
_cell_formula_units_Z   1
loop_
 _symmetry_equiv_pos_site_id
 _symmetry_equiv_pos_as_xyz
  1  'x, y, z'
loop_
 _atom_site_type_symbol
 _atom_site_label
 _atom_site_symmetry_multiplicity
 _atom_site_fract_x
 _atom_site_fract_y
 _atom_site_fract_z
 _atom_site_occupancy
  Sc  Sc0  1  0.596923  0.978810  0.000000  1
  Sc  Sc1  1  0.021190  0.618113  0.000000  1
  Sc  Sc2  1  0.381887  0.403077  0.000000  1
  Co  Co3  1  0.000000  0.000000  0.000000  1
  Co  Co4  1  0.333333  0.666667  0.500000  1
  Cu  Cu5  1  0.666667  0.333333  0.500000  1
  Sn  Sn6  1  0.273669  0.005445  0.500000  1
  Sn  Sn7  1  0.994555  0.268224  0.500000  1
  Sn  Sn8  1  0.731776  0.726331  0.500000  1
