# generated using pymatgen
data_Ho4Tm4Sc12Si15Sn
_symmetry_space_group_name_H-M   'P 1'
_cell_length_a   7.09321739
_cell_length_b   7.38630233
_cell_length_c   13.99840509
_cell_angle_alpha   90.03221044
_cell_angle_beta   89.56236287
_cell_angle_gamma   90.04369431
_symmetry_Int_Tables_number   1
_chemical_formula_structural   Ho4Tm4Sc12Si15Sn
_chemical_formula_sum   'Ho4 Tm4 Sc12 Si15 Sn1'
_cell_volume   733.39179104
_cell_formula_units_Z   1
loop_
 _symmetry_equiv_pos_site_id
 _symmetry_equiv_pos_as_xyz
  1  'x, y, z'
loop_
 _atom_site_type_symbol
 _atom_site_label
 _atom_site_symmetry_multiplicity
 _atom_site_fract_x
 _atom_site_fract_y
 _atom_site_fract_z
 _atom_site_occupancy
  Ho  Ho0  1  0.011798  0.176690  0.096300  1
  Ho  Ho1  1  0.988045  0.824115  0.904601  1
  Ho  Ho2  1  0.488789  0.676541  0.904761  1
  Ho  Ho3  1  0.988830  0.829897  0.597857  1
  Tm  Tm4  1  0.511206  0.323058  0.096783  1
  Tm  Tm5  1  0.005704  0.170228  0.399100  1
  Tm  Tm6  1  0.513295  0.319288  0.399855  1
  Tm  Tm7  1  0.501323  0.685443  0.599622  1
  Sc  Sc8  1  0.162175  0.502613  0.754944  1
  Sc  Sc9  1  0.837125  0.496820  0.249430  1
  Sc  Sc10  1  0.337544  0.003605  0.249552  1
  Sc  Sc11  1  0.663878  0.996733  0.751519  1
  Sc  Sc12  1  0.342979  0.162391  0.630721  1
  Sc  Sc13  1  0.664242  0.825276  0.372653  1
  Sc  Sc14  1  0.163433  0.683775  0.369117  1
  Sc  Sc15  1  0.667828  0.822891  0.124370  1
  Sc  Sc16  1  0.823389  0.323473  0.626497  1
  Sc  Sc17  1  0.330854  0.176088  0.875557  1
  Sc  Sc18  1  0.830824  0.323234  0.875556  1
  Sc  Sc19  1  0.169146  0.676649  0.125260  1
  Si  Si20  1  0.034604  0.117132  0.751244  1
  Si  Si21  1  0.963787  0.886890  0.246993  1
  Si  Si22  1  0.466233  0.613238  0.248696  1
  Si  Si23  1  0.532278  0.387362  0.751914  1
  Si  Si24  1  0.286487  0.868602  0.752090  1
  Si  Si25  1  0.712479  0.128829  0.247785  1
  Si  Si26  1  0.212812  0.370966  0.249459  1
  Si  Si27  1  0.788610  0.629184  0.751173  1
  Si  Si28  1  0.828865  0.538084  0.458619  1
  Si  Si29  1  0.337029  0.964763  0.460106  1
  Si  Si30  1  0.841031  0.534096  0.039510  1
  Si  Si31  1  0.662849  0.036917  0.537828  1
  Si  Si32  1  0.157648  0.464937  0.961751  1
  Si  Si33  1  0.657648  0.035403  0.960947  1
  Si  Si34  1  0.341406  0.966049  0.039982  1
  Sn  Sn35  1  0.173825  0.458739  0.537847  1
