# generated using pymatgen
data_Pr8Cu3Si12Pt
_symmetry_space_group_name_H-M   'P 1'
_cell_length_a   8.17150400
_cell_length_b   8.17150446
_cell_length_c   8.67595400
_cell_angle_alpha   90.00000000
_cell_angle_beta   90.00000000
_cell_angle_gamma   120.00000625
_symmetry_Int_Tables_number   1
_chemical_formula_structural   Pr8Cu3Si12Pt
_chemical_formula_sum   'Pr8 Cu3 Si12 Pt1'
_cell_volume   501.70896854
_cell_formula_units_Z   1
loop_
 _symmetry_equiv_pos_site_id
 _symmetry_equiv_pos_as_xyz
  1  'x, y, z'
loop_
 _atom_site_type_symbol
 _atom_site_label
 _atom_site_symmetry_multiplicity
 _atom_site_fract_x
 _atom_site_fract_y
 _atom_site_fract_z
 _atom_site_occupancy
  Pr  Pr0  1  0.499348  0.500652  0.750696  1
  Pr  Pr1  1  0.499715  0.500285  0.249332  1
  Pr  Pr2  1  0.001305  0.500652  0.750696  1
  Pr  Pr3  1  0.000568  0.500285  0.249332  1
  Pr  Pr4  1  0.499348  0.998695  0.750696  1
  Pr  Pr5  1  0.499715  0.999432  0.249332  1
  Pr  Pr6  1  0.000000  0.000000  0.751118  1
  Pr  Pr7  1  0.000000  0.000000  0.248934  1
  Cu  Cu8  1  0.666667  0.333333  0.998398  1
  Cu  Cu9  1  0.333333  0.666667  0.001195  1
  Cu  Cu10  1  0.333333  0.666667  0.498997  1
  Si  Si11  1  0.830759  0.169241  0.000301  1
  Si  Si12  1  0.168973  0.831027  0.999760  1
  Si  Si13  1  0.338481  0.169241  0.000301  1
  Si  Si14  1  0.168741  0.831259  0.500286  1
  Si  Si15  1  0.662054  0.831027  0.999760  1
  Si  Si16  1  0.833783  0.166217  0.499694  1
  Si  Si17  1  0.830759  0.661519  0.000301  1
  Si  Si18  1  0.662519  0.831259  0.500286  1
  Si  Si19  1  0.168973  0.337946  0.999760  1
  Si  Si20  1  0.332433  0.166217  0.499694  1
  Si  Si21  1  0.168741  0.337481  0.500286  1
  Si  Si22  1  0.833783  0.667567  0.499694  1
  Pt  Pt23  1  0.666667  0.333333  0.501147  1
