# generated using pymatgen
data_Er10Hg3Ru
_symmetry_space_group_name_H-M   'P 1'
_cell_length_a   9.48964800
_cell_length_b   9.48954064
_cell_length_c   9.65536700
_cell_angle_alpha   90.00000000
_cell_angle_beta   90.00000000
_cell_angle_gamma   119.99635031
_symmetry_Int_Tables_number   1
_chemical_formula_structural   Er10Hg3Ru
_chemical_formula_sum   'Er20 Hg6 Ru2'
_cell_volume   753.02723215
_cell_formula_units_Z   2
loop_
 _symmetry_equiv_pos_site_id
 _symmetry_equiv_pos_as_xyz
  1  'x, y, z'
loop_
 _atom_site_type_symbol
 _atom_site_label
 _atom_site_symmetry_multiplicity
 _atom_site_fract_x
 _atom_site_fract_y
 _atom_site_fract_z
 _atom_site_occupancy
  Er  Er0  1  0.000000  0.000000  0.500000  1
  Er  Er1  1  0.000000  0.000000  0.000000  1
  Er  Er2  1  0.209321  0.790680  0.440364  1
  Er  Er3  1  0.209323  0.418638  0.440354  1
  Er  Er4  1  0.581365  0.790681  0.440361  1
  Er  Er5  1  0.790679  0.209320  0.559636  1
  Er  Er6  1  0.790677  0.581362  0.559646  1
  Er  Er7  1  0.418635  0.209319  0.559639  1
  Er  Er8  1  0.790679  0.209320  0.940364  1
  Er  Er9  1  0.790677  0.581362  0.940354  1
  Er  Er10  1  0.418635  0.209319  0.940361  1
  Er  Er11  1  0.209321  0.790680  0.059636  1
  Er  Er12  1  0.209323  0.418638  0.059646  1
  Er  Er13  1  0.581365  0.790681  0.059639  1
  Er  Er14  1  0.541026  0.458966  0.250000  1
  Er  Er15  1  0.541035  0.082058  0.250000  1
  Er  Er16  1  0.917939  0.458968  0.250000  1
  Er  Er17  1  0.458974  0.541034  0.750000  1
  Er  Er18  1  0.458965  0.917942  0.750000  1
  Er  Er19  1  0.082061  0.541032  0.750000  1
  Hg  Hg20  1  0.881602  0.118409  0.250000  1
  Hg  Hg21  1  0.881600  0.763198  0.250000  1
  Hg  Hg22  1  0.236806  0.118404  0.250000  1
  Hg  Hg23  1  0.118398  0.881591  0.750000  1
  Hg  Hg24  1  0.118400  0.236802  0.750000  1
  Hg  Hg25  1  0.763194  0.881596  0.750000  1
  Ru  Ru26  1  0.333350  0.666671  0.250000  1
  Ru  Ru27  1  0.666650  0.333329  0.750000  1
