# generated using pymatgen
data_DyHf3(Ta3Ge4)2
_symmetry_space_group_name_H-M   'P 1'
_cell_length_a   6.87374700
_cell_length_b   6.99615320
_cell_length_c   13.33023300
_cell_angle_alpha   90.16834590
_cell_angle_beta   90.00000000
_cell_angle_gamma   90.00000000
_symmetry_Int_Tables_number   1
_chemical_formula_structural   DyHf3(Ta3Ge4)2
_chemical_formula_sum   'Dy2 Hf6 Ta12 Ge16'
_cell_volume   641.04529938
_cell_formula_units_Z   2
loop_
 _symmetry_equiv_pos_site_id
 _symmetry_equiv_pos_as_xyz
  1  'x, y, z'
loop_
 _atom_site_type_symbol
 _atom_site_label
 _atom_site_symmetry_multiplicity
 _atom_site_fract_x
 _atom_site_fract_y
 _atom_site_fract_z
 _atom_site_occupancy
  Dy  Dy0  1  0.491985  0.674286  0.589498  1
  Dy  Dy1  1  0.991985  0.825714  0.910502  1
  Hf  Hf2  1  0.513964  0.323905  0.090939  1
  Hf  Hf3  1  0.013964  0.176095  0.409061  1
  Hf  Hf4  1  0.514770  0.321283  0.408662  1
  Hf  Hf5  1  0.014770  0.178717  0.091338  1
  Hf  Hf6  1  0.487647  0.674464  0.908987  1
  Hf  Hf7  1  0.987647  0.825536  0.591013  1
  Ta  Ta8  1  0.658295  0.166075  0.624368  1
  Ta  Ta9  1  0.158295  0.333925  0.875632  1
  Ta  Ta10  1  0.338839  0.837365  0.124666  1
  Ta  Ta11  1  0.838839  0.662635  0.375334  1
  Ta  Ta12  1  0.336455  0.839418  0.373651  1
  Ta  Ta13  1  0.836455  0.660582  0.126349  1
  Ta  Ta14  1  0.657033  0.167743  0.875840  1
  Ta  Ta15  1  0.157033  0.332257  0.624160  1
  Ta  Ta16  1  0.836143  0.489080  0.749466  1
  Ta  Ta17  1  0.336143  0.010920  0.750534  1
  Ta  Ta18  1  0.162641  0.508574  0.249855  1
  Ta  Ta19  1  0.662641  0.991426  0.250145  1
  Ge  Ge20  1  0.686483  0.963455  0.457725  1
  Ge  Ge21  1  0.186483  0.536545  0.042275  1
  Ge  Ge22  1  0.322574  0.042922  0.960956  1
  Ge  Ge23  1  0.822574  0.457078  0.539044  1
  Ge  Ge24  1  0.313882  0.040304  0.539491  1
  Ge  Ge25  1  0.813882  0.459696  0.960509  1
  Ge  Ge26  1  0.682030  0.961783  0.042606  1
  Ge  Ge27  1  0.182030  0.538217  0.457394  1
  Ge  Ge28  1  0.460354  0.386911  0.750610  1
  Ge  Ge29  1  0.960354  0.113089  0.749390  1
  Ge  Ge30  1  0.536228  0.611120  0.250724  1
  Ge  Ge31  1  0.036228  0.888880  0.249276  1
  Ge  Ge32  1  0.692849  0.849867  0.751441  1
  Ge  Ge33  1  0.192849  0.650133  0.748559  1
  Ge  Ge34  1  0.307829  0.154069  0.249521  1
  Ge  Ge35  1  0.807829  0.345931  0.250479  1
