# generated using pymatgen
data_Nd4RhPb2Au3
_symmetry_space_group_name_H-M   'P 1'
_cell_length_a   8.31878719
_cell_length_b   8.31878719
_cell_length_c   3.73766300
_cell_angle_alpha   90.00000000
_cell_angle_beta   90.00000000
_cell_angle_gamma   89.97554932
_symmetry_Int_Tables_number   1
_chemical_formula_structural   Nd4RhPb2Au3
_chemical_formula_sum   'Nd4 Rh1 Pb2 Au3'
_cell_volume   258.65455479
_cell_formula_units_Z   1
loop_
 _symmetry_equiv_pos_site_id
 _symmetry_equiv_pos_as_xyz
  1  'x, y, z'
loop_
 _atom_site_type_symbol
 _atom_site_label
 _atom_site_symmetry_multiplicity
 _atom_site_fract_x
 _atom_site_fract_y
 _atom_site_fract_z
 _atom_site_occupancy
  Nd  Nd0  1  0.346674  0.174363  0.500001  1
  Nd  Nd1  1  0.815477  0.315476  0.500001  1
  Nd  Nd2  1  0.169418  0.669418  0.500001  1
  Nd  Nd3  1  0.674363  0.846675  0.500001  1
  Rh  Rh4  1  0.624674  0.124675  0.000000  1
  Pb  Pb5  1  0.994198  0.003886  0.000000  1
  Pb  Pb6  1  0.503886  0.494198  0.000000  1
  Au  Au7  1  0.122350  0.372826  0.000000  1
  Au  Au8  1  0.872827  0.622349  0.000000  1
  Au  Au9  1  0.376133  0.876134  0.000000  1
