# generated using pymatgen
data_Yb3ReO6
_symmetry_space_group_name_H-M   'P 1'
_cell_length_a   5.79169800
_cell_length_b   5.47814562
_cell_length_c   9.59759770
_cell_angle_alpha   55.53032355
_cell_angle_beta   90.00000000
_cell_angle_gamma   90.00000000
_symmetry_Int_Tables_number   1
_chemical_formula_structural   Yb3ReO6
_chemical_formula_sum   'Yb6 Re2 O12'
_cell_volume   251.04618086
_cell_formula_units_Z   2
loop_
 _symmetry_equiv_pos_site_id
 _symmetry_equiv_pos_as_xyz
  1  'x, y, z'
loop_
 _atom_site_type_symbol
 _atom_site_label
 _atom_site_symmetry_multiplicity
 _atom_site_fract_x
 _atom_site_fract_y
 _atom_site_fract_z
 _atom_site_occupancy
  Yb  Yb0  1  0.564181  0.223821  0.256863  1
  Yb  Yb1  1  0.064181  0.776179  0.243137  1
  Yb  Yb2  1  0.500000  0.000000  0.000000  1
  Yb  Yb3  1  0.000000  0.000000  0.500000  1
  Yb  Yb4  1  0.935819  0.223821  0.756863  1
  Yb  Yb5  1  0.435819  0.776179  0.743137  1
  Re  Re6  1  0.000000  0.500000  0.000000  1
  Re  Re7  1  0.500000  0.500000  0.500000  1
  O  O8  1  0.553488  0.390745  0.728395  1
  O  O9  1  0.053488  0.609255  0.771605  1
  O  O10  1  0.446512  0.609255  0.271605  1
  O  O11  1  0.946512  0.390745  0.228395  1
  O  O12  1  0.779523  0.741977  0.427569  1
  O  O13  1  0.279523  0.258023  0.072431  1
  O  O14  1  0.220477  0.258023  0.572431  1
  O  O15  1  0.720477  0.741977  0.927569  1
  O  O16  1  0.175765  0.841553  0.947807  1
  O  O17  1  0.675765  0.158447  0.552193  1
  O  O18  1  0.824235  0.158447  0.052193  1
  O  O19  1  0.324235  0.841553  0.447807  1
