# generated using pymatgen
data_Ca8Fe2CoN8
_symmetry_space_group_name_H-M   'P 1'
_cell_length_a   9.20356448
_cell_length_b   5.00381835
_cell_length_c   7.06606380
_cell_angle_alpha   90.00001427
_cell_angle_beta   75.01745086
_cell_angle_gamma   74.22614302
_symmetry_Int_Tables_number   1
_chemical_formula_structural   Ca8Fe2CoN8
_chemical_formula_sum   'Ca8 Fe2 Co1 N8'
_cell_volume   301.64718612
_cell_formula_units_Z   1
loop_
 _symmetry_equiv_pos_site_id
 _symmetry_equiv_pos_as_xyz
  1  'x, y, z'
loop_
 _atom_site_type_symbol
 _atom_site_label
 _atom_site_symmetry_multiplicity
 _atom_site_fract_x
 _atom_site_fract_y
 _atom_site_fract_z
 _atom_site_occupancy
  Ca  Ca0  1  0.058943  0.970529  0.738369  1
  Ca  Ca1  1  0.941057  0.029471  0.261631  1
  Ca  Ca2  1  0.668821  0.665590  0.471971  1
  Ca  Ca3  1  0.331179  0.334410  0.528029  1
  Ca  Ca4  1  0.813785  0.593109  0.964285  1
  Ca  Ca5  1  0.186215  0.406891  0.035715  1
  Ca  Ca6  1  0.602131  0.198935  0.807003  1
  Ca  Ca7  1  0.397869  0.801065  0.192997  1
  Fe  Fe8  1  0.375973  0.812012  0.792953  1
  Fe  Fe9  1  0.624027  0.187988  0.207047  1
  Co  Co10  1  0.000000  0.500000  0.500000  1
  N  N11  1  0.207354  0.896323  0.994626  1
  N  N12  1  0.792646  0.103677  0.005374  1
  N  N13  1  0.354430  0.822785  0.555529  1
  N  N14  1  0.645570  0.177215  0.444471  1
  N  N15  1  0.563299  0.718351  0.831235  1
  N  N16  1  0.436701  0.281649  0.168765  1
  N  N17  1  0.058113  0.470944  0.725156  1
  N  N18  1  0.941887  0.529056  0.274844  1
