# generated using pymatgen
data_Np2TaReH18
_symmetry_space_group_name_H-M   'P 1'
_cell_length_a   4.78432000
_cell_length_b   4.78432029
_cell_length_c   8.98469500
_cell_angle_alpha   90.00000000
_cell_angle_beta   90.00000000
_cell_angle_gamma   119.99999796
_symmetry_Int_Tables_number   1
_chemical_formula_structural   Np2TaReH18
_chemical_formula_sum   'Np2 Ta1 Re1 H18'
_cell_volume   178.10431682
_cell_formula_units_Z   1
loop_
 _symmetry_equiv_pos_site_id
 _symmetry_equiv_pos_as_xyz
  1  'x, y, z'
loop_
 _atom_site_type_symbol
 _atom_site_label
 _atom_site_symmetry_multiplicity
 _atom_site_fract_x
 _atom_site_fract_y
 _atom_site_fract_z
 _atom_site_occupancy
  Np  Np0  1  0.000000  0.000000  0.025262  1
  Np  Np1  1  0.000000  0.000000  0.474738  1
  Ta  Ta2  1  0.333333  0.666667  0.250000  1
  Re  Re3  1  0.666667  0.333333  0.750000  1
  H  H4  1  0.488754  0.511246  0.400888  1
  H  H5  1  0.488754  0.977509  0.400888  1
  H  H6  1  0.022491  0.511246  0.400888  1
  H  H7  1  0.960350  0.480175  0.884692  1
  H  H8  1  0.118105  0.236212  0.250000  1
  H  H9  1  0.868927  0.131073  0.750000  1
  H  H10  1  0.262146  0.131073  0.750000  1
  H  H11  1  0.763788  0.881895  0.250000  1
  H  H12  1  0.118105  0.881895  0.250000  1
  H  H13  1  0.868927  0.737854  0.750000  1
  H  H14  1  0.488754  0.977509  0.099112  1
  H  H15  1  0.519825  0.480175  0.615308  1
  H  H16  1  0.960350  0.480175  0.615308  1
  H  H17  1  0.022491  0.511246  0.099112  1
  H  H18  1  0.488754  0.511246  0.099112  1
  H  H19  1  0.519825  0.039650  0.884692  1
  H  H20  1  0.519825  0.480175  0.884692  1
  H  H21  1  0.519825  0.039650  0.615308  1
