# generated using pymatgen
data_MgSc4Ge(B2Rh5)2
_symmetry_space_group_name_H-M   'P 1'
_cell_length_a   9.34941300
_cell_length_b   3.11477700
_cell_length_c   9.34941300
_cell_angle_alpha   90.00000000
_cell_angle_beta   90.00000000
_cell_angle_gamma   90.00000000
_symmetry_Int_Tables_number   1
_chemical_formula_structural   MgSc4Ge(B2Rh5)2
_chemical_formula_sum   'Mg1 Sc4 Ge1 B4 Rh10'
_cell_volume   272.26740276
_cell_formula_units_Z   1
loop_
 _symmetry_equiv_pos_site_id
 _symmetry_equiv_pos_as_xyz
  1  'x, y, z'
loop_
 _atom_site_type_symbol
 _atom_site_label
 _atom_site_symmetry_multiplicity
 _atom_site_fract_x
 _atom_site_fract_y
 _atom_site_fract_z
 _atom_site_occupancy
  Mg  Mg0  1  0.000000  0.000000  0.000000  1
  Sc  Sc1  1  0.325060  0.000000  0.173730  1
  Sc  Sc2  1  0.826270  0.000000  0.325060  1
  Sc  Sc3  1  0.173730  0.000000  0.674939  1
  Sc  Sc4  1  0.674939  0.000000  0.826270  1
  Ge  Ge5  1  0.500000  0.000000  0.500000  1
  B  B6  1  0.625562  0.000000  0.123526  1
  B  B7  1  0.123526  0.000000  0.374438  1
  B  B8  1  0.876474  0.000000  0.625562  1
  B  B9  1  0.374438  0.000000  0.876474  1
  Rh  Rh10  1  0.500000  0.500001  0.000000  1
  Rh  Rh11  1  0.779063  0.500001  0.074700  1
  Rh  Rh12  1  0.074700  0.500001  0.220936  1
  Rh  Rh13  1  0.567476  0.500001  0.285044  1
  Rh  Rh14  1  0.285044  0.500001  0.432524  1
  Rh  Rh15  1  0.000000  0.500001  0.500000  1
  Rh  Rh16  1  0.714956  0.500001  0.567476  1
  Rh  Rh17  1  0.432524  0.500001  0.714956  1
  Rh  Rh18  1  0.925300  0.500001  0.779063  1
  Rh  Rh19  1  0.220936  0.500001  0.925300  1
