# generated using pymatgen
data_LiIn2CoNi19P6
_symmetry_space_group_name_H-M   'P 1'
_cell_length_a   7.84461313
_cell_length_b   7.87143761
_cell_length_c   7.84461300
_cell_angle_alpha   60.11266240
_cell_angle_beta   59.99999632
_cell_angle_gamma   60.11266847
_symmetry_Int_Tables_number   1
_chemical_formula_structural   LiIn2CoNi19P6
_chemical_formula_sum   'Li1 In2 Co1 Ni19 P6'
_cell_volume   343.09910272
_cell_formula_units_Z   1
loop_
 _symmetry_equiv_pos_site_id
 _symmetry_equiv_pos_as_xyz
  1  'x, y, z'
loop_
 _atom_site_type_symbol
 _atom_site_label
 _atom_site_symmetry_multiplicity
 _atom_site_fract_x
 _atom_site_fract_y
 _atom_site_fract_z
 _atom_site_occupancy
  Li  Li0  1  0.999388  0.001835  0.999388  1
  In  In1  1  0.748665  0.754005  0.748665  1
  In  In2  1  0.252966  0.241102  0.252966  1
  Co  Co3  1  0.386722  0.839831  0.386722  1
  Ni  Ni4  1  0.383853  0.385371  0.846921  1
  Ni  Ni5  1  0.347570  0.000378  0.652475  1
  Ni  Ni6  1  0.999154  0.351377  0.650315  1
  Ni  Ni7  1  0.152590  0.613081  0.617165  1
  Ni  Ni8  1  0.652475  0.000378  0.999578  1
  Ni  Ni9  1  0.846921  0.385371  0.383853  1
  Ni  Ni10  1  0.650315  0.351377  0.999154  1
  Ni  Ni11  1  0.999154  0.351377  0.999154  1
  Ni  Ni12  1  0.346424  0.652403  0.000586  1
  Ni  Ni13  1  0.999578  0.000378  0.347570  1
  Ni  Ni14  1  0.614658  0.156028  0.614658  1
  Ni  Ni15  1  0.652475  0.000378  0.347570  1
  Ni  Ni16  1  0.000586  0.652403  0.000586  1
  Ni  Ni17  1  0.617165  0.613081  0.152590  1
  Ni  Ni18  1  0.000586  0.652403  0.346424  1
  Ni  Ni19  1  0.347570  0.000378  0.999578  1
  Ni  Ni20  1  0.999578  0.000378  0.652475  1
  Ni  Ni21  1  0.383853  0.385371  0.383853  1
  Ni  Ni22  1  0.617165  0.613081  0.617165  1
  P  P23  1  0.262463  0.262418  0.737559  1
  P  P24  1  0.264947  0.736994  0.264947  1
  P  P25  1  0.737559  0.262418  0.262463  1
  P  P26  1  0.264947  0.736994  0.733112  1
  P  P27  1  0.737559  0.262418  0.737559  1
  P  P28  1  0.733112  0.736994  0.264947  1
