# generated using pymatgen
data_Nd2Si2RuRh
_symmetry_space_group_name_H-M   'P 1'
_cell_length_a   4.17357900
_cell_length_b   4.17357900
_cell_length_c   7.10068800
_cell_angle_alpha   90.00000000
_cell_angle_beta   90.00000000
_cell_angle_gamma   90.00000000
_symmetry_Int_Tables_number   1
_chemical_formula_structural   Nd2Si2RuRh
_chemical_formula_sum   'Nd2 Si2 Ru1 Rh1'
_cell_volume   123.68519196
_cell_formula_units_Z   1
loop_
 _symmetry_equiv_pos_site_id
 _symmetry_equiv_pos_as_xyz
  1  'x, y, z'
loop_
 _atom_site_type_symbol
 _atom_site_label
 _atom_site_symmetry_multiplicity
 _atom_site_fract_x
 _atom_site_fract_y
 _atom_site_fract_z
 _atom_site_occupancy
  Nd  Nd0  1  0.000000  0.500000  0.324043  1
  Nd  Nd1  1  0.500000  0.000000  0.675957  1
  Si  Si2  1  0.000000  0.500000  0.819974  1
  Si  Si3  1  0.500000  0.000000  0.180026  1
  Ru  Ru4  1  0.500000  0.500000  0.000000  1
  Rh  Rh5  1  0.000000  0.000000  0.000000  1
