# generated using pymatgen
data_Er4HgAu4
_symmetry_space_group_name_H-M   'P 1'
_cell_length_a   7.94912870
_cell_length_b   7.94912992
_cell_length_c   7.94912900
_cell_angle_alpha   65.76167980
_cell_angle_beta   65.76167584
_cell_angle_gamma   65.76166793
_symmetry_Int_Tables_number   1
_chemical_formula_structural   Er4HgAu4
_chemical_formula_sum   'Er8 Hg2 Au8'
_cell_volume   399.55905453
_cell_formula_units_Z   2
loop_
 _symmetry_equiv_pos_site_id
 _symmetry_equiv_pos_as_xyz
  1  'x, y, z'
loop_
 _atom_site_type_symbol
 _atom_site_label
 _atom_site_symmetry_multiplicity
 _atom_site_fract_x
 _atom_site_fract_y
 _atom_site_fract_z
 _atom_site_occupancy
  Er  Er0  1  0.893561  0.191718  0.605544  1
  Er  Er1  1  0.605544  0.893561  0.191718  1
  Er  Er2  1  0.191718  0.605544  0.893561  1
  Er  Er3  1  0.106439  0.808282  0.394456  1
  Er  Er4  1  0.394456  0.106439  0.808282  1
  Er  Er5  1  0.808282  0.394456  0.106439  1
  Er  Er6  1  0.663918  0.663918  0.663918  1
  Er  Er7  1  0.336082  0.336082  0.336082  1
  Hg  Hg8  1  0.000000  0.000000  0.000000  1
  Hg  Hg9  1  0.500000  0.500000  0.500000  1
  Au  Au10  1  0.813840  0.813840  0.813840  1
  Au  Au11  1  0.186160  0.186160  0.186160  1
  Au  Au12  1  0.934221  0.555438  0.311219  1
  Au  Au13  1  0.311219  0.934221  0.555438  1
  Au  Au14  1  0.555438  0.311219  0.934221  1
  Au  Au15  1  0.065779  0.444562  0.688781  1
  Au  Au16  1  0.688781  0.065779  0.444562  1
  Au  Au17  1  0.444562  0.688781  0.065779  1
