# generated using pymatgen
data_Pr2ScAl3
_symmetry_space_group_name_H-M   'P 1'
_cell_length_a   5.82811290
_cell_length_b   5.82811296
_cell_length_c   5.82811305
_cell_angle_alpha   61.23646031
_cell_angle_beta   61.23644737
_cell_angle_gamma   61.23645020
_symmetry_Int_Tables_number   1
_chemical_formula_structural   Pr2ScAl3
_chemical_formula_sum   'Pr2 Sc1 Al3'
_cell_volume   143.87324811
_cell_formula_units_Z   1
loop_
 _symmetry_equiv_pos_site_id
 _symmetry_equiv_pos_as_xyz
  1  'x, y, z'
loop_
 _atom_site_type_symbol
 _atom_site_label
 _atom_site_symmetry_multiplicity
 _atom_site_fract_x
 _atom_site_fract_y
 _atom_site_fract_z
 _atom_site_occupancy
  Pr  Pr0  1  0.625620  0.625620  0.625620  1
  Pr  Pr1  1  0.374380  0.374380  0.374380  1
  Sc  Sc2  1  0.000000  0.000000  0.000000  1
  Al  Al3  1  0.000000  0.500000  0.000000  1
  Al  Al4  1  0.500000  0.000000  0.000000  1
  Al  Al5  1  0.000000  0.000000  0.500000  1
