# generated using pymatgen
data_Gd5(MnB3)2
_symmetry_space_group_name_H-M   'P 1'
_cell_length_a   5.51981780
_cell_length_b   5.51981777
_cell_length_c   8.37711300
_cell_angle_alpha   70.76409776
_cell_angle_beta   70.76409787
_cell_angle_gamma   59.99999358
_symmetry_Int_Tables_number   1
_chemical_formula_structural   Gd5(MnB3)2
_chemical_formula_sum   'Gd5 Mn2 B6'
_cell_volume   204.42201940
_cell_formula_units_Z   1
loop_
 _symmetry_equiv_pos_site_id
 _symmetry_equiv_pos_as_xyz
  1  'x, y, z'
loop_
 _atom_site_type_symbol
 _atom_site_label
 _atom_site_symmetry_multiplicity
 _atom_site_fract_x
 _atom_site_fract_y
 _atom_site_fract_z
 _atom_site_occupancy
  Gd  Gd0  1  0.000000  0.000000  0.000000  1
  Gd  Gd1  1  0.748947  0.748947  0.753158  1
  Gd  Gd2  1  0.251053  0.251053  0.246842  1
  Gd  Gd3  1  0.583564  0.583564  0.249309  1
  Gd  Gd4  1  0.416436  0.416436  0.750691  1
  Mn  Mn5  1  0.884612  0.884612  0.346164  1
  Mn  Mn6  1  0.115388  0.115388  0.653836  1
  B  B7  1  0.500000  0.165815  0.500000  1
  B  B8  1  0.834185  0.500000  0.500000  1
  B  B9  1  0.165815  0.834185  0.500000  1
  B  B10  1  0.165815  0.500000  0.500000  1
  B  B11  1  0.834185  0.165815  0.500000  1
  B  B12  1  0.500000  0.834185  0.500000  1
