# generated using pymatgen
data_Ho17Tm3Si15Pt
_symmetry_space_group_name_H-M   'P 1'
_cell_length_a   7.39142182
_cell_length_b   7.63790467
_cell_length_c   14.52537806
_cell_angle_alpha   89.79144155
_cell_angle_beta   89.63534639
_cell_angle_gamma   90.19611091
_symmetry_Int_Tables_number   1
_chemical_formula_structural   Ho17Tm3Si15Pt
_chemical_formula_sum   'Ho17 Tm3 Si15 Pt1'
_cell_volume   820.00294974
_cell_formula_units_Z   1
loop_
 _symmetry_equiv_pos_site_id
 _symmetry_equiv_pos_as_xyz
  1  'x, y, z'
loop_
 _atom_site_type_symbol
 _atom_site_label
 _atom_site_symmetry_multiplicity
 _atom_site_fract_x
 _atom_site_fract_y
 _atom_site_fract_z
 _atom_site_occupancy
  Ho  Ho0  1  0.351644  0.010633  0.751515  1
  Ho  Ho1  1  0.974793  0.817423  0.098537  1
  Ho  Ho2  1  0.472004  0.682921  0.401443  1
  Ho  Ho3  1  0.528065  0.322580  0.901283  1
  Ho  Ho4  1  0.028736  0.183722  0.598907  1
  Ho  Ho5  1  0.027702  0.182999  0.901240  1
  Ho  Ho6  1  0.528846  0.317778  0.598073  1
  Ho  Ho7  1  0.475141  0.681814  0.100343  1
  Ho  Ho8  1  0.969844  0.817098  0.400410  1
  Ho  Ho9  1  0.681022  0.815264  0.880575  1
  Ho  Ho10  1  0.178859  0.681014  0.621717  1
  Ho  Ho11  1  0.818557  0.331121  0.120384  1
  Ho  Ho12  1  0.316632  0.177606  0.376062  1
  Ho  Ho13  1  0.321577  0.178581  0.123996  1
  Ho  Ho14  1  0.819487  0.320394  0.377188  1
  Ho  Ho15  1  0.177372  0.674399  0.877598  1
  Ho  Ho16  1  0.682259  0.820506  0.622492  1
  Tm  Tm17  1  0.648585  0.992583  0.249355  1
  Tm  Tm18  1  0.149570  0.510865  0.248233  1
  Tm  Tm19  1  0.846376  0.487466  0.755437  1
  Si  Si20  1  0.767037  0.630965  0.252426  1
  Si  Si21  1  0.267362  0.871246  0.250935  1
  Si  Si22  1  0.732678  0.124752  0.748872  1
  Si  Si23  1  0.232357  0.373083  0.746186  1
  Si  Si24  1  0.018931  0.105568  0.249249  1
  Si  Si25  1  0.522446  0.396525  0.251826  1
  Si  Si26  1  0.473068  0.605906  0.746614  1
  Si  Si27  1  0.977540  0.895919  0.748249  1
  Si  Si28  1  0.353496  0.972269  0.540012  1
  Si  Si29  1  0.648373  0.027205  0.042665  1
  Si  Si30  1  0.148401  0.470147  0.459863  1
  Si  Si31  1  0.157740  0.472207  0.042066  1
  Si  Si32  1  0.644827  0.028619  0.458989  1
  Si  Si33  1  0.352240  0.968619  0.961841  1
  Si  Si34  1  0.853441  0.529175  0.539453  1
  Pt  Pt35  1  0.852995  0.521033  0.955966  1
