# generated using pymatgen
data_Cs2La10Mn2Br17
_symmetry_space_group_name_H-M   'P 1'
_cell_length_a   9.44236325
_cell_length_b   11.42130091
_cell_length_c   11.42146040
_cell_angle_alpha   106.11021272
_cell_angle_beta   93.54683101
_cell_angle_gamma   93.54708701
_symmetry_Int_Tables_number   1
_chemical_formula_structural   Cs2La10Mn2Br17
_chemical_formula_sum   'Cs2 La10 Mn2 Br17'
_cell_volume   1177.08063326
_cell_formula_units_Z   1
loop_
 _symmetry_equiv_pos_site_id
 _symmetry_equiv_pos_as_xyz
  1  'x, y, z'
loop_
 _atom_site_type_symbol
 _atom_site_label
 _atom_site_symmetry_multiplicity
 _atom_site_fract_x
 _atom_site_fract_y
 _atom_site_fract_z
 _atom_site_occupancy
  Cs  Cs0  1  0.000007  0.822218  0.177785  1
  Cs  Cs1  1  0.999993  0.177781  0.822214  1
  La  La2  1  0.435737  0.159198  0.159193  1
  La  La3  1  0.576840  0.503591  0.200500  1
  La  La4  1  0.813657  0.294468  0.294458  1
  La  La5  1  0.316202  0.433582  0.433588  1
  La  La6  1  0.423209  0.799504  0.496412  1
  La  La7  1  0.576791  0.200497  0.503589  1
  La  La8  1  0.683798  0.566418  0.566412  1
  La  La9  1  0.186344  0.705532  0.705542  1
  La  La10  1  0.423160  0.496410  0.799501  1
  La  La11  1  0.564262  0.840802  0.840807  1
  Mn  Mn12  1  0.594295  0.346689  0.346695  1
  Mn  Mn13  1  0.405705  0.653311  0.653305  1
  Br  Br14  1  0.581401  0.685578  0.020361  1
  Br  Br15  1  0.715088  0.066042  0.066037  1
  Br  Br16  1  0.861223  0.452160  0.116866  1
  Br  Br17  1  0.131814  0.214250  0.214250  1
  Br  Br18  1  0.287055  0.604913  0.263329  1
  Br  Br19  1  0.418600  0.979636  0.314419  1
  Br  Br20  1  0.712960  0.736679  0.395093  1
  Br  Br21  1  0.861228  0.116858  0.452162  1
  Br  Br22  1  0.000000  0.499999  0.499999  1
  Br  Br23  1  0.138772  0.883142  0.547838  1
  Br  Br24  1  0.287041  0.263321  0.604907  1
  Br  Br25  1  0.581400  0.020364  0.685582  1
  Br  Br26  1  0.712946  0.395087  0.736671  1
  Br  Br27  1  0.868186  0.785750  0.785750  1
  Br  Br28  1  0.138777  0.547840  0.883134  1
  Br  Br29  1  0.284912  0.933957  0.933962  1
  Br  Br30  1  0.418599  0.314423  0.979639  1
