# generated using pymatgen
data_Ce2Ni11P7W
_symmetry_space_group_name_H-M   'P 1'
_cell_length_a   9.12457643
_cell_length_b   9.13601785
_cell_length_c   3.73158300
_cell_angle_alpha   90.00000000
_cell_angle_beta   90.00000000
_cell_angle_gamma   120.34636479
_symmetry_Int_Tables_number   1
_chemical_formula_structural   Ce2Ni11P7W
_chemical_formula_sum   'Ce2 Ni11 P7 W1'
_cell_volume   268.45222624
_cell_formula_units_Z   1
loop_
 _symmetry_equiv_pos_site_id
 _symmetry_equiv_pos_as_xyz
  1  'x, y, z'
loop_
 _atom_site_type_symbol
 _atom_site_label
 _atom_site_symmetry_multiplicity
 _atom_site_fract_x
 _atom_site_fract_y
 _atom_site_fract_z
 _atom_site_occupancy
  Ce  Ce0  1  0.000682  0.003672  0.000000  1
  Ce  Ce1  1  0.335785  0.668903  0.500000  1
  Ni  Ni2  1  0.294677  0.393252  0.000000  1
  Ni  Ni3  1  0.097959  0.706167  0.000000  1
  Ni  Ni4  1  0.544402  0.434196  0.500000  1
  Ni  Ni5  1  0.391784  0.181059  0.000000  1
  Ni  Ni6  1  0.788384  0.611802  0.000000  1
  Ni  Ni7  1  0.818627  0.206205  0.000000  1
  Ni  Ni8  1  0.237555  0.950237  0.500000  1
  Ni  Ni9  1  0.049896  0.281725  0.500000  1
  Ni  Ni10  1  0.716441  0.764172  0.500000  1
  Ni  Ni11  1  0.570770  0.117445  0.500000  1
  Ni  Ni12  1  0.607951  0.897569  0.000000  1
  P  P13  1  0.662984  0.331100  0.000000  1
  P  P14  1  0.074805  0.442373  0.000000  1
  P  P15  1  0.266913  0.224919  0.500000  1
  P  P16  1  0.772797  0.040297  0.500000  1
  P  P17  1  0.962166  0.740840  0.500000  1
  P  P18  1  0.555993  0.628243  0.000000  1
  P  P19  1  0.374285  0.930006  0.000000  1
  W  W20  1  0.875142  0.445822  0.500000  1
