# generated using pymatgen
data_Sc3Zn3N
_symmetry_space_group_name_H-M   'P 1'
_cell_length_a   8.55455306
_cell_length_b   8.55455281
_cell_length_c   8.55455300
_cell_angle_alpha   59.99999540
_cell_angle_beta   59.99999638
_cell_angle_gamma   60.00000108
_symmetry_Int_Tables_number   1
_chemical_formula_structural   Sc3Zn3N
_chemical_formula_sum   'Sc12 Zn12 N4'
_cell_volume   442.66678495
_cell_formula_units_Z   4
loop_
 _symmetry_equiv_pos_site_id
 _symmetry_equiv_pos_as_xyz
  1  'x, y, z'
loop_
 _atom_site_type_symbol
 _atom_site_label
 _atom_site_symmetry_multiplicity
 _atom_site_fract_x
 _atom_site_fract_y
 _atom_site_fract_z
 _atom_site_occupancy
  Sc  Sc0  1  0.813203  0.186797  0.186797  1
  Sc  Sc1  1  0.186797  0.813203  0.186797  1
  Sc  Sc2  1  0.813203  0.813203  0.186797  1
  Sc  Sc3  1  0.186797  0.813203  0.813203  1
  Sc  Sc4  1  0.813203  0.186797  0.813203  1
  Sc  Sc5  1  0.186797  0.186797  0.813203  1
  Sc  Sc6  1  0.436797  0.063203  0.063203  1
  Sc  Sc7  1  0.063203  0.436797  0.063203  1
  Sc  Sc8  1  0.436797  0.436797  0.063203  1
  Sc  Sc9  1  0.063203  0.436797  0.436797  1
  Sc  Sc10  1  0.436797  0.063203  0.436797  1
  Sc  Sc11  1  0.063203  0.063203  0.436797  1
  Zn  Zn12  1  0.418710  0.418710  0.743869  1
  Zn  Zn13  1  0.418710  0.418710  0.418710  1
  Zn  Zn14  1  0.743869  0.418710  0.418710  1
  Zn  Zn15  1  0.418710  0.743869  0.418710  1
  Zn  Zn16  1  0.831290  0.831290  0.506131  1
  Zn  Zn17  1  0.831290  0.831290  0.831290  1
  Zn  Zn18  1  0.506131  0.831290  0.831290  1
  Zn  Zn19  1  0.831290  0.506131  0.831290  1
  Zn  Zn20  1  0.625000  0.625000  0.125000  1
  Zn  Zn21  1  0.625000  0.625000  0.625000  1
  Zn  Zn22  1  0.125000  0.625000  0.625000  1
  Zn  Zn23  1  0.625000  0.125000  0.625000  1
  N  N24  1  0.125000  0.125000  0.625000  1
  N  N25  1  0.125000  0.125000  0.125000  1
  N  N26  1  0.625000  0.125000  0.125000  1
  N  N27  1  0.125000  0.625000  0.125000  1
