# generated using pymatgen
data_Zr7U(TcRu)4
_symmetry_space_group_name_H-M   'P 1'
_cell_length_a   6.58038339
_cell_length_b   6.57697731
_cell_length_c   6.59366200
_cell_angle_alpha   89.99750783
_cell_angle_beta   89.99655658
_cell_angle_gamma   90.90870455
_symmetry_Int_Tables_number   1
_chemical_formula_structural   Zr7U(TcRu)4
_chemical_formula_sum   'Zr7 U1 Tc4 Ru4'
_cell_volume   285.33142025
_cell_formula_units_Z   1
loop_
 _symmetry_equiv_pos_site_id
 _symmetry_equiv_pos_as_xyz
  1  'x, y, z'
loop_
 _atom_site_type_symbol
 _atom_site_label
 _atom_site_symmetry_multiplicity
 _atom_site_fract_x
 _atom_site_fract_y
 _atom_site_fract_z
 _atom_site_occupancy
  Zr  Zr0  1  0.000096  0.000007  0.250003  1
  Zr  Zr1  1  0.500123  0.999983  0.250001  1
  Zr  Zr2  1  0.500116  0.499989  0.250001  1
  Zr  Zr3  1  0.499921  0.500003  0.749998  1
  Zr  Zr4  1  0.499882  0.999998  0.750004  1
  Zr  Zr5  1  0.999864  0.000001  0.749999  1
  Zr  Zr6  1  0.999889  0.500010  0.749991  1
  U  U7  1  0.000121  0.500028  0.249994  1
  Tc  Tc8  1  0.243016  0.743000  0.005524  1
  Tc  Tc9  1  0.756978  0.256970  0.494489  1
  Tc  Tc10  1  0.243063  0.743055  0.494543  1
  Tc  Tc11  1  0.756937  0.256923  0.005449  1
  Ru  Ru12  1  0.750845  0.749137  0.002103  1
  Ru  Ru13  1  0.249148  0.250880  0.497901  1
  Ru  Ru14  1  0.750840  0.749147  0.497934  1
  Ru  Ru15  1  0.249159  0.250869  0.002066  1
