# generated using pymatgen
data_Li3NdTh2Pt3
_symmetry_space_group_name_H-M   'P 1'
_cell_length_a   7.35994838
_cell_length_b   7.35994725
_cell_length_c   4.11536500
_cell_angle_alpha   90.00000000
_cell_angle_beta   90.00000000
_cell_angle_gamma   120.42872172
_symmetry_Int_Tables_number   1
_chemical_formula_structural   Li3NdTh2Pt3
_chemical_formula_sum   'Li3 Nd1 Th2 Pt3'
_cell_volume   192.21886795
_cell_formula_units_Z   1
loop_
 _symmetry_equiv_pos_site_id
 _symmetry_equiv_pos_as_xyz
  1  'x, y, z'
loop_
 _atom_site_type_symbol
 _atom_site_label
 _atom_site_symmetry_multiplicity
 _atom_site_fract_x
 _atom_site_fract_y
 _atom_site_fract_z
 _atom_site_occupancy
  Li  Li0  1  0.763346  0.763346  0.000000  1
  Li  Li1  1  0.229603  0.003393  0.000000  1
  Li  Li2  1  0.003393  0.229603  0.000000  1
  Nd  Nd3  1  0.405867  0.405867  0.500000  1
  Th  Th4  1  0.596055  0.000508  0.500000  1
  Th  Th5  1  0.000508  0.596055  0.500000  1
  Pt  Pt6  1  0.679167  0.332050  0.000000  1
  Pt  Pt7  1  0.332050  0.679167  0.000000  1
  Pt  Pt8  1  0.990010  0.990010  0.500000  1
