# generated using pymatgen
data_Ti3Mn8Al
_symmetry_space_group_name_H-M   'P 1'
_cell_length_a   4.71712900
_cell_length_b   4.71712828
_cell_length_c   7.77668900
_cell_angle_alpha   90.00000000
_cell_angle_beta   90.00000000
_cell_angle_gamma   119.99999806
_symmetry_Int_Tables_number   1
_chemical_formula_structural   Ti3Mn8Al
_chemical_formula_sum   'Ti3 Mn8 Al1'
_cell_volume   149.85830326
_cell_formula_units_Z   1
loop_
 _symmetry_equiv_pos_site_id
 _symmetry_equiv_pos_as_xyz
  1  'x, y, z'
loop_
 _atom_site_type_symbol
 _atom_site_label
 _atom_site_symmetry_multiplicity
 _atom_site_fract_x
 _atom_site_fract_y
 _atom_site_fract_z
 _atom_site_occupancy
  Ti  Ti0  1  0.666667  0.333333  0.935811  1
  Ti  Ti1  1  0.666667  0.333333  0.561910  1
  Ti  Ti2  1  0.333333  0.666667  0.070576  1
  Mn  Mn3  1  0.652433  0.826217  0.749161  1
  Mn  Mn4  1  0.345334  0.172667  0.251134  1
  Mn  Mn5  1  0.827333  0.172667  0.251134  1
  Mn  Mn6  1  0.173783  0.347567  0.749161  1
  Mn  Mn7  1  0.173783  0.826217  0.749161  1
  Mn  Mn8  1  0.827333  0.654666  0.251134  1
  Mn  Mn9  1  0.000000  0.000000  0.499287  1
  Mn  Mn10  1  0.000000  0.000000  0.995640  1
  Al  Al11  1  0.333333  0.666667  0.435891  1
