# generated using pymatgen
data_La3Cd3NiIr2
_symmetry_space_group_name_H-M   'P 1'
_cell_length_a   7.66168500
_cell_length_b   7.66168452
_cell_length_c   4.05976600
_cell_angle_alpha   90.00000000
_cell_angle_beta   90.00000000
_cell_angle_gamma   120.00000640
_symmetry_Int_Tables_number   1
_chemical_formula_structural   La3Cd3NiIr2
_chemical_formula_sum   'La3 Cd3 Ni1 Ir2'
_cell_volume   206.38596653
_cell_formula_units_Z   1
loop_
 _symmetry_equiv_pos_site_id
 _symmetry_equiv_pos_as_xyz
  1  'x, y, z'
loop_
 _atom_site_type_symbol
 _atom_site_label
 _atom_site_symmetry_multiplicity
 _atom_site_fract_x
 _atom_site_fract_y
 _atom_site_fract_z
 _atom_site_occupancy
  La  La0  1  0.000000  0.417125  0.500000  1
  La  La1  1  0.582875  0.582875  0.500000  1
  La  La2  1  0.417125  0.000000  0.500000  1
  Cd  Cd3  1  0.000000  0.763135  0.000000  1
  Cd  Cd4  1  0.236865  0.236865  0.000000  1
  Cd  Cd5  1  0.763135  0.000000  0.000000  1
  Ni  Ni6  1  0.000000  0.000000  0.500000  1
  Ir  Ir7  1  0.333333  0.666667  0.000000  1
  Ir  Ir8  1  0.666667  0.333333  0.000000  1
