# generated using pymatgen
data_NdTmSc2(ZnSn)4
_symmetry_space_group_name_H-M   'P 1'
_cell_length_a   4.48079500
_cell_length_b   4.48079499
_cell_length_c   15.44037100
_cell_angle_alpha   90.00000000
_cell_angle_beta   90.00000000
_cell_angle_gamma   120.00000745
_symmetry_Int_Tables_number   1
_chemical_formula_structural   NdTmSc2(ZnSn)4
_chemical_formula_sum   'Nd1 Tm1 Sc2 Zn4 Sn4'
_cell_volume   268.47167947
_cell_formula_units_Z   1
loop_
 _symmetry_equiv_pos_site_id
 _symmetry_equiv_pos_as_xyz
  1  'x, y, z'
loop_
 _atom_site_type_symbol
 _atom_site_label
 _atom_site_symmetry_multiplicity
 _atom_site_fract_x
 _atom_site_fract_y
 _atom_site_fract_z
 _atom_site_occupancy
  Nd  Nd0  1  0.000000  0.000000  0.000000  1
  Tm  Tm1  1  0.000000  0.000000  0.500000  1
  Sc  Sc2  1  0.000000  0.000000  0.254058  1
  Sc  Sc3  1  0.000000  0.000000  0.745942  1
  Zn  Zn4  1  0.333333  0.666667  0.336334  1
  Zn  Zn5  1  0.666667  0.333333  0.663666  1
  Zn  Zn6  1  0.666667  0.333333  0.834090  1
  Zn  Zn7  1  0.333333  0.666667  0.165910  1
  Sn  Sn8  1  0.333333  0.666667  0.877185  1
  Sn  Sn9  1  0.666667  0.333333  0.122815  1
  Sn  Sn10  1  0.666667  0.333333  0.386313  1
  Sn  Sn11  1  0.333333  0.666667  0.613687  1
