# generated using pymatgen
data_Ho7Er3(Co2Hg)2
_symmetry_space_group_name_H-M   'P 1'
_cell_length_a   8.47225436
_cell_length_b   8.47670629
_cell_length_c   8.47616000
_cell_angle_alpha   127.32039844
_cell_angle_beta   127.30683671
_cell_angle_gamma   77.69283626
_symmetry_Int_Tables_number   1
_chemical_formula_structural   Ho7Er3(Co2Hg)2
_chemical_formula_sum   'Ho7 Er3 Co4 Hg2'
_cell_volume   373.42052332
_cell_formula_units_Z   1
loop_
 _symmetry_equiv_pos_site_id
 _symmetry_equiv_pos_as_xyz
  1  'x, y, z'
loop_
 _atom_site_type_symbol
 _atom_site_label
 _atom_site_symmetry_multiplicity
 _atom_site_fract_x
 _atom_site_fract_y
 _atom_site_fract_z
 _atom_site_occupancy
  Ho  Ho0  1  0.473431  0.973334  0.180158  1
  Ho  Ho1  1  0.793165  0.293228  0.819829  1
  Ho  Ho2  1  0.526833  0.026736  0.820062  1
  Ho  Ho3  1  0.026148  0.207399  0.500108  1
  Ho  Ho4  1  0.293542  0.473269  0.499954  1
  Ho  Ho5  1  0.206682  0.706486  0.179835  1
  Ho  Ho6  1  0.972910  0.792974  0.499799  1
  Er  Er7  1  0.707394  0.527249  0.500280  1
  Er  Er8  1  0.999771  0.999639  0.999645  1
  Er  Er9  1  0.499969  0.500051  0.000293  1
  Co  Co10  1  0.136303  0.636526  0.773151  1
  Co  Co11  1  0.863189  0.363544  0.226935  1
  Co  Co12  1  0.636550  0.863135  0.499923  1
  Co  Co13  1  0.363147  0.136747  0.500017  1
  Hg  Hg14  1  0.250258  0.249290  0.999624  1
  Hg  Hg15  1  0.750710  0.750389  0.000386  1
