# generated using pymatgen
data_Y8Co17Si10Os
_symmetry_space_group_name_H-M   'P 1'
_cell_length_a   5.23302191
_cell_length_b   5.23302085
_cell_length_c   22.03600450
_cell_angle_alpha   89.91689594
_cell_angle_beta   90.08310509
_cell_angle_gamma   120.23035299
_symmetry_Int_Tables_number   1
_chemical_formula_structural   Y8Co17Si10Os
_chemical_formula_sum   'Y8 Co17 Si10 Os1'
_cell_volume   521.38091141
_cell_formula_units_Z   1
loop_
 _symmetry_equiv_pos_site_id
 _symmetry_equiv_pos_as_xyz
  1  'x, y, z'
loop_
 _atom_site_type_symbol
 _atom_site_label
 _atom_site_symmetry_multiplicity
 _atom_site_fract_x
 _atom_site_fract_y
 _atom_site_fract_z
 _atom_site_occupancy
  Y  Y0  1  0.331417  0.668583  0.530600  1
  Y  Y1  1  0.664442  0.335558  0.475203  1
  Y  Y2  1  0.666788  0.333212  0.027191  1
  Y  Y3  1  0.333361  0.666639  0.971595  1
  Y  Y4  1  0.333058  0.666942  0.675843  1
  Y  Y5  1  0.667623  0.332377  0.325915  1
  Y  Y6  1  0.667511  0.332489  0.173919  1
  Y  Y7  1  0.333474  0.666526  0.826121  1
  Co  Co8  1  0.166444  0.332142  0.087358  1
  Co  Co9  1  0.833743  0.668172  0.911538  1
  Co  Co10  1  0.667858  0.833556  0.087358  1
  Co  Co11  1  0.832243  0.668954  0.590770  1
  Co  Co12  1  0.331828  0.166257  0.911538  1
  Co  Co13  1  0.161306  0.332586  0.411844  1
  Co  Co14  1  0.166596  0.833404  0.087240  1
  Co  Co15  1  0.331046  0.167757  0.590770  1
  Co  Co16  1  0.834419  0.165581  0.910872  1
  Co  Co17  1  0.667414  0.838694  0.411844  1
  Co  Co18  1  0.833737  0.166263  0.590345  1
  Co  Co19  1  0.168677  0.333521  0.247214  1
  Co  Co20  1  0.832451  0.664423  0.750660  1
  Co  Co21  1  0.666479  0.831323  0.247214  1
  Co  Co22  1  0.335577  0.167549  0.750660  1
  Co  Co23  1  0.168272  0.831728  0.248939  1
  Co  Co24  1  0.832524  0.167476  0.751371  1
  Si  Si25  1  0.999290  0.000710  0.999373  1
  Si  Si26  1  0.999204  0.000796  0.502779  1
  Si  Si27  1  0.332803  0.667197  0.166564  1
  Si  Si28  1  0.665773  0.334227  0.832425  1
  Si  Si29  1  0.667633  0.332367  0.669344  1
  Si  Si30  1  0.342787  0.657213  0.327984  1
  Si  Si31  1  0.001948  0.998052  0.167374  1
  Si  Si32  1  0.001284  0.998716  0.831109  1
  Si  Si33  1  0.999056  0.000944  0.670733  1
  Si  Si34  1  0.993587  0.006413  0.327646  1
  Os  Os35  1  0.168348  0.831652  0.410743  1
