# generated using pymatgen
data_SmTmNpO6
_symmetry_space_group_name_H-M   'P 1'
_cell_length_a   5.58903100
_cell_length_b   7.87998059
_cell_length_c   11.79575729
_cell_angle_alpha   74.39172500
_cell_angle_beta   90.00000000
_cell_angle_gamma   90.00000000
_symmetry_Int_Tables_number   1
_chemical_formula_structural   SmTmNpO6
_chemical_formula_sum   'Sm4 Tm4 Np4 O24'
_cell_volume   500.34500873
_cell_formula_units_Z   4
loop_
 _symmetry_equiv_pos_site_id
 _symmetry_equiv_pos_as_xyz
  1  'x, y, z'
loop_
 _atom_site_type_symbol
 _atom_site_label
 _atom_site_symmetry_multiplicity
 _atom_site_fract_x
 _atom_site_fract_y
 _atom_site_fract_z
 _atom_site_occupancy
  Sm  Sm0  1  0.747958  0.000000  0.750000  1
  Sm  Sm1  1  0.252042  0.000000  0.250000  1
  Sm  Sm2  1  0.695908  0.500000  0.750000  1
  Sm  Sm3  1  0.304092  0.500000  0.250000  1
  Tm  Tm4  1  0.185269  0.792396  0.581382  1
  Tm  Tm5  1  0.814731  0.792396  0.081382  1
  Tm  Tm6  1  0.185269  0.207604  0.918618  1
  Tm  Tm7  1  0.814731  0.207604  0.418618  1
  Np  Np8  1  0.256229  0.721839  0.888225  1
  Np  Np9  1  0.743771  0.721839  0.388225  1
  Np  Np10  1  0.256229  0.278161  0.611775  1
  Np  Np11  1  0.743771  0.278161  0.111775  1
  O  O12  1  0.054708  0.945269  0.899801  1
  O  O13  1  0.558067  0.841812  0.935926  1
  O  O14  1  0.945292  0.945269  0.399801  1
  O  O15  1  0.444678  0.798418  0.726226  1
  O  O16  1  0.441933  0.841812  0.435926  1
  O  O17  1  0.969239  0.717309  0.766315  1
  O  O18  1  0.555322  0.798418  0.226226  1
  O  O19  1  0.879777  0.629853  0.554802  1
  O  O20  1  0.378476  0.481490  0.885689  1
  O  O21  1  0.030761  0.717309  0.266315  1
  O  O22  1  0.378476  0.518510  0.614311  1
  O  O23  1  0.879777  0.370147  0.945198  1
  O  O24  1  0.120223  0.629853  0.054802  1
  O  O25  1  0.621524  0.481490  0.385689  1
  O  O26  1  0.969239  0.282691  0.733685  1
  O  O27  1  0.621524  0.518510  0.114311  1
  O  O28  1  0.120223  0.370147  0.445198  1
  O  O29  1  0.444678  0.201582  0.773774  1
  O  O30  1  0.030761  0.282691  0.233685  1
  O  O31  1  0.558067  0.158188  0.564074  1
  O  O32  1  0.555322  0.201582  0.273774  1
  O  O33  1  0.054708  0.054731  0.600199  1
  O  O34  1  0.441933  0.158188  0.064074  1
  O  O35  1  0.945292  0.054731  0.100199  1
