# generated using pymatgen
data_Tb11DyCo6Pb
_symmetry_space_group_name_H-M   'P 1'
_cell_length_a   8.42125128
_cell_length_b   8.42250383
_cell_length_c   8.42125116
_cell_angle_alpha   109.47607950
_cell_angle_beta   109.44929303
_cell_angle_gamma   109.48225810
_symmetry_Int_Tables_number   1
_chemical_formula_structural   Tb11DyCo6Pb
_chemical_formula_sum   'Tb11 Dy1 Co6 Pb1'
_cell_volume   459.83800763
_cell_formula_units_Z   1
loop_
 _symmetry_equiv_pos_site_id
 _symmetry_equiv_pos_as_xyz
  1  'x, y, z'
loop_
 _atom_site_type_symbol
 _atom_site_label
 _atom_site_symmetry_multiplicity
 _atom_site_fract_x
 _atom_site_fract_y
 _atom_site_fract_z
 _atom_site_occupancy
  Tb  Tb0  1  0.805676  0.500905  0.695231  1
  Tb  Tb1  1  0.695349  0.194419  0.889665  1
  Tb  Tb2  1  0.194351  0.889469  0.695118  1
  Tb  Tb3  1  0.304753  0.194419  0.499070  1
  Tb  Tb4  1  0.695008  0.805537  0.500807  1
  Tb  Tb5  1  0.499024  0.304808  0.194359  1
  Tb  Tb6  1  0.805800  0.110569  0.304769  1
  Tb  Tb7  1  0.889665  0.695144  0.194363  1
  Tb  Tb8  1  0.110450  0.304808  0.805785  1
  Tb  Tb9  1  0.304729  0.805537  0.110529  1
  Tb  Tb10  1  0.500781  0.695144  0.805479  1
  Dy  Dy11  1  0.194295  0.499331  0.305035  1
  Co  Co12  1  0.612577  0.112588  0.500011  1
  Co  Co13  1  0.499919  0.612540  0.112620  1
  Co  Co14  1  0.500009  0.387419  0.887410  1
  Co  Co15  1  0.387275  0.887184  0.499910  1
  Co  Co16  1  0.112695  0.500027  0.612424  1
  Co  Co17  1  0.887603  0.500027  0.387332  1
  Pb  Pb18  1  0.000043  0.000124  0.000082  1
