# generated using pymatgen
data_OsRu3Se8
_symmetry_space_group_name_H-M   'P 1'
_cell_length_a   6.01574683
_cell_length_b   6.01574683
_cell_length_c   6.01574683
_cell_angle_alpha   90.04244814
_cell_angle_beta   89.95755186
_cell_angle_gamma   90.04244814
_symmetry_Int_Tables_number   1
_chemical_formula_structural   OsRu3Se8
_chemical_formula_sum   'Os1 Ru3 Se8'
_cell_volume   217.70494520
_cell_formula_units_Z   1
loop_
 _symmetry_equiv_pos_site_id
 _symmetry_equiv_pos_as_xyz
  1  'x, y, z'
loop_
 _atom_site_type_symbol
 _atom_site_label
 _atom_site_symmetry_multiplicity
 _atom_site_fract_x
 _atom_site_fract_y
 _atom_site_fract_z
 _atom_site_occupancy
  Os  Os0  1  0.000000  0.500000  0.500000  1
  Ru  Ru1  1  0.500000  0.500000  0.000000  1
  Ru  Ru2  1  0.500000  0.000000  0.500000  1
  Ru  Ru3  1  0.000000  0.000000  0.000000  1
  Se  Se4  1  0.379262  0.120738  0.879262  1
  Se  Se5  1  0.120707  0.878460  0.378937  1
  Se  Se6  1  0.878937  0.379293  0.121540  1
  Se  Se7  1  0.621540  0.621063  0.620707  1
  Se  Se8  1  0.378460  0.378937  0.379293  1
  Se  Se9  1  0.121063  0.620707  0.878460  1
  Se  Se10  1  0.879293  0.121540  0.621063  1
  Se  Se11  1  0.620738  0.879262  0.120738  1
