# generated using pymatgen
data_Na4Sr2SnAs4
_symmetry_space_group_name_H-M   'P 1'
_cell_length_a   9.87768679
_cell_length_b   9.87768619
_cell_length_c   7.58088517
_cell_angle_alpha   89.18137195
_cell_angle_beta   89.18137588
_cell_angle_gamma   120.09081829
_symmetry_Int_Tables_number   1
_chemical_formula_structural   Na4Sr2SnAs4
_chemical_formula_sum   'Na8 Sr4 Sn2 As8'
_cell_volume   639.71273094
_cell_formula_units_Z   2
loop_
 _symmetry_equiv_pos_site_id
 _symmetry_equiv_pos_as_xyz
  1  'x, y, z'
loop_
 _atom_site_type_symbol
 _atom_site_label
 _atom_site_symmetry_multiplicity
 _atom_site_fract_x
 _atom_site_fract_y
 _atom_site_fract_z
 _atom_site_occupancy
  Na  Na0  1  0.470056  0.933021  0.380071  1
  Na  Na1  1  0.933021  0.470056  0.880071  1
  Na  Na2  1  0.862507  0.715085  0.186035  1
  Na  Na3  1  0.296020  0.139032  0.230329  1
  Na  Na4  1  0.848499  0.141175  0.210999  1
  Na  Na5  1  0.139032  0.296020  0.730329  1
  Na  Na6  1  0.715085  0.862507  0.686035  1
  Na  Na7  1  0.141175  0.848499  0.710999  1
  Sr  Sr8  1  0.051193  0.528597  0.385646  1
  Sr  Sr9  1  0.482623  0.532632  0.378685  1
  Sr  Sr10  1  0.528597  0.051193  0.885646  1
  Sr  Sr11  1  0.532632  0.482623  0.878685  1
  Sn  Sn12  1  0.660114  0.324137  0.502395  1
  Sn  Sn13  1  0.324137  0.660114  0.002395  1
  As  As14  1  0.190933  0.369367  0.126373  1
  As  As15  1  0.628262  0.813673  0.089661  1
  As  As16  1  0.193207  0.819565  0.108302  1
  As  As17  1  0.813673  0.628262  0.589661  1
  As  As18  1  0.369367  0.190933  0.626373  1
  As  As19  1  0.819565  0.193207  0.608302  1
  As  As20  1  0.663089  0.337230  0.149630  1
  As  As21  1  0.337230  0.663089  0.649630  1
