# generated using pymatgen
data_Dy6Tm4Si5Pb
_symmetry_space_group_name_H-M   'P 1'
_cell_length_a   8.52150404
_cell_length_b   8.52150313
_cell_length_c   6.34531600
_cell_angle_alpha   90.00000000
_cell_angle_beta   90.00000000
_cell_angle_gamma   120.20995072
_symmetry_Int_Tables_number   1
_chemical_formula_structural   Dy6Tm4Si5Pb
_chemical_formula_sum   'Dy6 Tm4 Si5 Pb1'
_cell_volume   398.19303695
_cell_formula_units_Z   1
loop_
 _symmetry_equiv_pos_site_id
 _symmetry_equiv_pos_as_xyz
  1  'x, y, z'
loop_
 _atom_site_type_symbol
 _atom_site_label
 _atom_site_symmetry_multiplicity
 _atom_site_fract_x
 _atom_site_fract_y
 _atom_site_fract_z
 _atom_site_occupancy
  Dy  Dy0  1  0.766829  0.766829  0.250000  1
  Dy  Dy1  1  0.240348  0.987455  0.250000  1
  Dy  Dy2  1  0.987455  0.240348  0.250000  1
  Dy  Dy3  1  0.240305  0.240305  0.750000  1
  Dy  Dy4  1  0.755689  0.998426  0.750000  1
  Dy  Dy5  1  0.998426  0.755689  0.750000  1
  Tm  Tm6  1  0.675157  0.331246  0.503821  1
  Tm  Tm7  1  0.331246  0.675157  0.503821  1
  Tm  Tm8  1  0.331246  0.675157  0.996179  1
  Tm  Tm9  1  0.675157  0.331246  0.996179  1
  Si  Si10  1  0.603172  0.998344  0.250000  1
  Si  Si11  1  0.998344  0.603172  0.250000  1
  Si  Si12  1  0.605303  0.605303  0.750000  1
  Si  Si13  1  0.394400  0.001627  0.750000  1
  Si  Si14  1  0.001627  0.394400  0.750000  1
  Pb  Pb15  1  0.395293  0.395293  0.250000  1
