# generated using pymatgen
data_Y2Be23Au3
_symmetry_space_group_name_H-M   'P 1'
_cell_length_a   7.40269900
_cell_length_b   7.40269863
_cell_length_c   7.58082826
_cell_angle_alpha   119.22571005
_cell_angle_beta   90.00000000
_cell_angle_gamma   120.00000610
_symmetry_Int_Tables_number   1
_chemical_formula_structural   Y2Be23Au3
_chemical_formula_sum   'Y2 Be23 Au3'
_cell_volume   297.14372978
_cell_formula_units_Z   1
loop_
 _symmetry_equiv_pos_site_id
 _symmetry_equiv_pos_as_xyz
  1  'x, y, z'
loop_
 _atom_site_type_symbol
 _atom_site_label
 _atom_site_symmetry_multiplicity
 _atom_site_fract_x
 _atom_site_fract_y
 _atom_site_fract_z
 _atom_site_occupancy
  Y  Y0  1  0.758860  0.517719  0.276579  1
  Y  Y1  1  0.244520  0.489041  0.733561  1
  Be  Be2  1  0.997204  0.994408  0.991611  1
  Be  Be3  1  0.436325  0.660318  0.237420  1
  Be  Be4  1  0.577101  0.013427  0.237420  1
  Be  Be5  1  0.223993  0.801094  0.237420  1
  Be  Be6  1  0.074005  0.014991  0.306758  1
  Be  Be7  1  0.291766  0.365770  0.306758  1
  Be  Be8  1  0.940986  0.232753  0.306758  1
  Be  Be9  1  0.787642  0.001574  0.441060  1
  Be  Be10  1  0.439486  0.227129  0.441060  1
  Be  Be11  1  0.213931  0.653417  0.441060  1
  Be  Be12  1  0.501164  0.002329  0.503493  1
  Be  Be13  1  0.213606  0.003285  0.566050  1
  Be  Be14  1  0.562763  0.776371  0.566050  1
  Be  Be15  1  0.789678  0.352442  0.566050  1
  Be  Be16  1  0.706652  0.640349  0.696898  1
  Be  Be17  1  0.056548  0.763199  0.696898  1
  Be  Be18  1  0.933697  0.990245  0.696898  1
  Be  Be19  1  0.428526  0.990171  0.765223  1
  Be  Be20  1  0.775052  0.203579  0.765223  1
  Be  Be21  1  0.561644  0.336697  0.765223  1
  Be  Be22  1  0.942402  0.622269  0.929434  1
  Be  Be23  1  0.679867  0.987033  0.929434  1
  Be  Be24  1  0.307165  0.249568  0.929434  1
  Au  Au25  1  0.315781  0.009003  0.055407  1
  Au  Au26  1  0.046405  0.362185  0.055407  1
  Au  Au27  1  0.693221  0.739625  0.055407  1
