# generated using pymatgen
data_Er11LuGa9Si9Ge2
_symmetry_space_group_name_H-M   'P 1'
_cell_length_a   5.91579700
_cell_length_b   5.91579771
_cell_length_c   18.58582400
_cell_angle_alpha   90.00000000
_cell_angle_beta   90.00000000
_cell_angle_gamma   102.96143258
_symmetry_Int_Tables_number   1
_chemical_formula_structural   Er11LuGa9Si9Ge2
_chemical_formula_sum   'Er11 Lu1 Ga9 Si9 Ge2'
_cell_volume   633.86929967
_cell_formula_units_Z   1
loop_
 _symmetry_equiv_pos_site_id
 _symmetry_equiv_pos_as_xyz
  1  'x, y, z'
loop_
 _atom_site_type_symbol
 _atom_site_label
 _atom_site_symmetry_multiplicity
 _atom_site_fract_x
 _atom_site_fract_y
 _atom_site_fract_z
 _atom_site_occupancy
  Er  Er0  1  0.659102  0.659102  0.500000  1
  Er  Er1  1  0.341895  0.341895  0.250327  1
  Er  Er2  1  0.341895  0.341895  0.749673  1
  Er  Er3  1  0.200317  0.802175  0.127737  1
  Er  Er4  1  0.198568  0.801584  0.625111  1
  Er  Er5  1  0.200317  0.802175  0.872263  1
  Er  Er6  1  0.198568  0.801584  0.374889  1
  Er  Er7  1  0.802175  0.200317  0.127737  1
  Er  Er8  1  0.801584  0.198568  0.625111  1
  Er  Er9  1  0.801584  0.198568  0.374889  1
  Er  Er10  1  0.802175  0.200317  0.872263  1
  Lu  Lu11  1  0.651952  0.651952  0.000000  1
  Ga  Ga12  1  0.317928  0.317928  0.901919  1
  Ga  Ga13  1  0.322713  0.322713  0.401923  1
  Ga  Ga14  1  0.678237  0.678237  0.348084  1
  Ga  Ga15  1  0.678040  0.678040  0.848387  1
  Ga  Ga16  1  0.317928  0.317928  0.098081  1
  Ga  Ga17  1  0.322713  0.322713  0.598077  1
  Ga  Ga18  1  0.678040  0.678040  0.151613  1
  Ga  Ga19  1  0.678237  0.678237  0.651916  1
  Ga  Ga20  1  0.038313  0.038313  0.000000  1
  Si  Si21  1  0.484652  0.087449  0.500000  1
  Si  Si22  1  0.913429  0.516254  0.250327  1
  Si  Si23  1  0.913429  0.516254  0.749673  1
  Si  Si24  1  0.516254  0.913429  0.250327  1
  Si  Si25  1  0.516254  0.913429  0.749673  1
  Si  Si26  1  0.087449  0.484652  0.500000  1
  Si  Si27  1  0.051122  0.051122  0.500000  1
  Si  Si28  1  0.950094  0.950094  0.250580  1
  Si  Si29  1  0.950094  0.950094  0.749420  1
  Ge  Ge30  1  0.498764  0.086180  0.000000  1
  Ge  Ge31  1  0.086180  0.498764  0.000000  1
