# generated using pymatgen
data_Tb6Dy2Cd3SnAu8
_symmetry_space_group_name_H-M   'P 1'
_cell_length_a   8.02939049
_cell_length_b   8.02734349
_cell_length_c   7.40721400
_cell_angle_alpha   90.00000000
_cell_angle_beta   90.00000000
_cell_angle_gamma   89.95993475
_symmetry_Int_Tables_number   1
_chemical_formula_structural   Tb6Dy2Cd3SnAu8
_chemical_formula_sum   'Tb6 Dy2 Cd3 Sn1 Au8'
_cell_volume   477.42945793
_cell_formula_units_Z   1
loop_
 _symmetry_equiv_pos_site_id
 _symmetry_equiv_pos_as_xyz
  1  'x, y, z'
loop_
 _atom_site_type_symbol
 _atom_site_label
 _atom_site_symmetry_multiplicity
 _atom_site_fract_x
 _atom_site_fract_y
 _atom_site_fract_z
 _atom_site_occupancy
  Tb  Tb0  1  0.844193  0.167610  0.500081  1
  Tb  Tb1  1  0.155807  0.832390  0.500081  1
  Tb  Tb2  1  0.332329  0.344297  0.999958  1
  Tb  Tb3  1  0.667671  0.655703  0.999958  1
  Tb  Tb4  1  0.685721  0.674365  0.500194  1
  Tb  Tb5  1  0.314279  0.325635  0.500194  1
  Dy  Dy6  1  0.174307  0.814390  0.999754  1
  Dy  Dy7  1  0.825693  0.185610  0.999754  1
  Cd  Cd8  1  0.500000  0.000000  0.249976  1
  Cd  Cd9  1  0.000000  0.500000  0.750132  1
  Cd  Cd10  1  0.500000  0.000000  0.750021  1
  Sn  Sn11  1  0.000000  0.500000  0.249913  1
  Au  Au12  1  0.621544  0.364937  0.268680  1
  Au  Au13  1  0.378456  0.635063  0.268680  1
  Au  Au14  1  0.132352  0.125052  0.768449  1
  Au  Au15  1  0.867648  0.874948  0.768449  1
  Au  Au16  1  0.374613  0.632655  0.732132  1
  Au  Au17  1  0.625387  0.367345  0.732132  1
  Au  Au18  1  0.865249  0.878770  0.230731  1
  Au  Au19  1  0.134751  0.121230  0.230731  1
