# generated using pymatgen
data_KTb6Y4(C2Br9)2
_symmetry_space_group_name_H-M   'P 1'
_cell_length_a   10.73645249
_cell_length_b   10.79205228
_cell_length_c   10.92937086
_cell_angle_alpha   113.51603660
_cell_angle_beta   87.36087577
_cell_angle_gamma   119.03413933
_symmetry_Int_Tables_number   1
_chemical_formula_structural   KTb6Y4(C2Br9)2
_chemical_formula_sum   'K1 Tb6 Y4 C4 Br18'
_cell_volume   997.91236553
_cell_formula_units_Z   1
loop_
 _symmetry_equiv_pos_site_id
 _symmetry_equiv_pos_as_xyz
  1  'x, y, z'
loop_
 _atom_site_type_symbol
 _atom_site_label
 _atom_site_symmetry_multiplicity
 _atom_site_fract_x
 _atom_site_fract_y
 _atom_site_fract_z
 _atom_site_occupancy
  K  K0  1  0.499929  0.000344  0.499843  1
  Tb  Tb1  1  0.661712  0.716783  0.702077  1
  Tb  Tb2  1  0.283152  0.366325  0.013044  1
  Tb  Tb3  1  0.094154  0.408549  0.302743  1
  Tb  Tb4  1  0.959715  0.035674  0.333300  1
  Tb  Tb5  1  0.905721  0.591373  0.697211  1
  Tb  Tb6  1  0.112141  0.941788  0.000786  1
  Y  Y7  1  0.039847  0.963945  0.667209  1
  Y  Y8  1  0.338074  0.283444  0.297752  1
  Y  Y9  1  0.717175  0.634275  0.986490  1
  Y  Y10  1  0.888405  0.058685  0.999340  1
  C  C11  1  0.157115  0.228623  0.124400  1
  C  C12  1  0.842915  0.771759  0.875784  1
  C  C13  1  0.921665  0.851102  0.795884  1
  C  C14  1  0.078305  0.149079  0.204258  1
  Br  Br15  1  0.451046  0.530364  0.832931  1
  Br  Br16  1  0.382963  0.039044  0.159916  1
  Br  Br17  1  0.776730  0.858880  0.503094  1
  Br  Br18  1  0.839178  0.312086  0.154740  1
  Br  Br19  1  0.550145  0.470272  0.166387  1
  Br  Br20  1  0.222786  0.140089  0.498089  1
  Br  Br21  1  0.315040  0.099727  0.828217  1
  Br  Br22  1  0.684098  0.899162  0.171897  1
  Br  Br23  1  0.973428  0.758737  0.170848  1
  Br  Br24  1  0.931071  0.301007  0.500985  1
  Br  Br25  1  0.026610  0.241078  0.827962  1
  Br  Br26  1  0.068747  0.699362  0.498985  1
  Br  Br27  1  0.266147  0.629208  0.193247  1
  Br  Br28  1  0.733672  0.371179  0.807231  1
  Br  Br29  1  0.637171  0.430953  0.497540  1
  Br  Br30  1  0.160761  0.687013  0.844604  1
  Br  Br31  1  0.617928  0.962392  0.841556  1
  Br  Br32  1  0.362454  0.567699  0.501653  1
