# generated using pymatgen
data_Hf6Al2Ga4(PdPt)3
_symmetry_space_group_name_H-M   'P 1'
_cell_length_a   7.12803767
_cell_length_b   7.17731534
_cell_length_c   7.12339381
_cell_angle_alpha   90.00258171
_cell_angle_beta   90.25250411
_cell_angle_gamma   120.19123185
_symmetry_Int_Tables_number   1
_chemical_formula_structural   Hf6Al2Ga4(PdPt)3
_chemical_formula_sum   'Hf6 Al2 Ga4 Pd3 Pt3'
_cell_volume   314.99509486
_cell_formula_units_Z   1
loop_
 _symmetry_equiv_pos_site_id
 _symmetry_equiv_pos_as_xyz
  1  'x, y, z'
loop_
 _atom_site_type_symbol
 _atom_site_label
 _atom_site_symmetry_multiplicity
 _atom_site_fract_x
 _atom_site_fract_y
 _atom_site_fract_z
 _atom_site_occupancy
  Hf  Hf0  1  0.609218  0.583578  0.249496  1
  Hf  Hf1  1  0.027428  0.420251  0.749601  1
  Hf  Hf2  1  0.415859  0.024162  0.249927  1
  Hf  Hf3  1  0.974917  0.393624  0.250740  1
  Hf  Hf4  1  0.390128  0.972282  0.750878  1
  Hf  Hf5  1  0.582378  0.609524  0.750293  1
  Al  Al6  1  0.255465  0.257567  0.500244  1
  Al  Al7  1  0.745538  0.004231  0.500920  1
  Ga  Ga8  1  0.999178  0.737220  0.500819  1
  Ga  Ga9  1  0.734496  0.004916  0.001297  1
  Ga  Ga10  1  0.268667  0.266697  0.000894  1
  Ga  Ga11  1  0.996662  0.731694  0.000865  1
  Pd  Pd12  1  0.999848  0.001280  0.754634  1
  Pd  Pd13  1  0.000086  0.001208  0.247129  1
  Pd  Pd14  1  0.667126  0.333350  0.959536  1
  Pt  Pt15  1  0.339476  0.665947  0.466159  1
  Pt  Pt16  1  0.332901  0.665789  0.035561  1
  Pt  Pt17  1  0.660631  0.326678  0.531005  1
