# generated using pymatgen
data_AcCl30
_symmetry_space_group_name_H-M   'P 1'
_cell_length_a   13.69640285
_cell_length_b   13.69640311
_cell_length_c   15.97279385
_cell_angle_alpha   81.31984834
_cell_angle_beta   81.31985002
_cell_angle_gamma   117.27250241
_symmetry_Int_Tables_number   1
_chemical_formula_structural   AcCl30
_chemical_formula_sum   'Ac1 Cl30'
_cell_volume   2548.85371794
_cell_formula_units_Z   1
loop_
 _symmetry_equiv_pos_site_id
 _symmetry_equiv_pos_as_xyz
  1  'x, y, z'
loop_
 _atom_site_type_symbol
 _atom_site_label
 _atom_site_symmetry_multiplicity
 _atom_site_fract_x
 _atom_site_fract_y
 _atom_site_fract_z
 _atom_site_occupancy
  Ac  Ac0  1  0.000000  0.000000  0.000000  1
  Cl  Cl1  1  0.936041  0.936041  0.184408  1
  Cl  Cl2  1  0.063959  0.063959  0.815592  1
  Cl  Cl3  1  0.136334  0.239110  0.004679  1
  Cl  Cl4  1  0.863666  0.760890  0.995321  1
  Cl  Cl5  1  0.239110  0.136334  0.004679  1
  Cl  Cl6  1  0.760890  0.863666  0.995321  1
  Cl  Cl7  1  0.193807  0.746641  0.065802  1
  Cl  Cl8  1  0.806193  0.253359  0.934198  1
  Cl  Cl9  1  0.687376  0.086332  0.256765  1
  Cl  Cl10  1  0.253359  0.806193  0.934198  1
  Cl  Cl11  1  0.312624  0.913668  0.743235  1
  Cl  Cl12  1  0.746641  0.193807  0.065802  1
  Cl  Cl13  1  0.980345  0.208607  0.767815  1
  Cl  Cl14  1  0.913668  0.312624  0.743235  1
  Cl  Cl15  1  0.019655  0.791393  0.232185  1
  Cl  Cl16  1  0.086332  0.687376  0.256765  1
  Cl  Cl17  1  0.791393  0.019655  0.232185  1
  Cl  Cl18  1  0.208607  0.980345  0.767815  1
  Cl  Cl19  1  0.466073  0.551307  0.264416  1
  Cl  Cl20  1  0.533927  0.448693  0.735584  1
  Cl  Cl21  1  0.510449  0.210063  0.450239  1
  Cl  Cl22  1  0.448693  0.533927  0.735584  1
  Cl  Cl23  1  0.489551  0.789937  0.549761  1
  Cl  Cl24  1  0.551307  0.466073  0.264416  1
  Cl  Cl25  1  0.240877  0.430305  0.548905  1
  Cl  Cl26  1  0.789937  0.489551  0.549761  1
  Cl  Cl27  1  0.759123  0.569695  0.451095  1
  Cl  Cl28  1  0.210063  0.510449  0.450239  1
  Cl  Cl29  1  0.569695  0.759123  0.451095  1
  Cl  Cl30  1  0.430305  0.240877  0.548905  1
