# generated using pymatgen
data_Zr7Ti3Sn2(Bi2B)2
_symmetry_space_group_name_H-M   'P 1'
_cell_length_a   8.54157414
_cell_length_b   8.54075959
_cell_length_c   5.73933215
_cell_angle_alpha   89.97372065
_cell_angle_beta   90.01065525
_cell_angle_gamma   119.72463770
_symmetry_Int_Tables_number   1
_chemical_formula_structural   Zr7Ti3Sn2(Bi2B)2
_chemical_formula_sum   'Zr7 Ti3 Sn2 Bi4 B2'
_cell_volume   363.60071884
_cell_formula_units_Z   1
loop_
 _symmetry_equiv_pos_site_id
 _symmetry_equiv_pos_as_xyz
  1  'x, y, z'
loop_
 _atom_site_type_symbol
 _atom_site_label
 _atom_site_symmetry_multiplicity
 _atom_site_fract_x
 _atom_site_fract_y
 _atom_site_fract_z
 _atom_site_occupancy
  Zr  Zr0  1  0.667437  0.331938  0.496291  1
  Zr  Zr1  1  0.771941  0.770402  0.749359  1
  Zr  Zr2  1  0.230215  0.999984  0.749401  1
  Zr  Zr3  1  0.997221  0.228697  0.749418  1
  Zr  Zr4  1  0.230177  0.229019  0.250422  1
  Zr  Zr5  1  0.770882  0.006415  0.250584  1
  Zr  Zr6  1  0.003959  0.769333  0.250586  1
  Ti  Ti7  1  0.667306  0.331001  0.003594  1
  Ti  Ti8  1  0.331252  0.667281  0.005896  1
  Ti  Ti9  1  0.331123  0.667512  0.494041  1
  Sn  Sn10  1  0.400289  0.996005  0.246123  1
  Sn  Sn11  1  0.005665  0.405043  0.246330  1
  Bi  Bi12  1  0.399013  0.404613  0.753382  1
  Bi  Bi13  1  0.590785  0.993932  0.754248  1
  Bi  Bi14  1  0.005205  0.596364  0.753974  1
  Bi  Bi15  1  0.598057  0.603209  0.246319  1
  B  B16  1  0.999718  0.999676  0.000706  1
  B  B17  1  0.999756  0.999572  0.499328  1
