# generated using pymatgen
data_Pr3(AgAu2)2
_symmetry_space_group_name_H-M   'P 1'
_cell_length_a   7.90832717
_cell_length_b   7.90832802
_cell_length_c   3.97254900
_cell_angle_alpha   90.00000000
_cell_angle_beta   90.00000000
_cell_angle_gamma   119.69796752
_symmetry_Int_Tables_number   1
_chemical_formula_structural   Pr3(AgAu2)2
_chemical_formula_sum   'Pr3 Ag2 Au4'
_cell_volume   215.81564994
_cell_formula_units_Z   1
loop_
 _symmetry_equiv_pos_site_id
 _symmetry_equiv_pos_as_xyz
  1  'x, y, z'
loop_
 _atom_site_type_symbol
 _atom_site_label
 _atom_site_symmetry_multiplicity
 _atom_site_fract_x
 _atom_site_fract_y
 _atom_site_fract_z
 _atom_site_occupancy
  Pr  Pr0  1  0.608043  0.991336  0.000000  1
  Pr  Pr1  1  0.991336  0.608043  0.000000  1
  Pr  Pr2  1  0.405255  0.405255  0.000000  1
  Ag  Ag3  1  0.265563  0.002944  0.500000  1
  Ag  Ag4  1  0.002944  0.265563  0.500000  1
  Au  Au5  1  0.728878  0.728878  0.500000  1
  Au  Au6  1  0.324170  0.666650  0.500000  1
  Au  Au7  1  0.666650  0.324170  0.500000  1
  Au  Au8  1  0.007162  0.007162  0.000000  1
