# generated using pymatgen
data_PdS23
_symmetry_space_group_name_H-M   'P 1'
_cell_length_a   5.37990211
_cell_length_b   9.40653608
_cell_length_c   15.06438400
_cell_angle_alpha   89.51738739
_cell_angle_beta   84.84501374
_cell_angle_gamma   90.86978316
_symmetry_Int_Tables_number   1
_chemical_formula_structural   PdS23
_chemical_formula_sum   'Pd1 S23'
_cell_volume   759.14424509
_cell_formula_units_Z   1
loop_
 _symmetry_equiv_pos_site_id
 _symmetry_equiv_pos_as_xyz
  1  'x, y, z'
loop_
 _atom_site_type_symbol
 _atom_site_label
 _atom_site_symmetry_multiplicity
 _atom_site_fract_x
 _atom_site_fract_y
 _atom_site_fract_z
 _atom_site_occupancy
  Pd  Pd0  1  0.505465  0.330675  0.437282  1
  S  S1  1  0.419841  0.786972  0.381208  1
  S  S2  1  0.000828  0.304505  0.111991  1
  S  S3  1  0.761107  0.220879  0.536227  1
  S  S4  1  0.265225  0.733611  0.512157  1
  S  S5  1  0.200902  0.259289  0.992599  1
  S  S6  1  0.792367  0.730279  0.006278  1
  S  S7  1  0.244681  0.435206  0.338708  1
  S  S8  1  0.728552  0.679718  0.352307  1
  S  S9  1  0.790344  0.126428  0.152583  1
  S  S10  1  0.210381  0.868519  0.134268  1
  S  S11  1  0.733759  0.599068  0.604032  1
  S  S12  1  0.263171  0.370287  0.662411  1
  S  S13  1  0.209369  0.867878  0.850455  1
  S  S14  1  0.782824  0.121675  0.864685  1
  S  S15  1  0.003777  0.687790  0.110652  1
  S  S16  1  0.523078  0.779847  0.599804  1
  S  S17  1  0.394747  0.196589  0.564881  1
  S  S18  1  0.001868  0.687574  0.888049  1
  S  S19  1  0.984196  0.303090  0.889962  1
  S  S20  1  0.609791  0.458700  0.306416  1
  S  S21  1  0.005551  0.995692  0.223850  1
  S  S22  1  0.569960  0.458795  0.702791  1
  S  S23  1  0.998218  0.996934  0.776402  1
