# generated using pymatgen
data_Y4Lu7(Sc3Bi4)3
_symmetry_space_group_name_H-M   'P 1'
_cell_length_a   7.98014556
_cell_length_b   9.20509364
_cell_length_c   11.78831200
_cell_angle_alpha   90.05735745
_cell_angle_beta   89.93237353
_cell_angle_gamma   90.00447454
_symmetry_Int_Tables_number   1
_chemical_formula_structural   Y4Lu7(Sc3Bi4)3
_chemical_formula_sum   'Y4 Lu7 Sc9 Bi12'
_cell_volume   865.94463148
_cell_formula_units_Z   1
loop_
 _symmetry_equiv_pos_site_id
 _symmetry_equiv_pos_as_xyz
  1  'x, y, z'
loop_
 _atom_site_type_symbol
 _atom_site_label
 _atom_site_symmetry_multiplicity
 _atom_site_fract_x
 _atom_site_fract_y
 _atom_site_fract_z
 _atom_site_occupancy
  Y  Y0  1  0.318853  0.251750  0.218928  1
  Y  Y1  1  0.818659  0.249425  0.282074  1
  Y  Y2  1  0.681489  0.750321  0.781741  1
  Y  Y3  1  0.181705  0.749185  0.717918  1
  Lu  Lu4  1  0.352985  0.748648  0.219741  1
  Lu  Lu5  1  0.852287  0.752438  0.281099  1
  Lu  Lu6  1  0.649935  0.250799  0.779196  1
  Lu  Lu7  1  0.147351  0.251619  0.718767  1
  Lu  Lu8  1  0.691453  0.565597  0.062304  1
  Lu  Lu9  1  0.188813  0.934591  0.438627  1
  Lu  Lu10  1  0.308807  0.065341  0.937649  1
  Sc  Sc11  1  0.809237  0.432280  0.561507  1
  Sc  Sc12  1  0.309691  0.428542  0.939601  1
  Sc  Sc13  1  0.809368  0.070148  0.559715  1
  Sc  Sc14  1  0.690757  0.929471  0.060486  1
  Sc  Sc15  1  0.189083  0.570649  0.439665  1
  Sc  Sc16  1  0.482634  0.250723  0.490681  1
  Sc  Sc17  1  0.981451  0.250892  0.009523  1
  Sc  Sc18  1  0.517590  0.749048  0.510258  1
  Sc  Sc19  1  0.019059  0.750779  0.989885  1
  Bi  Bi20  1  0.397750  0.744464  0.961183  1
  Bi  Bi21  1  0.895399  0.749201  0.539648  1
  Bi  Bi22  1  0.602368  0.244622  0.038334  1
  Bi  Bi23  1  0.099183  0.257141  0.462282  1
  Bi  Bi24  1  0.567219  0.995023  0.331739  1
  Bi  Bi25  1  0.067636  0.505911  0.168805  1
  Bi  Bi26  1  0.434519  0.494295  0.668265  1
  Bi  Bi27  1  0.932288  0.005466  0.830474  1
  Bi  Bi28  1  0.435915  0.005877  0.666937  1
  Bi  Bi29  1  0.935935  0.495006  0.831633  1
  Bi  Bi30  1  0.565871  0.505204  0.334484  1
  Bi  Bi31  1  0.064711  0.995539  0.166846  1
