# generated using pymatgen
data_Ac3La5(CdRu)2
_symmetry_space_group_name_H-M   'P 1'
_cell_length_a   10.23509537
_cell_length_b   10.23509486
_cell_length_c   10.23509500
_cell_angle_alpha   60.00000277
_cell_angle_beta   60.00000444
_cell_angle_gamma   59.99999942
_symmetry_Int_Tables_number   1
_chemical_formula_structural   Ac3La5(CdRu)2
_chemical_formula_sum   'Ac6 La10 Cd4 Ru4'
_cell_volume   758.15965115
_cell_formula_units_Z   2
loop_
 _symmetry_equiv_pos_site_id
 _symmetry_equiv_pos_as_xyz
  1  'x, y, z'
loop_
 _atom_site_type_symbol
 _atom_site_label
 _atom_site_symmetry_multiplicity
 _atom_site_fract_x
 _atom_site_fract_y
 _atom_site_fract_z
 _atom_site_occupancy
  Ac  Ac0  1  0.058102  0.441897  0.441897  1
  Ac  Ac1  1  0.441897  0.058102  0.058102  1
  Ac  Ac2  1  0.441897  0.058102  0.441897  1
  Ac  Ac3  1  0.441897  0.441897  0.058102  1
  Ac  Ac4  1  0.058102  0.441897  0.058102  1
  Ac  Ac5  1  0.058102  0.058102  0.441897  1
  La  La6  1  0.187465  0.812535  0.812535  1
  La  La7  1  0.812536  0.187465  0.187465  1
  La  La8  1  0.812535  0.187465  0.812535  1
  La  La9  1  0.812535  0.812535  0.187465  1
  La  La10  1  0.187465  0.812536  0.187465  1
  La  La11  1  0.187465  0.187465  0.812536  1
  La  La12  1  0.654735  0.654735  0.654735  1
  La  La13  1  0.654735  0.654735  0.035794  1
  La  La14  1  0.035794  0.654735  0.654735  1
  La  La15  1  0.654735  0.035794  0.654735  1
  Cd  Cd16  1  0.422166  0.422166  0.422166  1
  Cd  Cd17  1  0.422166  0.422166  0.733502  1
  Cd  Cd18  1  0.733502  0.422166  0.422166  1
  Cd  Cd19  1  0.422166  0.733502  0.422166  1
  Ru  Ru20  1  0.862812  0.862812  0.862812  1
  Ru  Ru21  1  0.862812  0.862812  0.411567  1
  Ru  Ru22  1  0.411567  0.862812  0.862812  1
  Ru  Ru23  1  0.862812  0.411567  0.862812  1
