# generated using pymatgen
data_PrNd3(In2Pt)8
_symmetry_space_group_name_H-M   'P 1'
_cell_length_a   4.57049800
_cell_length_b   7.32224329
_cell_length_c   18.70331675
_cell_angle_alpha   89.96756441
_cell_angle_beta   90.00000000
_cell_angle_gamma   90.00000000
_symmetry_Int_Tables_number   1
_chemical_formula_structural   PrNd3(In2Pt)8
_chemical_formula_sum   'Pr1 Nd3 In16 Pt8'
_cell_volume   625.93067775
_cell_formula_units_Z   1
loop_
 _symmetry_equiv_pos_site_id
 _symmetry_equiv_pos_as_xyz
  1  'x, y, z'
loop_
 _atom_site_type_symbol
 _atom_site_label
 _atom_site_symmetry_multiplicity
 _atom_site_fract_x
 _atom_site_fract_y
 _atom_site_fract_z
 _atom_site_occupancy
  Pr  Pr0  1  0.750000  0.970220  0.639750  1
  Nd  Nd1  1  0.250000  0.469904  0.860299  1
  Nd  Nd2  1  0.750000  0.530083  0.139678  1
  Nd  Nd3  1  0.250000  0.030082  0.360317  1
  In  In4  1  0.250000  0.241630  0.191783  1
  In  In5  1  0.250000  0.497282  0.431033  1
  In  In6  1  0.250000  0.002733  0.931023  1
  In  In7  1  0.250000  0.827888  0.186159  1
  In  In8  1  0.250000  0.671268  0.686307  1
  In  In9  1  0.250000  0.259237  0.691923  1
  In  In10  1  0.250000  0.148709  0.534714  1
  In  In11  1  0.750000  0.997283  0.068963  1
  In  In12  1  0.750000  0.172180  0.813912  1
  In  In13  1  0.250000  0.351827  0.034954  1
  In  In14  1  0.750000  0.851680  0.464849  1
  In  In15  1  0.750000  0.648185  0.965039  1
  In  In16  1  0.750000  0.758281  0.808315  1
  In  In17  1  0.750000  0.502518  0.568950  1
  In  In18  1  0.750000  0.327872  0.313831  1
  In  In19  1  0.750000  0.741619  0.308236  1
  Pt  Pt20  1  0.250000  0.962495  0.783136  1
  Pt  Pt21  1  0.750000  0.037483  0.217070  1
  Pt  Pt22  1  0.250000  0.537498  0.282936  1
  Pt  Pt23  1  0.250000  0.754610  0.541376  1
  Pt  Pt24  1  0.250000  0.744826  0.041647  1
  Pt  Pt25  1  0.750000  0.244872  0.458348  1
  Pt  Pt26  1  0.750000  0.255162  0.958391  1
  Pt  Pt27  1  0.750000  0.462571  0.717061  1
