# generated using pymatgen
data_Sm10B2I15
_symmetry_space_group_name_H-M   'P 1'
_cell_length_a   9.79279538
_cell_length_b   10.54753407
_cell_length_c   11.48090976
_cell_angle_alpha   91.53760418
_cell_angle_beta   114.46158858
_cell_angle_gamma   110.52925124
_symmetry_Int_Tables_number   1
_chemical_formula_structural   Sm10B2I15
_chemical_formula_sum   'Sm10 B2 I15'
_cell_volume   990.06415333
_cell_formula_units_Z   1
loop_
 _symmetry_equiv_pos_site_id
 _symmetry_equiv_pos_as_xyz
  1  'x, y, z'
loop_
 _atom_site_type_symbol
 _atom_site_label
 _atom_site_symmetry_multiplicity
 _atom_site_fract_x
 _atom_site_fract_y
 _atom_site_fract_z
 _atom_site_occupancy
  Sm  Sm0  1  0.788241  0.397534  0.270187  1
  Sm  Sm1  1  0.211759  0.602466  0.729813  1
  Sm  Sm2  1  0.664749  0.749982  0.823662  1
  Sm  Sm3  1  0.335251  0.250018  0.176338  1
  Sm  Sm4  1  0.523490  0.710072  0.087678  1
  Sm  Sm5  1  0.476510  0.289928  0.912322  1
  Sm  Sm6  1  0.582040  0.042832  0.313042  1
  Sm  Sm7  1  0.417960  0.957168  0.686958  1
  Sm  Sm8  1  0.711643  0.071186  0.046197  1
  Sm  Sm9  1  0.288357  0.928814  0.953803  1
  B  B10  1  0.467600  0.820965  0.878281  1
  B  B11  1  0.532400  0.179035  0.121719  1
  I  I12  1  0.000000  0.000000  0.000000  1
  I  I13  1  0.639643  0.882870  0.581822  1
  I  I14  1  0.360357  0.117130  0.418178  1
  I  I15  1  0.885731  0.299068  0.532336  1
  I  I16  1  0.114269  0.700932  0.467664  1
  I  I17  1  0.284412  0.759479  0.178708  1
  I  I18  1  0.715588  0.240521  0.821292  1
  I  I19  1  0.056887  0.341501  0.226433  1
  I  I20  1  0.158869  0.056364  0.701247  1
  I  I21  1  0.841131  0.943636  0.298753  1
  I  I22  1  0.226092  0.408863  0.941969  1
  I  I23  1  0.773908  0.591137  0.058031  1
  I  I24  1  0.408533  0.458945  0.657735  1
  I  I25  1  0.591467  0.541055  0.342265  1
  I  I26  1  0.943113  0.658499  0.773567  1
