# generated using pymatgen
data_SrEuDy2F10
_symmetry_space_group_name_H-M   'P 1'
_cell_length_a   8.22101009
_cell_length_b   8.22100962
_cell_length_c   5.79642204
_cell_angle_alpha   89.06241944
_cell_angle_beta   89.06242524
_cell_angle_gamma   149.42027504
_symmetry_Int_Tables_number   1
_chemical_formula_structural   SrEuDy2F10
_chemical_formula_sum   'Sr1 Eu1 Dy2 F10'
_cell_volume   198.91419496
_cell_formula_units_Z   1
loop_
 _symmetry_equiv_pos_site_id
 _symmetry_equiv_pos_as_xyz
  1  'x, y, z'
loop_
 _atom_site_type_symbol
 _atom_site_label
 _atom_site_symmetry_multiplicity
 _atom_site_fract_x
 _atom_site_fract_y
 _atom_site_fract_z
 _atom_site_occupancy
  Sr  Sr0  1  0.677088  0.322912  0.250000  1
  Eu  Eu1  1  0.322981  0.677019  0.750000  1
  Dy  Dy2  1  0.075228  0.924772  0.750000  1
  Dy  Dy3  1  0.924718  0.075282  0.250000  1
  F  F4  1  0.728791  0.806212  0.602381  1
  F  F5  1  0.806291  0.728727  0.102339  1
  F  F6  1  0.802432  0.180577  0.003012  1
  F  F7  1  0.622049  0.377951  0.750000  1
  F  F8  1  0.819423  0.197568  0.496988  1
  F  F9  1  0.180514  0.802489  0.502781  1
  F  F10  1  0.377914  0.622086  0.250000  1
  F  F11  1  0.197511  0.819486  0.997219  1
  F  F12  1  0.193788  0.271209  0.897619  1
  F  F13  1  0.271273  0.193709  0.397661  1
