# generated using pymatgen
data_Tb7Er(AlRu)8
_symmetry_space_group_name_H-M   'P 1'
_cell_length_a   4.08063600
_cell_length_b   7.01040989
_cell_length_c   15.99979722
_cell_angle_alpha   90.26201041
_cell_angle_beta   90.00000000
_cell_angle_gamma   90.00000000
_symmetry_Int_Tables_number   1
_chemical_formula_structural   Tb7Er(AlRu)8
_chemical_formula_sum   'Tb7 Er1 Al8 Ru8'
_cell_volume   457.70030882
_cell_formula_units_Z   1
loop_
 _symmetry_equiv_pos_site_id
 _symmetry_equiv_pos_as_xyz
  1  'x, y, z'
loop_
 _atom_site_type_symbol
 _atom_site_label
 _atom_site_symmetry_multiplicity
 _atom_site_fract_x
 _atom_site_fract_y
 _atom_site_fract_z
 _atom_site_occupancy
  Tb  Tb0  1  0.750000  0.964730  0.219703  1
  Tb  Tb1  1  0.250000  0.162399  0.563166  1
  Tb  Tb2  1  0.750000  0.842619  0.437257  1
  Tb  Tb3  1  0.750000  0.464680  0.280699  1
  Tb  Tb4  1  0.750000  0.338911  0.062429  1
  Tb  Tb5  1  0.250000  0.656855  0.936636  1
  Tb  Tb6  1  0.250000  0.035173  0.779914  1
  Er  Er7  1  0.250000  0.537568  0.718883  1
  Al  Al8  1  0.750000  0.503877  0.565783  1
  Al  Al9  1  0.750000  0.363120  0.848750  1
  Al  Al10  1  0.750000  0.996692  0.933996  1
  Al  Al11  1  0.750000  0.866662  0.651098  1
  Al  Al12  1  0.250000  0.501495  0.435013  1
  Al  Al13  1  0.250000  0.997101  0.065511  1
  Al  Al14  1  0.250000  0.634262  0.150821  1
  Al  Al15  1  0.250000  0.136472  0.349320  1
  Ru  Ru16  1  0.750000  0.740454  0.811652  1
  Ru  Ru17  1  0.250000  0.230582  0.936228  1
  Ru  Ru18  1  0.750000  0.266871  0.436877  1
  Ru  Ru19  1  0.250000  0.753926  0.312165  1
  Ru  Ru20  1  0.750000  0.763417  0.063675  1
  Ru  Ru21  1  0.750000  0.251354  0.688588  1
  Ru  Ru22  1  0.250000  0.253380  0.187585  1
  Ru  Ru23  1  0.250000  0.737402  0.564251  1
