# generated using pymatgen
data_LaCuPtO5
_symmetry_space_group_name_H-M   'P 1'
_cell_length_a   5.98092700
_cell_length_b   7.92439600
_cell_length_c   8.80261200
_cell_angle_alpha   90.00000000
_cell_angle_beta   90.00000000
_cell_angle_gamma   90.00000000
_symmetry_Int_Tables_number   1
_chemical_formula_structural   LaCuPtO5
_chemical_formula_sum   'La4 Cu4 Pt4 O20'
_cell_volume   417.20185551
_cell_formula_units_Z   4
loop_
 _symmetry_equiv_pos_site_id
 _symmetry_equiv_pos_as_xyz
  1  'x, y, z'
loop_
 _atom_site_type_symbol
 _atom_site_label
 _atom_site_symmetry_multiplicity
 _atom_site_fract_x
 _atom_site_fract_y
 _atom_site_fract_z
 _atom_site_occupancy
  La  La0  1  0.000000  0.353001  0.669616  1
  La  La1  1  0.000000  0.646999  0.330384  1
  La  La2  1  0.000000  0.853001  0.830384  1
  La  La3  1  0.000000  0.146999  0.169616  1
  Cu  Cu4  1  0.500000  0.063929  0.848137  1
  Cu  Cu5  1  0.500000  0.936071  0.151863  1
  Cu  Cu6  1  0.500000  0.563929  0.651863  1
  Cu  Cu7  1  0.500000  0.436071  0.348137  1
  Pt  Pt8  1  0.256673  0.500000  0.000000  1
  Pt  Pt9  1  0.743327  0.000000  0.500000  1
  Pt  Pt10  1  0.743327  0.500000  0.000000  1
  Pt  Pt11  1  0.256673  0.000000  0.500000  1
  O  O12  1  0.248204  0.907660  0.284429  1
  O  O13  1  0.248204  0.092340  0.715571  1
  O  O14  1  0.751796  0.407660  0.215571  1
  O  O15  1  0.751796  0.592340  0.784429  1
  O  O16  1  0.751796  0.092340  0.715571  1
  O  O17  1  0.751796  0.907660  0.284429  1
  O  O18  1  0.248204  0.592340  0.784429  1
  O  O19  1  0.248204  0.407660  0.215571  1
  O  O20  1  0.500000  0.342599  0.941357  1
  O  O21  1  0.500000  0.657401  0.058643  1
  O  O22  1  0.500000  0.842599  0.558643  1
  O  O23  1  0.500000  0.157401  0.441357  1
  O  O24  1  0.284891  0.000000  0.000000  1
  O  O25  1  0.715109  0.500000  0.500000  1
  O  O26  1  0.715109  0.000000  0.000000  1
  O  O27  1  0.284891  0.500000  0.500000  1
  O  O28  1  0.000000  0.164388  0.444194  1
  O  O29  1  0.000000  0.835612  0.555806  1
  O  O30  1  0.000000  0.664388  0.055806  1
  O  O31  1  0.000000  0.335612  0.944194  1
