# generated using pymatgen
data_Ho4MgRu2Pb
_symmetry_space_group_name_H-M   'P 1'
_cell_length_a   9.19489576
_cell_length_b   9.19489557
_cell_length_c   9.19489600
_cell_angle_alpha   133.24303619
_cell_angle_beta   133.24304368
_cell_angle_gamma   68.27272622
_symmetry_Int_Tables_number   1
_chemical_formula_structural   Ho4MgRu2Pb
_chemical_formula_sum   'Ho8 Mg2 Ru4 Pb2'
_cell_volume   405.25269041
_cell_formula_units_Z   2
loop_
 _symmetry_equiv_pos_site_id
 _symmetry_equiv_pos_as_xyz
  1  'x, y, z'
loop_
 _atom_site_type_symbol
 _atom_site_label
 _atom_site_symmetry_multiplicity
 _atom_site_fract_x
 _atom_site_fract_y
 _atom_site_fract_z
 _atom_site_occupancy
  Ho  Ho0  1  0.048382  0.548382  0.845161  1
  Ho  Ho1  1  0.703221  0.203221  0.154839  1
  Ho  Ho2  1  0.548382  0.703221  0.500000  1
  Ho  Ho3  1  0.203221  0.048382  0.500000  1
  Ho  Ho4  1  0.951618  0.451618  0.154839  1
  Ho  Ho5  1  0.296779  0.796779  0.845161  1
  Ho  Ho6  1  0.451618  0.296779  0.500000  1
  Ho  Ho7  1  0.796779  0.951618  0.500000  1
  Mg  Mg8  1  0.000000  0.000000  0.000000  1
  Mg  Mg9  1  0.500000  0.500000  0.000000  1
  Ru  Ru10  1  0.367111  0.867111  0.234220  1
  Ru  Ru11  1  0.632889  0.132889  0.765780  1
  Ru  Ru12  1  0.867111  0.632889  0.500000  1
  Ru  Ru13  1  0.132889  0.367111  0.500000  1
  Pb  Pb14  1  0.750000  0.750000  0.000000  1
  Pb  Pb15  1  0.250000  0.250000  0.000000  1
