# generated using pymatgen
data_CeY(HgRh)2
_symmetry_space_group_name_H-M   'P 1'
_cell_length_a   3.86350400
_cell_length_b   7.30533410
_cell_length_c   9.27254432
_cell_angle_alpha   92.93320513
_cell_angle_beta   90.00000000
_cell_angle_gamma   90.00000000
_symmetry_Int_Tables_number   1
_chemical_formula_structural   CeY(HgRh)2
_chemical_formula_sum   'Ce2 Y2 Hg4 Rh4'
_cell_volume   261.36715548
_cell_formula_units_Z   2
loop_
 _symmetry_equiv_pos_site_id
 _symmetry_equiv_pos_as_xyz
  1  'x, y, z'
loop_
 _atom_site_type_symbol
 _atom_site_label
 _atom_site_symmetry_multiplicity
 _atom_site_fract_x
 _atom_site_fract_y
 _atom_site_fract_z
 _atom_site_occupancy
  Ce  Ce0  1  0.250000  0.538728  0.195784  1
  Ce  Ce1  1  0.750000  0.461272  0.804216  1
  Y  Y2  1  0.750000  0.956123  0.688843  1
  Y  Y3  1  0.250000  0.043877  0.311157  1
  Hg  Hg4  1  0.250000  0.654693  0.551856  1
  Hg  Hg5  1  0.750000  0.345307  0.448144  1
  Hg  Hg6  1  0.750000  0.860439  0.057544  1
  Hg  Hg7  1  0.250000  0.139561  0.942456  1
  Rh  Rh8  1  0.250000  0.716407  0.851365  1
  Rh  Rh9  1  0.750000  0.283593  0.148635  1
  Rh  Rh10  1  0.750000  0.752104  0.340764  1
  Rh  Rh11  1  0.250000  0.247896  0.659236  1
