# generated using pymatgen
data_Y4Fe5Si10Rh
_symmetry_space_group_name_H-M   'P 1'
_cell_length_a   8.04089828
_cell_length_b   8.04089853
_cell_length_c   5.44388411
_cell_angle_alpha   70.17704902
_cell_angle_beta   70.17705388
_cell_angle_gamma   94.60642069
_symmetry_Int_Tables_number   1
_chemical_formula_structural   Y4Fe5Si10Rh
_chemical_formula_sum   'Y4 Fe5 Si10 Rh1'
_cell_volume   303.82245158
_cell_formula_units_Z   1
loop_
 _symmetry_equiv_pos_site_id
 _symmetry_equiv_pos_as_xyz
  1  'x, y, z'
loop_
 _atom_site_type_symbol
 _atom_site_label
 _atom_site_symmetry_multiplicity
 _atom_site_fract_x
 _atom_site_fract_y
 _atom_site_fract_z
 _atom_site_occupancy
  Y  Y0  1  0.868469  0.591393  0.776988  1
  Y  Y1  1  0.131653  0.408804  0.237310  1
  Y  Y2  1  0.408607  0.131531  0.723012  1
  Y  Y3  1  0.591196  0.868347  0.262690  1
  Fe  Fe4  1  0.554197  0.266404  0.089017  1
  Fe  Fe5  1  0.733596  0.445803  0.410983  1
  Fe  Fe6  1  0.445482  0.733068  0.910277  1
  Fe  Fe7  1  0.266932  0.554518  0.589723  1
  Fe  Fe8  1  0.000422  0.999578  0.250000  1
  Si  Si9  1  0.785652  0.214348  0.750000  1
  Si  Si10  1  0.211316  0.788684  0.250000  1
  Si  Si11  1  0.500082  0.499918  0.750000  1
  Si  Si12  1  0.500209  0.499791  0.250000  1
  Si  Si13  1  0.214276  0.785724  0.750000  1
  Si  Si14  1  0.788485  0.211515  0.250000  1
  Si  Si15  1  0.270401  0.077213  0.313696  1
  Si  Si16  1  0.729302  0.922683  0.659944  1
  Si  Si17  1  0.922787  0.729599  0.186304  1
  Si  Si18  1  0.077317  0.270698  0.840056  1
  Rh  Rh19  1  0.999618  0.000382  0.750000  1
