# generated using pymatgen
data_Ta4FeReB4
_symmetry_space_group_name_H-M   'P 1'
_cell_length_a   5.96995400
_cell_length_b   5.96995400
_cell_length_c   3.29057400
_cell_angle_alpha   90.00000000
_cell_angle_beta   90.00000000
_cell_angle_gamma   90.00000000
_symmetry_Int_Tables_number   1
_chemical_formula_structural   Ta4FeReB4
_chemical_formula_sum   'Ta4 Fe1 Re1 B4'
_cell_volume   117.27721157
_cell_formula_units_Z   1
loop_
 _symmetry_equiv_pos_site_id
 _symmetry_equiv_pos_as_xyz
  1  'x, y, z'
loop_
 _atom_site_type_symbol
 _atom_site_label
 _atom_site_symmetry_multiplicity
 _atom_site_fract_x
 _atom_site_fract_y
 _atom_site_fract_z
 _atom_site_occupancy
  Ta  Ta0  1  0.684366  0.173537  0.500000  1
  Ta  Ta1  1  0.315634  0.826463  0.500000  1
  Ta  Ta2  1  0.173537  0.315634  0.500000  1
  Ta  Ta3  1  0.826463  0.684366  0.500000  1
  Fe  Fe4  1  0.000000  0.000000  0.000000  1
  Re  Re5  1  0.500000  0.500000  0.000000  1
  B  B6  1  0.111551  0.608280  0.000000  1
  B  B7  1  0.888449  0.391720  0.000000  1
  B  B8  1  0.608280  0.888449  0.000000  1
  B  B9  1  0.391720  0.111551  0.000000  1
