# generated using pymatgen
data_Ta3Be6Si2Mo
_symmetry_space_group_name_H-M   'P 1'
_cell_length_a   4.60586100
_cell_length_b   4.60586107
_cell_length_c   7.69590900
_cell_angle_alpha   90.00000000
_cell_angle_beta   90.00000000
_cell_angle_gamma   119.99999233
_symmetry_Int_Tables_number   1
_chemical_formula_structural   Ta3Be6Si2Mo
_chemical_formula_sum   'Ta3 Be6 Si2 Mo1'
_cell_volume   141.38790195
_cell_formula_units_Z   1
loop_
 _symmetry_equiv_pos_site_id
 _symmetry_equiv_pos_as_xyz
  1  'x, y, z'
loop_
 _atom_site_type_symbol
 _atom_site_label
 _atom_site_symmetry_multiplicity
 _atom_site_fract_x
 _atom_site_fract_y
 _atom_site_fract_z
 _atom_site_occupancy
  Ta  Ta0  1  0.666667  0.333333  0.560038  1
  Ta  Ta1  1  0.666667  0.333333  0.936155  1
  Ta  Ta2  1  0.333333  0.666667  0.065588  1
  Be  Be3  1  0.826319  0.173681  0.250949  1
  Be  Be4  1  0.826319  0.652640  0.250949  1
  Be  Be5  1  0.347360  0.173681  0.250949  1
  Be  Be6  1  0.173806  0.826194  0.748882  1
  Be  Be7  1  0.173806  0.347609  0.748882  1
  Be  Be8  1  0.652391  0.826194  0.748882  1
  Si  Si9  1  0.000000  0.000000  0.499188  1
  Si  Si10  1  0.000000  0.000000  0.001968  1
  Mo  Mo11  1  0.333333  0.666667  0.437572  1
