# generated using pymatgen
data_LiPr2P3RuRh3
_symmetry_space_group_name_H-M   'P 1'
_cell_length_a   4.12502500
_cell_length_b   4.12502500
_cell_length_c   9.94848100
_cell_angle_alpha   90.00000000
_cell_angle_beta   90.00000000
_cell_angle_gamma   90.00000000
_symmetry_Int_Tables_number   1
_chemical_formula_structural   LiPr2P3RuRh3
_chemical_formula_sum   'Li1 Pr2 P3 Ru1 Rh3'
_cell_volume   169.28167390
_cell_formula_units_Z   1
loop_
 _symmetry_equiv_pos_site_id
 _symmetry_equiv_pos_as_xyz
  1  'x, y, z'
loop_
 _atom_site_type_symbol
 _atom_site_label
 _atom_site_symmetry_multiplicity
 _atom_site_fract_x
 _atom_site_fract_y
 _atom_site_fract_z
 _atom_site_occupancy
  Li  Li0  1  0.000000  0.000000  0.500000  1
  Pr  Pr1  1  0.000000  0.500000  0.258061  1
  Pr  Pr2  1  0.500000  0.000000  0.741939  1
  P  P3  1  0.500000  0.500000  0.500000  1
  P  P4  1  0.000000  0.500000  0.870267  1
  P  P5  1  0.500000  0.000000  0.129733  1
  Ru  Ru6  1  0.000000  0.000000  0.000000  1
  Rh  Rh7  1  0.500000  0.500000  0.000000  1
  Rh  Rh8  1  0.000000  0.500000  0.632308  1
  Rh  Rh9  1  0.500000  0.000000  0.367692  1
