# generated using pymatgen
data_Cu2AgF6
_symmetry_space_group_name_H-M   'P 1'
_cell_length_a   5.33455797
_cell_length_b   5.33455735
_cell_length_c   9.72428019
_cell_angle_alpha   89.67857649
_cell_angle_beta   89.67858052
_cell_angle_gamma   120.93307712
_symmetry_Int_Tables_number   1
_chemical_formula_structural   Cu2AgF6
_chemical_formula_sum   'Cu4 Ag2 F12'
_cell_volume   237.35378121
_cell_formula_units_Z   2
loop_
 _symmetry_equiv_pos_site_id
 _symmetry_equiv_pos_as_xyz
  1  'x, y, z'
loop_
 _atom_site_type_symbol
 _atom_site_label
 _atom_site_symmetry_multiplicity
 _atom_site_fract_x
 _atom_site_fract_y
 _atom_site_fract_z
 _atom_site_occupancy
  Cu  Cu0  1  0.333704  0.666760  0.499818  1
  Cu  Cu1  1  0.333240  0.666296  0.000182  1
  Cu  Cu2  1  0.666760  0.333704  0.999818  1
  Cu  Cu3  1  0.666296  0.333240  0.500182  1
  Ag  Ag4  1  0.000200  0.999800  0.750000  1
  Ag  Ag5  1  0.999800  0.000200  0.250000  1
  F  F6  1  0.003245  0.362552  0.391740  1
  F  F7  1  0.003728  0.363956  0.890915  1
  F  F8  1  0.355963  0.356476  0.107998  1
  F  F9  1  0.643524  0.644037  0.392002  1
  F  F10  1  0.363956  0.003728  0.390915  1
  F  F11  1  0.362552  0.003245  0.891740  1
  F  F12  1  0.637448  0.996755  0.108260  1
  F  F13  1  0.636044  0.996272  0.609085  1
  F  F14  1  0.356476  0.355963  0.607998  1
  F  F15  1  0.644037  0.643524  0.892002  1
  F  F16  1  0.996272  0.636044  0.109085  1
  F  F17  1  0.996755  0.637448  0.608260  1
