# generated using pymatgen
data_Ba5Bi2Br2O9
_symmetry_space_group_name_H-M   'P 1'
_cell_length_a   6.19732500
_cell_length_b   6.19732485
_cell_length_c   26.11841700
_cell_angle_alpha   90.00000000
_cell_angle_beta   90.00000000
_cell_angle_gamma   119.99999547
_symmetry_Int_Tables_number   1
_chemical_formula_structural   Ba5Bi2Br2O9
_chemical_formula_sum   'Ba10 Bi4 Br4 O18'
_cell_volume   868.73243455
_cell_formula_units_Z   2
loop_
 _symmetry_equiv_pos_site_id
 _symmetry_equiv_pos_as_xyz
  1  'x, y, z'
loop_
 _atom_site_type_symbol
 _atom_site_label
 _atom_site_symmetry_multiplicity
 _atom_site_fract_x
 _atom_site_fract_y
 _atom_site_fract_z
 _atom_site_occupancy
  Ba  Ba0  1  0.333333  0.666667  0.915567  1
  Ba  Ba1  1  0.666667  0.333333  0.415567  1
  Ba  Ba2  1  0.666667  0.333333  0.084433  1
  Ba  Ba3  1  0.333333  0.666667  0.172272  1
  Ba  Ba4  1  0.666667  0.333333  0.672272  1
  Ba  Ba5  1  0.333333  0.666667  0.327728  1
  Ba  Ba6  1  0.666667  0.333333  0.827728  1
  Ba  Ba7  1  0.666667  0.333333  0.250000  1
  Ba  Ba8  1  0.333333  0.666667  0.584433  1
  Ba  Ba9  1  0.333333  0.666667  0.750000  1
  Bi  Bi10  1  0.000000  0.000000  0.809953  1
  Bi  Bi11  1  0.000000  0.000000  0.309953  1
  Bi  Bi12  1  0.000000  0.000000  0.690047  1
  Bi  Bi13  1  0.000000  0.000000  0.190047  1
  Br  Br14  1  0.333333  0.666667  0.452868  1
  Br  Br15  1  0.333333  0.666667  0.047132  1
  Br  Br16  1  0.666667  0.333333  0.547132  1
  Br  Br17  1  0.666667  0.333333  0.952868  1
  O  O18  1  0.172458  0.827542  0.655567  1
  O  O19  1  0.655086  0.827542  0.844433  1
  O  O20  1  0.172458  0.344914  0.655567  1
  O  O21  1  0.846939  0.153061  0.750000  1
  O  O22  1  0.306122  0.153061  0.750000  1
  O  O23  1  0.153061  0.306122  0.250000  1
  O  O24  1  0.153061  0.846939  0.250000  1
  O  O25  1  0.693878  0.846939  0.250000  1
  O  O26  1  0.827542  0.172458  0.344433  1
  O  O27  1  0.344914  0.172458  0.155567  1
  O  O28  1  0.846939  0.693878  0.750000  1
  O  O29  1  0.827542  0.655086  0.155567  1
  O  O30  1  0.344914  0.172458  0.344433  1
  O  O31  1  0.827542  0.172458  0.155567  1
  O  O32  1  0.172458  0.344914  0.844433  1
  O  O33  1  0.827542  0.655086  0.344433  1
  O  O34  1  0.655086  0.827542  0.655567  1
  O  O35  1  0.172458  0.827542  0.844433  1
