# generated using pymatgen
data_Dy2Mn2FeCuO10
_symmetry_space_group_name_H-M   'P 1'
_cell_length_a   7.42019200
_cell_length_b   8.54217700
_cell_length_c   5.72156700
_cell_angle_alpha   90.00000000
_cell_angle_beta   90.00000000
_cell_angle_gamma   90.00000000
_symmetry_Int_Tables_number   1
_chemical_formula_structural   Dy2Mn2FeCuO10
_chemical_formula_sum   'Dy4 Mn4 Fe2 Cu2 O20'
_cell_volume   362.65919812
_cell_formula_units_Z   2
loop_
 _symmetry_equiv_pos_site_id
 _symmetry_equiv_pos_as_xyz
  1  'x, y, z'
loop_
 _atom_site_type_symbol
 _atom_site_label
 _atom_site_symmetry_multiplicity
 _atom_site_fract_x
 _atom_site_fract_y
 _atom_site_fract_z
 _atom_site_occupancy
  Dy  Dy0  1  0.136341  0.172965  0.000000  1
  Dy  Dy1  1  0.636341  0.327035  0.000000  1
  Dy  Dy2  1  0.356437  0.669807  0.000000  1
  Dy  Dy3  1  0.856438  0.830193  0.000000  1
  Mn  Mn4  1  0.500607  0.999315  0.254165  1
  Mn  Mn5  1  0.000607  0.500685  0.254165  1
  Mn  Mn6  1  0.500607  0.999315  0.745836  1
  Mn  Mn7  1  0.000607  0.500685  0.745836  1
  Fe  Fe8  1  0.605660  0.644325  0.500001  1
  Fe  Fe9  1  0.105660  0.855675  0.500001  1
  Cu  Cu10  1  0.924265  0.153948  0.500001  1
  Cu  Cu11  1  0.424265  0.346052  0.500001  1
  O  O12  1  0.660767  0.055755  0.000000  1
  O  O13  1  0.160768  0.444245  0.000000  1
  O  O14  1  0.833404  0.553750  0.000000  1
  O  O15  1  0.333404  0.946250  0.000000  1
  O  O16  1  0.396961  0.207705  0.244084  1
  O  O17  1  0.896961  0.292295  0.244084  1
  O  O18  1  0.099590  0.710378  0.236582  1
  O  O19  1  0.599590  0.789622  0.236582  1
  O  O20  1  0.996309  0.005624  0.271073  1
  O  O21  1  0.496309  0.494376  0.271073  1
  O  O22  1  0.649671  0.059059  0.500001  1
  O  O23  1  0.149671  0.440941  0.500001  1
  O  O24  1  0.846519  0.572310  0.500001  1
  O  O25  1  0.346519  0.927691  0.500001  1
  O  O26  1  0.996309  0.005624  0.728926  1
  O  O27  1  0.496309  0.494376  0.728926  1
  O  O28  1  0.396961  0.207705  0.755917  1
  O  O29  1  0.896961  0.292295  0.755917  1
  O  O30  1  0.099590  0.710378  0.763419  1
  O  O31  1  0.599590  0.789622  0.763419  1
