# generated using pymatgen
data_Ti8Al14SiPtRh6
_symmetry_space_group_name_H-M   'P 1'
_cell_length_a   8.63742094
_cell_length_b   8.62785038
_cell_length_c   8.64352196
_cell_angle_alpha   119.93816592
_cell_angle_beta   119.83498623
_cell_angle_gamma   90.13282451
_symmetry_Int_Tables_number   1
_chemical_formula_structural   Ti8Al14SiPtRh6
_chemical_formula_sum   'Ti8 Al14 Si1 Pt1 Rh6'
_cell_volume   456.50440926
_cell_formula_units_Z   1
loop_
 _symmetry_equiv_pos_site_id
 _symmetry_equiv_pos_as_xyz
  1  'x, y, z'
loop_
 _atom_site_type_symbol
 _atom_site_label
 _atom_site_symmetry_multiplicity
 _atom_site_fract_x
 _atom_site_fract_y
 _atom_site_fract_z
 _atom_site_occupancy
  Ti  Ti0  1  0.797071  0.296554  0.087507  1
  Ti  Ti1  1  0.209831  0.296016  0.499047  1
  Ti  Ti2  1  0.203668  0.703147  0.500127  1
  Ti  Ti3  1  0.208524  0.709820  0.911821  1
  Ti  Ti4  1  0.796724  0.709559  0.501080  1
  Ti  Ti5  1  0.790029  0.291078  0.499897  1
  Ti  Ti6  1  0.384023  0.124712  0.746837  1
  Ti  Ti7  1  0.380140  0.636556  0.257402  1
  Al  Al8  1  0.157536  0.341256  0.184296  1
  Al  Al9  1  0.159259  0.974172  0.819573  1
  Al  Al10  1  0.154429  0.346160  0.812590  1
  Al  Al11  1  0.532723  0.342934  0.190328  1
  Al  Al12  1  0.841671  0.656454  0.814501  1
  Al  Al13  1  0.840444  0.028081  0.182186  1
  Al  Al14  1  0.838472  0.654679  0.178686  1
  Al  Al15  1  0.476381  0.657862  0.817652  1
  Al  Al16  1  0.379832  0.120880  0.260280  1
  Al  Al17  1  0.859883  0.122003  0.744597  1
  Al  Al18  1  0.616495  0.877404  0.254904  1
  Al  Al19  1  0.620112  0.362139  0.740758  1
  Al  Al20  1  0.620748  0.878067  0.741148  1
  Al  Al21  1  0.137870  0.877600  0.254534  1
  Si  Si22  1  0.997732  0.497092  0.499646  1
  Pt  Pt23  1  0.001378  0.999703  0.501067  1
  Rh  Rh24  1  0.498669  0.999749  0.998775  1
  Rh  Rh25  1  0.497563  0.497988  0.000719  1
  Rh  Rh26  1  0.498387  0.499878  0.498367  1
  Rh  Rh27  1  0.001632  0.499849  0.001597  1
  Rh  Rh28  1  0.000110  0.000123  0.999883  1
  Rh  Rh29  1  0.498662  0.998484  0.500195  1
