# generated using pymatgen
data_Ba4Al11Ga3Ag2
_symmetry_space_group_name_H-M   'P 1'
_cell_length_a   6.41716472
_cell_length_b   6.42357182
_cell_length_c   12.23720800
_cell_angle_alpha   74.78387983
_cell_angle_beta   74.79942773
_cell_angle_gamma   89.99999584
_symmetry_Int_Tables_number   1
_chemical_formula_structural   Ba4Al11Ga3Ag2
_chemical_formula_sum   'Ba4 Al11 Ga3 Ag2'
_cell_volume   468.43352865
_cell_formula_units_Z   1
loop_
 _symmetry_equiv_pos_site_id
 _symmetry_equiv_pos_as_xyz
  1  'x, y, z'
loop_
 _atom_site_type_symbol
 _atom_site_label
 _atom_site_symmetry_multiplicity
 _atom_site_fract_x
 _atom_site_fract_y
 _atom_site_fract_z
 _atom_site_occupancy
  Ba  Ba0  1  0.999423  0.999423  0.001156  1
  Ba  Ba1  1  0.498990  0.498990  0.002020  1
  Ba  Ba2  1  0.748888  0.248888  0.502224  1
  Ba  Ba3  1  0.249962  0.749962  0.500077  1
  Al  Al4  1  0.194528  0.194528  0.610945  1
  Al  Al5  1  0.810078  0.810078  0.379845  1
  Al  Al6  1  0.621812  0.123920  0.248602  1
  Al  Al7  1  0.129584  0.627476  0.248602  1
  Al  Al8  1  0.621812  0.627476  0.248602  1
  Al  Al9  1  0.129584  0.123920  0.248602  1
  Al  Al10  1  0.880284  0.372267  0.750469  1
  Al  Al11  1  0.369247  0.877262  0.750469  1
  Al  Al12  1  0.880284  0.877262  0.750469  1
  Al  Al13  1  0.369247  0.372267  0.750469  1
  Al  Al14  1  0.690355  0.690355  0.619290  1
  Ga  Ga15  1  0.059289  0.559289  0.881423  1
  Ga  Ga16  1  0.444145  0.944145  0.111708  1
  Ga  Ga17  1  0.941177  0.441177  0.117646  1
  Ag  Ag18  1  0.312779  0.312779  0.374441  1
  Ag  Ag19  1  0.563360  0.063360  0.873279  1
