# generated using pymatgen
data_CdIr3RhPb3O14
_symmetry_space_group_name_H-M   'P 1'
_cell_length_a   7.35720099
_cell_length_b   7.35720083
_cell_length_c   7.28254165
_cell_angle_alpha   59.66028475
_cell_angle_beta   59.66029514
_cell_angle_gamma   59.99999200
_symmetry_Int_Tables_number   1
_chemical_formula_structural   CdIr3RhPb3O14
_chemical_formula_sum   'Cd1 Ir3 Rh1 Pb3 O14'
_cell_volume   277.29626318
_cell_formula_units_Z   1
loop_
 _symmetry_equiv_pos_site_id
 _symmetry_equiv_pos_as_xyz
  1  'x, y, z'
loop_
 _atom_site_type_symbol
 _atom_site_label
 _atom_site_symmetry_multiplicity
 _atom_site_fract_x
 _atom_site_fract_y
 _atom_site_fract_z
 _atom_site_occupancy
  Cd  Cd0  1  0.125000  0.125000  0.625000  1
  Ir  Ir1  1  0.125000  0.625000  0.625000  1
  Ir  Ir2  1  0.625000  0.125000  0.625000  1
  Ir  Ir3  1  0.625000  0.625000  0.625000  1
  Rh  Rh4  1  0.625000  0.625000  0.125000  1
  Pb  Pb5  1  0.625000  0.125000  0.125000  1
  Pb  Pb6  1  0.125000  0.625000  0.125000  1
  Pb  Pb7  1  0.125000  0.125000  0.125000  1
  O  O8  1  0.706902  0.706902  0.293725  1
  O  O9  1  0.301340  0.301340  0.705398  1
  O  O10  1  0.691920  0.301340  0.705398  1
  O  O11  1  0.292471  0.706902  0.293725  1
  O  O12  1  0.301340  0.691920  0.705398  1
  O  O13  1  0.706902  0.292471  0.293725  1
  O  O14  1  0.543098  0.543098  0.956275  1
  O  O15  1  0.948660  0.948660  0.544602  1
  O  O16  1  0.558080  0.948660  0.544602  1
  O  O17  1  0.957529  0.543098  0.956275  1
  O  O18  1  0.948660  0.558080  0.544602  1
  O  O19  1  0.543098  0.957529  0.956275  1
  O  O20  1  0.243531  0.243531  0.269407  1
  O  O21  1  0.006469  0.006469  0.980593  1
