# generated using pymatgen
data_GaSeO3F
_symmetry_space_group_name_H-M   'P 1'
_cell_length_a   5.20421600
_cell_length_b   5.06039256
_cell_length_c   12.28543169
_cell_angle_alpha   73.95079509
_cell_angle_beta   90.00000000
_cell_angle_gamma   90.00000000
_symmetry_Int_Tables_number   1
_chemical_formula_structural   GaSeO3F
_chemical_formula_sum   'Ga4 Se4 O12 F4'
_cell_volume   310.93131313
_cell_formula_units_Z   4
loop_
 _symmetry_equiv_pos_site_id
 _symmetry_equiv_pos_as_xyz
  1  'x, y, z'
loop_
 _atom_site_type_symbol
 _atom_site_label
 _atom_site_symmetry_multiplicity
 _atom_site_fract_x
 _atom_site_fract_y
 _atom_site_fract_z
 _atom_site_occupancy
  Ga  Ga0  1  0.749968  0.386712  0.570437  1
  Ga  Ga1  1  0.750032  0.386712  0.070437  1
  Ga  Ga2  1  0.250032  0.613288  0.429563  1
  Ga  Ga3  1  0.249968  0.613288  0.929563  1
  Se  Se4  1  0.856350  0.177573  0.833049  1
  Se  Se5  1  0.643650  0.177573  0.333049  1
  Se  Se6  1  0.143650  0.822427  0.166951  1
  Se  Se7  1  0.356350  0.822427  0.666951  1
  O  O8  1  0.131993  0.981259  0.843671  1
  O  O9  1  0.368007  0.981259  0.343671  1
  O  O10  1  0.868007  0.018741  0.156329  1
  O  O11  1  0.631993  0.018741  0.656329  1
  O  O12  1  0.939474  0.387401  0.925440  1
  O  O13  1  0.560526  0.387401  0.425440  1
  O  O14  1  0.060526  0.612599  0.074560  1
  O  O15  1  0.439474  0.612599  0.574560  1
  O  O16  1  0.923342  0.416290  0.706509  1
  O  O17  1  0.576658  0.416290  0.206509  1
  O  O18  1  0.076658  0.583710  0.293491  1
  O  O19  1  0.423342  0.583710  0.793491  1
  F  F20  1  0.063281  0.262238  0.510617  1
  F  F21  1  0.436719  0.262238  0.010617  1
  F  F22  1  0.936719  0.737762  0.489383  1
  F  F23  1  0.563281  0.737762  0.989383  1
