# generated using pymatgen
data_Y7ThGePd24
_symmetry_space_group_name_H-M   'P 1'
_cell_length_a   8.39290354
_cell_length_b   8.39290354
_cell_length_c   8.39290354
_cell_angle_alpha   89.97105116
_cell_angle_beta   89.97105116
_cell_angle_gamma   89.97105116
_symmetry_Int_Tables_number   1
_chemical_formula_structural   Y7ThGePd24
_chemical_formula_sum   'Y7 Th1 Ge1 Pd24'
_cell_volume   591.20286280
_cell_formula_units_Z   1
loop_
 _symmetry_equiv_pos_site_id
 _symmetry_equiv_pos_as_xyz
  1  'x, y, z'
loop_
 _atom_site_type_symbol
 _atom_site_label
 _atom_site_symmetry_multiplicity
 _atom_site_fract_x
 _atom_site_fract_y
 _atom_site_fract_z
 _atom_site_occupancy
  Y  Y0  1  0.745987  0.745987  0.745987  1
  Y  Y1  1  0.746084  0.746084  0.253943  1
  Y  Y2  1  0.746084  0.253943  0.746084  1
  Y  Y3  1  0.253719  0.253719  0.746823  1
  Y  Y4  1  0.253719  0.746823  0.253719  1
  Y  Y5  1  0.253943  0.746084  0.746084  1
  Y  Y6  1  0.746823  0.253719  0.253719  1
  Th  Th7  1  0.255311  0.255311  0.255311  1
  Ge  Ge8  1  0.999004  0.999004  0.999004  1
  Pd  Pd9  1  0.259030  0.500083  0.999910  1
  Pd  Pd10  1  0.740927  0.500211  0.999916  1
  Pd  Pd11  1  0.999910  0.259030  0.500083  1
  Pd  Pd12  1  0.500083  0.259030  0.999910  1
  Pd  Pd13  1  0.999916  0.740927  0.500211  1
  Pd  Pd14  1  0.500211  0.740927  0.999916  1
  Pd  Pd15  1  0.500083  0.999910  0.259030  1
  Pd  Pd16  1  0.259030  0.999910  0.500083  1
  Pd  Pd17  1  0.500211  0.999916  0.740927  1
  Pd  Pd18  1  0.740927  0.999916  0.500211  1
  Pd  Pd19  1  0.999910  0.500083  0.259030  1
  Pd  Pd20  1  0.999916  0.500211  0.740927  1
  Pd  Pd21  1  0.252786  0.500504  0.500504  1
  Pd  Pd22  1  0.747367  0.500096  0.500096  1
  Pd  Pd23  1  0.500504  0.252786  0.500504  1
  Pd  Pd24  1  0.500096  0.747367  0.500096  1
  Pd  Pd25  1  0.500504  0.500504  0.252786  1
  Pd  Pd26  1  0.500096  0.500096  0.747367  1
  Pd  Pd27  1  0.288718  0.998922  0.998922  1
  Pd  Pd28  1  0.711546  0.999855  0.999855  1
  Pd  Pd29  1  0.998922  0.288718  0.998922  1
  Pd  Pd30  1  0.999855  0.711546  0.999855  1
  Pd  Pd31  1  0.998922  0.998922  0.288718  1
  Pd  Pd32  1  0.999855  0.999855  0.711546  1
