# generated using pymatgen
data_La2SeO5
_symmetry_space_group_name_H-M   'P 1'
_cell_length_a   8.91641583
_cell_length_b   8.91641700
_cell_length_c   11.36299300
_cell_angle_alpha   90.00000000
_cell_angle_beta   90.00000000
_cell_angle_gamma   142.39885507
_symmetry_Int_Tables_number   1
_chemical_formula_structural   La2SeO5
_chemical_formula_sum   'La8 Se4 O20'
_cell_volume   551.21098815
_cell_formula_units_Z   4
loop_
 _symmetry_equiv_pos_site_id
 _symmetry_equiv_pos_as_xyz
  1  'x, y, z'
loop_
 _atom_site_type_symbol
 _atom_site_label
 _atom_site_symmetry_multiplicity
 _atom_site_fract_x
 _atom_site_fract_y
 _atom_site_fract_z
 _atom_site_occupancy
  La  La0  1  0.755841  0.255841  0.609894  1
  La  La1  1  0.255841  0.755841  0.390106  1
  La  La2  1  0.247728  0.747728  0.881292  1
  La  La3  1  0.747728  0.247728  0.118708  1
  La  La4  1  0.907727  0.077161  0.388667  1
  La  La5  1  0.077161  0.907727  0.611333  1
  La  La6  1  0.407727  0.577161  0.611333  1
  La  La7  1  0.577161  0.407727  0.388667  1
  Se  Se8  1  0.389190  0.568839  0.133843  1
  Se  Se9  1  0.568839  0.389190  0.866157  1
  Se  Se10  1  0.889190  0.068839  0.866157  1
  Se  Se11  1  0.068839  0.889190  0.133843  1
  O  O12  1  0.138384  0.442211  0.213097  1
  O  O13  1  0.442211  0.138384  0.786903  1
  O  O14  1  0.638384  0.942211  0.786903  1
  O  O15  1  0.942211  0.638384  0.213097  1
  O  O16  1  0.581453  0.910230  0.506438  1
  O  O17  1  0.910230  0.581453  0.493562  1
  O  O18  1  0.081453  0.410230  0.493562  1
  O  O19  1  0.410230  0.081453  0.506438  1
  O  O20  1  0.124529  0.624529  0.709640  1
  O  O21  1  0.624529  0.124529  0.290360  1
  O  O22  1  0.500674  0.817307  0.063071  1
  O  O23  1  0.817307  0.500674  0.936929  1
  O  O24  1  0.199827  0.095759  0.245187  1
  O  O25  1  0.095759  0.199827  0.754813  1
  O  O26  1  0.699827  0.595759  0.754813  1
  O  O27  1  0.595759  0.699827  0.245187  1
  O  O28  1  0.245660  0.245660  0.500000  1
  O  O29  1  0.745660  0.745660  0.500000  1
  O  O30  1  0.317307  0.000674  0.063071  1
  O  O31  1  0.000674  0.317307  0.936929  1
