# generated using pymatgen
data_Ba2ZnSi3
_symmetry_space_group_name_H-M   'P 1'
_cell_length_a   12.58652752
_cell_length_b   11.06480805
_cell_length_c   8.39842921
_cell_angle_alpha   79.24543677
_cell_angle_beta   59.70978722
_cell_angle_gamma   41.34634692
_symmetry_Int_Tables_number   1
_chemical_formula_structural   Ba2ZnSi3
_chemical_formula_sum   'Ba8 Zn4 Si12'
_cell_volume   628.23291593
_cell_formula_units_Z   4
loop_
 _symmetry_equiv_pos_site_id
 _symmetry_equiv_pos_as_xyz
  1  'x, y, z'
loop_
 _atom_site_type_symbol
 _atom_site_label
 _atom_site_symmetry_multiplicity
 _atom_site_fract_x
 _atom_site_fract_y
 _atom_site_fract_z
 _atom_site_occupancy
  Ba  Ba0  1  0.126426  0.127015  0.373099  1
  Ba  Ba1  1  0.875515  0.875678  0.124126  1
  Ba  Ba2  1  0.123574  0.122985  0.876901  1
  Ba  Ba3  1  0.374485  0.374322  0.125874  1
  Ba  Ba4  1  0.621181  0.621001  0.378889  1
  Ba  Ba5  1  0.378490  0.378817  0.621322  1
  Ba  Ba6  1  0.628819  0.628999  0.871111  1
  Ba  Ba7  1  0.871510  0.871183  0.628678  1
  Zn  Zn8  1  0.082398  0.416344  0.082268  1
  Zn  Zn9  1  0.167602  0.833656  0.167732  1
  Zn  Zn10  1  0.416350  0.082307  0.418910  1
  Zn  Zn11  1  0.833650  0.167693  0.831090  1
  Si  Si12  1  0.331670  0.659601  0.832846  1
  Si  Si13  1  0.171549  0.832200  0.663133  1
  Si  Si14  1  0.831922  0.170738  0.333559  1
  Si  Si15  1  0.660438  0.332744  0.175006  1
  Si  Si16  1  0.918330  0.590399  0.417154  1
  Si  Si17  1  0.078451  0.417800  0.586867  1
  Si  Si18  1  0.418078  0.079262  0.916441  1
  Si  Si19  1  0.914365  0.583413  0.917237  1
  Si  Si20  1  0.666673  0.335808  0.664781  1
  Si  Si21  1  0.335635  0.666587  0.332763  1
  Si  Si22  1  0.583327  0.914192  0.585219  1
  Si  Si23  1  0.589562  0.917256  0.074994  1
