# generated using pymatgen
data_Ho5Er7Co5Sb
_symmetry_space_group_name_H-M   'P 1'
_cell_length_a   8.21667741
_cell_length_b   8.21467859
_cell_length_c   8.21467824
_cell_angle_alpha   110.79551621
_cell_angle_beta   110.80269613
_cell_angle_gamma   106.83750199
_symmetry_Int_Tables_number   1
_chemical_formula_structural   Ho5Er7Co5Sb
_chemical_formula_sum   'Ho5 Er7 Co5 Sb1'
_cell_volume   426.20987925
_cell_formula_units_Z   1
loop_
 _symmetry_equiv_pos_site_id
 _symmetry_equiv_pos_as_xyz
  1  'x, y, z'
loop_
 _atom_site_type_symbol
 _atom_site_label
 _atom_site_symmetry_multiplicity
 _atom_site_fract_x
 _atom_site_fract_y
 _atom_site_fract_z
 _atom_site_occupancy
  Ho  Ho0  1  0.287969  0.184550  0.472968  1
  Ho  Ho1  1  0.712051  0.815766  0.527359  1
  Ho  Ho2  1  0.287969  0.815000  0.103420  1
  Ho  Ho3  1  0.712051  0.184692  0.896285  1
  Ho  Ho4  1  0.620404  0.312549  0.307855  1
  Er  Er5  1  0.379226  0.687203  0.692022  1
  Er  Er6  1  0.004635  0.312967  0.691667  1
  Er  Er7  1  0.995339  0.687107  0.308232  1
  Er  Er8  1  0.209728  0.403813  0.193678  1
  Er  Er9  1  0.790301  0.596633  0.806595  1
  Er  Er10  1  0.209728  0.016050  0.805914  1
  Er  Er11  1  0.790301  0.983705  0.193669  1
  Co  Co12  1  0.000461  0.374595  0.374569  1
  Co  Co13  1  0.000461  0.625892  0.625866  1
  Co  Co14  1  0.387249  0.887151  0.500098  1
  Co  Co15  1  0.612155  0.112106  0.500049  1
  Co  Co16  1  0.000180  0.000102  0.000078  1
  Sb  Sb17  1  0.499792  0.500117  0.999675  1
