# generated using pymatgen
data_Ho16In6FeAu
_symmetry_space_group_name_H-M   'P 1'
_cell_length_a   10.43078300
_cell_length_b   10.43026631
_cell_length_c   6.92266200
_cell_angle_alpha   89.99769308
_cell_angle_beta   90.00094414
_cell_angle_gamma   120.00010537
_symmetry_Int_Tables_number   1
_chemical_formula_structural   Ho16In6FeAu
_chemical_formula_sum   'Ho16 In6 Fe1 Au1'
_cell_volume   652.25227949
_cell_formula_units_Z   1
loop_
 _symmetry_equiv_pos_site_id
 _symmetry_equiv_pos_as_xyz
  1  'x, y, z'
loop_
 _atom_site_type_symbol
 _atom_site_label
 _atom_site_symmetry_multiplicity
 _atom_site_fract_x
 _atom_site_fract_y
 _atom_site_fract_z
 _atom_site_occupancy
  Ho  Ho0  1  0.525693  0.051382  0.510799  1
  Ho  Ho1  1  0.948611  0.474297  0.510807  1
  Ho  Ho2  1  0.525692  0.474310  0.510814  1
  Ho  Ho3  1  0.464391  0.928790  0.006815  1
  Ho  Ho4  1  0.071196  0.535599  0.006806  1
  Ho  Ho5  1  0.464396  0.535599  0.006833  1
  Ho  Ho6  1  0.177605  0.355222  0.718397  1
  Ho  Ho7  1  0.644788  0.822395  0.718408  1
  Ho  Ho8  1  0.177598  0.822403  0.718399  1
  Ho  Ho9  1  0.827000  0.653996  0.213932  1
  Ho  Ho10  1  0.346018  0.173014  0.213906  1
  Ho  Ho11  1  0.826981  0.172985  0.213931  1
  Ho  Ho12  1  0.666664  0.333322  0.869601  1
  Ho  Ho13  1  0.333321  0.666655  0.394403  1
  Ho  Ho14  1  0.000003  0.999999  0.491542  1
  Ho  Ho15  1  0.000011  0.000014  0.991374  1
  In  In16  1  0.836959  0.673906  0.746928  1
  In  In17  1  0.326109  0.163050  0.746928  1
  In  In18  1  0.836947  0.163057  0.746938  1
  In  In19  1  0.163171  0.326349  0.252530  1
  In  In20  1  0.673669  0.836842  0.252531  1
  In  In21  1  0.163169  0.836836  0.252532  1
  Fe  Fe22  1  0.333350  0.666654  0.782265  1
  Au  Au23  1  0.666660  0.333324  0.280625  1
