# generated using pymatgen
data_Y2Co4Ni3P4
_symmetry_space_group_name_H-M   'P 1'
_cell_length_a   3.66466600
_cell_length_b   9.12258600
_cell_length_c   10.28539200
_cell_angle_alpha   90.00000000
_cell_angle_beta   90.00000000
_cell_angle_gamma   90.00000000
_symmetry_Int_Tables_number   1
_chemical_formula_structural   Y2Co4Ni3P4
_chemical_formula_sum   'Y4 Co8 Ni6 P8'
_cell_volume   343.85331327
_cell_formula_units_Z   2
loop_
 _symmetry_equiv_pos_site_id
 _symmetry_equiv_pos_as_xyz
  1  'x, y, z'
loop_
 _atom_site_type_symbol
 _atom_site_label
 _atom_site_symmetry_multiplicity
 _atom_site_fract_x
 _atom_site_fract_y
 _atom_site_fract_z
 _atom_site_occupancy
  Y  Y0  1  0.000000  0.058619  0.394684  1
  Y  Y1  1  0.500000  0.941381  0.894684  1
  Y  Y2  1  0.000000  0.439023  0.178850  1
  Y  Y3  1  0.500000  0.560977  0.678850  1
  Co  Co4  1  0.000000  0.063429  0.700577  1
  Co  Co5  1  0.500000  0.936571  0.200577  1
  Co  Co6  1  0.000000  0.727669  0.509303  1
  Co  Co7  1  0.500000  0.272331  0.009303  1
  Co  Co8  1  0.000000  0.097360  0.097496  1
  Co  Co9  1  0.500000  0.902640  0.597496  1
  Co  Co10  1  0.000000  0.751016  0.272929  1
  Co  Co11  1  0.500000  0.248984  0.772929  1
  Ni  Ni12  1  0.000000  0.308933  0.601582  1
  Ni  Ni13  1  0.500000  0.691067  0.101582  1
  Ni  Ni14  1  0.000000  0.687608  0.910623  1
  Ni  Ni15  1  0.500000  0.312392  0.410623  1
  Ni  Ni16  1  0.000000  0.416100  0.869646  1
  Ni  Ni17  1  0.500000  0.583900  0.369646  1
  P  P18  1  0.000000  0.180976  0.893236  1
  P  P19  1  0.500000  0.819024  0.393236  1
  P  P20  1  0.000000  0.849885  0.086772  1
  P  P21  1  0.500000  0.150115  0.586772  1
  P  P22  1  0.000000  0.816409  0.708496  1
  P  P23  1  0.500000  0.183591  0.208496  1
  P  P24  1  0.000000  0.483351  0.459906  1
  P  P25  1  0.500000  0.516649  0.959906  1
