# generated using pymatgen
data_PrP12IrRu3
_symmetry_space_group_name_H-M   'P 1'
_cell_length_a   7.02574872
_cell_length_b   7.02574910
_cell_length_c   7.03917000
_cell_angle_alpha   109.50992131
_cell_angle_beta   109.50992242
_cell_angle_gamma   109.43249003
_symmetry_Int_Tables_number   1
_chemical_formula_structural   PrP12IrRu3
_chemical_formula_sum   'Pr1 P12 Ir1 Ru3'
_cell_volume   267.34814079
_cell_formula_units_Z   1
loop_
 _symmetry_equiv_pos_site_id
 _symmetry_equiv_pos_as_xyz
  1  'x, y, z'
loop_
 _atom_site_type_symbol
 _atom_site_label
 _atom_site_symmetry_multiplicity
 _atom_site_fract_x
 _atom_site_fract_y
 _atom_site_fract_z
 _atom_site_occupancy
  Pr  Pr0  1  0.000000  0.000000  0.000000  1
  P  P1  1  0.785878  0.145055  0.645809  1
  P  P2  1  0.214122  0.854945  0.354191  1
  P  P3  1  0.500527  0.856514  0.644297  1
  P  P4  1  0.856514  0.355988  0.212218  1
  P  P5  1  0.644012  0.500527  0.856230  1
  P  P6  1  0.359177  0.214122  0.859931  1
  P  P7  1  0.143486  0.644012  0.787782  1
  P  P8  1  0.640823  0.785878  0.140069  1
  P  P9  1  0.854945  0.640823  0.500754  1
  P  P10  1  0.145055  0.359177  0.499246  1
  P  P11  1  0.499473  0.143486  0.355703  1
  P  P12  1  0.355988  0.499473  0.143770  1
  Ir  Ir13  1  0.000000  0.000000  0.500000  1
  Ru  Ru14  1  0.000000  0.500000  0.000000  1
  Ru  Ru15  1  0.500000  0.000000  0.000000  1
  Ru  Ru16  1  0.500000  0.500000  0.500000  1
