# generated using pymatgen
data_La2Sm2CoI5
_symmetry_space_group_name_H-M   'P 1'
_cell_length_a   9.85440376
_cell_length_b   9.85440294
_cell_length_c   9.30216966
_cell_angle_alpha   76.67515280
_cell_angle_beta   76.67515397
_cell_angle_gamma   25.32822736
_symmetry_Int_Tables_number   1
_chemical_formula_structural   La2Sm2CoI5
_chemical_formula_sum   'La2 Sm2 Co1 I5'
_cell_volume   375.50970289
_cell_formula_units_Z   1
loop_
 _symmetry_equiv_pos_site_id
 _symmetry_equiv_pos_as_xyz
  1  'x, y, z'
loop_
 _atom_site_type_symbol
 _atom_site_label
 _atom_site_symmetry_multiplicity
 _atom_site_fract_x
 _atom_site_fract_y
 _atom_site_fract_z
 _atom_site_occupancy
  La  La0  1  0.867119  0.867119  0.068398  1
  La  La1  1  0.132881  0.132881  0.931602  1
  Sm  Sm2  1  0.500526  0.500526  0.212952  1
  Sm  Sm3  1  0.499474  0.499474  0.787048  1
  Co  Co4  1  0.000000  0.000000  0.000000  1
  I  I5  1  0.672183  0.672183  0.173581  1
  I  I6  1  0.327817  0.327817  0.826419  1
  I  I7  1  0.666654  0.666654  0.657079  1
  I  I8  1  0.333346  0.333346  0.342921  1
  I  I9  1  0.000000  0.000000  0.500000  1
