# generated using pymatgen
data_CsCu2AuSe2
_symmetry_space_group_name_H-M   'P 1'
_cell_length_a   5.84023254
_cell_length_b   5.84023330
_cell_length_c   6.50963906
_cell_angle_alpha   89.81159751
_cell_angle_beta   90.18840776
_cell_angle_gamma   123.99987961
_symmetry_Int_Tables_number   1
_chemical_formula_structural   CsCu2AuSe2
_chemical_formula_sum   'Cs1 Cu2 Au1 Se2'
_cell_volume   184.07256403
_cell_formula_units_Z   1
loop_
 _symmetry_equiv_pos_site_id
 _symmetry_equiv_pos_as_xyz
  1  'x, y, z'
loop_
 _atom_site_type_symbol
 _atom_site_label
 _atom_site_symmetry_multiplicity
 _atom_site_fract_x
 _atom_site_fract_y
 _atom_site_fract_z
 _atom_site_occupancy
  Cs  Cs0  1  0.000000  0.000000  0.500000  1
  Cu  Cu1  1  0.000000  0.500000  0.000000  1
  Cu  Cu2  1  0.500000  0.000000  0.000000  1
  Au  Au3  1  0.500000  0.500000  0.000000  1
  Se  Se4  1  0.321740  0.678260  0.739811  1
  Se  Se5  1  0.678260  0.321740  0.260189  1
