# generated using pymatgen
data_Ce2Er(SnRh)3
_symmetry_space_group_name_H-M   'P 1'
_cell_length_a   7.50875045
_cell_length_b   7.47486167
_cell_length_c   4.02090600
_cell_angle_alpha   90.00000000
_cell_angle_beta   90.00000000
_cell_angle_gamma   119.85082434
_symmetry_Int_Tables_number   1
_chemical_formula_structural   Ce2Er(SnRh)3
_chemical_formula_sum   'Ce2 Er1 Sn3 Rh3'
_cell_volume   195.73849767
_cell_formula_units_Z   1
loop_
 _symmetry_equiv_pos_site_id
 _symmetry_equiv_pos_as_xyz
  1  'x, y, z'
loop_
 _atom_site_type_symbol
 _atom_site_label
 _atom_site_symmetry_multiplicity
 _atom_site_fract_x
 _atom_site_fract_y
 _atom_site_fract_z
 _atom_site_occupancy
  Ce  Ce0  1  0.586240  0.585526  0.000000  1
  Ce  Ce1  1  0.413760  0.999286  0.000000  1
  Er  Er2  1  0.000000  0.407899  0.000000  1
  Sn  Sn3  1  0.249585  0.255372  0.500000  1
  Sn  Sn4  1  0.000000  0.740652  0.500000  1
  Sn  Sn5  1  0.750415  0.005787  0.500000  1
  Rh  Rh6  1  0.658941  0.332299  0.500000  1
  Rh  Rh7  1  0.341059  0.673359  0.500000  1
  Rh  Rh8  1  0.000000  0.999819  0.000000  1
