# generated using pymatgen
data_La3Nd4Co4Sn13
_symmetry_space_group_name_H-M   'P 1'
_cell_length_a   11.36663700
_cell_length_b   11.36663700
_cell_length_c   4.61677500
_cell_angle_alpha   90.00000000
_cell_angle_beta   90.00000000
_cell_angle_gamma   90.00000000
_symmetry_Int_Tables_number   1
_chemical_formula_structural   La3Nd4Co4Sn13
_chemical_formula_sum   'La3 Nd4 Co4 Sn13'
_cell_volume   596.48934610
_cell_formula_units_Z   1
loop_
 _symmetry_equiv_pos_site_id
 _symmetry_equiv_pos_as_xyz
  1  'x, y, z'
loop_
 _atom_site_type_symbol
 _atom_site_label
 _atom_site_symmetry_multiplicity
 _atom_site_fract_x
 _atom_site_fract_y
 _atom_site_fract_z
 _atom_site_occupancy
  La  La0  1  0.000000  0.000000  0.000000  1
  La  La1  1  0.500000  0.000000  0.500000  1
  La  La2  1  0.000000  0.500000  0.500000  1
  Nd  Nd3  1  0.335885  0.673675  0.500000  1
  Nd  Nd4  1  0.664115  0.326325  0.500000  1
  Nd  Nd5  1  0.326325  0.335885  0.500000  1
  Nd  Nd6  1  0.673675  0.664115  0.500000  1
  Co  Co7  1  0.120472  0.723959  0.000000  1
  Co  Co8  1  0.879528  0.276041  0.000000  1
  Co  Co9  1  0.276041  0.120472  0.000000  1
  Co  Co10  1  0.723959  0.879528  0.000000  1
  Sn  Sn11  1  0.283580  0.889508  0.000000  1
  Sn  Sn12  1  0.716420  0.110492  0.000000  1
  Sn  Sn13  1  0.110492  0.283580  0.000000  1
  Sn  Sn14  1  0.889508  0.716420  0.000000  1
  Sn  Sn15  1  0.077218  0.803698  0.500000  1
  Sn  Sn16  1  0.922782  0.196302  0.500000  1
  Sn  Sn17  1  0.196302  0.077218  0.500000  1
  Sn  Sn18  1  0.803698  0.922782  0.500000  1
  Sn  Sn19  1  0.521013  0.784776  0.000000  1
  Sn  Sn20  1  0.478987  0.215224  0.000000  1
  Sn  Sn21  1  0.215224  0.521013  0.000000  1
  Sn  Sn22  1  0.784776  0.478987  0.000000  1
  Sn  Sn23  1  0.500000  0.500000  0.000000  1
