# generated using pymatgen
data_Ca11Tb8ErSn16
_symmetry_space_group_name_H-M   'P 1'
_cell_length_a   7.90103400
_cell_length_b   8.47251803
_cell_length_c   16.15780000
_cell_angle_alpha   90.00000000
_cell_angle_beta   90.00000000
_cell_angle_gamma   89.99534061
_symmetry_Int_Tables_number   1
_chemical_formula_structural   Ca11Tb8ErSn16
_chemical_formula_sum   'Ca11 Tb8 Er1 Sn16'
_cell_volume   1081.62983735
_cell_formula_units_Z   1
loop_
 _symmetry_equiv_pos_site_id
 _symmetry_equiv_pos_as_xyz
  1  'x, y, z'
loop_
 _atom_site_type_symbol
 _atom_site_label
 _atom_site_symmetry_multiplicity
 _atom_site_fract_x
 _atom_site_fract_y
 _atom_site_fract_z
 _atom_site_occupancy
  Ca  Ca0  1  0.502926  0.686480  0.592260  1
  Ca  Ca1  1  0.004031  0.813164  0.907796  1
  Ca  Ca2  1  0.497082  0.314556  0.092444  1
  Ca  Ca3  1  0.996596  0.186148  0.406883  1
  Ca  Ca4  1  0.497082  0.314556  0.407556  1
  Ca  Ca5  1  0.996596  0.186148  0.093117  1
  Ca  Ca6  1  0.502926  0.686480  0.907740  1
  Ca  Ca7  1  0.004031  0.813164  0.592204  1
  Ca  Ca8  1  0.833900  0.510396  0.750000  1
  Ca  Ca9  1  0.333889  0.989513  0.750000  1
  Ca  Ca10  1  0.166342  0.488999  0.250000  1
  Tb  Tb11  1  0.671454  0.166262  0.621776  1
  Tb  Tb12  1  0.171888  0.332923  0.877825  1
  Tb  Tb13  1  0.328048  0.833032  0.122809  1
  Tb  Tb14  1  0.827824  0.664816  0.377582  1
  Tb  Tb15  1  0.328048  0.833032  0.377191  1
  Tb  Tb16  1  0.827824  0.664816  0.122418  1
  Tb  Tb17  1  0.671454  0.166262  0.878224  1
  Tb  Tb18  1  0.171888  0.332923  0.622175  1
  Er  Er19  1  0.664449  0.009892  0.250000  1
  Sn  Sn20  1  0.670846  0.964928  0.456888  1
  Sn  Sn21  1  0.170341  0.537485  0.040311  1
  Sn  Sn22  1  0.329214  0.036972  0.960158  1
  Sn  Sn23  1  0.829152  0.462743  0.540112  1
  Sn  Sn24  1  0.329214  0.036972  0.539842  1
  Sn  Sn25  1  0.829152  0.462743  0.959888  1
  Sn  Sn26  1  0.670846  0.964928  0.043112  1
  Sn  Sn27  1  0.170341  0.537485  0.459689  1
  Sn  Sn28  1  0.469282  0.374685  0.750000  1
  Sn  Sn29  1  0.968628  0.125207  0.750000  1
  Sn  Sn30  1  0.532056  0.630858  0.250000  1
  Sn  Sn31  1  0.027130  0.878712  0.250000  1
  Sn  Sn32  1  0.714951  0.873440  0.750000  1
  Sn  Sn33  1  0.215109  0.626389  0.750000  1
  Sn  Sn34  1  0.292697  0.127368  0.250000  1
  Sn  Sn35  1  0.782760  0.365528  0.250000  1
