# generated using pymatgen
data_Y2Er2Tm6TlIn7Rh4
_symmetry_space_group_name_H-M   'P 1'
_cell_length_a   3.60152700
_cell_length_b   7.97454994
_cell_length_c   18.23240200
_cell_angle_alpha   89.91914191
_cell_angle_beta   90.00000000
_cell_angle_gamma   90.00000000
_symmetry_Int_Tables_number   1
_chemical_formula_structural   Y2Er2Tm6TlIn7Rh4
_chemical_formula_sum   'Y2 Er2 Tm6 Tl1 In7 Rh4'
_cell_volume   523.64421809
_cell_formula_units_Z   1
loop_
 _symmetry_equiv_pos_site_id
 _symmetry_equiv_pos_as_xyz
  1  'x, y, z'
loop_
 _atom_site_type_symbol
 _atom_site_label
 _atom_site_symmetry_multiplicity
 _atom_site_fract_x
 _atom_site_fract_y
 _atom_site_fract_z
 _atom_site_occupancy
  Y  Y0  1  0.000000  0.000107  0.999796  1
  Y  Y1  1  0.000000  0.500544  0.500758  1
  Er  Er2  1  0.000000  0.252401  0.721527  1
  Er  Er3  1  0.000000  0.747498  0.278490  1
  Tm  Tm4  1  0.000000  0.116802  0.410523  1
  Tm  Tm5  1  0.000000  0.882748  0.589377  1
  Tm  Tm6  1  0.000000  0.383122  0.910568  1
  Tm  Tm7  1  0.000000  0.617183  0.088913  1
  Tm  Tm8  1  0.000000  0.247302  0.221325  1
  Tm  Tm9  1  0.000000  0.752629  0.778462  1
  Tl  Tl10  1  0.500000  0.428286  0.350434  1
  In  In11  1  0.500000  0.571898  0.650626  1
  In  In12  1  0.500000  0.070569  0.849531  1
  In  In13  1  0.500000  0.929066  0.150391  1
  In  In14  1  0.500000  0.295072  0.067695  1
  In  In15  1  0.500000  0.704952  0.932160  1
  In  In16  1  0.500000  0.204308  0.567707  1
  In  In17  1  0.500000  0.797734  0.433207  1
  Rh  Rh18  1  0.500000  0.022598  0.304804  1
  Rh  Rh19  1  0.500000  0.974371  0.695138  1
  Rh  Rh20  1  0.500000  0.476946  0.804954  1
  Rh  Rh21  1  0.500000  0.523864  0.193614  1
