# generated using pymatgen
data_LuPa2(GaCo)3
_symmetry_space_group_name_H-M   'P 1'
_cell_length_a   6.97425746
_cell_length_b   6.97425645
_cell_length_c   3.72886400
_cell_angle_alpha   90.00000000
_cell_angle_beta   90.00000000
_cell_angle_gamma   120.95157559
_symmetry_Int_Tables_number   1
_chemical_formula_structural   LuPa2(GaCo)3
_chemical_formula_sum   'Lu1 Pa2 Ga3 Co3'
_cell_volume   155.54582639
_cell_formula_units_Z   1
loop_
 _symmetry_equiv_pos_site_id
 _symmetry_equiv_pos_as_xyz
  1  'x, y, z'
loop_
 _atom_site_type_symbol
 _atom_site_label
 _atom_site_symmetry_multiplicity
 _atom_site_fract_x
 _atom_site_fract_y
 _atom_site_fract_z
 _atom_site_occupancy
  Lu  Lu0  1  0.589027  0.589027  0.500000  1
  Pa  Pa1  1  0.417259  0.998270  0.500000  1
  Pa  Pa2  1  0.998270  0.417260  0.500000  1
  Ga  Ga3  1  0.757887  0.987870  0.000000  1
  Ga  Ga4  1  0.256425  0.256425  0.000000  1
  Ga  Ga5  1  0.987870  0.757887  0.000000  1
  Co  Co6  1  0.670372  0.305688  0.000000  1
  Co  Co7  1  0.305688  0.670372  0.000000  1
  Co  Co8  1  0.017200  0.017200  0.500000  1
