# generated using pymatgen
data_Mg2(NbRe8)3
_symmetry_space_group_name_H-M   'P 1'
_cell_length_a   8.43889740
_cell_length_b   8.43889637
_cell_length_c   8.42752300
_cell_angle_alpha   109.44392657
_cell_angle_beta   109.44392411
_cell_angle_gamma   109.49849904
_symmetry_Int_Tables_number   1
_chemical_formula_structural   Mg2(NbRe8)3
_chemical_formula_sum   'Mg2 Nb3 Re24'
_cell_volume   462.16347318
_cell_formula_units_Z   1
loop_
 _symmetry_equiv_pos_site_id
 _symmetry_equiv_pos_as_xyz
  1  'x, y, z'
loop_
 _atom_site_type_symbol
 _atom_site_label
 _atom_site_symmetry_multiplicity
 _atom_site_fract_x
 _atom_site_fract_y
 _atom_site_fract_z
 _atom_site_occupancy
  Mg  Mg0  1  0.000000  0.000000  0.636170  1
  Mg  Mg1  1  0.000000  0.000000  0.997073  1
  Nb  Nb2  1  0.364712  0.364712  0.364456  1
  Nb  Nb3  1  0.000000  0.635288  0.999745  1
  Nb  Nb4  1  0.635288  0.000000  0.999745  1
  Re  Re5  1  0.000000  0.396406  0.680437  1
  Re  Re6  1  0.282693  0.603472  0.600152  1
  Re  Re7  1  0.717307  0.320781  0.317461  1
  Re  Re8  1  0.320781  0.717307  0.317461  1
  Re  Re9  1  0.674488  0.000000  0.395516  1
  Re  Re10  1  0.000000  0.674488  0.395516  1
  Re  Re11  1  0.603594  0.603594  0.284031  1
  Re  Re12  1  0.807435  0.807435  0.184783  1
  Re  Re13  1  0.375275  0.191872  0.999251  1
  Re  Re14  1  0.191872  0.375275  0.999251  1
  Re  Re15  1  0.624725  0.816597  0.623975  1
  Re  Re16  1  0.375304  0.000000  0.197293  1
  Re  Re17  1  0.000000  0.375304  0.197293  1
  Re  Re18  1  0.816597  0.624725  0.623975  1
  Re  Re19  1  0.183403  0.808128  0.807377  1
  Re  Re20  1  0.808128  0.183403  0.807377  1
  Re  Re21  1  0.192565  0.000000  0.377347  1
  Re  Re22  1  0.000000  0.192565  0.377347  1
  Re  Re23  1  0.624696  0.624696  0.821990  1
  Re  Re24  1  0.396406  0.000000  0.680437  1
  Re  Re25  1  0.603472  0.282693  0.600152  1
  Re  Re26  1  0.679219  0.396528  0.996680  1
  Re  Re27  1  0.396528  0.679219  0.996680  1
  Re  Re28  1  0.325512  0.325512  0.721028  1
