# generated using pymatgen
data_SmPa3(Pd2Pb)2
_symmetry_space_group_name_H-M   'P 1'
_cell_length_a   7.90979991
_cell_length_b   7.90979991
_cell_length_c   3.70814700
_cell_angle_alpha   90.00000000
_cell_angle_beta   90.00000000
_cell_angle_gamma   90.76423915
_symmetry_Int_Tables_number   1
_chemical_formula_structural   SmPa3(Pd2Pb)2
_chemical_formula_sum   'Sm1 Pa3 Pd4 Pb2'
_cell_volume   231.97933666
_cell_formula_units_Z   1
loop_
 _symmetry_equiv_pos_site_id
 _symmetry_equiv_pos_as_xyz
  1  'x, y, z'
loop_
 _atom_site_type_symbol
 _atom_site_label
 _atom_site_symmetry_multiplicity
 _atom_site_fract_x
 _atom_site_fract_y
 _atom_site_fract_z
 _atom_site_occupancy
  Sm  Sm0  1  0.174734  0.325266  0.500000  1
  Pa  Pa1  1  0.325741  0.825692  0.500000  1
  Pa  Pa2  1  0.674308  0.174259  0.500000  1
  Pa  Pa3  1  0.827424  0.672576  0.500000  1
  Pd  Pd4  1  0.120232  0.637611  0.000000  1
  Pd  Pd5  1  0.386394  0.113606  0.000000  1
  Pd  Pd6  1  0.862389  0.379768  0.000000  1
  Pd  Pd7  1  0.631771  0.868229  0.000000  1
  Pb  Pb8  1  0.002014  0.005007  0.000000  1
  Pb  Pb9  1  0.494993  0.497986  0.000000  1
