# generated using pymatgen
data_DyHoSc3Ga4
_symmetry_space_group_name_H-M   'P 1'
_cell_length_a   7.27115400
_cell_length_b   7.57649100
_cell_length_c   14.46647700
_cell_angle_alpha   89.99996507
_cell_angle_beta   90.00047007
_cell_angle_gamma   90.00050927
_symmetry_Int_Tables_number   1
_chemical_formula_structural   DyHoSc3Ga4
_chemical_formula_sum   'Dy4 Ho4 Sc12 Ga16'
_cell_volume   796.95579969
_cell_formula_units_Z   4
loop_
 _symmetry_equiv_pos_site_id
 _symmetry_equiv_pos_as_xyz
  1  'x, y, z'
loop_
 _atom_site_type_symbol
 _atom_site_label
 _atom_site_symmetry_multiplicity
 _atom_site_fract_x
 _atom_site_fract_y
 _atom_site_fract_z
 _atom_site_occupancy
  Dy  Dy0  1  0.010947  0.180238  0.094419  1
  Dy  Dy1  1  0.989053  0.819769  0.905582  1
  Dy  Dy2  1  0.489050  0.680230  0.905589  1
  Dy  Dy3  1  0.989053  0.819769  0.594415  1
  Ho  Ho4  1  0.510949  0.319745  0.094424  1
  Ho  Ho5  1  0.010949  0.180249  0.405572  1
  Ho  Ho6  1  0.510949  0.319749  0.405579  1
  Ho  Ho7  1  0.489048  0.680246  0.594418  1
  Sc  Sc8  1  0.162361  0.503292  0.749997  1
  Sc  Sc9  1  0.837638  0.496695  0.250004  1
  Sc  Sc10  1  0.337653  0.003307  0.250003  1
  Sc  Sc11  1  0.662346  0.996710  0.749996  1
  Sc  Sc12  1  0.329687  0.172195  0.624556  1
  Sc  Sc13  1  0.670319  0.827812  0.375440  1
  Sc  Sc14  1  0.170328  0.672190  0.375439  1
  Sc  Sc15  1  0.670314  0.827808  0.124565  1
  Sc  Sc16  1  0.829676  0.327808  0.624555  1
  Sc  Sc17  1  0.329688  0.172193  0.875442  1
  Sc  Sc18  1  0.829680  0.327805  0.875440  1
  Sc  Sc19  1  0.170326  0.672190  0.124564  1
  Ga  Ga20  1  0.030148  0.116238  0.749999  1
  Ga  Ga21  1  0.969852  0.883774  0.250004  1
  Ga  Ga22  1  0.469852  0.616224  0.250001  1
  Ga  Ga23  1  0.530145  0.383769  0.749996  1
  Ga  Ga24  1  0.283064  0.870802  0.749993  1
  Ga  Ga25  1  0.716933  0.129207  0.250006  1
  Ga  Ga26  1  0.216958  0.370794  0.250007  1
  Ga  Ga27  1  0.783046  0.629190  0.749994  1
  Ga  Ga28  1  0.162157  0.464993  0.540509  1
  Ga  Ga29  1  0.837845  0.534979  0.459486  1
  Ga  Ga30  1  0.337860  0.965012  0.459488  1
  Ga  Ga31  1  0.837846  0.534995  0.040513  1
  Ga  Ga32  1  0.662131  0.035001  0.540507  1
  Ga  Ga33  1  0.162144  0.464995  0.959492  1
  Ga  Ga34  1  0.662130  0.035015  0.959495  1
  Ga  Ga35  1  0.337874  0.965013  0.040513  1
