# generated using pymatgen
data_Er2In(AsRh2)6
_symmetry_space_group_name_H-M   'P 1'
_cell_length_a   10.03806900
_cell_length_b   10.03806759
_cell_length_c   3.97208200
_cell_angle_alpha   90.00000000
_cell_angle_beta   90.00000000
_cell_angle_gamma   119.99999475
_symmetry_Int_Tables_number   1
_chemical_formula_structural   Er2In(AsRh2)6
_chemical_formula_sum   'Er2 In1 As6 Rh12'
_cell_volume   346.61643611
_cell_formula_units_Z   1
loop_
 _symmetry_equiv_pos_site_id
 _symmetry_equiv_pos_as_xyz
  1  'x, y, z'
loop_
 _atom_site_type_symbol
 _atom_site_label
 _atom_site_symmetry_multiplicity
 _atom_site_fract_x
 _atom_site_fract_y
 _atom_site_fract_z
 _atom_site_occupancy
  Er  Er0  1  0.666667  0.333333  0.754256  1
  Er  Er1  1  0.333333  0.666667  0.246069  1
  In  In2  1  0.000000  0.000000  0.586118  1
  As  As3  1  0.287529  0.882452  0.747063  1
  As  As4  1  0.117548  0.405077  0.747063  1
  As  As5  1  0.594923  0.712471  0.747063  1
  As  As6  1  0.711423  0.116268  0.254622  1
  As  As7  1  0.883732  0.595155  0.254622  1
  As  As8  1  0.404845  0.288577  0.254622  1
  Rh  Rh9  1  0.067475  0.616705  0.750219  1
  Rh  Rh10  1  0.383295  0.450770  0.750219  1
  Rh  Rh11  1  0.549230  0.932525  0.750219  1
  Rh  Rh12  1  0.935659  0.386454  0.252426  1
  Rh  Rh13  1  0.613546  0.549204  0.252426  1
  Rh  Rh14  1  0.450796  0.064341  0.252426  1
  Rh  Rh15  1  0.292777  0.129346  0.757471  1
  Rh  Rh16  1  0.870654  0.163432  0.757471  1
  Rh  Rh17  1  0.836568  0.707223  0.757471  1
  Rh  Rh18  1  0.721988  0.876139  0.243927  1
  Rh  Rh19  1  0.123861  0.845850  0.243927  1
  Rh  Rh20  1  0.154150  0.278012  0.243927  1
