# generated using pymatgen
data_NdAg3Ir2(RhO7)2
_symmetry_space_group_name_H-M   'P 1'
_cell_length_a   7.27776955
_cell_length_b   7.27776854
_cell_length_c   7.30395794
_cell_angle_alpha   59.29303230
_cell_angle_beta   59.29303597
_cell_angle_gamma   59.25389913
_symmetry_Int_Tables_number   1
_chemical_formula_structural   NdAg3Ir2(RhO7)2
_chemical_formula_sum   'Nd1 Ag3 Ir2 Rh2 O14'
_cell_volume   269.06651778
_cell_formula_units_Z   1
loop_
 _symmetry_equiv_pos_site_id
 _symmetry_equiv_pos_as_xyz
  1  'x, y, z'
loop_
 _atom_site_type_symbol
 _atom_site_label
 _atom_site_symmetry_multiplicity
 _atom_site_fract_x
 _atom_site_fract_y
 _atom_site_fract_z
 _atom_site_occupancy
  Nd  Nd0  1  0.125000  0.125000  0.125000  1
  Ag  Ag1  1  0.625000  0.125000  0.125000  1
  Ag  Ag2  1  0.125000  0.625000  0.125000  1
  Ag  Ag3  1  0.125000  0.125000  0.625000  1
  Ir  Ir4  1  0.625000  0.625000  0.125000  1
  Ir  Ir5  1  0.625000  0.625000  0.625000  1
  Rh  Rh6  1  0.125000  0.625000  0.625000  1
  Rh  Rh7  1  0.625000  0.125000  0.625000  1
  O  O8  1  0.690461  0.690461  0.307792  1
  O  O9  1  0.290109  0.290109  0.708183  1
  O  O10  1  0.688418  0.306862  0.703637  1
  O  O11  1  0.298389  0.702288  0.292898  1
  O  O12  1  0.306862  0.688418  0.703637  1
  O  O13  1  0.702288  0.298389  0.292898  1
  O  O14  1  0.559539  0.559539  0.942208  1
  O  O15  1  0.959891  0.959891  0.541817  1
  O  O16  1  0.561582  0.943138  0.546363  1
  O  O17  1  0.951611  0.547712  0.957102  1
  O  O18  1  0.943138  0.561582  0.546363  1
  O  O19  1  0.547712  0.951611  0.957102  1
  O  O20  1  0.260690  0.260690  0.258257  1
  O  O21  1  0.989310  0.989310  0.991743  1
