# generated using pymatgen
data_ZrUInIr2
_symmetry_space_group_name_H-M   'P 1'
_cell_length_a   7.63959782
_cell_length_b   7.63959782
_cell_length_c   3.44075300
_cell_angle_alpha   90.00000000
_cell_angle_beta   90.00000000
_cell_angle_gamma   86.72027616
_symmetry_Int_Tables_number   1
_chemical_formula_structural   ZrUInIr2
_chemical_formula_sum   'Zr2 U2 In2 Ir4'
_cell_volume   200.48532364
_cell_formula_units_Z   2
loop_
 _symmetry_equiv_pos_site_id
 _symmetry_equiv_pos_as_xyz
  1  'x, y, z'
loop_
 _atom_site_type_symbol
 _atom_site_label
 _atom_site_symmetry_multiplicity
 _atom_site_fract_x
 _atom_site_fract_y
 _atom_site_fract_z
 _atom_site_occupancy
  Zr  Zr0  1  0.670631  0.170631  0.500000  1
  Zr  Zr1  1  0.329369  0.829369  0.500000  1
  U  U2  1  0.172279  0.327721  0.500000  1
  U  U3  1  0.827721  0.672279  0.500000  1
  In  In4  1  0.500000  0.500000  0.000000  1
  In  In5  1  0.000000  0.000000  0.000000  1
  Ir  Ir6  1  0.127939  0.627939  0.000000  1
  Ir  Ir7  1  0.872061  0.372061  0.000000  1
  Ir  Ir8  1  0.635359  0.864641  0.000000  1
  Ir  Ir9  1  0.364641  0.135359  0.000000  1
