# generated using pymatgen
data_SrCoIrO6
_symmetry_space_group_name_H-M   'P 1'
_cell_length_a   8.79794600
_cell_length_b   5.10235514
_cell_length_c   10.73699853
_cell_angle_alpha   89.65993998
_cell_angle_beta   90.00000000
_cell_angle_gamma   90.00000000
_symmetry_Int_Tables_number   1
_chemical_formula_structural   SrCoIrO6
_chemical_formula_sum   'Sr4 Co4 Ir4 O24'
_cell_volume   481.97800529
_cell_formula_units_Z   4
loop_
 _symmetry_equiv_pos_site_id
 _symmetry_equiv_pos_as_xyz
  1  'x, y, z'
loop_
 _atom_site_type_symbol
 _atom_site_label
 _atom_site_symmetry_multiplicity
 _atom_site_fract_x
 _atom_site_fract_y
 _atom_site_fract_z
 _atom_site_occupancy
  Sr  Sr0  1  0.736682  0.751716  0.500391  1
  Sr  Sr1  1  0.236682  0.248284  0.999609  1
  Sr  Sr2  1  0.763318  0.751716  0.000391  1
  Sr  Sr3  1  0.263318  0.248284  0.499609  1
  Co  Co4  1  0.915988  0.231396  0.750951  1
  Co  Co5  1  0.415988  0.768604  0.749049  1
  Co  Co6  1  0.584012  0.231396  0.250951  1
  Co  Co7  1  0.084012  0.768604  0.249049  1
  Ir  Ir8  1  0.082447  0.731225  0.749841  1
  Ir  Ir9  1  0.582447  0.268775  0.750159  1
  Ir  Ir10  1  0.917553  0.268775  0.250159  1
  Ir  Ir11  1  0.417553  0.731225  0.249841  1
  O  O12  1  0.255744  0.630927  0.848026  1
  O  O13  1  0.252266  0.873850  0.151948  1
  O  O14  1  0.067122  0.078038  0.345501  1
  O  O15  1  0.747734  0.126150  0.848052  1
  O  O16  1  0.942759  0.530411  0.851410  1
  O  O17  1  0.436706  0.416060  0.154027  1
  O  O18  1  0.936706  0.583940  0.345973  1
  O  O19  1  0.063294  0.416060  0.654027  1
  O  O20  1  0.057241  0.469589  0.148590  1
  O  O21  1  0.051639  0.039250  0.851533  1
  O  O22  1  0.432878  0.078038  0.845501  1
  O  O23  1  0.752266  0.126150  0.348052  1
  O  O24  1  0.932878  0.921962  0.654499  1
  O  O25  1  0.448361  0.039250  0.351533  1
  O  O26  1  0.563294  0.583940  0.845973  1
  O  O27  1  0.948361  0.960750  0.148467  1
  O  O28  1  0.755744  0.369073  0.651974  1
  O  O29  1  0.567122  0.921962  0.154499  1
  O  O30  1  0.551639  0.960750  0.648467  1
  O  O31  1  0.557241  0.530411  0.351410  1
  O  O32  1  0.244256  0.630927  0.348026  1
  O  O33  1  0.442759  0.469589  0.648590  1
  O  O34  1  0.247734  0.873850  0.651948  1
  O  O35  1  0.744256  0.369073  0.151974  1
