# generated using pymatgen
data_Er16In6CuTc
_symmetry_space_group_name_H-M   'P 1'
_cell_length_a   10.37697300
_cell_length_b   10.37697255
_cell_length_c   6.88156100
_cell_angle_alpha   90.00000000
_cell_angle_beta   90.00000000
_cell_angle_gamma   119.99999825
_symmetry_Int_Tables_number   1
_chemical_formula_structural   Er16In6CuTc
_chemical_formula_sum   'Er16 In6 Cu1 Tc1'
_cell_volume   641.73977529
_cell_formula_units_Z   1
loop_
 _symmetry_equiv_pos_site_id
 _symmetry_equiv_pos_as_xyz
  1  'x, y, z'
loop_
 _atom_site_type_symbol
 _atom_site_label
 _atom_site_symmetry_multiplicity
 _atom_site_fract_x
 _atom_site_fract_y
 _atom_site_fract_z
 _atom_site_occupancy
  Er  Er0  1  0.533066  0.066133  0.793051  1
  Er  Er1  1  0.933867  0.466934  0.793051  1
  Er  Er2  1  0.533066  0.466934  0.793051  1
  Er  Er3  1  0.475918  0.951836  0.297916  1
  Er  Er4  1  0.048164  0.524082  0.297916  1
  Er  Er5  1  0.475918  0.524082  0.297916  1
  Er  Er6  1  0.825338  0.650676  0.503888  1
  Er  Er7  1  0.349324  0.174662  0.503888  1
  Er  Er8  1  0.825338  0.174662  0.503888  1
  Er  Er9  1  0.176686  0.353373  0.003245  1
  Er  Er10  1  0.646627  0.823314  0.003245  1
  Er  Er11  1  0.176686  0.823314  0.003245  1
  Er  Er12  1  0.666667  0.333333  0.161570  1
  Er  Er13  1  0.333333  0.666667  0.670797  1
  Er  Er14  1  0.000000  0.000000  0.782512  1
  Er  Er15  1  0.000000  0.000000  0.275630  1
  In  In16  1  0.837953  0.675909  0.036176  1
  In  In17  1  0.324091  0.162047  0.036176  1
  In  In18  1  0.837953  0.162047  0.036176  1
  In  In19  1  0.165134  0.330265  0.534923  1
  In  In20  1  0.669735  0.834866  0.534923  1
  In  In21  1  0.165134  0.834866  0.534923  1
  Cu  Cu22  1  0.333333  0.666667  0.079129  1
  Tc  Tc23  1  0.666667  0.333333  0.558671  1
