# generated using pymatgen
data_Nd2CdPdRh
_symmetry_space_group_name_H-M   'P 1'
_cell_length_a   7.80154334
_cell_length_b   7.80154334
_cell_length_c   3.91104500
_cell_angle_alpha   90.00000000
_cell_angle_beta   90.00000000
_cell_angle_gamma   89.27919536
_symmetry_Int_Tables_number   1
_chemical_formula_structural   Nd2CdPdRh
_chemical_formula_sum   'Nd4 Cd2 Pd2 Rh2'
_cell_volume   238.02331301
_cell_formula_units_Z   2
loop_
 _symmetry_equiv_pos_site_id
 _symmetry_equiv_pos_as_xyz
  1  'x, y, z'
loop_
 _atom_site_type_symbol
 _atom_site_label
 _atom_site_symmetry_multiplicity
 _atom_site_fract_x
 _atom_site_fract_y
 _atom_site_fract_z
 _atom_site_occupancy
  Nd  Nd0  1  0.665059  0.165059  0.500000  1
  Nd  Nd1  1  0.334941  0.834941  0.500000  1
  Nd  Nd2  1  0.178550  0.321450  0.500000  1
  Nd  Nd3  1  0.821450  0.678550  0.500000  1
  Cd  Cd4  1  0.000000  0.000000  0.000000  1
  Cd  Cd5  1  0.500000  0.500000  0.000000  1
  Pd  Pd6  1  0.129720  0.629720  0.000000  1
  Pd  Pd7  1  0.870280  0.370280  0.000000  1
  Rh  Rh8  1  0.631905  0.868095  0.000000  1
  Rh  Rh9  1  0.368095  0.131905  0.000000  1
