# generated using pymatgen
data_Ho3Er13Cd4(OsPt)2
_symmetry_space_group_name_H-M   'P 1'
_cell_length_a   9.58054858
_cell_length_b   9.58096142
_cell_length_c   9.64429203
_cell_angle_alpha   59.77939069
_cell_angle_beta   59.77014817
_cell_angle_gamma   59.56718739
_symmetry_Int_Tables_number   1
_chemical_formula_structural   Ho3Er13Cd4(OsPt)2
_chemical_formula_sum   'Ho3 Er13 Cd4 Os2 Pt2'
_cell_volume   621.78014286
_cell_formula_units_Z   1
loop_
 _symmetry_equiv_pos_site_id
 _symmetry_equiv_pos_as_xyz
  1  'x, y, z'
loop_
 _atom_site_type_symbol
 _atom_site_label
 _atom_site_symmetry_multiplicity
 _atom_site_fract_x
 _atom_site_fract_y
 _atom_site_fract_z
 _atom_site_occupancy
  Ho  Ho0  1  0.188315  0.806490  0.188298  1
  Ho  Ho1  1  0.814273  0.814480  0.185497  1
  Ho  Ho2  1  0.189981  0.190131  0.809892  1
  Er  Er3  1  0.600110  0.600035  0.601591  1
  Er  Er4  1  0.600147  0.600045  0.198320  1
  Er  Er5  1  0.596866  0.204038  0.599644  1
  Er  Er6  1  0.204143  0.596761  0.599684  1
  Er  Er7  1  0.064495  0.437707  0.440731  1
  Er  Er8  1  0.437919  0.064561  0.056967  1
  Er  Er9  1  0.437833  0.064512  0.440665  1
  Er  Er10  1  0.064528  0.437810  0.056981  1
  Er  Er11  1  0.438397  0.438244  0.061560  1
  Er  Er12  1  0.058179  0.058276  0.441862  1
  Er  Er13  1  0.188356  0.806389  0.816724  1
  Er  Er14  1  0.806320  0.188496  0.188275  1
  Er  Er15  1  0.806416  0.188334  0.816939  1
  Cd  Cd16  1  0.829987  0.830021  0.831687  1
  Cd  Cd17  1  0.829794  0.830041  0.508491  1
  Cd  Cd18  1  0.830903  0.504911  0.832109  1
  Cd  Cd19  1  0.505098  0.830900  0.831915  1
  Os  Os20  1  0.394506  0.394374  0.387525  1
  Os  Os21  1  0.394494  0.394496  0.823507  1
  Pt  Pt22  1  0.394130  0.824850  0.390574  1
  Pt  Pt23  1  0.824804  0.394094  0.390562  1
