# generated using pymatgen
data_Dy4Al16Ga2Ir5Au
_symmetry_space_group_name_H-M   'P 1'
_cell_length_a   7.56672820
_cell_length_b   7.56673188
_cell_length_c   9.50371693
_cell_angle_alpha   89.96576652
_cell_angle_beta   89.96571751
_cell_angle_gamma   119.35709823
_symmetry_Int_Tables_number   1
_chemical_formula_structural   Dy4Al16Ga2Ir5Au
_chemical_formula_sum   'Dy4 Al16 Ga2 Ir5 Au1'
_cell_volume   474.26108783
_cell_formula_units_Z   1
loop_
 _symmetry_equiv_pos_site_id
 _symmetry_equiv_pos_as_xyz
  1  'x, y, z'
loop_
 _atom_site_type_symbol
 _atom_site_label
 _atom_site_symmetry_multiplicity
 _atom_site_fract_x
 _atom_site_fract_y
 _atom_site_fract_z
 _atom_site_occupancy
  Dy  Dy0  1  0.995024  0.676274  0.751042  1
  Dy  Dy1  1  0.004976  0.323726  0.248958  1
  Dy  Dy2  1  0.676274  0.995025  0.751042  1
  Dy  Dy3  1  0.323726  0.004975  0.248958  1
  Al  Al4  1  0.001931  0.344983  0.578265  1
  Al  Al5  1  0.998069  0.655017  0.421735  1
  Al  Al6  1  0.999441  0.663578  0.073336  1
  Al  Al7  1  0.336422  0.000559  0.926664  1
  Al  Al8  1  0.000559  0.336422  0.926664  1
  Al  Al9  1  0.663578  0.999441  0.073336  1
  Al  Al10  1  0.655017  0.998070  0.421735  1
  Al  Al11  1  0.344983  0.001930  0.578265  1
  Al  Al12  1  0.333673  0.333673  0.054845  1
  Al  Al13  1  0.666327  0.666327  0.945155  1
  Al  Al14  1  0.657150  0.657149  0.561187  1
  Al  Al15  1  0.342850  0.342851  0.438813  1
  Al  Al16  1  0.337221  0.552025  0.751084  1
  Al  Al17  1  0.662779  0.447975  0.248916  1
  Al  Al18  1  0.552025  0.337221  0.751084  1
  Al  Al19  1  0.447975  0.662779  0.248916  1
  Ga  Ga20  1  0.142667  0.142667  0.755960  1
  Ga  Ga21  1  0.857333  0.857333  0.244040  1
  Ir  Ir22  1  0.671378  0.328622  0.500000  1
  Ir  Ir23  1  0.328622  0.671378  0.500000  1
  Ir  Ir24  1  0.328670  0.671329  0.000000  1
  Ir  Ir25  1  0.671330  0.328671  0.000000  1
  Ir  Ir26  1  0.000000  0.000000  0.000000  1
  Au  Au27  1  0.000000  0.000000  0.500000  1
