# generated using pymatgen
data_Ta15Nb(Co2N)4
_symmetry_space_group_name_H-M   'P 1'
_cell_length_a   8.21131185
_cell_length_b   8.21098238
_cell_length_c   8.20279201
_cell_angle_alpha   60.02973039
_cell_angle_beta   60.03098726
_cell_angle_gamma   60.10003436
_symmetry_Int_Tables_number   1
_chemical_formula_structural   Ta15Nb(Co2N)4
_chemical_formula_sum   'Ta15 Nb1 Co8 N4'
_cell_volume   391.54443764
_cell_formula_units_Z   1
loop_
 _symmetry_equiv_pos_site_id
 _symmetry_equiv_pos_as_xyz
  1  'x, y, z'
loop_
 _atom_site_type_symbol
 _atom_site_label
 _atom_site_symmetry_multiplicity
 _atom_site_fract_x
 _atom_site_fract_y
 _atom_site_fract_z
 _atom_site_occupancy
  Ta  Ta0  1  0.125090  0.623871  0.625501  1
  Ta  Ta1  1  0.623854  0.125089  0.625511  1
  Ta  Ta2  1  0.625306  0.625326  0.125290  1
  Ta  Ta3  1  0.625319  0.625338  0.624063  1
  Ta  Ta4  1  0.185823  0.185812  0.814186  1
  Ta  Ta5  1  0.813315  0.186313  0.813681  1
  Ta  Ta6  1  0.186299  0.813324  0.186699  1
  Ta  Ta7  1  0.186316  0.813318  0.813681  1
  Ta  Ta8  1  0.813321  0.186295  0.186706  1
  Ta  Ta9  1  0.437779  0.437777  0.062224  1
  Ta  Ta10  1  0.063304  0.063302  0.436694  1
  Ta  Ta11  1  0.436277  0.064093  0.435664  1
  Ta  Ta12  1  0.064092  0.436277  0.063955  1
  Ta  Ta13  1  0.064104  0.436271  0.435667  1
  Ta  Ta14  1  0.436284  0.064081  0.063960  1
  Nb  Nb15  1  0.813806  0.813795  0.186217  1
  Co  Co16  1  0.753497  0.413584  0.416463  1
  Co  Co17  1  0.413584  0.753504  0.416460  1
  Co  Co18  1  0.415735  0.415736  0.753503  1
  Co  Co19  1  0.415731  0.415727  0.415024  1
  Co  Co20  1  0.497054  0.833846  0.834552  1
  Co  Co21  1  0.833844  0.497058  0.834552  1
  Co  Co22  1  0.834632  0.834631  0.499231  1
  Co  Co23  1  0.834634  0.834631  0.831514  1
  N  N24  1  0.623505  0.127460  0.124516  1
  N  N25  1  0.127462  0.623506  0.124515  1
  N  N26  1  0.125016  0.125018  0.624893  1
  N  N27  1  0.125016  0.125019  0.125073  1
