# generated using pymatgen
data_Pu2Al3Si4
_symmetry_space_group_name_H-M   'P 1'
_cell_length_a   7.85643650
_cell_length_b   7.63704700
_cell_length_c   5.77129119
_cell_angle_alpha   90.00000000
_cell_angle_beta   111.44713654
_cell_angle_gamma   90.00000000
_symmetry_Int_Tables_number   1
_chemical_formula_structural   Pu2Al3Si4
_chemical_formula_sum   'Pu4 Al6 Si8'
_cell_volume   322.29946377
_cell_formula_units_Z   2
loop_
 _symmetry_equiv_pos_site_id
 _symmetry_equiv_pos_as_xyz
  1  'x, y, z'
loop_
 _atom_site_type_symbol
 _atom_site_label
 _atom_site_symmetry_multiplicity
 _atom_site_fract_x
 _atom_site_fract_y
 _atom_site_fract_z
 _atom_site_occupancy
  Pu  Pu0  1  0.721780  0.581019  0.109535  1
  Pu  Pu1  1  0.278220  0.081019  0.390466  1
  Pu  Pu2  1  0.721779  0.918982  0.609534  1
  Pu  Pu3  1  0.278220  0.418982  0.890465  1
  Al  Al4  1  0.500000  0.000000  0.000001  1
  Al  Al5  1  0.938002  0.248269  0.972821  1
  Al  Al6  1  0.061999  0.748269  0.527178  1
  Al  Al7  1  0.500000  0.500000  0.500000  1
  Al  Al8  1  0.938002  0.251731  0.472821  1
  Al  Al9  1  0.061999  0.751731  0.027179  1
  Si  Si10  1  0.866697  0.952675  0.183437  1
  Si  Si11  1  0.400393  0.750011  0.200833  1
  Si  Si12  1  0.599608  0.250011  0.299168  1
  Si  Si13  1  0.133304  0.452675  0.316564  1
  Si  Si14  1  0.866697  0.547325  0.683435  1
  Si  Si15  1  0.400393  0.749988  0.700834  1
  Si  Si16  1  0.599607  0.249988  0.799167  1
  Si  Si17  1  0.133304  0.047326  0.816565  1
