# generated using pymatgen
data_MnSbF7
_symmetry_space_group_name_H-M   'P 1'
_cell_length_a   7.85886535
_cell_length_b   7.85886438
_cell_length_c   7.85886550
_cell_angle_alpha   124.67286388
_cell_angle_beta   121.45424132
_cell_angle_gamma   84.79568753
_symmetry_Int_Tables_number   1
_chemical_formula_structural   MnSbF7
_chemical_formula_sum   'Mn2 Sb2 F14'
_cell_volume   325.49140515
_cell_formula_units_Z   2
loop_
 _symmetry_equiv_pos_site_id
 _symmetry_equiv_pos_as_xyz
  1  'x, y, z'
loop_
 _atom_site_type_symbol
 _atom_site_label
 _atom_site_symmetry_multiplicity
 _atom_site_fract_x
 _atom_site_fract_y
 _atom_site_fract_z
 _atom_site_occupancy
  Mn  Mn0  1  0.500000  0.000000  0.000000  1
  Mn  Mn1  1  0.000000  0.000000  0.500000  1
  Sb  Sb2  1  0.500000  0.000000  0.500000  1
  Sb  Sb3  1  0.000000  0.500000  0.500000  1
  F  F4  1  0.250000  0.079328  0.829328  1
  F  F5  1  0.750000  0.920672  0.170672  1
  F  F6  1  0.533515  0.286695  0.753179  1
  F  F7  1  0.966485  0.719664  0.753179  1
  F  F8  1  0.062631  0.343708  0.638676  1
  F  F9  1  0.437369  0.076046  0.281077  1
  F  F10  1  0.294969  0.656292  0.718923  1
  F  F11  1  0.205031  0.923954  0.361324  1
  F  F12  1  0.937369  0.656292  0.361324  1
  F  F13  1  0.562631  0.923954  0.718923  1
  F  F14  1  0.705031  0.343708  0.281077  1
  F  F15  1  0.794969  0.076046  0.638676  1
  F  F16  1  0.033515  0.280336  0.246821  1
  F  F17  1  0.466485  0.713305  0.246821  1
