# generated using pymatgen
data_Tb4Al18PdRh5
_symmetry_space_group_name_H-M   'P 1'
_cell_length_a   7.57035414
_cell_length_b   7.57035445
_cell_length_c   9.48231956
_cell_angle_alpha   89.98009410
_cell_angle_beta   89.98009456
_cell_angle_gamma   119.46081844
_symmetry_Int_Tables_number   1
_chemical_formula_structural   Tb4Al18PdRh5
_chemical_formula_sum   'Tb4 Al18 Pd1 Rh5'
_cell_volume   473.16385989
_cell_formula_units_Z   1
loop_
 _symmetry_equiv_pos_site_id
 _symmetry_equiv_pos_as_xyz
  1  'x, y, z'
loop_
 _atom_site_type_symbol
 _atom_site_label
 _atom_site_symmetry_multiplicity
 _atom_site_fract_x
 _atom_site_fract_y
 _atom_site_fract_z
 _atom_site_occupancy
  Tb  Tb0  1  0.995037  0.670807  0.250553  1
  Tb  Tb1  1  0.004963  0.329193  0.749447  1
  Tb  Tb2  1  0.670807  0.995037  0.250553  1
  Tb  Tb3  1  0.329193  0.004963  0.749447  1
  Al  Al4  1  0.129559  0.129559  0.252684  1
  Al  Al5  1  0.870441  0.870441  0.747316  1
  Al  Al6  1  0.001142  0.338557  0.076190  1
  Al  Al7  1  0.998858  0.661443  0.923810  1
  Al  Al8  1  0.999490  0.665155  0.574375  1
  Al  Al9  1  0.334845  0.000510  0.425625  1
  Al  Al10  1  0.000510  0.334845  0.425625  1
  Al  Al11  1  0.665155  0.999490  0.574375  1
  Al  Al12  1  0.661443  0.998858  0.923810  1
  Al  Al13  1  0.338557  0.001142  0.076190  1
  Al  Al14  1  0.333405  0.333405  0.550010  1
  Al  Al15  1  0.666595  0.666595  0.449990  1
  Al  Al16  1  0.663500  0.663500  0.051378  1
  Al  Al17  1  0.336500  0.336500  0.948622  1
  Al  Al18  1  0.339179  0.548953  0.250312  1
  Al  Al19  1  0.660821  0.451047  0.749688  1
  Al  Al20  1  0.548953  0.339179  0.250312  1
  Al  Al21  1  0.451047  0.660821  0.749688  1
  Pd  Pd22  1  0.000000  0.000000  0.000000  1
  Rh  Rh23  1  0.671837  0.328163  0.000000  1
  Rh  Rh24  1  0.328163  0.671837  0.000000  1
  Rh  Rh25  1  0.328148  0.671852  0.500000  1
  Rh  Rh26  1  0.671852  0.328148  0.500000  1
  Rh  Rh27  1  0.000000  0.000000  0.500000  1
