# generated using pymatgen
data_Ho4InAgPd4
_symmetry_space_group_name_H-M   'P 1'
_cell_length_a   7.68514400
_cell_length_b   7.68514400
_cell_length_c   3.70006300
_cell_angle_alpha   90.00000000
_cell_angle_beta   90.00000000
_cell_angle_gamma   90.00000000
_symmetry_Int_Tables_number   1
_chemical_formula_structural   Ho4InAgPd4
_chemical_formula_sum   'Ho4 In1 Ag1 Pd4'
_cell_volume   218.53104258
_cell_formula_units_Z   1
loop_
 _symmetry_equiv_pos_site_id
 _symmetry_equiv_pos_as_xyz
  1  'x, y, z'
loop_
 _atom_site_type_symbol
 _atom_site_label
 _atom_site_symmetry_multiplicity
 _atom_site_fract_x
 _atom_site_fract_y
 _atom_site_fract_z
 _atom_site_occupancy
  Ho  Ho0  1  0.327083  0.827593  0.500000  1
  Ho  Ho1  1  0.827593  0.672917  0.500000  1
  Ho  Ho2  1  0.172407  0.327083  0.500000  1
  Ho  Ho3  1  0.672917  0.172407  0.500000  1
  In  In4  1  0.500000  0.500000  0.000000  1
  Ag  Ag5  1  0.000000  0.000000  0.000000  1
  Pd  Pd6  1  0.370068  0.127760  0.000000  1
  Pd  Pd7  1  0.872240  0.370068  0.000000  1
  Pd  Pd8  1  0.127760  0.629932  0.000000  1
  Pd  Pd9  1  0.629932  0.872240  0.000000  1
