# generated using pymatgen
data_Ho7TmSc11Si16Au
_symmetry_space_group_name_H-M   'P 1'
_cell_length_a   6.98741210
_cell_length_b   7.37406557
_cell_length_c   13.98177232
_cell_angle_alpha   89.98476335
_cell_angle_beta   90.01896177
_cell_angle_gamma   89.82889918
_symmetry_Int_Tables_number   1
_chemical_formula_structural   Ho7TmSc11Si16Au
_chemical_formula_sum   'Ho7 Tm1 Sc11 Si16 Au1'
_cell_volume   720.41641928
_cell_formula_units_Z   1
loop_
 _symmetry_equiv_pos_site_id
 _symmetry_equiv_pos_as_xyz
  1  'x, y, z'
loop_
 _atom_site_type_symbol
 _atom_site_label
 _atom_site_symmetry_multiplicity
 _atom_site_fract_x
 _atom_site_fract_y
 _atom_site_fract_z
 _atom_site_occupancy
  Ho  Ho0  1  0.010679  0.175901  0.095866  1
  Ho  Ho1  1  0.990944  0.813658  0.901864  1
  Ho  Ho2  1  0.486289  0.673232  0.902357  1
  Ho  Ho3  1  0.990987  0.813509  0.598042  1
  Ho  Ho4  1  0.509983  0.322698  0.095896  1
  Ho  Ho5  1  0.010692  0.175910  0.404230  1
  Ho  Ho6  1  0.509981  0.322796  0.404247  1
  Tm  Tm7  1  0.486297  0.673382  0.597879  1
  Sc  Sc8  1  0.838445  0.497175  0.249981  1
  Sc  Sc9  1  0.340482  0.003774  0.249999  1
  Sc  Sc10  1  0.655555  0.996955  0.749924  1
  Sc  Sc11  1  0.323658  0.182850  0.627537  1
  Sc  Sc12  1  0.671250  0.823877  0.375030  1
  Sc  Sc13  1  0.170589  0.678630  0.373939  1
  Sc  Sc14  1  0.671299  0.824006  0.125052  1
  Sc  Sc15  1  0.837357  0.328095  0.627472  1
  Sc  Sc16  1  0.323587  0.182761  0.872422  1
  Sc  Sc17  1  0.837567  0.327920  0.872406  1
  Sc  Sc18  1  0.170581  0.678574  0.126102  1
  Si  Si19  1  0.025533  0.091795  0.749964  1
  Si  Si20  1  0.969471  0.890187  0.250015  1
  Si  Si21  1  0.467492  0.615409  0.250039  1
  Si  Si22  1  0.534581  0.386927  0.749870  1
  Si  Si23  1  0.288594  0.878241  0.749792  1
  Si  Si24  1  0.713972  0.130030  0.250015  1
  Si  Si25  1  0.212951  0.370495  0.250000  1
  Si  Si26  1  0.777325  0.630800  0.749736  1
  Si  Si27  1  0.164003  0.459896  0.530711  1
  Si  Si28  1  0.841529  0.535207  0.462434  1
  Si  Si29  1  0.343950  0.965206  0.463378  1
  Si  Si30  1  0.841628  0.535157  0.037610  1
  Si  Si31  1  0.658244  0.033206  0.540565  1
  Si  Si32  1  0.163366  0.459560  0.969473  1
  Si  Si33  1  0.658472  0.033634  0.959497  1
  Si  Si34  1  0.343777  0.965594  0.036751  1
  Au  Au35  1  0.158888  0.522954  0.749903  1
