# generated using pymatgen
data_Tb4ZnAs5Rh7
_symmetry_space_group_name_H-M   'P 1'
_cell_length_a   7.29723041
_cell_length_b   7.29722984
_cell_length_c   7.29723006
_cell_angle_alpha   108.69669685
_cell_angle_beta   109.85986534
_cell_angle_gamma   109.85987130
_symmetry_Int_Tables_number   1
_chemical_formula_structural   Tb4ZnAs5Rh7
_chemical_formula_sum   'Tb4 Zn1 As5 Rh7'
_cell_volume   299.08371744
_cell_formula_units_Z   1
loop_
 _symmetry_equiv_pos_site_id
 _symmetry_equiv_pos_as_xyz
  1  'x, y, z'
loop_
 _atom_site_type_symbol
 _atom_site_label
 _atom_site_symmetry_multiplicity
 _atom_site_fract_x
 _atom_site_fract_y
 _atom_site_fract_z
 _atom_site_occupancy
  Tb  Tb0  1  0.494868  0.002255  0.002255  1
  Tb  Tb1  1  0.000000  0.507387  0.002255  1
  Tb  Tb2  1  0.000000  0.002255  0.507387  1
  Tb  Tb3  1  0.505132  0.507387  0.507387  1
  Zn  Zn4  1  0.000000  0.307154  0.307154  1
  As  As5  1  0.683311  0.006080  0.689390  1
  As  As6  1  0.683311  0.689390  0.006080  1
  As  As7  1  0.000000  0.663139  0.663139  1
  As  As8  1  0.316689  0.006080  0.322770  1
  As  As9  1  0.316689  0.322770  0.006080  1
  Rh  Rh10  1  0.000000  0.985390  0.985390  1
  Rh  Rh11  1  0.500000  0.753597  0.253597  1
  Rh  Rh12  1  0.747864  0.498379  0.246243  1
  Rh  Rh13  1  0.252136  0.750515  0.498379  1
  Rh  Rh14  1  0.252136  0.498379  0.750515  1
  Rh  Rh15  1  0.500000  0.253597  0.753597  1
  Rh  Rh16  1  0.747864  0.246243  0.498379  1
