# generated using pymatgen
data_Hf2Zr2Ti2BI12
_symmetry_space_group_name_H-M   'P 1'
_cell_length_a   9.15509834
_cell_length_b   9.05468845
_cell_length_c   9.74795314
_cell_angle_alpha   107.30765122
_cell_angle_beta   106.39269007
_cell_angle_gamma   106.31021157
_symmetry_Int_Tables_number   1
_chemical_formula_structural   Hf2Zr2Ti2BI12
_chemical_formula_sum   'Hf2 Zr2 Ti2 B1 I12'
_cell_volume   678.88427747
_cell_formula_units_Z   1
loop_
 _symmetry_equiv_pos_site_id
 _symmetry_equiv_pos_as_xyz
  1  'x, y, z'
loop_
 _atom_site_type_symbol
 _atom_site_label
 _atom_site_symmetry_multiplicity
 _atom_site_fract_x
 _atom_site_fract_y
 _atom_site_fract_z
 _atom_site_occupancy
  Hf  Hf0  1  0.973101  0.723450  0.911382  1
  Hf  Hf1  1  0.272609  0.089295  0.029139  1
  Zr  Zr2  1  0.726758  0.912053  0.971283  1
  Zr  Zr3  1  0.024494  0.276749  0.087981  1
  Ti  Ti4  1  0.076198  0.021150  0.239784  1
  Ti  Ti5  1  0.922259  0.980477  0.760431  1
  B  B6  1  0.001898  0.998372  0.999052  1
  I  I7  1  0.928220  0.309013  0.786811  1
  I  I8  1  0.686261  0.231048  0.076617  1
  I  I9  1  0.422138  0.128621  0.346316  1
  I  I10  1  0.870641  0.646721  0.584836  1
  I  I11  1  0.222297  0.081520  0.720928  1
  I  I12  1  0.633495  0.551416  0.853150  1
  I  I13  1  0.370278  0.445584  0.145928  1
  I  I14  1  0.780478  0.918529  0.283941  1
  I  I15  1  0.131120  0.353013  0.418944  1
  I  I16  1  0.577332  0.871280  0.649652  1
  I  I17  1  0.308713  0.770500  0.925388  1
  I  I18  1  0.071709  0.691208  0.208436  1
