# generated using pymatgen
data_SmGd3Be4(SiO7)2
_symmetry_space_group_name_H-M   'P 1'
_cell_length_a   7.41845999
_cell_length_b   7.41845999
_cell_length_c   4.84623622
_cell_angle_alpha   90.02469569
_cell_angle_beta   89.97530431
_cell_angle_gamma   90.09985086
_symmetry_Int_Tables_number   1
_chemical_formula_structural   SmGd3Be4(SiO7)2
_chemical_formula_sum   'Sm1 Gd3 Be4 Si2 O14'
_cell_volume   266.70512233
_cell_formula_units_Z   1
loop_
 _symmetry_equiv_pos_site_id
 _symmetry_equiv_pos_as_xyz
  1  'x, y, z'
loop_
 _atom_site_type_symbol
 _atom_site_label
 _atom_site_symmetry_multiplicity
 _atom_site_fract_x
 _atom_site_fract_y
 _atom_site_fract_z
 _atom_site_occupancy
  Sm  Sm0  1  0.159604  0.340396  0.506545  1
  Gd  Gd1  1  0.659481  0.159449  0.493313  1
  Gd  Gd2  1  0.340551  0.840519  0.493313  1
  Gd  Gd3  1  0.840142  0.659858  0.506299  1
  Be  Be4  1  0.136094  0.636838  0.038630  1
  Be  Be5  1  0.636180  0.863820  0.960998  1
  Be  Be6  1  0.364250  0.135750  0.961161  1
  Be  Be7  1  0.863162  0.363906  0.038630  1
  Si  Si8  1  0.500380  0.500153  0.000396  1
  Si  Si9  1  0.999847  0.999620  0.000396  1
  O  O10  1  0.919798  0.163460  0.195152  1
  O  O11  1  0.836491  0.919648  0.804724  1
  O  O12  1  0.163624  0.079632  0.805635  1
  O  O13  1  0.080193  0.836650  0.195808  1
  O  O14  1  0.420368  0.336376  0.805635  1
  O  O15  1  0.580352  0.663509  0.804724  1
  O  O16  1  0.663350  0.419807  0.195808  1
  O  O17  1  0.336540  0.580202  0.195152  1
  O  O18  1  0.641397  0.858603  0.289899  1
  O  O19  1  0.141267  0.642415  0.710285  1
  O  O20  1  0.857585  0.358733  0.710285  1
  O  O21  1  0.360196  0.139804  0.289352  1
  O  O22  1  0.500199  0.999801  0.822169  1
  O  O23  1  0.998950  0.501050  0.175693  1
