# generated using pymatgen
data_Yb2CoSn4Ru
_symmetry_space_group_name_H-M   'P 1'
_cell_length_a   5.79816901
_cell_length_b   5.79816950
_cell_length_c   7.60668600
_cell_angle_alpha   90.00000000
_cell_angle_beta   90.00000000
_cell_angle_gamma   137.51314312
_symmetry_Int_Tables_number   1
_chemical_formula_structural   Yb2CoSn4Ru
_chemical_formula_sum   'Yb2 Co1 Sn4 Ru1'
_cell_volume   172.72367441
_cell_formula_units_Z   1
loop_
 _symmetry_equiv_pos_site_id
 _symmetry_equiv_pos_as_xyz
  1  'x, y, z'
loop_
 _atom_site_type_symbol
 _atom_site_label
 _atom_site_symmetry_multiplicity
 _atom_site_fract_x
 _atom_site_fract_y
 _atom_site_fract_z
 _atom_site_occupancy
  Yb  Yb0  1  0.563709  0.436292  0.250000  1
  Yb  Yb1  1  0.435818  0.564183  0.750000  1
  Co  Co2  1  0.287092  0.712908  0.250000  1
  Sn  Sn3  1  0.854345  0.145656  0.052081  1
  Sn  Sn4  1  0.854345  0.145656  0.447919  1
  Sn  Sn5  1  0.146021  0.853980  0.537481  1
  Sn  Sn6  1  0.146021  0.853980  0.962519  1
  Ru  Ru7  1  0.712654  0.287346  0.750000  1
