# generated using pymatgen
data_NpU(AlC)6
_symmetry_space_group_name_H-M   'P 1'
_cell_length_a   3.39837400
_cell_length_b   3.39837381
_cell_length_c   17.42734900
_cell_angle_alpha   90.00000000
_cell_angle_beta   90.00000000
_cell_angle_gamma   120.00000182
_symmetry_Int_Tables_number   1
_chemical_formula_structural   NpU(AlC)6
_chemical_formula_sum   'Np1 U1 Al6 C6'
_cell_volume   174.30276368
_cell_formula_units_Z   1
loop_
 _symmetry_equiv_pos_site_id
 _symmetry_equiv_pos_as_xyz
  1  'x, y, z'
loop_
 _atom_site_type_symbol
 _atom_site_label
 _atom_site_symmetry_multiplicity
 _atom_site_fract_x
 _atom_site_fract_y
 _atom_site_fract_z
 _atom_site_occupancy
  Np  Np0  1  0.000000  0.000000  0.003086  1
  U  U1  1  0.000000  0.000000  0.503005  1
  Al  Al2  1  0.333333  0.666667  0.137789  1
  Al  Al3  1  0.666667  0.333333  0.868785  1
  Al  Al4  1  0.666667  0.333333  0.636382  1
  Al  Al5  1  0.333333  0.666667  0.754309  1
  Al  Al6  1  0.333333  0.666667  0.370153  1
  Al  Al7  1  0.666667  0.333333  0.254842  1
  C  C8  1  0.333333  0.666667  0.596176  1
  C  C9  1  0.666667  0.333333  0.408762  1
  C  C10  1  0.333333  0.666667  0.907412  1
  C  C11  1  0.666667  0.333333  0.097615  1
  C  C12  1  0.666667  0.333333  0.752289  1
  C  C13  1  0.333333  0.666667  0.253993  1
