# generated using pymatgen
data_Sr6LiScMn2O12
_symmetry_space_group_name_H-M   'P 1'
_cell_length_a   6.70209580
_cell_length_b   6.70209590
_cell_length_c   6.70209577
_cell_angle_alpha   92.87119731
_cell_angle_beta   92.87121257
_cell_angle_gamma   92.87122231
_symmetry_Int_Tables_number   1
_chemical_formula_structural   Sr6LiScMn2O12
_chemical_formula_sum   'Sr6 Li1 Sc1 Mn2 O12'
_cell_volume   299.87217212
_cell_formula_units_Z   1
loop_
 _symmetry_equiv_pos_site_id
 _symmetry_equiv_pos_as_xyz
  1  'x, y, z'
loop_
 _atom_site_type_symbol
 _atom_site_label
 _atom_site_symmetry_multiplicity
 _atom_site_fract_x
 _atom_site_fract_y
 _atom_site_fract_z
 _atom_site_occupancy
  Sr  Sr0  1  0.383249  0.750000  0.116752  1
  Sr  Sr1  1  0.893577  0.606423  0.250000  1
  Sr  Sr2  1  0.750000  0.116752  0.383249  1
  Sr  Sr3  1  0.250000  0.893576  0.606423  1
  Sr  Sr4  1  0.116751  0.383249  0.750000  1
  Sr  Sr5  1  0.606422  0.250000  0.893577  1
  Li  Li6  1  0.250000  0.250000  0.250000  1
  Sc  Sc7  1  0.750000  0.750000  0.750000  1
  Mn  Mn8  1  0.004468  0.004468  0.004468  1
  Mn  Mn9  1  0.495532  0.495532  0.495532  1
  O  O10  1  0.716897  0.905152  0.033830  1
  O  O11  1  0.951645  0.273227  0.081226  1
  O  O12  1  0.548355  0.418774  0.226774  1
  O  O13  1  0.081226  0.951645  0.273227  1
  O  O14  1  0.226774  0.548355  0.418775  1
  O  O15  1  0.594847  0.783102  0.466170  1
  O  O16  1  0.418775  0.226774  0.548355  1
  O  O17  1  0.783102  0.466170  0.594847  1
  O  O18  1  0.905152  0.033830  0.716897  1
  O  O19  1  0.466170  0.594847  0.783102  1
  O  O20  1  0.033830  0.716897  0.905152  1
  O  O21  1  0.273226  0.081225  0.951646  1
