# generated using pymatgen
data_Al4V12Zn4CN3
_symmetry_space_group_name_H-M   'P 1'
_cell_length_a   6.60588218
_cell_length_b   6.60588218
_cell_length_c   6.60588218
_cell_angle_alpha   90.06582989
_cell_angle_beta   89.93417011
_cell_angle_gamma   89.93417011
_symmetry_Int_Tables_number   1
_chemical_formula_structural   Al4V12Zn4CN3
_chemical_formula_sum   'Al4 V12 Zn4 C1 N3'
_cell_volume   288.26479750
_cell_formula_units_Z   1
loop_
 _symmetry_equiv_pos_site_id
 _symmetry_equiv_pos_as_xyz
  1  'x, y, z'
loop_
 _atom_site_type_symbol
 _atom_site_label
 _atom_site_symmetry_multiplicity
 _atom_site_fract_x
 _atom_site_fract_y
 _atom_site_fract_z
 _atom_site_occupancy
  Al  Al0  1  0.176990  0.823010  0.323010  1
  Al  Al1  1  0.321756  0.176983  0.822311  1
  Al  Al2  1  0.823017  0.322311  0.178244  1
  Al  Al3  1  0.677689  0.678244  0.676983  1
  V  V4  1  0.789294  0.960037  0.373969  1
  V  V5  1  0.708693  0.038052  0.877847  1
  V  V6  1  0.210029  0.461662  0.124001  1
  V  V7  1  0.290446  0.538852  0.623872  1
  V  V8  1  0.961948  0.377847  0.791307  1
  V  V9  1  0.039963  0.873969  0.710706  1
  V  V10  1  0.461148  0.123872  0.209554  1
  V  V11  1  0.538338  0.624001  0.289971  1
  V  V12  1  0.375999  0.789971  0.961662  1
  V  V13  1  0.876128  0.709554  0.038852  1
  V  V14  1  0.126031  0.210706  0.460037  1
  V  V15  1  0.622153  0.291307  0.538052  1
  Zn  Zn16  1  0.571490  0.428510  0.928510  1
  Zn  Zn17  1  0.428890  0.929049  0.571413  1
  Zn  Zn18  1  0.928587  0.571110  0.429049  1
  Zn  Zn19  1  0.070951  0.071413  0.071110  1
  C  C20  1  0.873402  0.126598  0.626598  1
  N  N21  1  0.626013  0.872202  0.126754  1
  N  N22  1  0.127798  0.626754  0.873987  1
  N  N23  1  0.373246  0.373987  0.372202  1
