# generated using pymatgen
data_K3HfCr3O8
_symmetry_space_group_name_H-M   'P 1'
_cell_length_a   6.45501249
_cell_length_b   8.24177771
_cell_length_c   8.96201700
_cell_angle_alpha   93.98547461
_cell_angle_beta   117.90207103
_cell_angle_gamma   95.22291261
_symmetry_Int_Tables_number   1
_chemical_formula_structural   K3HfCr3O8
_chemical_formula_sum   'K6 Hf2 Cr6 O16'
_cell_volume   416.19178470
_cell_formula_units_Z   2
loop_
 _symmetry_equiv_pos_site_id
 _symmetry_equiv_pos_as_xyz
  1  'x, y, z'
loop_
 _atom_site_type_symbol
 _atom_site_label
 _atom_site_symmetry_multiplicity
 _atom_site_fract_x
 _atom_site_fract_y
 _atom_site_fract_z
 _atom_site_occupancy
  K  K0  1  0.010796  0.995832  0.004842  1
  K  K1  1  0.740407  0.258581  0.744724  1
  K  K2  1  0.498893  0.480564  0.502157  1
  K  K3  1  0.623212  0.877475  0.631396  1
  K  K4  1  0.125048  0.375534  0.120858  1
  K  K5  1  0.236790  0.750138  0.231549  1
  Hf  Hf6  1  0.062662  0.683130  0.570629  1
  Hf  Hf7  1  0.809347  0.945483  0.310500  1
  Cr  Cr8  1  0.194832  0.068680  0.692059  1
  Cr  Cr9  1  0.316017  0.435475  0.816551  1
  Cr  Cr10  1  0.441308  0.811584  0.938005  1
  Cr  Cr11  1  0.938389  0.312484  0.437370  1
  Cr  Cr12  1  0.558565  0.191104  0.060924  1
  Cr  Cr13  1  0.685641  0.557996  0.181103  1
  O  O14  1  0.529649  0.029485  0.862218  1
  O  O15  1  0.649850  0.399595  0.985503  1
  O  O16  1  0.275004  0.278682  0.613982  1
  O  O17  1  0.406556  0.651685  0.735954  1
  O  O18  1  0.903134  0.156781  0.232914  1
  O  O19  1  0.033926  0.527692  0.360350  1
  O  O20  1  0.155831  0.899930  0.484706  1
  O  O21  1  0.221190  0.222789  0.889747  1
  O  O22  1  0.780551  0.778903  0.110937  1
  O  O23  1  0.850355  0.100126  0.519489  1
  O  O24  1  0.967378  0.467116  0.639220  1
  O  O25  1  0.099452  0.851887  0.767833  1
  O  O26  1  0.601684  0.350444  0.262535  1
  O  O27  1  0.711988  0.722065  0.391553  1
  O  O28  1  0.355384  0.597651  0.014741  1
  O  O29  1  0.466154  0.971106  0.135648  1
