# generated using pymatgen
data_Zr9Nb3Al8(PdC)4
_symmetry_space_group_name_H-M   'P 1'
_cell_length_a   8.62117348
_cell_length_b   8.61481887
_cell_length_c   8.64313917
_cell_angle_alpha   59.93973953
_cell_angle_beta   60.17017508
_cell_angle_gamma   60.19310742
_symmetry_Int_Tables_number   1
_chemical_formula_structural   Zr9Nb3Al8(PdC)4
_chemical_formula_sum   'Zr9 Nb3 Al8 Pd4 C4'
_cell_volume   454.94267194
_cell_formula_units_Z   1
loop_
 _symmetry_equiv_pos_site_id
 _symmetry_equiv_pos_as_xyz
  1  'x, y, z'
loop_
 _atom_site_type_symbol
 _atom_site_label
 _atom_site_symmetry_multiplicity
 _atom_site_fract_x
 _atom_site_fract_y
 _atom_site_fract_z
 _atom_site_occupancy
  Zr  Zr0  1  0.313048  0.686952  0.313048  1
  Zr  Zr1  1  0.687368  0.690716  0.311652  1
  Zr  Zr2  1  0.311652  0.310264  0.687368  1
  Zr  Zr3  1  0.556891  0.560352  0.941372  1
  Zr  Zr4  1  0.936783  0.564742  0.561256  1
  Zr  Zr5  1  0.561255  0.937219  0.936783  1
  Zr  Zr6  1  0.941372  0.941385  0.556891  1
  Zr  Zr7  1  0.685558  0.314442  0.685558  1
  Zr  Zr8  1  0.943000  0.556999  0.943001  1
  Nb  Nb9  1  0.564252  0.935749  0.564251  1
  Nb  Nb10  1  0.314686  0.687609  0.683905  1
  Nb  Nb11  1  0.683905  0.313799  0.314684  1
  Al  Al12  1  0.922024  0.918376  0.918259  1
  Al  Al13  1  0.005426  0.330090  0.329763  1
  Al  Al14  1  0.331118  0.005267  0.336877  1
  Al  Al15  1  0.329762  0.334721  0.005427  1
  Al  Al16  1  0.918259  0.241341  0.922025  1
  Al  Al17  1  0.913538  0.923507  0.244272  1
  Al  Al18  1  0.244272  0.918682  0.913539  1
  Al  Al19  1  0.336878  0.326738  0.331118  1
  Pd  Pd20  1  0.125154  0.124144  0.125567  1
  Pd  Pd21  1  0.623558  0.124925  0.126594  1
  Pd  Pd22  1  0.125567  0.625135  0.125154  1
  Pd  Pd23  1  0.126593  0.124924  0.623559  1
  C  C24  1  0.617701  0.631708  0.625537  1
  C  C25  1  0.127513  0.625896  0.627330  1
  C  C26  1  0.625537  0.125055  0.617702  1
  C  C27  1  0.627329  0.619262  0.127513  1
