# generated using pymatgen
data_NaDy(AgTe2)4
_symmetry_space_group_name_H-M   'P 1'
_cell_length_a   12.01055058
_cell_length_b   12.01055055
_cell_length_c   11.00282800
_cell_angle_alpha   90.13345834
_cell_angle_beta   90.13345834
_cell_angle_gamma   14.87961710
_symmetry_Int_Tables_number   1
_chemical_formula_structural   NaDy(AgTe2)4
_chemical_formula_sum   'Na1 Dy1 Ag4 Te8'
_cell_volume   407.57295348
_cell_formula_units_Z   1
loop_
 _symmetry_equiv_pos_site_id
 _symmetry_equiv_pos_as_xyz
  1  'x, y, z'
loop_
 _atom_site_type_symbol
 _atom_site_label
 _atom_site_symmetry_multiplicity
 _atom_site_fract_x
 _atom_site_fract_y
 _atom_site_fract_z
 _atom_site_occupancy
  Na  Na0  1  0.000000  0.000000  0.000000  1
  Dy  Dy1  1  0.500000  0.500000  0.500000  1
  Ag  Ag2  1  0.246218  0.246218  0.128918  1
  Ag  Ag3  1  0.873336  0.873336  0.387959  1
  Ag  Ag4  1  0.126664  0.126664  0.612041  1
  Ag  Ag5  1  0.753782  0.753782  0.871082  1
  Te  Te6  1  0.904445  0.904445  0.632234  1
  Te  Te7  1  0.095555  0.095555  0.367766  1
  Te  Te8  1  0.552699  0.552699  0.777561  1
  Te  Te9  1  0.447301  0.447301  0.222439  1
  Te  Te10  1  0.649943  0.649943  0.005811  1
  Te  Te11  1  0.350057  0.350057  0.994189  1
  Te  Te12  1  0.758590  0.758590  0.352099  1
  Te  Te13  1  0.241410  0.241410  0.647901  1
