# generated using pymatgen
data_Ho3Hf2Zr(SnRh)6
_symmetry_space_group_name_H-M   'P 1'
_cell_length_a   7.48926736
_cell_length_b   7.47095300
_cell_length_c   7.50360500
_cell_angle_alpha   90.00000000
_cell_angle_beta   90.00000000
_cell_angle_gamma   119.92023207
_symmetry_Int_Tables_number   1
_chemical_formula_structural   Ho3Hf2Zr(SnRh)6
_chemical_formula_sum   'Ho3 Hf2 Zr1 Sn6 Rh6'
_cell_volume   363.88525449
_cell_formula_units_Z   1
loop_
 _symmetry_equiv_pos_site_id
 _symmetry_equiv_pos_as_xyz
  1  'x, y, z'
loop_
 _atom_site_type_symbol
 _atom_site_label
 _atom_site_symmetry_multiplicity
 _atom_site_fract_x
 _atom_site_fract_y
 _atom_site_fract_z
 _atom_site_occupancy
  Ho  Ho0  1  0.999720  0.405551  0.750000  1
  Ho  Ho1  1  0.594276  0.593959  0.750000  1
  Ho  Ho2  1  0.406014  0.000271  0.750000  1
  Hf  Hf3  1  0.607040  0.605659  0.250000  1
  Hf  Hf4  1  0.394291  0.001317  0.250000  1
  Zr  Zr5  1  0.998645  0.392588  0.250000  1
  Sn  Sn6  1  0.266099  0.267178  0.493620  1
  Sn  Sn7  1  0.001188  0.733707  0.494172  1
  Sn  Sn8  1  0.001188  0.733707  0.005828  1
  Sn  Sn9  1  0.732742  0.998765  0.493640  1
  Sn  Sn10  1  0.732742  0.998765  0.006360  1
  Sn  Sn11  1  0.266099  0.267178  0.006380  1
  Rh  Rh12  1  0.335919  0.668819  0.461663  1
  Rh  Rh13  1  0.664064  0.332889  0.464285  1
  Rh  Rh14  1  0.335919  0.668819  0.038337  1
  Rh  Rh15  1  0.000001  0.999730  0.750000  1
  Rh  Rh16  1  0.999991  0.998210  0.250000  1
  Rh  Rh17  1  0.664064  0.332889  0.035715  1
