# generated using pymatgen
data_GdMg3(B6Ru)2
_symmetry_space_group_name_H-M   'P 1'
_cell_length_a   3.52734600
_cell_length_b   8.89417488
_cell_length_c   11.14696065
_cell_angle_alpha   89.69618336
_cell_angle_beta   90.00000000
_cell_angle_gamma   90.00000000
_symmetry_Int_Tables_number   1
_chemical_formula_structural   GdMg3(B6Ru)2
_chemical_formula_sum   'Gd2 Mg6 B24 Ru4'
_cell_volume   349.70680959
_cell_formula_units_Z   2
loop_
 _symmetry_equiv_pos_site_id
 _symmetry_equiv_pos_as_xyz
  1  'x, y, z'
loop_
 _atom_site_type_symbol
 _atom_site_label
 _atom_site_symmetry_multiplicity
 _atom_site_fract_x
 _atom_site_fract_y
 _atom_site_fract_z
 _atom_site_occupancy
  Gd  Gd0  1  0.000000  0.321576  0.413355  1
  Gd  Gd1  1  0.000000  0.678424  0.586645  1
  Mg  Mg2  1  0.000000  0.829712  0.085981  1
  Mg  Mg3  1  0.000000  0.170288  0.914019  1
  Mg  Mg4  1  0.000000  0.944369  0.368093  1
  Mg  Mg5  1  0.000000  0.055631  0.631907  1
  Mg  Mg6  1  0.000000  0.443925  0.125573  1
  Mg  Mg7  1  0.000000  0.556075  0.874427  1
  B  B8  1  0.500000  0.556515  0.430894  1
  B  B9  1  0.500000  0.443485  0.569106  1
  B  B10  1  0.500000  0.054580  0.063508  1
  B  B11  1  0.500000  0.945420  0.936492  1
  B  B12  1  0.500000  0.756256  0.415358  1
  B  B13  1  0.500000  0.243744  0.584642  1
  B  B14  1  0.500000  0.255415  0.077024  1
  B  B15  1  0.500000  0.744585  0.922976  1
  B  B16  1  0.500000  0.797010  0.258698  1
  B  B17  1  0.500000  0.202990  0.741302  1
  B  B18  1  0.500000  0.294500  0.234591  1
  B  B19  1  0.500000  0.705500  0.765409  1
  B  B20  1  0.500000  0.631539  0.177818  1
  B  B21  1  0.500000  0.368461  0.822182  1
  B  B22  1  0.500000  0.128072  0.315363  1
  B  B23  1  0.500000  0.871928  0.684637  1
  B  B24  1  0.500000  0.980048  0.209435  1
  B  B25  1  0.500000  0.019952  0.790565  1
  B  B26  1  0.500000  0.481490  0.284303  1
  B  B27  1  0.500000  0.518510  0.715697  1
  B  B28  1  0.500000  0.591981  0.024493  1
  B  B29  1  0.500000  0.408019  0.975507  1
  B  B30  1  0.500000  0.092383  0.474656  1
  B  B31  1  0.500000  0.907617  0.525344  1
  Ru  Ru32  1  0.000000  0.642656  0.312804  1
  Ru  Ru33  1  0.000000  0.357344  0.687196  1
  Ru  Ru34  1  0.000000  0.141426  0.175536  1
  Ru  Ru35  1  0.000000  0.858574  0.824464  1
