# generated using pymatgen
data_Tm16MgCd(Ni2Hg)2
_symmetry_space_group_name_H-M   'P 1'
_cell_length_a   9.44043173
_cell_length_b   9.39837226
_cell_length_c   9.39837158
_cell_angle_alpha   59.90978111
_cell_angle_beta   59.88028230
_cell_angle_gamma   59.88028079
_symmetry_Int_Tables_number   1
_chemical_formula_structural   Tm16MgCd(Ni2Hg)2
_chemical_formula_sum   'Tm16 Mg1 Cd1 Ni4 Hg2'
_cell_volume   588.16333515
_cell_formula_units_Z   1
loop_
 _symmetry_equiv_pos_site_id
 _symmetry_equiv_pos_as_xyz
  1  'x, y, z'
loop_
 _atom_site_type_symbol
 _atom_site_label
 _atom_site_symmetry_multiplicity
 _atom_site_fract_x
 _atom_site_fract_y
 _atom_site_fract_z
 _atom_site_occupancy
  Tm  Tm0  1  0.600043  0.597154  0.597154  1
  Tm  Tm1  1  0.597909  0.596985  0.208841  1
  Tm  Tm2  1  0.597909  0.208841  0.596985  1
  Tm  Tm3  1  0.197258  0.599918  0.599918  1
  Tm  Tm4  1  0.058897  0.440219  0.440219  1
  Tm  Tm5  1  0.436770  0.062962  0.062962  1
  Tm  Tm6  1  0.436539  0.062452  0.438756  1
  Tm  Tm7  1  0.059361  0.439579  0.061453  1
  Tm  Tm8  1  0.436539  0.438756  0.062452  1
  Tm  Tm9  1  0.059361  0.061453  0.439579  1
  Tm  Tm10  1  0.186227  0.813778  0.813778  1
  Tm  Tm11  1  0.813556  0.186576  0.186576  1
  Tm  Tm12  1  0.814529  0.186861  0.814751  1
  Tm  Tm13  1  0.185934  0.814344  0.185699  1
  Tm  Tm14  1  0.814529  0.814751  0.186861  1
  Tm  Tm15  1  0.185934  0.185699  0.814344  1
  Mg  Mg16  1  0.529697  0.822285  0.822285  1
  Cd  Cd17  1  0.832046  0.832371  0.832371  1
  Ni  Ni18  1  0.389077  0.393412  0.393412  1
  Ni  Ni19  1  0.389129  0.395073  0.822770  1
  Ni  Ni20  1  0.389129  0.822770  0.395073  1
  Ni  Ni21  1  0.822768  0.393351  0.393351  1
  Hg  Hg22  1  0.833429  0.837705  0.492707  1
  Hg  Hg23  1  0.833429  0.492707  0.837705  1
