# generated using pymatgen
data_BH4F7
_symmetry_space_group_name_H-M   'P 1'
_cell_length_a   5.24115879
_cell_length_b   4.61994126
_cell_length_c   6.03512212
_cell_angle_alpha   85.40991847
_cell_angle_beta   88.40455298
_cell_angle_gamma   66.69604801
_symmetry_Int_Tables_number   1
_chemical_formula_structural   BH4F7
_chemical_formula_sum   'B1 H4 F7'
_cell_volume   133.78019745
_cell_formula_units_Z   1
loop_
 _symmetry_equiv_pos_site_id
 _symmetry_equiv_pos_as_xyz
  1  'x, y, z'
loop_
 _atom_site_type_symbol
 _atom_site_label
 _atom_site_symmetry_multiplicity
 _atom_site_fract_x
 _atom_site_fract_y
 _atom_site_fract_z
 _atom_site_occupancy
  B  B0  1  0.750650  0.875246  0.506194  1
  H  H1  1  0.991601  0.253691  0.027489  1
  H  H2  1  0.210861  0.490648  0.927616  1
  H  H3  1  0.754630  0.029333  0.126979  1
  H  H4  1  0.151482  0.794699  0.686239  1
  F  F5  1  0.786107  0.615196  0.647845  1
  F  F6  1  0.771772  0.200625  0.015927  1
  F  F7  1  0.739028  0.805493  0.275502  1
  F  F8  1  0.528840  0.145992  0.548604  1
  F  F9  1  0.257492  0.691472  0.842294  1
  F  F10  1  0.180085  0.286298  0.039207  1
  F  F11  1  0.015107  0.929461  0.515491  1
