# generated using pymatgen
data_Na4GdSbO6
_symmetry_space_group_name_H-M   'P 1'
_cell_length_a   5.79846908
_cell_length_b   5.79846902
_cell_length_c   5.87323999
_cell_angle_alpha   99.84168042
_cell_angle_beta   99.84168376
_cell_angle_gamma   119.79957626
_symmetry_Int_Tables_number   1
_chemical_formula_structural   Na4GdSbO6
_chemical_formula_sum   'Na4 Gd1 Sb1 O6'
_cell_volume   161.10008303
_cell_formula_units_Z   1
loop_
 _symmetry_equiv_pos_site_id
 _symmetry_equiv_pos_as_xyz
  1  'x, y, z'
loop_
 _atom_site_type_symbol
 _atom_site_label
 _atom_site_symmetry_multiplicity
 _atom_site_fract_x
 _atom_site_fract_y
 _atom_site_fract_z
 _atom_site_occupancy
  Na  Na0  1  0.499438  0.500563  0.000000  1
  Na  Na1  1  0.009506  0.990492  0.499999  1
  Na  Na2  1  0.656719  0.343279  0.499999  1
  Na  Na3  1  0.336173  0.663825  0.499999  1
  Gd  Gd4  1  0.833042  0.166959  0.000000  1
  Sb  Sb5  1  0.167170  0.832831  0.000000  1
  O  O6  1  0.222172  0.188765  0.215140  1
  O  O7  1  0.538185  0.922024  0.215324  1
  O  O8  1  0.955341  0.606962  0.207195  1
  O  O9  1  0.393039  0.044659  0.792805  1
  O  O10  1  0.077975  0.461813  0.784676  1
  O  O11  1  0.811233  0.777827  0.784860  1
