# generated using pymatgen
data_ThUBiN2
_symmetry_space_group_name_H-M   'P 1'
_cell_length_a   7.14092490
_cell_length_b   7.14092462
_cell_length_c   7.14092450
_cell_angle_alpha   147.63811693
_cell_angle_beta   147.63811169
_cell_angle_gamma   46.41986911
_symmetry_Int_Tables_number   1
_chemical_formula_structural   ThUBiN2
_chemical_formula_sum   'Th1 U1 Bi1 N2'
_cell_volume   103.95759476
_cell_formula_units_Z   1
loop_
 _symmetry_equiv_pos_site_id
 _symmetry_equiv_pos_as_xyz
  1  'x, y, z'
loop_
 _atom_site_type_symbol
 _atom_site_label
 _atom_site_symmetry_multiplicity
 _atom_site_fract_x
 _atom_site_fract_y
 _atom_site_fract_z
 _atom_site_occupancy
  Th  Th0  1  0.658605  0.658605  0.000000  1
  U  U1  1  0.335051  0.335051  0.000000  1
  Bi  Bi2  1  0.992523  0.992523  0.000000  1
  N  N3  1  0.256910  0.756910  0.500000  1
  N  N4  1  0.756910  0.256910  0.500000  1
