# generated using pymatgen
data_Tl2TcCl6
_symmetry_space_group_name_H-M   'P 1'
_cell_length_a   7.01706924
_cell_length_b   7.01706928
_cell_length_c   7.01706900
_cell_angle_alpha   59.99999659
_cell_angle_beta   59.99999641
_cell_angle_gamma   60.00000051
_symmetry_Int_Tables_number   1
_chemical_formula_structural   Tl2TcCl6
_chemical_formula_sum   'Tl2 Tc1 Cl6'
_cell_volume   244.31619380
_cell_formula_units_Z   1
loop_
 _symmetry_equiv_pos_site_id
 _symmetry_equiv_pos_as_xyz
  1  'x, y, z'
loop_
 _atom_site_type_symbol
 _atom_site_label
 _atom_site_symmetry_multiplicity
 _atom_site_fract_x
 _atom_site_fract_y
 _atom_site_fract_z
 _atom_site_occupancy
  Tl  Tl0  1  0.249999  0.249999  0.249999  1
  Tl  Tl1  1  0.750000  0.750000  0.750000  1
  Tc  Tc2  1  0.000000  0.000000  0.000000  1
  Cl  Cl3  1  0.761521  0.761521  0.238479  1
  Cl  Cl4  1  0.761519  0.238481  0.238479  1
  Cl  Cl5  1  0.238481  0.761519  0.238479  1
  Cl  Cl6  1  0.238479  0.238479  0.761520  1
  Cl  Cl7  1  0.761521  0.238479  0.761521  1
  Cl  Cl8  1  0.238479  0.761521  0.761521  1
