# generated using pymatgen
data_Tb2Dy14In4IrPt3
_symmetry_space_group_name_H-M   'P 1'
_cell_length_a   9.71323502
_cell_length_b   9.71880030
_cell_length_c   9.69793100
_cell_angle_alpha   60.07099692
_cell_angle_beta   60.05209601
_cell_angle_gamma   60.14176091
_symmetry_Int_Tables_number   1
_chemical_formula_structural   Tb2Dy14In4IrPt3
_chemical_formula_sum   'Tb2 Dy14 In4 Ir1 Pt3'
_cell_volume   648.64638558
_cell_formula_units_Z   1
loop_
 _symmetry_equiv_pos_site_id
 _symmetry_equiv_pos_as_xyz
  1  'x, y, z'
loop_
 _atom_site_type_symbol
 _atom_site_label
 _atom_site_symmetry_multiplicity
 _atom_site_fract_x
 _atom_site_fract_y
 _atom_site_fract_z
 _atom_site_occupancy
  Tb  Tb0  1  0.603001  0.598393  0.598635  1
  Tb  Tb1  1  0.603001  0.598393  0.199972  1
  Dy  Dy2  1  0.604362  0.197702  0.598968  1
  Dy  Dy3  1  0.193960  0.602310  0.601865  1
  Dy  Dy4  1  0.056687  0.441194  0.439989  1
  Dy  Dy5  1  0.441744  0.059265  0.058377  1
  Dy  Dy6  1  0.441744  0.059265  0.440615  1
  Dy  Dy7  1  0.056687  0.441194  0.062130  1
  Dy  Dy8  1  0.440521  0.441025  0.059227  1
  Dy  Dy9  1  0.055628  0.062427  0.440973  1
  Dy  Dy10  1  0.187626  0.811733  0.812511  1
  Dy  Dy11  1  0.813577  0.187359  0.188694  1
  Dy  Dy12  1  0.813577  0.187359  0.810371  1
  Dy  Dy13  1  0.187626  0.811733  0.188131  1
  Dy  Dy14  1  0.814887  0.811251  0.186931  1
  Dy  Dy15  1  0.188980  0.188307  0.811357  1
  In  In16  1  0.833279  0.833855  0.832940  1
  In  In17  1  0.833279  0.833855  0.499927  1
  In  In18  1  0.833286  0.501349  0.832683  1
  In  In19  1  0.501477  0.833260  0.832632  1
  Ir  Ir20  1  0.824216  0.390440  0.392672  1
  Pt  Pt21  1  0.390707  0.392291  0.394764  1
  Pt  Pt22  1  0.390707  0.392291  0.822239  1
  Pt  Pt23  1  0.389446  0.823752  0.393401  1
