# generated using pymatgen
data_Y3Er7(Ga2Bi)2
_symmetry_space_group_name_H-M   'P 1'
_cell_length_a   8.70009570
_cell_length_b   8.73127286
_cell_length_c   6.54371100
_cell_angle_alpha   90.00000000
_cell_angle_beta   90.00000000
_cell_angle_gamma   120.15317082
_symmetry_Int_Tables_number   1
_chemical_formula_structural   Y3Er7(Ga2Bi)2
_chemical_formula_sum   'Y3 Er7 Ga4 Bi2'
_cell_volume   429.81735676
_cell_formula_units_Z   1
loop_
 _symmetry_equiv_pos_site_id
 _symmetry_equiv_pos_as_xyz
  1  'x, y, z'
loop_
 _atom_site_type_symbol
 _atom_site_label
 _atom_site_symmetry_multiplicity
 _atom_site_fract_x
 _atom_site_fract_y
 _atom_site_fract_z
 _atom_site_occupancy
  Y  Y0  1  0.982877  0.234155  0.250000  1
  Y  Y1  1  0.767847  0.768501  0.250000  1
  Y  Y2  1  0.234043  0.983230  0.250000  1
  Er  Er3  1  0.982385  0.748551  0.750000  1
  Er  Er4  1  0.768454  0.999390  0.750000  1
  Er  Er5  1  0.233606  0.250903  0.750000  1
  Er  Er6  1  0.329870  0.664844  0.500320  1
  Er  Er7  1  0.692177  0.346215  0.999648  1
  Er  Er8  1  0.692177  0.346215  0.500352  1
  Er  Er9  1  0.329870  0.664844  0.999680  1
  Ga  Ga10  1  0.001596  0.600727  0.250000  1
  Ga  Ga11  1  0.001744  0.400419  0.750000  1
  Ga  Ga12  1  0.596475  0.601239  0.750000  1
  Ga  Ga13  1  0.595971  0.995071  0.250000  1
  Bi  Bi14  1  0.395243  0.006132  0.750000  1
  Bi  Bi15  1  0.395668  0.389565  0.250000  1
