# generated using pymatgen
data_Co8Si3Mo12AsC4
_symmetry_space_group_name_H-M   'P 1'
_cell_length_a   7.85027943
_cell_length_b   7.86126402
_cell_length_c   7.86126500
_cell_angle_alpha   60.00000007
_cell_angle_beta   59.95370209
_cell_angle_gamma   59.95369812
_symmetry_Int_Tables_number   1
_chemical_formula_structural   Co8Si3Mo12AsC4
_chemical_formula_sum   'Co8 Si3 Mo12 As1 C4'
_cell_volume   342.80776654
_cell_formula_units_Z   1
loop_
 _symmetry_equiv_pos_site_id
 _symmetry_equiv_pos_as_xyz
  1  'x, y, z'
loop_
 _atom_site_type_symbol
 _atom_site_label
 _atom_site_symmetry_multiplicity
 _atom_site_fract_x
 _atom_site_fract_y
 _atom_site_fract_z
 _atom_site_occupancy
  Co  Co0  1  0.921498  0.246469  0.916016  1
  Co  Co1  1  0.328502  0.333984  0.003531  1
  Co  Co2  1  0.006587  0.331138  0.331138  1
  Co  Co3  1  0.328502  0.333984  0.333984  1
  Co  Co4  1  0.243413  0.918862  0.918862  1
  Co  Co5  1  0.921498  0.916016  0.916016  1
  Co  Co6  1  0.921498  0.916016  0.246469  1
  Co  Co7  1  0.328502  0.003531  0.333984  1
  Si  Si8  1  0.125000  0.625000  0.125000  1
  Si  Si9  1  0.125000  0.125000  0.625000  1
  Si  Si10  1  0.125000  0.125000  0.125000  1
  Mo  Mo11  1  0.945416  0.944712  0.554936  1
  Mo  Mo12  1  0.694732  0.307245  0.307245  1
  Mo  Mo13  1  0.304584  0.695064  0.695064  1
  Mo  Mo14  1  0.694732  0.690778  0.307245  1
  Mo  Mo15  1  0.694732  0.307245  0.690778  1
  Mo  Mo16  1  0.304584  0.695064  0.305288  1
  Mo  Mo17  1  0.555268  0.942755  0.559222  1
  Mo  Mo18  1  0.555268  0.942755  0.942755  1
  Mo  Mo19  1  0.945416  0.554936  0.554936  1
  Mo  Mo20  1  0.945416  0.554936  0.944712  1
  Mo  Mo21  1  0.304584  0.305288  0.695064  1
  Mo  Mo22  1  0.555268  0.559222  0.942755  1
  As  As23  1  0.625000  0.125000  0.125000  1
  C  C24  1  0.625000  0.125000  0.625000  1
  C  C25  1  0.625000  0.625000  0.125000  1
  C  C26  1  0.125000  0.625000  0.625000  1
  C  C27  1  0.625000  0.625000  0.625000  1
