# generated using pymatgen
data_La2PIrI2
_symmetry_space_group_name_H-M   'P 1'
_cell_length_a   4.32008500
_cell_length_b   4.32008394
_cell_length_c   11.70161100
_cell_angle_alpha   90.00000000
_cell_angle_beta   90.00000000
_cell_angle_gamma   119.99998514
_symmetry_Int_Tables_number   1
_chemical_formula_structural   La2PIrI2
_chemical_formula_sum   'La2 P1 Ir1 I2'
_cell_volume   189.13017774
_cell_formula_units_Z   1
loop_
 _symmetry_equiv_pos_site_id
 _symmetry_equiv_pos_as_xyz
  1  'x, y, z'
loop_
 _atom_site_type_symbol
 _atom_site_label
 _atom_site_symmetry_multiplicity
 _atom_site_fract_x
 _atom_site_fract_y
 _atom_site_fract_z
 _atom_site_occupancy
  La  La0  1  0.000000  0.000000  0.156895  1
  La  La1  1  0.000000  0.000000  0.841705  1
  P  P2  1  0.666667  0.333333  0.989989  1
  Ir  Ir3  1  0.333333  0.666667  0.007455  1
  I  I4  1  0.333333  0.666667  0.656511  1
  I  I5  1  0.666667  0.333333  0.347446  1
