# generated using pymatgen
data_PaTl4VCl12
_symmetry_space_group_name_H-M   'P 1'
_cell_length_a   7.29871900
_cell_length_b   7.29871900
_cell_length_c   10.58948400
_cell_angle_alpha   90.00000000
_cell_angle_beta   90.00000000
_cell_angle_gamma   90.00000000
_symmetry_Int_Tables_number   1
_chemical_formula_structural   PaTl4VCl12
_chemical_formula_sum   'Pa1 Tl4 V1 Cl12'
_cell_volume   564.11556885
_cell_formula_units_Z   1
loop_
 _symmetry_equiv_pos_site_id
 _symmetry_equiv_pos_as_xyz
  1  'x, y, z'
loop_
 _atom_site_type_symbol
 _atom_site_label
 _atom_site_symmetry_multiplicity
 _atom_site_fract_x
 _atom_site_fract_y
 _atom_site_fract_z
 _atom_site_occupancy
  Pa  Pa0  1  0.500000  0.500000  0.500000  1
  Tl  Tl1  1  0.500000  0.000000  0.804241  1
  Tl  Tl2  1  0.000000  0.500000  0.195759  1
  Tl  Tl3  1  0.500000  0.000000  0.195759  1
  Tl  Tl4  1  0.000000  0.500000  0.804241  1
  V  V5  1  0.000000  0.000000  0.000000  1
  Cl  Cl6  1  0.000000  0.000000  0.779652  1
  Cl  Cl7  1  0.500000  0.500000  0.255958  1
  Cl  Cl8  1  0.746214  0.746214  0.500000  1
  Cl  Cl9  1  0.235742  0.235742  0.000000  1
  Cl  Cl10  1  0.746214  0.253786  0.500000  1
  Cl  Cl11  1  0.235742  0.764258  0.000000  1
  Cl  Cl12  1  0.000000  0.000000  0.220348  1
  Cl  Cl13  1  0.500000  0.500000  0.744042  1
  Cl  Cl14  1  0.253786  0.253786  0.500000  1
  Cl  Cl15  1  0.764258  0.764258  0.000000  1
  Cl  Cl16  1  0.253786  0.746214  0.500000  1
  Cl  Cl17  1  0.764258  0.235742  0.000000  1
