# generated using pymatgen
data_Tb4Er16Fe3CoSb8
_symmetry_space_group_name_H-M   'P 1'
_cell_length_a   7.81635137
_cell_length_b   8.77014100
_cell_length_c   12.10767051
_cell_angle_alpha   90.00000000
_cell_angle_beta   90.06230906
_cell_angle_gamma   90.00000000
_symmetry_Int_Tables_number   1
_chemical_formula_structural   Tb4Er16Fe3CoSb8
_chemical_formula_sum   'Tb4 Er16 Fe3 Co1 Sb8'
_cell_volume   829.98642016
_cell_formula_units_Z   1
loop_
 _symmetry_equiv_pos_site_id
 _symmetry_equiv_pos_as_xyz
  1  'x, y, z'
loop_
 _atom_site_type_symbol
 _atom_site_label
 _atom_site_symmetry_multiplicity
 _atom_site_fract_x
 _atom_site_fract_y
 _atom_site_fract_z
 _atom_site_occupancy
  Tb  Tb0  1  0.624483  0.750000  0.306058  1
  Tb  Tb1  1  0.124392  0.250000  0.193287  1
  Tb  Tb2  1  0.378118  0.250000  0.693098  1
  Tb  Tb3  1  0.876196  0.750000  0.807584  1
  Er  Er4  1  0.157491  0.750000  0.206601  1
  Er  Er5  1  0.656647  0.250000  0.293840  1
  Er  Er6  1  0.843596  0.250000  0.796274  1
  Er  Er7  1  0.345634  0.750000  0.702127  1
  Er  Er8  1  0.446567  0.750000  0.996121  1
  Er  Er9  1  0.945337  0.250000  0.504472  1
  Er  Er10  1  0.549764  0.250000  0.003669  1
  Er  Er11  1  0.051073  0.750000  0.496460  1
  Er  Er12  1  0.825072  0.966345  0.064726  1
  Er  Er13  1  0.324804  0.035647  0.435990  1
  Er  Er14  1  0.177583  0.459737  0.934438  1
  Er  Er15  1  0.676114  0.537051  0.564084  1
  Er  Er16  1  0.177583  0.040263  0.934438  1
  Er  Er17  1  0.676114  0.962949  0.564084  1
  Er  Er18  1  0.825072  0.533655  0.064726  1
  Er  Er19  1  0.324804  0.464353  0.435990  1
  Fe  Fe20  1  0.425592  0.750000  0.486767  1
  Fe  Fe21  1  0.927640  0.250000  0.011367  1
  Fe  Fe22  1  0.571765  0.250000  0.509578  1
  Co  Co23  1  0.068359  0.750000  0.992213  1
  Sb  Sb24  1  0.930816  0.993100  0.329040  1
  Sb  Sb25  1  0.430434  0.006868  0.171282  1
  Sb  Sb26  1  0.069696  0.492490  0.672032  1
  Sb  Sb27  1  0.569153  0.508139  0.828651  1
  Sb  Sb28  1  0.069696  0.007510  0.672032  1
  Sb  Sb29  1  0.569153  0.991861  0.828651  1
  Sb  Sb30  1  0.930816  0.506900  0.329040  1
  Sb  Sb31  1  0.430434  0.493132  0.171282  1
