# generated using pymatgen
data_Y3Tm13(AlRh)4
_symmetry_space_group_name_H-M   'P 1'
_cell_length_a   9.42619277
_cell_length_b   9.42057788
_cell_length_c   9.42941967
_cell_angle_alpha   60.00836898
_cell_angle_beta   59.94928088
_cell_angle_gamma   59.97666422
_symmetry_Int_Tables_number   1
_chemical_formula_structural   Y3Tm13(AlRh)4
_chemical_formula_sum   'Y3 Tm13 Al4 Rh4'
_cell_volume   591.79040676
_cell_formula_units_Z   1
loop_
 _symmetry_equiv_pos_site_id
 _symmetry_equiv_pos_as_xyz
  1  'x, y, z'
loop_
 _atom_site_type_symbol
 _atom_site_label
 _atom_site_symmetry_multiplicity
 _atom_site_fract_x
 _atom_site_fract_y
 _atom_site_fract_z
 _atom_site_occupancy
  Y  Y0  1  0.062882  0.062882  0.437118  1
  Y  Y1  1  0.436646  0.064077  0.436434  1
  Y  Y2  1  0.064077  0.436646  0.062842  1
  Tm  Tm3  1  0.058376  0.645787  0.647616  1
  Tm  Tm4  1  0.437485  0.437485  0.062515  1
  Tm  Tm5  1  0.645787  0.058376  0.648224  1
  Tm  Tm6  1  0.193541  0.807000  0.191761  1
  Tm  Tm7  1  0.192332  0.192332  0.807668  1
  Tm  Tm8  1  0.807299  0.807299  0.192701  1
  Tm  Tm9  1  0.437969  0.062557  0.061537  1
  Tm  Tm10  1  0.807199  0.193346  0.191561  1
  Tm  Tm11  1  0.062557  0.437969  0.437937  1
  Tm  Tm12  1  0.807000  0.193541  0.807699  1
  Tm  Tm13  1  0.193346  0.807199  0.807894  1
  Tm  Tm14  1  0.646864  0.647319  0.056728  1
  Tm  Tm15  1  0.647319  0.646864  0.649092  1
  Al  Al16  1  0.421758  0.422067  0.421889  1
  Al  Al17  1  0.733300  0.422253  0.422401  1
  Al  Al18  1  0.422253  0.733300  0.422046  1
  Al  Al19  1  0.422067  0.421758  0.734286  1
  Rh  Rh20  1  0.857824  0.856753  0.427912  1
  Rh  Rh21  1  0.856753  0.857824  0.857509  1
  Rh  Rh22  1  0.428284  0.857084  0.857850  1
  Rh  Rh23  1  0.857084  0.428284  0.856781  1
