# generated using pymatgen
data_Pr2Al2CuSi2Au3
_symmetry_space_group_name_H-M   'P 1'
_cell_length_a   4.27070500
_cell_length_b   4.27070500
_cell_length_c   10.69417000
_cell_angle_alpha   90.00000000
_cell_angle_beta   90.00000000
_cell_angle_gamma   90.00000000
_symmetry_Int_Tables_number   1
_chemical_formula_structural   Pr2Al2CuSi2Au3
_chemical_formula_sum   'Pr2 Al2 Cu1 Si2 Au3'
_cell_volume   195.05012390
_cell_formula_units_Z   1
loop_
 _symmetry_equiv_pos_site_id
 _symmetry_equiv_pos_as_xyz
  1  'x, y, z'
loop_
 _atom_site_type_symbol
 _atom_site_label
 _atom_site_symmetry_multiplicity
 _atom_site_fract_x
 _atom_site_fract_y
 _atom_site_fract_z
 _atom_site_occupancy
  Pr  Pr0  1  0.000000  0.500000  0.232885  1
  Pr  Pr1  1  0.500000  0.000000  0.767115  1
  Al  Al2  1  0.000000  0.000000  0.500000  1
  Al  Al3  1  0.500000  0.500000  0.500000  1
  Cu  Cu4  1  0.000000  0.000000  0.000000  1
  Si  Si5  1  0.000000  0.500000  0.871093  1
  Si  Si6  1  0.500000  0.000000  0.128907  1
  Au  Au7  1  0.500000  0.500000  0.000000  1
  Au  Au8  1  0.000000  0.500000  0.638188  1
  Au  Au9  1  0.500000  0.000000  0.361812  1
