# generated using pymatgen
data_PaTaF10
_symmetry_space_group_name_H-M   'P 1'
_cell_length_a   9.24263128
_cell_length_b   9.24263157
_cell_length_c   5.37076836
_cell_angle_alpha   86.14629771
_cell_angle_beta   86.14630744
_cell_angle_gamma   112.78882927
_symmetry_Int_Tables_number   1
_chemical_formula_structural   PaTaF10
_chemical_formula_sum   'Pa2 Ta2 F20'
_cell_volume   419.85943990
_cell_formula_units_Z   2
loop_
 _symmetry_equiv_pos_site_id
 _symmetry_equiv_pos_as_xyz
  1  'x, y, z'
loop_
 _atom_site_type_symbol
 _atom_site_label
 _atom_site_symmetry_multiplicity
 _atom_site_fract_x
 _atom_site_fract_y
 _atom_site_fract_z
 _atom_site_occupancy
  Pa  Pa0  1  0.745317  0.745317  0.749917  1
  Pa  Pa1  1  0.254683  0.254683  0.250083  1
  Ta  Ta2  1  0.204277  0.795723  0.000000  1
  Ta  Ta3  1  0.795723  0.204277  0.000000  1
  F  F4  1  0.398705  0.831407  0.117454  1
  F  F5  1  0.168593  0.601295  0.882546  1
  F  F6  1  0.601295  0.168593  0.882546  1
  F  F7  1  0.831407  0.398705  0.117454  1
  F  F8  1  0.135384  0.135384  0.586668  1
  F  F9  1  0.864616  0.864616  0.413332  1
  F  F10  1  0.353015  0.353015  0.893333  1
  F  F11  1  0.646985  0.646985  0.106667  1
  F  F12  1  0.270150  0.469718  0.350249  1
  F  F13  1  0.530282  0.729850  0.649751  1
  F  F14  1  0.729850  0.530282  0.649751  1
  F  F15  1  0.469718  0.270150  0.350249  1
  F  F16  1  0.011423  0.216788  0.115482  1
  F  F17  1  0.783212  0.988577  0.884518  1
  F  F18  1  0.988577  0.783212  0.884518  1
  F  F19  1  0.216788  0.011423  0.115482  1
  F  F20  1  0.916790  0.286537  0.687310  1
  F  F21  1  0.713463  0.083210  0.312690  1
  F  F22  1  0.083210  0.713463  0.312690  1
  F  F23  1  0.286537  0.916790  0.687310  1
