# generated using pymatgen
data_Dy3ZnP6N13
_symmetry_space_group_name_H-M   'P 1'
_cell_length_a   7.30543881
_cell_length_b   7.30543978
_cell_length_c   7.30544000
_cell_angle_alpha   108.88031949
_cell_angle_beta   108.88032210
_cell_angle_gamma   108.88031184
_symmetry_Int_Tables_number   1
_chemical_formula_structural   Dy3ZnP6N13
_chemical_formula_sum   'Dy3 Zn1 P6 N13'
_cell_volume   306.52574622
_cell_formula_units_Z   1
loop_
 _symmetry_equiv_pos_site_id
 _symmetry_equiv_pos_as_xyz
  1  'x, y, z'
loop_
 _atom_site_type_symbol
 _atom_site_label
 _atom_site_symmetry_multiplicity
 _atom_site_fract_x
 _atom_site_fract_y
 _atom_site_fract_z
 _atom_site_occupancy
  Dy  Dy0  1  0.701058  0.009667  0.009667  1
  Dy  Dy1  1  0.009667  0.009667  0.701058  1
  Dy  Dy2  1  0.009667  0.701058  0.009667  1
  Zn  Zn3  1  0.276260  0.276260  0.276260  1
  P  P4  1  0.255802  0.759030  0.509396  1
  P  P5  1  0.759030  0.255802  0.509396  1
  P  P6  1  0.759030  0.509396  0.255802  1
  P  P7  1  0.255802  0.509396  0.759030  1
  P  P8  1  0.509396  0.759030  0.255802  1
  P  P9  1  0.509396  0.255802  0.759030  1
  N  N10  1  0.853318  0.853318  0.853318  1
  N  N11  1  0.745836  0.309748  0.309748  1
  N  N12  1  0.309748  0.745836  0.309748  1
  N  N13  1  0.282708  0.578025  0.578025  1
  N  N14  1  0.578025  0.578025  0.282708  1
  N  N15  1  0.412131  0.732989  0.003623  1
  N  N16  1  0.003623  0.732989  0.412131  1
  N  N17  1  0.578025  0.282708  0.578025  1
  N  N18  1  0.732989  0.003623  0.412131  1
  N  N19  1  0.412131  0.003623  0.732989  1
  N  N20  1  0.732989  0.412131  0.003623  1
  N  N21  1  0.309748  0.309748  0.745836  1
  N  N22  1  0.003623  0.412131  0.732989  1
