# generated using pymatgen
data_Zr3Al2NiN
_symmetry_space_group_name_H-M   'P 1'
_cell_length_a   8.53518608
_cell_length_b   8.53518586
_cell_length_c   8.53518600
_cell_angle_alpha   59.99999945
_cell_angle_beta   60.00000033
_cell_angle_gamma   59.99999934
_symmetry_Int_Tables_number   1
_chemical_formula_structural   Zr3Al2NiN
_chemical_formula_sum   'Zr12 Al8 Ni4 N4'
_cell_volume   439.66709668
_cell_formula_units_Z   4
loop_
 _symmetry_equiv_pos_site_id
 _symmetry_equiv_pos_as_xyz
  1  'x, y, z'
loop_
 _atom_site_type_symbol
 _atom_site_label
 _atom_site_symmetry_multiplicity
 _atom_site_fract_x
 _atom_site_fract_y
 _atom_site_fract_z
 _atom_site_occupancy
  Zr  Zr0  1  0.560027  0.939973  0.560027  1
  Zr  Zr1  1  0.310027  0.689973  0.689973  1
  Zr  Zr2  1  0.689973  0.310027  0.310027  1
  Zr  Zr3  1  0.310027  0.689973  0.310027  1
  Zr  Zr4  1  0.689973  0.689973  0.310027  1
  Zr  Zr5  1  0.310027  0.310027  0.689973  1
  Zr  Zr6  1  0.560027  0.560027  0.939973  1
  Zr  Zr7  1  0.939973  0.560027  0.560027  1
  Zr  Zr8  1  0.560027  0.939973  0.939973  1
  Zr  Zr9  1  0.939973  0.939973  0.560027  1
  Zr  Zr10  1  0.689973  0.310027  0.689973  1
  Zr  Zr11  1  0.939973  0.560027  0.939973  1
  Al  Al12  1  0.920556  0.920556  0.920556  1
  Al  Al13  1  0.011670  0.329444  0.329444  1
  Al  Al14  1  0.329444  0.011670  0.329444  1
  Al  Al15  1  0.329444  0.329444  0.011670  1
  Al  Al16  1  0.920556  0.238330  0.920556  1
  Al  Al17  1  0.920556  0.920556  0.238330  1
  Al  Al18  1  0.238330  0.920556  0.920556  1
  Al  Al19  1  0.329444  0.329444  0.329444  1
  Ni  Ni20  1  0.125000  0.125000  0.125000  1
  Ni  Ni21  1  0.625000  0.125000  0.125000  1
  Ni  Ni22  1  0.125000  0.625000  0.125000  1
  Ni  Ni23  1  0.125000  0.125000  0.625000  1
  N  N24  1  0.625000  0.625000  0.625000  1
  N  N25  1  0.125000  0.625000  0.625000  1
  N  N26  1  0.625000  0.125000  0.625000  1
  N  N27  1  0.625000  0.625000  0.125000  1
