# generated using pymatgen
data_Rb7TaIn3As5
_symmetry_space_group_name_H-M   'P 1'
_cell_length_a   8.70928556
_cell_length_b   9.63621326
_cell_length_c   14.56259667
_cell_angle_alpha   85.56700624
_cell_angle_beta   84.08001269
_cell_angle_gamma   86.94247136
_symmetry_Int_Tables_number   1
_chemical_formula_structural   Rb7TaIn3As5
_chemical_formula_sum   'Rb14 Ta2 In6 As10'
_cell_volume   1210.73563906
_cell_formula_units_Z   2
loop_
 _symmetry_equiv_pos_site_id
 _symmetry_equiv_pos_as_xyz
  1  'x, y, z'
loop_
 _atom_site_type_symbol
 _atom_site_label
 _atom_site_symmetry_multiplicity
 _atom_site_fract_x
 _atom_site_fract_y
 _atom_site_fract_z
 _atom_site_occupancy
  Rb  Rb0  1  0.828759  0.366552  0.643949  1
  Rb  Rb1  1  0.815318  0.812283  0.131383  1
  Rb  Rb2  1  0.242876  0.006687  0.467420  1
  Rb  Rb3  1  0.270244  0.255194  0.252475  1
  Rb  Rb4  1  0.741233  0.500685  0.973679  1
  Rb  Rb5  1  0.258767  0.499315  0.026321  1
  Rb  Rb6  1  0.688879  0.082776  0.883813  1
  Rb  Rb7  1  0.757124  0.993313  0.532580  1
  Rb  Rb8  1  0.729756  0.744806  0.747525  1
  Rb  Rb9  1  0.321837  0.336758  0.604114  1
  Rb  Rb10  1  0.171241  0.633448  0.356051  1
  Rb  Rb11  1  0.184682  0.187717  0.868617  1
  Rb  Rb12  1  0.311121  0.917224  0.116187  1
  Rb  Rb13  1  0.678163  0.663242  0.395886  1
  Ta  Ta14  1  0.353541  0.603612  0.773227  1
  Ta  Ta15  1  0.646459  0.396388  0.226773  1
  In  In16  1  0.056085  0.814932  0.871600  1
  In  In17  1  0.943915  0.185068  0.128400  1
  In  In18  1  0.367941  0.953123  0.700699  1
  In  In19  1  0.091335  0.720325  0.621278  1
  In  In20  1  0.908665  0.279675  0.378722  1
  In  In21  1  0.632059  0.046877  0.299301  1
  As  As22  1  0.926281  0.454875  0.209005  1
  As  As23  1  0.618056  0.199219  0.123391  1
  As  As24  1  0.073719  0.545125  0.790995  1
  As  As25  1  0.580326  0.300561  0.392517  1
  As  As26  1  0.419674  0.699439  0.607483  1
  As  As27  1  0.030270  0.996899  0.700467  1
  As  As28  1  0.514600  0.398089  0.810751  1
  As  As29  1  0.485400  0.601911  0.189249  1
  As  As30  1  0.381944  0.800781  0.876609  1
  As  As31  1  0.969730  0.003101  0.299533  1
