# generated using pymatgen
data_Nd20(IrRh3)3
_symmetry_space_group_name_H-M   'P 1'
_cell_length_a   11.26309139
_cell_length_b   11.26309139
_cell_length_c   6.61320907
_cell_angle_alpha   89.98862782
_cell_angle_beta   89.98862782
_cell_angle_gamma   89.97189863
_symmetry_Int_Tables_number   1
_chemical_formula_structural   Nd20(IrRh3)3
_chemical_formula_sum   'Nd20 Ir3 Rh9'
_cell_volume   838.93323461
_cell_formula_units_Z   1
loop_
 _symmetry_equiv_pos_site_id
 _symmetry_equiv_pos_as_xyz
  1  'x, y, z'
loop_
 _atom_site_type_symbol
 _atom_site_label
 _atom_site_symmetry_multiplicity
 _atom_site_fract_x
 _atom_site_fract_y
 _atom_site_fract_z
 _atom_site_occupancy
  Nd  Nd0  1  0.090972  0.290884  0.115577  1
  Nd  Nd1  1  0.790940  0.408986  0.116009  1
  Nd  Nd2  1  0.208271  0.590576  0.116780  1
  Nd  Nd3  1  0.908992  0.709013  0.115746  1
  Nd  Nd4  1  0.409424  0.791729  0.383220  1
  Nd  Nd5  1  0.591014  0.209060  0.383991  1
  Nd  Nd6  1  0.290987  0.091008  0.384254  1
  Nd  Nd7  1  0.709116  0.909028  0.384423  1
  Nd  Nd8  1  0.409485  0.208637  0.882328  1
  Nd  Nd9  1  0.708568  0.090585  0.882306  1
  Nd  Nd10  1  0.291143  0.910829  0.882420  1
  Nd  Nd11  1  0.591752  0.791953  0.882525  1
  Nd  Nd12  1  0.089171  0.708857  0.617580  1
  Nd  Nd13  1  0.909415  0.291432  0.617694  1
  Nd  Nd14  1  0.208047  0.408248  0.617475  1
  Nd  Nd15  1  0.791363  0.590515  0.617672  1
  Nd  Nd16  1  0.999965  0.999914  0.000539  1
  Nd  Nd17  1  0.500207  0.499956  0.000103  1
  Nd  Nd18  1  0.500044  0.499793  0.499897  1
  Nd  Nd19  1  0.000086  0.000035  0.499461  1
  Ir  Ir20  1  0.154020  0.153840  0.750037  1
  Ir  Ir21  1  0.846160  0.845980  0.749963  1
  Ir  Ir22  1  0.653830  0.346170  0.750000  1
  Rh  Rh23  1  0.154708  0.845292  0.250000  1
  Rh  Rh24  1  0.346067  0.346378  0.250205  1
  Rh  Rh25  1  0.653622  0.653933  0.249795  1
  Rh  Rh26  1  0.845893  0.154107  0.250000  1
  Rh  Rh27  1  0.346232  0.653768  0.750000  1
  Rh  Rh28  1  0.000420  0.500298  0.378656  1
  Rh  Rh29  1  0.499702  0.999580  0.121344  1
  Rh  Rh30  1  0.499645  0.999262  0.620376  1
  Rh  Rh31  1  0.000738  0.500355  0.879624  1
