# generated using pymatgen
data_Eu2F5
_symmetry_space_group_name_H-M   'P 1'
_cell_length_a   7.51904594
_cell_length_b   7.51904632
_cell_length_c   5.92040000
_cell_angle_alpha   82.82795969
_cell_angle_beta   82.82795933
_cell_angle_gamma   41.75869105
_symmetry_Int_Tables_number   1
_chemical_formula_structural   Eu2F5
_chemical_formula_sum   'Eu4 F10'
_cell_volume   220.92005424
_cell_formula_units_Z   2
loop_
 _symmetry_equiv_pos_site_id
 _symmetry_equiv_pos_as_xyz
  1  'x, y, z'
loop_
 _atom_site_type_symbol
 _atom_site_label
 _atom_site_symmetry_multiplicity
 _atom_site_fract_x
 _atom_site_fract_y
 _atom_site_fract_z
 _atom_site_occupancy
  Eu  Eu0  1  0.893595  0.343082  0.414422  1
  Eu  Eu1  1  0.656918  0.106405  0.085578  1
  Eu  Eu2  1  0.343082  0.893595  0.914422  1
  Eu  Eu3  1  0.106405  0.656918  0.585578  1
  F  F4  1  0.701404  0.468210  0.068978  1
  F  F5  1  0.860653  0.705889  0.322950  1
  F  F6  1  0.943212  0.056788  0.750000  1
  F  F7  1  0.705889  0.860653  0.822950  1
  F  F8  1  0.468210  0.701404  0.568978  1
  F  F9  1  0.531790  0.298596  0.431022  1
  F  F10  1  0.294111  0.139347  0.177050  1
  F  F11  1  0.139347  0.294111  0.677050  1
  F  F12  1  0.298596  0.531790  0.931022  1
  F  F13  1  0.056788  0.943212  0.250000  1
