# generated using pymatgen
data_TbY5IrBr10
_symmetry_space_group_name_H-M   'P 1'
_cell_length_a   7.37300576
_cell_length_b   9.27538528
_cell_length_c   9.27107000
_cell_angle_alpha   107.15956311
_cell_angle_beta   104.64547378
_cell_angle_gamma   96.86609051
_symmetry_Int_Tables_number   1
_chemical_formula_structural   TbY5IrBr10
_chemical_formula_sum   'Tb1 Y5 Ir1 Br10'
_cell_volume   573.04801208
_cell_formula_units_Z   1
loop_
 _symmetry_equiv_pos_site_id
 _symmetry_equiv_pos_as_xyz
  1  'x, y, z'
loop_
 _atom_site_type_symbol
 _atom_site_label
 _atom_site_symmetry_multiplicity
 _atom_site_fract_x
 _atom_site_fract_y
 _atom_site_fract_z
 _atom_site_occupancy
  Tb  Tb0  1  0.876309  0.244730  0.952513  1
  Y  Y1  1  0.638656  0.822072  0.867015  1
  Y  Y2  1  0.361603  0.177782  0.133104  1
  Y  Y3  1  0.030909  0.907447  0.700536  1
  Y  Y4  1  0.969165  0.091922  0.299349  1
  Y  Y5  1  0.123471  0.755028  0.047302  1
  Ir  Ir6  1  0.000143  0.000120  0.999989  1
  Br  Br7  1  0.651916  0.730102  0.551791  1
  Br  Br8  1  0.347939  0.269755  0.448150  1
  Br  Br9  1  0.218782  0.657244  0.747110  1
  Br  Br10  1  0.781394  0.342677  0.252960  1
  Br  Br11  1  0.457455  0.087789  0.823862  1
  Br  Br12  1  0.542578  0.912272  0.176184  1
  Br  Br13  1  0.247001  0.457086  0.082950  1
  Br  Br14  1  0.752632  0.544351  0.917125  1
  Br  Br15  1  0.083976  0.826425  0.371635  1
  Br  Br16  1  0.916069  0.173198  0.628425  1
