# generated using pymatgen
data_Dy5Co16Si4P8W3
_symmetry_space_group_name_H-M   'P 1'
_cell_length_a   12.16825286
_cell_length_b   12.19057534
_cell_length_c   3.71658800
_cell_angle_alpha   90.00000000
_cell_angle_beta   90.00000000
_cell_angle_gamma   119.89638272
_symmetry_Int_Tables_number   1
_chemical_formula_structural   Dy5Co16Si4P8W3
_chemical_formula_sum   'Dy5 Co16 Si4 P8 W3'
_cell_volume   477.94727353
_cell_formula_units_Z   1
loop_
 _symmetry_equiv_pos_site_id
 _symmetry_equiv_pos_as_xyz
  1  'x, y, z'
loop_
 _atom_site_type_symbol
 _atom_site_label
 _atom_site_symmetry_multiplicity
 _atom_site_fract_x
 _atom_site_fract_y
 _atom_site_fract_z
 _atom_site_occupancy
  Dy  Dy0  1  0.666442  0.333524  0.000000  1
  Dy  Dy1  1  0.333664  0.664808  0.000000  1
  Dy  Dy2  1  0.185277  0.184447  0.500000  1
  Dy  Dy3  1  0.816678  0.001028  0.500000  1
  Dy  Dy4  1  0.999709  0.814844  0.500000  1
  Co  Co5  1  0.825047  0.195675  0.000000  1
  Co  Co6  1  0.803650  0.628579  0.000000  1
  Co  Co7  1  0.371411  0.176393  0.000000  1
  Co  Co8  1  0.194266  0.821402  0.000000  1
  Co  Co9  1  0.625838  0.802608  0.000000  1
  Co  Co10  1  0.178248  0.375381  0.000000  1
  Co  Co11  1  0.646125  0.121058  0.500000  1
  Co  Co12  1  0.878306  0.523667  0.500000  1
  Co  Co13  1  0.474994  0.355433  0.500000  1
  Co  Co14  1  0.124581  0.641972  0.500000  1
  Co  Co15  1  0.522590  0.873293  0.500000  1
  Co  Co16  1  0.354269  0.483336  0.500000  1
  Co  Co17  1  0.719282  0.722857  0.500000  1
  Co  Co18  1  0.276448  0.999291  0.500000  1
  Co  Co19  1  0.004221  0.280859  0.500000  1
  Co  Co20  1  0.999664  0.000120  0.000000  1
  Si  Si21  1  0.834189  0.313631  0.500000  1
  Si  Si22  1  0.685776  0.520479  0.500000  1
  Si  Si23  1  0.479193  0.165688  0.500000  1
  Si  Si24  1  0.313436  0.833530  0.500000  1
  P  P25  1  0.360596  0.360041  0.000000  1
  P  P26  1  0.640021  0.000040  0.000000  1
  P  P27  1  0.999350  0.638995  0.000000  1
  P  P28  1  0.521045  0.687158  0.500000  1
  P  P29  1  0.165724  0.479634  0.500000  1
  P  P30  1  0.820460  0.820767  0.000000  1
  P  P31  1  0.179202  0.999150  0.000000  1
  P  P32  1  0.001402  0.180202  0.000000  1
  W  W33  1  0.554740  0.556853  0.000000  1
  W  W34  1  0.442956  0.999143  0.000000  1
  W  W35  1  0.001200  0.444113  0.000000  1
