# generated using pymatgen
data_SrPr(ZnGa)2
_symmetry_space_group_name_H-M   'P 1'
_cell_length_a   4.61055100
_cell_length_b   4.61055136
_cell_length_c   7.89491900
_cell_angle_alpha   90.00000000
_cell_angle_beta   90.00000000
_cell_angle_gamma   119.99999022
_symmetry_Int_Tables_number   1
_chemical_formula_structural   SrPr(ZnGa)2
_chemical_formula_sum   'Sr1 Pr1 Zn2 Ga2'
_cell_volume   145.33962929
_cell_formula_units_Z   1
loop_
 _symmetry_equiv_pos_site_id
 _symmetry_equiv_pos_as_xyz
  1  'x, y, z'
loop_
 _atom_site_type_symbol
 _atom_site_label
 _atom_site_symmetry_multiplicity
 _atom_site_fract_x
 _atom_site_fract_y
 _atom_site_fract_z
 _atom_site_occupancy
  Sr  Sr0  1  0.000000  0.000000  0.500000  1
  Pr  Pr1  1  0.000000  0.000000  0.000000  1
  Zn  Zn2  1  0.333333  0.666667  0.787847  1
  Zn  Zn3  1  0.666667  0.333333  0.212153  1
  Ga  Ga4  1  0.333333  0.666667  0.209358  1
  Ga  Ga5  1  0.666667  0.333333  0.790642  1
