# generated using pymatgen
data_Tb2YbMg3AgPb2
_symmetry_space_group_name_H-M   'P 1'
_cell_length_a   7.63640000
_cell_length_b   7.64878580
_cell_length_c   4.60189400
_cell_angle_alpha   90.00000000
_cell_angle_beta   90.00000000
_cell_angle_gamma   119.94643927
_symmetry_Int_Tables_number   1
_chemical_formula_structural   Tb2YbMg3AgPb2
_chemical_formula_sum   'Tb2 Yb1 Mg3 Ag1 Pb2'
_cell_volume   232.90700572
_cell_formula_units_Z   1
loop_
 _symmetry_equiv_pos_site_id
 _symmetry_equiv_pos_as_xyz
  1  'x, y, z'
loop_
 _atom_site_type_symbol
 _atom_site_label
 _atom_site_symmetry_multiplicity
 _atom_site_fract_x
 _atom_site_fract_y
 _atom_site_fract_z
 _atom_site_occupancy
  Tb  Tb0  1  0.997923  0.584834  0.000000  1
  Tb  Tb1  1  0.413089  0.415166  0.000000  1
  Yb  Yb2  1  0.587328  0.000000  0.000000  1
  Mg  Mg3  1  0.232262  0.000000  0.500000  1
  Mg  Mg4  1  0.000754  0.234438  0.500000  1
  Mg  Mg5  1  0.766316  0.765562  0.500000  1
  Ag  Ag6  1  0.002607  0.000000  0.000000  1
  Pb  Pb7  1  0.331520  0.663319  0.500000  1
  Pb  Pb8  1  0.668202  0.336681  0.500000  1
