# generated using pymatgen
data_Li8Tb8Sn7Sb
_symmetry_space_group_name_H-M   'P 1'
_cell_length_a   9.39968900
_cell_length_b   9.39968835
_cell_length_c   7.34190800
_cell_angle_alpha   90.00000000
_cell_angle_beta   90.00000000
_cell_angle_gamma   119.99999877
_symmetry_Int_Tables_number   1
_chemical_formula_structural   Li8Tb8Sn7Sb
_chemical_formula_sum   'Li8 Tb8 Sn7 Sb1'
_cell_volume   561.78031149
_cell_formula_units_Z   1
loop_
 _symmetry_equiv_pos_site_id
 _symmetry_equiv_pos_as_xyz
  1  'x, y, z'
loop_
 _atom_site_type_symbol
 _atom_site_label
 _atom_site_symmetry_multiplicity
 _atom_site_fract_x
 _atom_site_fract_y
 _atom_site_fract_z
 _atom_site_occupancy
  Li  Li0  1  0.166530  0.333061  0.212710  1
  Li  Li1  1  0.166530  0.833470  0.212710  1
  Li  Li2  1  0.666939  0.833470  0.212710  1
  Li  Li3  1  0.666667  0.333333  0.324443  1
  Li  Li4  1  0.833258  0.666516  0.712781  1
  Li  Li5  1  0.333484  0.166742  0.712781  1
  Li  Li6  1  0.833258  0.166742  0.712781  1
  Li  Li7  1  0.333333  0.666667  0.826295  1
  Tb  Tb8  1  0.000000  0.000000  0.999808  1
  Tb  Tb9  1  0.512131  0.024262  0.004757  1
  Tb  Tb10  1  0.512131  0.487869  0.004757  1
  Tb  Tb11  1  0.975738  0.487869  0.004757  1
  Tb  Tb12  1  0.000000  0.000000  0.500483  1
  Tb  Tb13  1  0.490306  0.980611  0.507872  1
  Tb  Tb14  1  0.019389  0.509694  0.507872  1
  Tb  Tb15  1  0.490306  0.509694  0.507872  1
  Sn  Sn16  1  0.833056  0.666112  0.269551  1
  Sn  Sn17  1  0.333888  0.166944  0.269551  1
  Sn  Sn18  1  0.833056  0.166944  0.269551  1
  Sn  Sn19  1  0.666667  0.333333  0.737625  1
  Sn  Sn20  1  0.167341  0.334681  0.768755  1
  Sn  Sn21  1  0.167341  0.832659  0.768755  1
  Sn  Sn22  1  0.665319  0.832659  0.768755  1
  Sb  Sb23  1  0.333333  0.666667  0.240047  1
