# generated using pymatgen
data_Dy4GaAs5Ir7
_symmetry_space_group_name_H-M   'P 1'
_cell_length_a   7.30047530
_cell_length_b   7.30052525
_cell_length_c   7.30052689
_cell_angle_alpha   108.09283589
_cell_angle_beta   110.16458200
_cell_angle_gamma   110.16458162
_symmetry_Int_Tables_number   1
_chemical_formula_structural   Dy4GaAs5Ir7
_chemical_formula_sum   'Dy4 Ga1 As5 Ir7'
_cell_volume   299.39992846
_cell_formula_units_Z   1
loop_
 _symmetry_equiv_pos_site_id
 _symmetry_equiv_pos_as_xyz
  1  'x, y, z'
loop_
 _atom_site_type_symbol
 _atom_site_label
 _atom_site_symmetry_multiplicity
 _atom_site_fract_x
 _atom_site_fract_y
 _atom_site_fract_z
 _atom_site_occupancy
  Dy  Dy0  1  0.000011  0.999866  0.498382  1
  Dy  Dy1  1  0.000011  0.498382  0.999866  1
  Dy  Dy2  1  0.501467  0.999842  0.999842  1
  Dy  Dy3  1  0.498512  0.498386  0.498386  1
  Ga  Ga4  1  0.999995  0.683645  0.683645  1
  As  As5  1  0.683985  0.681089  0.997116  1
  As  As6  1  0.316025  0.997117  0.313130  1
  As  As7  1  0.999982  0.331230  0.331230  1
  As  As8  1  0.316025  0.313130  0.997117  1
  As  As9  1  0.683985  0.997116  0.681089  1
  Ir  Ir10  1  0.747410  0.250158  0.502742  1
  Ir  Ir11  1  0.747410  0.502742  0.250158  1
  Ir  Ir12  1  0.500006  0.249683  0.749683  1
  Ir  Ir13  1  0.252582  0.502740  0.755330  1
  Ir  Ir14  1  0.252582  0.755330  0.502740  1
  Ir  Ir15  1  0.500006  0.749683  0.249683  1
  Ir  Ir16  1  0.000005  0.989860  0.989860  1
