# generated using pymatgen
data_Tb3Lu5(InPt)2
_symmetry_space_group_name_H-M   'P 1'
_cell_length_a   9.59996579
_cell_length_b   9.60008988
_cell_length_c   9.60522900
_cell_angle_alpha   59.98136310
_cell_angle_beta   59.98119021
_cell_angle_gamma   59.95233760
_symmetry_Int_Tables_number   1
_chemical_formula_structural   Tb3Lu5(InPt)2
_chemical_formula_sum   'Tb6 Lu10 In4 Pt4'
_cell_volume   625.54441804
_cell_formula_units_Z   2
loop_
 _symmetry_equiv_pos_site_id
 _symmetry_equiv_pos_as_xyz
  1  'x, y, z'
loop_
 _atom_site_type_symbol
 _atom_site_label
 _atom_site_symmetry_multiplicity
 _atom_site_fract_x
 _atom_site_fract_y
 _atom_site_fract_z
 _atom_site_occupancy
  Tb  Tb0  1  0.188719  0.811327  0.811109  1
  Tb  Tb1  1  0.811323  0.188726  0.188832  1
  Tb  Tb2  1  0.811330  0.188733  0.811104  1
  Tb  Tb3  1  0.188722  0.811315  0.188837  1
  Tb  Tb4  1  0.811826  0.811808  0.188184  1
  Tb  Tb5  1  0.189370  0.189360  0.810634  1
  Lu  Lu6  1  0.599965  0.599981  0.600155  1
  Lu  Lu7  1  0.599970  0.599988  0.199894  1
  Lu  Lu8  1  0.600225  0.198908  0.600439  1
  Lu  Lu9  1  0.198932  0.600222  0.600413  1
  Lu  Lu10  1  0.061462  0.439013  0.438507  1
  Lu  Lu11  1  0.439007  0.061462  0.061031  1
  Lu  Lu12  1  0.439008  0.061466  0.438498  1
  Lu  Lu13  1  0.061466  0.439008  0.061018  1
  Lu  Lu14  1  0.438327  0.438320  0.061665  1
  Lu  Lu15  1  0.060837  0.060818  0.439176  1
  In  In16  1  0.832240  0.832258  0.832707  1
  In  In17  1  0.832252  0.832277  0.502768  1
  In  In18  1  0.831985  0.503192  0.832391  1
  In  In19  1  0.503202  0.831986  0.832400  1
  Pt  Pt20  1  0.392345  0.392308  0.392619  1
  Pt  Pt21  1  0.392341  0.392335  0.822727  1
  Pt  Pt22  1  0.392139  0.823046  0.392434  1
  Pt  Pt23  1  0.823009  0.392141  0.392458  1
