# generated using pymatgen
data_NdEuSi4
_symmetry_space_group_name_H-M   'P 1'
_cell_length_a   4.21042735
_cell_length_b   4.21042846
_cell_length_c   7.51915942
_cell_angle_alpha   106.25899516
_cell_angle_beta   106.25899476
_cell_angle_gamma   90.00000627
_symmetry_Int_Tables_number   1
_chemical_formula_structural   NdEuSi4
_chemical_formula_sum   'Nd1 Eu1 Si4'
_cell_volume   122.40323736
_cell_formula_units_Z   1
loop_
 _symmetry_equiv_pos_site_id
 _symmetry_equiv_pos_as_xyz
  1  'x, y, z'
loop_
 _atom_site_type_symbol
 _atom_site_label
 _atom_site_symmetry_multiplicity
 _atom_site_fract_x
 _atom_site_fract_y
 _atom_site_fract_z
 _atom_site_occupancy
  Nd  Nd0  1  0.000000  0.000000  0.000000  1
  Eu  Eu1  1  0.250000  0.750000  0.499999  1
  Si  Si2  1  0.584386  0.584386  0.168773  1
  Si  Si3  1  0.665623  0.165623  0.331247  1
  Si  Si4  1  0.834376  0.334376  0.668751  1
  Si  Si5  1  0.415614  0.415614  0.831227  1
