# generated using pymatgen
data_KZr2N3
_symmetry_space_group_name_H-M   'P 1'
_cell_length_a   6.52984340
_cell_length_b   6.52984323
_cell_length_c   5.92738200
_cell_angle_alpha   90.00000000
_cell_angle_beta   90.00000000
_cell_angle_gamma   118.79894246
_symmetry_Int_Tables_number   1
_chemical_formula_structural   KZr2N3
_chemical_formula_sum   'K2 Zr4 N6'
_cell_volume   221.47717072
_cell_formula_units_Z   2
loop_
 _symmetry_equiv_pos_site_id
 _symmetry_equiv_pos_as_xyz
  1  'x, y, z'
loop_
 _atom_site_type_symbol
 _atom_site_label
 _atom_site_symmetry_multiplicity
 _atom_site_fract_x
 _atom_site_fract_y
 _atom_site_fract_z
 _atom_site_occupancy
  K  K0  1  0.662414  0.662414  0.474037  1
  K  K1  1  0.337586  0.337586  0.974037  1
  Zr  Zr2  1  0.328717  0.978827  0.490949  1
  Zr  Zr3  1  0.978827  0.328717  0.490949  1
  Zr  Zr4  1  0.671283  0.021173  0.990949  1
  Zr  Zr5  1  0.021173  0.671283  0.990949  1
  N  N6  1  0.341883  0.903263  0.835452  1
  N  N7  1  0.903263  0.341883  0.835452  1
  N  N8  1  0.658117  0.096737  0.335452  1
  N  N9  1  0.096737  0.658117  0.335452  1
  N  N10  1  0.776825  0.776825  0.961161  1
  N  N11  1  0.223175  0.223175  0.461161  1
