# generated using pymatgen
data_Mg3Cu(Ni3B)2
_symmetry_space_group_name_H-M   'P 1'
_cell_length_a   4.95628527
_cell_length_b   4.95628672
_cell_length_c   7.33702495
_cell_angle_alpha   109.77745240
_cell_angle_beta   109.77745428
_cell_angle_gamma   60.00263823
_symmetry_Int_Tables_number   1
_chemical_formula_structural   Mg3Cu(Ni3B)2
_chemical_formula_sum   'Mg3 Cu1 Ni6 B2'
_cell_volume   143.68237670
_cell_formula_units_Z   1
loop_
 _symmetry_equiv_pos_site_id
 _symmetry_equiv_pos_as_xyz
  1  'x, y, z'
loop_
 _atom_site_type_symbol
 _atom_site_label
 _atom_site_symmetry_multiplicity
 _atom_site_fract_x
 _atom_site_fract_y
 _atom_site_fract_z
 _atom_site_occupancy
  Mg  Mg0  1  0.356917  0.356917  0.070135  1
  Mg  Mg1  1  0.500000  0.500000  0.500001  1
  Mg  Mg2  1  0.643083  0.643083  0.929865  1
  Cu  Cu3  1  0.000000  0.000000  0.000000  1
  Ni  Ni4  1  0.931128  0.931128  0.295452  1
  Ni  Ni5  1  0.931485  0.432628  0.296665  1
  Ni  Ni6  1  0.432628  0.931485  0.296665  1
  Ni  Ni7  1  0.567371  0.068514  0.703335  1
  Ni  Ni8  1  0.068514  0.567371  0.703335  1
  Ni  Ni9  1  0.068871  0.068871  0.704548  1
  B  B10  1  0.834106  0.834106  0.500420  1
  B  B11  1  0.165893  0.165893  0.499580  1
