# generated using pymatgen
data_Y5Tm5Bi6
_symmetry_space_group_name_H-M   'P 1'
_cell_length_a   8.23077800
_cell_length_b   9.46582500
_cell_length_c   12.05018100
_cell_angle_alpha   90.00074485
_cell_angle_beta   90.00000000
_cell_angle_gamma   90.00000000
_symmetry_Int_Tables_number   1
_chemical_formula_structural   Y5Tm5Bi6
_chemical_formula_sum   'Y10 Tm10 Bi12'
_cell_volume   938.84290702
_cell_formula_units_Z   2
loop_
 _symmetry_equiv_pos_site_id
 _symmetry_equiv_pos_as_xyz
  1  'x, y, z'
loop_
 _atom_site_type_symbol
 _atom_site_label
 _atom_site_symmetry_multiplicity
 _atom_site_fract_x
 _atom_site_fract_y
 _atom_site_fract_z
 _atom_site_occupancy
  Y  Y0  1  0.186234  0.749983  0.718700  1
  Y  Y1  1  0.686234  0.750017  0.781300  1
  Y  Y2  1  0.813538  0.249631  0.281071  1
  Y  Y3  1  0.313538  0.250369  0.218929  1
  Y  Y4  1  0.307191  0.062729  0.940731  1
  Y  Y5  1  0.807191  0.437271  0.559269  1
  Y  Y6  1  0.353497  0.750340  0.215967  1
  Y  Y7  1  0.853497  0.749660  0.284033  1
  Y  Y8  1  0.645920  0.249781  0.784192  1
  Y  Y9  1  0.145920  0.250219  0.715808  1
  Tm  Tm10  1  0.024632  0.749793  0.989140  1
  Tm  Tm11  1  0.524632  0.750207  0.510860  1
  Tm  Tm12  1  0.974295  0.250499  0.011142  1
  Tm  Tm13  1  0.474295  0.249501  0.488858  1
  Tm  Tm14  1  0.306795  0.434228  0.940390  1
  Tm  Tm15  1  0.806795  0.065772  0.559610  1
  Tm  Tm16  1  0.693139  0.933973  0.059499  1
  Tm  Tm17  1  0.193139  0.566027  0.440501  1
  Tm  Tm18  1  0.693616  0.565743  0.059723  1
  Tm  Tm19  1  0.193616  0.934257  0.440277  1
  Bi  Bi20  1  0.434136  0.003744  0.672157  1
  Bi  Bi21  1  0.934136  0.496256  0.827843  1
  Bi  Bi22  1  0.566063  0.503837  0.327469  1
  Bi  Bi23  1  0.066063  0.996163  0.172531  1
  Bi  Bi24  1  0.566190  0.995997  0.327832  1
  Bi  Bi25  1  0.066190  0.504003  0.172168  1
  Bi  Bi26  1  0.433473  0.496037  0.672352  1
  Bi  Bi27  1  0.933473  0.003963  0.827648  1
  Bi  Bi28  1  0.407547  0.747221  0.958358  1
  Bi  Bi29  1  0.907547  0.752779  0.541642  1
  Bi  Bi30  1  0.593732  0.250675  0.042610  1
  Bi  Bi31  1  0.093732  0.249325  0.457390  1
