# generated using pymatgen
data_Sc5Ti3(Si4Ru3)4
_symmetry_space_group_name_H-M   'P 1'
_cell_length_a   9.83437556
_cell_length_b   9.84034251
_cell_length_c   13.26507930
_cell_angle_alpha   54.09674712
_cell_angle_beta   54.04646624
_cell_angle_gamma   31.24612971
_symmetry_Int_Tables_number   1
_chemical_formula_structural   Sc5Ti3(Si4Ru3)4
_chemical_formula_sum   'Sc5 Ti3 Si16 Ru12'
_cell_volume   528.01028367
_cell_formula_units_Z   1
loop_
 _symmetry_equiv_pos_site_id
 _symmetry_equiv_pos_as_xyz
  1  'x, y, z'
loop_
 _atom_site_type_symbol
 _atom_site_label
 _atom_site_symmetry_multiplicity
 _atom_site_fract_x
 _atom_site_fract_y
 _atom_site_fract_z
 _atom_site_occupancy
  Sc  Sc0  1  0.292274  0.559820  0.646223  1
  Sc  Sc1  1  0.438664  0.708404  0.854258  1
  Sc  Sc2  1  0.707755  0.439892  0.353183  1
  Sc  Sc3  1  0.560930  0.291405  0.146659  1
  Sc  Sc4  1  0.036092  0.292915  0.639808  1
  Ti  Ti5  1  0.698596  0.960801  0.868704  1
  Ti  Ti6  1  0.961217  0.699330  0.368393  1
  Ti  Ti7  1  0.300903  0.038757  0.131799  1
  Si  Si8  1  0.878255  0.121238  0.250110  1
  Si  Si9  1  0.122779  0.874453  0.750200  1
  Si  Si10  1  0.381054  0.619953  0.249347  1
  Si  Si11  1  0.615860  0.380598  0.750760  1
  Si  Si12  1  0.973092  0.255838  0.891717  1
  Si  Si13  1  0.747717  0.023630  0.610900  1
  Si  Si14  1  0.025111  0.744880  0.111505  1
  Si  Si15  1  0.254018  0.975985  0.388701  1
  Si  Si16  1  0.573652  0.080300  0.063703  1
  Si  Si17  1  0.920093  0.427488  0.432707  1
  Si  Si18  1  0.426768  0.919582  0.935776  1
  Si  Si19  1  0.080265  0.574570  0.564266  1
  Si  Si20  1  0.389933  0.143845  0.396605  1
  Si  Si21  1  0.854870  0.612080  0.102340  1
  Si  Si22  1  0.612742  0.858496  0.601722  1
  Si  Si23  1  0.145011  0.388389  0.896757  1
  Ru  Ru24  1  0.651226  0.830764  0.280544  1
  Ru  Ru25  1  0.169851  0.348401  0.216628  1
  Ru  Ru26  1  0.758859  0.484345  0.068993  1
  Ru  Ru27  1  0.828987  0.652821  0.782500  1
  Ru  Ru28  1  0.897180  0.144538  0.584443  1
  Ru  Ru29  1  0.855699  0.101819  0.914986  1
  Ru  Ru30  1  0.102823  0.856439  0.414416  1
  Ru  Ru31  1  0.144945  0.896932  0.085072  1
  Ru  Ru32  1  0.241103  0.515079  0.931325  1
  Ru  Ru33  1  0.488141  0.757038  0.566771  1
  Ru  Ru34  1  0.513095  0.247317  0.429154  1
  Ru  Ru35  1  0.350444  0.171861  0.719032  1
