# generated using pymatgen
data_Tb3Ho4Th(ReB6)4
_symmetry_space_group_name_H-M   'P 1'
_cell_length_a   3.70758700
_cell_length_b   9.19482823
_cell_length_c   11.59839700
_cell_angle_alpha   90.03968450
_cell_angle_beta   90.00000000
_cell_angle_gamma   90.00000000
_symmetry_Int_Tables_number   1
_chemical_formula_structural   Tb3Ho4Th(ReB6)4
_chemical_formula_sum   'Tb3 Ho4 Th1 Re4 B24'
_cell_volume   395.39651515
_cell_formula_units_Z   1
loop_
 _symmetry_equiv_pos_site_id
 _symmetry_equiv_pos_as_xyz
  1  'x, y, z'
loop_
 _atom_site_type_symbol
 _atom_site_label
 _atom_site_symmetry_multiplicity
 _atom_site_fract_x
 _atom_site_fract_y
 _atom_site_fract_z
 _atom_site_occupancy
  Tb  Tb0  1  0.000000  0.677739  0.587193  1
  Tb  Tb1  1  0.000000  0.823330  0.085249  1
  Tb  Tb2  1  0.000000  0.176026  0.913921  1
  Ho  Ho3  1  0.000000  0.942025  0.369488  1
  Ho  Ho4  1  0.000000  0.056025  0.631241  1
  Ho  Ho5  1  0.000000  0.443514  0.128452  1
  Ho  Ho6  1  0.000000  0.557342  0.870432  1
  Th  Th7  1  0.000000  0.322500  0.414103  1
  Re  Re8  1  0.000000  0.639093  0.320432  1
  Re  Re9  1  0.000000  0.361598  0.680215  1
  Re  Re10  1  0.000000  0.138622  0.178680  1
  Re  Re11  1  0.000000  0.861321  0.820751  1
  B  B12  1  0.500000  0.555825  0.432034  1
  B  B13  1  0.500000  0.446665  0.569617  1
  B  B14  1  0.500000  0.053307  0.066775  1
  B  B15  1  0.500000  0.946330  0.932601  1
  B  B16  1  0.500000  0.750229  0.417967  1
  B  B17  1  0.500000  0.250651  0.584900  1
  B  B18  1  0.500000  0.248923  0.080652  1
  B  B19  1  0.500000  0.750749  0.918095  1
  B  B20  1  0.500000  0.791997  0.265352  1
  B  B21  1  0.500000  0.208166  0.735661  1
  B  B22  1  0.500000  0.290559  0.232198  1
  B  B23  1  0.500000  0.708175  0.765894  1
  B  B24  1  0.500000  0.631825  0.184728  1
  B  B25  1  0.500000  0.369682  0.814987  1
  B  B26  1  0.500000  0.129310  0.312361  1
  B  B27  1  0.500000  0.869058  0.686168  1
  B  B28  1  0.500000  0.982402  0.211279  1
  B  B29  1  0.500000  0.016764  0.788322  1
  B  B30  1  0.500000  0.485572  0.286243  1
  B  B31  1  0.500000  0.517675  0.713565  1
  B  B32  1  0.500000  0.600698  0.027564  1
  B  B33  1  0.500000  0.399883  0.971664  1
  B  B34  1  0.500000  0.097117  0.472941  1
  B  B35  1  0.500000  0.899303  0.528275  1
