# generated using pymatgen
data_Pa2Al16Pt9
_symmetry_space_group_name_H-M   'P 1'
_cell_length_a   11.11382942
_cell_length_b   11.11383020
_cell_length_c   11.11382974
_cell_angle_alpha   158.55267659
_cell_angle_beta   114.90978649
_cell_angle_gamma   69.39368103
_symmetry_Int_Tables_number   1
_chemical_formula_structural   Pa2Al16Pt9
_chemical_formula_sum   'Pa2 Al16 Pt9'
_cell_volume   451.90837839
_cell_formula_units_Z   1
loop_
 _symmetry_equiv_pos_site_id
 _symmetry_equiv_pos_as_xyz
  1  'x, y, z'
loop_
 _atom_site_type_symbol
 _atom_site_label
 _atom_site_symmetry_multiplicity
 _atom_site_fract_x
 _atom_site_fract_y
 _atom_site_fract_z
 _atom_site_occupancy
  Pa  Pa0  1  0.227213  0.227213  0.000000  1
  Pa  Pa1  1  0.772787  0.772787  0.000000  1
  Al  Al2  1  0.270345  0.390583  0.879762  1
  Al  Al3  1  0.091672  0.920302  0.171370  1
  Al  Al4  1  0.509789  0.202407  0.307383  1
  Al  Al5  1  0.251068  0.079698  0.171370  1
  Al  Al6  1  0.914571  0.414571  0.500000  1
  Al  Al7  1  0.729655  0.609417  0.120238  1
  Al  Al8  1  0.895023  0.202407  0.692617  1
  Al  Al9  1  0.490211  0.797593  0.692617  1
  Al  Al10  1  0.388096  0.000000  0.388096  1
  Al  Al11  1  0.611904  0.000000  0.611904  1
  Al  Al12  1  0.489180  0.609417  0.879762  1
  Al  Al13  1  0.104977  0.797593  0.307383  1
  Al  Al14  1  0.908328  0.079698  0.828630  1
  Al  Al15  1  0.748932  0.920302  0.828630  1
  Al  Al16  1  0.510820  0.390583  0.120238  1
  Al  Al17  1  0.085429  0.585429  0.500000  1
  Pt  Pt18  1  0.745940  0.500000  0.245940  1
  Pt  Pt19  1  0.016836  0.337452  0.679384  1
  Pt  Pt20  1  0.628654  0.128654  0.500000  1
  Pt  Pt21  1  0.254060  0.500000  0.754060  1
  Pt  Pt22  1  0.371346  0.871346  0.500000  1
  Pt  Pt23  1  0.000000  0.000000  0.000000  1
  Pt  Pt24  1  0.658068  0.337452  0.320616  1
  Pt  Pt25  1  0.341932  0.662548  0.679384  1
  Pt  Pt26  1  0.983164  0.662548  0.320616  1
