# generated using pymatgen
data_Ac17Er3(TlIn3)4
_symmetry_space_group_name_H-M   'P 1'
_cell_length_a   8.46328907
_cell_length_b   9.09698144
_cell_length_c   17.06318200
_cell_angle_alpha   90.07881731
_cell_angle_beta   89.95994239
_cell_angle_gamma   89.88984691
_symmetry_Int_Tables_number   1
_chemical_formula_structural   Ac17Er3(TlIn3)4
_chemical_formula_sum   'Ac17 Er3 Tl4 In12'
_cell_volume   1313.69693235
_cell_formula_units_Z   1
loop_
 _symmetry_equiv_pos_site_id
 _symmetry_equiv_pos_as_xyz
  1  'x, y, z'
loop_
 _atom_site_type_symbol
 _atom_site_label
 _atom_site_symmetry_multiplicity
 _atom_site_fract_x
 _atom_site_fract_y
 _atom_site_fract_z
 _atom_site_occupancy
  Ac  Ac0  1  0.330289  0.830641  0.877121  1
  Ac  Ac1  1  0.832831  0.673923  0.623207  1
  Ac  Ac2  1  0.669032  0.169273  0.372216  1
  Ac  Ac3  1  0.168332  0.329007  0.129623  1
  Ac  Ac4  1  0.666987  0.170036  0.127821  1
  Ac  Ac5  1  0.166345  0.327902  0.370398  1
  Ac  Ac6  1  0.332864  0.830756  0.622998  1
  Ac  Ac7  1  0.834274  0.675059  0.876815  1
  Ac  Ac8  1  0.496072  0.311639  0.910091  1
  Ac  Ac9  1  0.990674  0.186632  0.590180  1
  Ac  Ac10  1  0.506736  0.690663  0.405584  1
  Ac  Ac11  1  0.006268  0.808781  0.096043  1
  Ac  Ac12  1  0.504758  0.687612  0.094927  1
  Ac  Ac13  1  0.004232  0.812385  0.403933  1
  Ac  Ac14  1  0.497785  0.314176  0.590152  1
  Ac  Ac15  1  0.992869  0.183000  0.909574  1
  Ac  Ac16  1  0.167199  0.469102  0.750705  1
  Er  Er17  1  0.668193  0.018601  0.747997  1
  Er  Er18  1  0.831707  0.524818  0.251574  1
  Er  Er19  1  0.333000  0.974597  0.248730  1
  Tl  Tl20  1  0.669969  0.974661  0.958260  1
  Tl  Tl21  1  0.170770  0.530033  0.536241  1
  Tl  Tl22  1  0.325937  0.027920  0.454290  1
  Tl  Tl23  1  0.826616  0.470572  0.043643  1
  In  In24  1  0.326375  0.026013  0.046599  1
  In  In25  1  0.827314  0.472221  0.455421  1
  In  In26  1  0.670248  0.976188  0.542332  1
  In  In27  1  0.169713  0.527713  0.962814  1
  In  In28  1  0.536730  0.604035  0.750859  1
  In  In29  1  0.025510  0.920274  0.748856  1
  In  In30  1  0.476702  0.413713  0.251344  1
  In  In31  1  0.974965  0.084589  0.248705  1
  In  In32  1  0.301290  0.125682  0.749907  1
  In  In33  1  0.772692  0.358119  0.750666  1
  In  In34  1  0.711309  0.858435  0.249470  1
  In  In35  1  0.213414  0.641232  0.250905  1
