# generated using pymatgen
data_Yb12Pr3Sm(MgRu)4
_symmetry_space_group_name_H-M   'P 1'
_cell_length_a   10.01913605
_cell_length_b   10.01838206
_cell_length_c   10.01838300
_cell_angle_alpha   60.00000021
_cell_angle_beta   60.00248958
_cell_angle_gamma   60.00249510
_symmetry_Int_Tables_number   1
_chemical_formula_structural   Yb12Pr3Sm(MgRu)4
_chemical_formula_sum   'Yb12 Pr3 Sm1 Mg4 Ru4'
_cell_volume   711.09374248
_cell_formula_units_Z   1
loop_
 _symmetry_equiv_pos_site_id
 _symmetry_equiv_pos_as_xyz
  1  'x, y, z'
loop_
 _atom_site_type_symbol
 _atom_site_label
 _atom_site_symmetry_multiplicity
 _atom_site_fract_x
 _atom_site_fract_y
 _atom_site_fract_z
 _atom_site_occupancy
  Yb  Yb0  1  0.950954  0.548518  0.548518  1
  Yb  Yb1  1  0.549245  0.950941  0.950941  1
  Yb  Yb2  1  0.549245  0.950941  0.548873  1
  Yb  Yb3  1  0.950954  0.548518  0.952010  1
  Yb  Yb4  1  0.549245  0.548873  0.950941  1
  Yb  Yb5  1  0.950954  0.952010  0.548518  1
  Yb  Yb6  1  0.809991  0.190342  0.190342  1
  Yb  Yb7  1  0.189902  0.810017  0.810017  1
  Yb  Yb8  1  0.189902  0.810017  0.190063  1
  Yb  Yb9  1  0.809991  0.190342  0.809325  1
  Yb  Yb10  1  0.189902  0.190063  0.810017  1
  Yb  Yb11  1  0.809991  0.809325  0.190342  1
  Pr  Pr12  1  0.341589  0.342148  0.342148  1
  Pr  Pr13  1  0.341589  0.342148  0.974113  1
  Pr  Pr14  1  0.341589  0.974113  0.342148  1
  Sm  Sm15  1  0.977329  0.340890  0.340890  1
  Mg  Mg16  1  0.579441  0.577907  0.577907  1
  Mg  Mg17  1  0.579441  0.577907  0.264745  1
  Mg  Mg18  1  0.579441  0.264745  0.577907  1
  Mg  Mg19  1  0.264867  0.578378  0.578378  1
  Ru  Ru20  1  0.134507  0.137994  0.137994  1
  Ru  Ru21  1  0.134507  0.137994  0.589504  1
  Ru  Ru22  1  0.134507  0.589504  0.137994  1
  Ru  Ru23  1  0.590912  0.136362  0.136362  1
