# generated using pymatgen
data_Yb2AlTcO6
_symmetry_space_group_name_H-M   'P 1'
_cell_length_a   5.29201288
_cell_length_b   5.40777000
_cell_length_c   7.52592924
_cell_angle_alpha   90.00000000
_cell_angle_beta   90.06588127
_cell_angle_gamma   90.00000000
_symmetry_Int_Tables_number   1
_chemical_formula_structural   Yb2AlTcO6
_chemical_formula_sum   'Yb4 Al2 Tc2 O12'
_cell_volume   215.37681389
_cell_formula_units_Z   2
loop_
 _symmetry_equiv_pos_site_id
 _symmetry_equiv_pos_as_xyz
  1  'x, y, z'
loop_
 _atom_site_type_symbol
 _atom_site_label
 _atom_site_symmetry_multiplicity
 _atom_site_fract_x
 _atom_site_fract_y
 _atom_site_fract_z
 _atom_site_occupancy
  Yb  Yb0  1  0.511207  0.548081  0.248979  1
  Yb  Yb1  1  0.988793  0.048081  0.251021  1
  Yb  Yb2  1  0.488793  0.451919  0.751021  1
  Yb  Yb3  1  0.011207  0.951919  0.748979  1
  Al  Al4  1  0.000000  0.500000  0.500000  1
  Al  Al5  1  0.500000  0.000000  0.000000  1
  Tc  Tc6  1  0.000000  0.500000  0.000000  1
  Tc  Tc7  1  0.500000  0.000000  0.500000  1
  O  O8  1  0.421238  0.980678  0.245122  1
  O  O9  1  0.078762  0.480678  0.254878  1
  O  O10  1  0.578762  0.019322  0.754878  1
  O  O11  1  0.921238  0.519322  0.745122  1
  O  O12  1  0.788449  0.796427  0.041627  1
  O  O13  1  0.711551  0.296427  0.458373  1
  O  O14  1  0.202295  0.212599  0.541461  1
  O  O15  1  0.297705  0.712599  0.958539  1
  O  O16  1  0.211551  0.203573  0.958373  1
  O  O17  1  0.288449  0.703573  0.541627  1
  O  O18  1  0.797705  0.787401  0.458539  1
  O  O19  1  0.702295  0.287401  0.041461  1
