# generated using pymatgen
data_Ba3LiP2H
_symmetry_space_group_name_H-M   'P 1'
_cell_length_a   4.61604700
_cell_length_b   12.64919700
_cell_length_c   13.20099100
_cell_angle_alpha   90.00000000
_cell_angle_beta   90.00000000
_cell_angle_gamma   90.00000000
_symmetry_Int_Tables_number   1
_chemical_formula_structural   Ba3LiP2H
_chemical_formula_sum   'Ba12 Li4 P8 H4'
_cell_volume   770.79646359
_cell_formula_units_Z   4
loop_
 _symmetry_equiv_pos_site_id
 _symmetry_equiv_pos_as_xyz
  1  'x, y, z'
loop_
 _atom_site_type_symbol
 _atom_site_label
 _atom_site_symmetry_multiplicity
 _atom_site_fract_x
 _atom_site_fract_y
 _atom_site_fract_z
 _atom_site_occupancy
  Ba  Ba0  1  0.250000  0.064043  0.620411  1
  Ba  Ba1  1  0.250000  0.564043  0.879589  1
  Ba  Ba2  1  0.750000  0.935957  0.379589  1
  Ba  Ba3  1  0.750000  0.435957  0.120411  1
  Ba  Ba4  1  0.250000  0.199020  0.302148  1
  Ba  Ba5  1  0.250000  0.699020  0.197852  1
  Ba  Ba6  1  0.750000  0.800980  0.697852  1
  Ba  Ba7  1  0.750000  0.300980  0.802148  1
  Ba  Ba8  1  0.250000  0.372200  0.558949  1
  Ba  Ba9  1  0.250000  0.872200  0.941051  1
  Ba  Ba10  1  0.750000  0.627800  0.441051  1
  Ba  Ba11  1  0.750000  0.127800  0.058949  1
  Li  Li12  1  0.250000  0.135537  0.854571  1
  Li  Li13  1  0.250000  0.635537  0.645429  1
  Li  Li14  1  0.750000  0.864463  0.145429  1
  Li  Li15  1  0.750000  0.364463  0.354571  1
  P  P16  1  0.250000  0.308300  0.985259  1
  P  P17  1  0.250000  0.808300  0.514741  1
  P  P18  1  0.750000  0.691700  0.014741  1
  P  P19  1  0.750000  0.191700  0.485259  1
  P  P20  1  0.250000  0.466063  0.325739  1
  P  P21  1  0.250000  0.966063  0.174261  1
  P  P22  1  0.750000  0.533937  0.674261  1
  P  P23  1  0.750000  0.033937  0.825739  1
  H  H24  1  0.250000  0.233861  0.732734  1
  H  H25  1  0.250000  0.733861  0.767266  1
  H  H26  1  0.750000  0.766139  0.267266  1
  H  H27  1  0.750000  0.266139  0.232734  1
