# generated using pymatgen
data_ZrSc7Ta10(Si8W)2
_symmetry_space_group_name_H-M   'P 1'
_cell_length_a   6.65165626
_cell_length_b   6.84982518
_cell_length_c   13.10829870
_cell_angle_alpha   89.96660098
_cell_angle_beta   90.09029162
_cell_angle_gamma   89.98518593
_symmetry_Int_Tables_number   1
_chemical_formula_structural   ZrSc7Ta10(Si8W)2
_chemical_formula_sum   'Zr1 Sc7 Ta10 Si16 W2'
_cell_volume   597.24838917
_cell_formula_units_Z   1
loop_
 _symmetry_equiv_pos_site_id
 _symmetry_equiv_pos_as_xyz
  1  'x, y, z'
loop_
 _atom_site_type_symbol
 _atom_site_label
 _atom_site_symmetry_multiplicity
 _atom_site_fract_x
 _atom_site_fract_y
 _atom_site_fract_z
 _atom_site_occupancy
  Zr  Zr0  1  0.499759  0.673578  0.594529  1
  Sc  Sc1  1  0.999447  0.826560  0.906846  1
  Sc  Sc2  1  0.502101  0.326176  0.093349  1
  Sc  Sc3  1  0.003179  0.173147  0.406343  1
  Sc  Sc4  1  0.503060  0.326527  0.406475  1
  Sc  Sc5  1  0.001992  0.173890  0.093213  1
  Sc  Sc6  1  0.498929  0.673307  0.906735  1
  Sc  Sc7  1  0.997802  0.826254  0.593379  1
  Ta  Ta8  1  0.663276  0.171651  0.623436  1
  Ta  Ta9  1  0.164077  0.328216  0.876031  1
  Ta  Ta10  1  0.335105  0.830011  0.126095  1
  Ta  Ta11  1  0.835315  0.669873  0.373869  1
  Ta  Ta12  1  0.335895  0.829672  0.374118  1
  Ta  Ta13  1  0.834908  0.669706  0.126149  1
  Ta  Ta14  1  0.664715  0.171822  0.875708  1
  Ta  Ta15  1  0.165542  0.330037  0.623828  1
  Ta  Ta16  1  0.837912  0.493184  0.749805  1
  Ta  Ta17  1  0.339091  0.005759  0.748921  1
  Si  Si18  1  0.670672  0.966159  0.459096  1
  Si  Si19  1  0.169151  0.534056  0.040939  1
  Si  Si20  1  0.330356  0.033643  0.960976  1
  Si  Si21  1  0.831001  0.464587  0.538267  1
  Si  Si22  1  0.328535  0.035537  0.538398  1
  Si  Si23  1  0.830413  0.466724  0.961024  1
  Si  Si24  1  0.668998  0.966115  0.040988  1
  Si  Si25  1  0.170854  0.534134  0.459078  1
  Si  Si26  1  0.460735  0.387222  0.750735  1
  Si  Si27  1  0.962007  0.112369  0.749540  1
  Si  Si28  1  0.535136  0.608542  0.249763  1
  Si  Si29  1  0.035184  0.890986  0.249860  1
  Si  Si30  1  0.706817  0.860853  0.751294  1
  Si  Si31  1  0.203273  0.640319  0.751227  1
  Si  Si32  1  0.297628  0.144541  0.249755  1
  Si  Si33  1  0.797645  0.355122  0.249839  1
  W  W34  1  0.159926  0.507447  0.250183  1
  W  W35  1  0.659567  0.992273  0.250206  1
