# generated using pymatgen
data_CsRbNa2(BeH3)4
_symmetry_space_group_name_H-M   'P 1'
_cell_length_a   5.48793729
_cell_length_b   7.50405501
_cell_length_c   8.09198607
_cell_angle_alpha   65.32244603
_cell_angle_beta   89.76737697
_cell_angle_gamma   89.71965900
_symmetry_Int_Tables_number   1
_chemical_formula_structural   CsRbNa2(BeH3)4
_chemical_formula_sum   'Cs1 Rb1 Na2 Be4 H12'
_cell_volume   302.80361947
_cell_formula_units_Z   1
loop_
 _symmetry_equiv_pos_site_id
 _symmetry_equiv_pos_as_xyz
  1  'x, y, z'
loop_
 _atom_site_type_symbol
 _atom_site_label
 _atom_site_symmetry_multiplicity
 _atom_site_fract_x
 _atom_site_fract_y
 _atom_site_fract_z
 _atom_site_occupancy
  Cs  Cs0  1  0.751413  0.250729  0.250352  1
  Rb  Rb1  1  0.251489  0.749642  0.249677  1
  Na  Na2  1  0.250097  0.749655  0.748975  1
  Na  Na3  1  0.749995  0.250403  0.751028  1
  Be  Be4  1  0.253094  0.306553  0.610899  1
  Be  Be5  1  0.752818  0.699715  0.888978  1
  Be  Be6  1  0.246581  0.192584  0.891486  1
  Be  Be7  1  0.746798  0.801096  0.608593  1
  H  H8  1  0.036288  0.344446  0.509159  1
  H  H9  1  0.264995  0.104979  0.756792  1
  H  H10  1  0.735640  0.603350  0.760862  1
  H  H11  1  0.234069  0.394110  0.745653  1
  H  H12  1  0.763080  0.897497  0.736680  1
  H  H13  1  0.535269  0.665439  0.991717  1
  H  H14  1  0.463652  0.155213  0.992975  1
  H  H15  1  0.026451  0.134720  0.989918  1
  H  H16  1  0.974961  0.646840  0.986378  1
  H  H17  1  0.473477  0.363963  0.512713  1
  H  H18  1  0.525025  0.854282  0.510747  1
  H  H19  1  0.964807  0.834785  0.506418  1
