# generated using pymatgen
data_Zn2Ga(CuPt2)3
_symmetry_space_group_name_H-M   'P 1'
_cell_length_a   4.04240500
_cell_length_b   6.99532900
_cell_length_c   12.08413200
_cell_angle_alpha   90.00000000
_cell_angle_beta   90.00002840
_cell_angle_gamma   90.00000000
_symmetry_Int_Tables_number   1
_chemical_formula_structural   Zn2Ga(CuPt2)3
_chemical_formula_sum   'Zn4 Ga2 Cu6 Pt12'
_cell_volume   341.71451585
_cell_formula_units_Z   2
loop_
 _symmetry_equiv_pos_site_id
 _symmetry_equiv_pos_as_xyz
  1  'x, y, z'
loop_
 _atom_site_type_symbol
 _atom_site_label
 _atom_site_symmetry_multiplicity
 _atom_site_fract_x
 _atom_site_fract_y
 _atom_site_fract_z
 _atom_site_occupancy
  Zn  Zn0  1  0.000006  0.000000  0.001012  1
  Zn  Zn1  1  0.500203  0.500000  0.167353  1
  Zn  Zn2  1  0.000201  0.000000  0.332646  1
  Zn  Zn3  1  0.500007  0.500000  0.498987  1
  Ga  Ga4  1  0.999817  0.000000  0.666016  1
  Ga  Ga5  1  0.499815  0.500000  0.833984  1
  Cu  Cu6  1  0.999987  0.500000  0.002245  1
  Cu  Cu7  1  0.500221  0.000000  0.166914  1
  Cu  Cu8  1  0.000222  0.500000  0.333086  1
  Cu  Cu9  1  0.499988  0.000000  0.497755  1
  Cu  Cu10  1  0.999772  0.500000  0.664624  1
  Cu  Cu11  1  0.499771  0.000000  0.835376  1
  Pt  Pt12  1  0.499996  0.251837  0.999126  1
  Pt  Pt13  1  0.499996  0.748163  0.999126  1
  Pt  Pt14  1  0.000142  0.249886  0.166337  1
  Pt  Pt15  1  0.000142  0.750114  0.166337  1
  Pt  Pt16  1  0.500142  0.250113  0.333663  1
  Pt  Pt17  1  0.500142  0.749888  0.333663  1
  Pt  Pt18  1  0.999997  0.248162  0.500874  1
  Pt  Pt19  1  0.999997  0.751838  0.500874  1
  Pt  Pt20  1  0.499859  0.248406  0.667234  1
  Pt  Pt21  1  0.499859  0.751595  0.667234  1
  Pt  Pt22  1  0.999857  0.251593  0.832767  1
  Pt  Pt23  1  0.999857  0.748407  0.832767  1
