# generated using pymatgen
data_Tb2LuBi(Rh2O7)2
_symmetry_space_group_name_H-M   'P 1'
_cell_length_a   7.22425494
_cell_length_b   7.26962659
_cell_length_c   7.21361016
_cell_angle_alpha   60.11520418
_cell_angle_beta   59.95117152
_cell_angle_gamma   60.20624471
_symmetry_Int_Tables_number   1
_chemical_formula_structural   Tb2LuBi(Rh2O7)2
_chemical_formula_sum   'Tb2 Lu1 Bi1 Rh4 O14'
_cell_volume   268.43045517
_cell_formula_units_Z   1
loop_
 _symmetry_equiv_pos_site_id
 _symmetry_equiv_pos_as_xyz
  1  'x, y, z'
loop_
 _atom_site_type_symbol
 _atom_site_label
 _atom_site_symmetry_multiplicity
 _atom_site_fract_x
 _atom_site_fract_y
 _atom_site_fract_z
 _atom_site_occupancy
  Tb  Tb0  1  0.125000  0.125000  0.125000  1
  Tb  Tb1  1  0.625000  0.125000  0.125000  1
  Lu  Lu2  1  0.125000  0.125000  0.625000  1
  Bi  Bi3  1  0.125000  0.625000  0.125000  1
  Rh  Rh4  1  0.625000  0.625000  0.625000  1
  Rh  Rh5  1  0.625000  0.625000  0.125000  1
  Rh  Rh6  1  0.125000  0.625000  0.625000  1
  Rh  Rh7  1  0.625000  0.125000  0.625000  1
  O  O8  1  0.247909  0.243785  0.260398  1
  O  O9  1  0.288220  0.714334  0.288438  1
  O  O10  1  0.962866  0.962357  0.541637  1
  O  O11  1  0.533140  0.962357  0.541637  1
  O  O12  1  0.709007  0.714334  0.288438  1
  O  O13  1  0.962569  0.531205  0.543658  1
  O  O14  1  0.716860  0.287643  0.708363  1
  O  O15  1  0.287134  0.287643  0.708363  1
  O  O16  1  0.712897  0.287106  0.287099  1
  O  O17  1  0.287431  0.718795  0.706342  1
  O  O18  1  0.961780  0.535666  0.961562  1
  O  O19  1  0.540993  0.535666  0.961562  1
  O  O20  1  0.002091  0.006215  0.989602  1
  O  O21  1  0.537103  0.962894  0.962901  1
