# generated using pymatgen
data_LaEuCr2F14
_symmetry_space_group_name_H-M   'P 1'
_cell_length_a   5.59091900
_cell_length_b   8.98510842
_cell_length_c   11.99073400
_cell_angle_alpha   62.03078269
_cell_angle_beta   90.00000000
_cell_angle_gamma   90.00000000
_symmetry_Int_Tables_number   1
_chemical_formula_structural   LaEuCr2F14
_chemical_formula_sum   'La2 Eu2 Cr4 F28'
_cell_volume   531.99947119
_cell_formula_units_Z   2
loop_
 _symmetry_equiv_pos_site_id
 _symmetry_equiv_pos_as_xyz
  1  'x, y, z'
loop_
 _atom_site_type_symbol
 _atom_site_label
 _atom_site_symmetry_multiplicity
 _atom_site_fract_x
 _atom_site_fract_y
 _atom_site_fract_z
 _atom_site_occupancy
  La  La0  1  0.744347  0.807653  0.266175  1
  La  La1  1  0.244347  0.192347  0.233825  1
  Eu  Eu2  1  0.256083  0.191123  0.733455  1
  Eu  Eu3  1  0.756083  0.808877  0.766545  1
  Cr  Cr4  1  0.744838  0.271695  0.461185  1
  Cr  Cr5  1  0.244838  0.728305  0.038815  1
  Cr  Cr6  1  0.257483  0.722214  0.548799  1
  Cr  Cr7  1  0.757483  0.277786  0.951201  1
  F  F8  1  0.438873  0.708086  0.918803  1
  F  F9  1  0.938873  0.291914  0.581197  1
  F  F10  1  0.568561  0.294908  0.071585  1
  F  F11  1  0.068561  0.705092  0.428415  1
  F  F12  1  0.467522  0.283470  0.541554  1
  F  F13  1  0.967522  0.716530  0.958446  1
  F  F14  1  0.534231  0.711420  0.465953  1
  F  F15  1  0.034231  0.288580  0.034047  1
  F  F16  1  0.765993  0.509971  0.858505  1
  F  F17  1  0.265993  0.490029  0.641495  1
  F  F18  1  0.232482  0.497034  0.132667  1
  F  F19  1  0.732482  0.502966  0.367333  1
  F  F20  1  0.763350  0.046045  0.042569  1
  F  F21  1  0.263350  0.953955  0.457431  1
  F  F22  1  0.239450  0.959058  0.950628  1
  F  F23  1  0.739450  0.040942  0.549372  1
  F  F24  1  0.986337  0.730522  0.635127  1
  F  F25  1  0.486337  0.269478  0.864873  1
  F  F26  1  0.015188  0.270780  0.374739  1
  F  F27  1  0.515188  0.729220  0.125261  1
  F  F28  1  0.057215  0.740609  0.164937  1
  F  F29  1  0.557215  0.259391  0.335063  1
  F  F30  1  0.948828  0.259826  0.830477  1
  F  F31  1  0.448828  0.740174  0.669523  1
  F  F32  1  0.391226  0.961223  0.224074  1
  F  F33  1  0.891226  0.038777  0.275926  1
  F  F34  1  0.587993  0.031629  0.768755  1
  F  F35  1  0.087993  0.968371  0.731245  1
