# generated using pymatgen
data_ErLu7(Si3Ir)4
_symmetry_space_group_name_H-M   'P 1'
_cell_length_a   8.11538300
_cell_length_b   8.11527446
_cell_length_c   7.72314600
_cell_angle_alpha   90.00000000
_cell_angle_beta   90.00000000
_cell_angle_gamma   120.00033660
_symmetry_Int_Tables_number   1
_chemical_formula_structural   ErLu7(Si3Ir)4
_chemical_formula_sum   'Er1 Lu7 Si12 Ir4'
_cell_volume   440.48957711
_cell_formula_units_Z   1
loop_
 _symmetry_equiv_pos_site_id
 _symmetry_equiv_pos_as_xyz
  1  'x, y, z'
loop_
 _atom_site_type_symbol
 _atom_site_label
 _atom_site_symmetry_multiplicity
 _atom_site_fract_x
 _atom_site_fract_y
 _atom_site_fract_z
 _atom_site_occupancy
  Er  Er0  1  0.000033  0.999994  0.250000  1
  Lu  Lu1  1  0.979476  0.489728  0.250000  1
  Lu  Lu2  1  0.510247  0.489745  0.250000  1
  Lu  Lu3  1  0.489696  0.979385  0.750000  1
  Lu  Lu4  1  0.020603  0.510303  0.750000  1
  Lu  Lu5  1  0.489689  0.510304  0.750000  1
  Lu  Lu6  1  0.510261  0.020529  0.250000  1
  Lu  Lu7  1  0.999990  0.000005  0.750000  1
  Si  Si8  1  0.166624  0.833364  0.500000  1
  Si  Si9  1  0.166624  0.333263  0.500004  1
  Si  Si10  1  0.666741  0.833372  0.500002  1
  Si  Si11  1  0.333317  0.166660  0.998776  1
  Si  Si12  1  0.833335  0.666676  0.501222  1
  Si  Si13  1  0.833336  0.166659  0.998783  1
  Si  Si14  1  0.833335  0.666676  0.998778  1
  Si  Si15  1  0.166624  0.333263  0.999996  1
  Si  Si16  1  0.666741  0.833372  0.999998  1
  Si  Si17  1  0.333317  0.166660  0.501224  1
  Si  Si18  1  0.833336  0.166659  0.501217  1
  Si  Si19  1  0.166624  0.833364  0.000000  1
  Ir  Ir20  1  0.333355  0.666685  0.035022  1
  Ir  Ir21  1  0.666672  0.333325  0.964353  1
  Ir  Ir22  1  0.666672  0.333325  0.535647  1
  Ir  Ir23  1  0.333355  0.666685  0.464978  1
