# generated using pymatgen
data_SiNi16Bi16PBr4
_symmetry_space_group_name_H-M   'P 1'
_cell_length_a   4.15400200
_cell_length_b   9.97575100
_cell_length_c   21.10819600
_cell_angle_alpha   90.00093198
_cell_angle_beta   90.00000000
_cell_angle_gamma   90.00000000
_symmetry_Int_Tables_number   1
_chemical_formula_structural   SiNi16Bi16PBr4
_chemical_formula_sum   'Si1 Ni16 Bi16 P1 Br4'
_cell_volume   874.70864704
_cell_formula_units_Z   1
loop_
 _symmetry_equiv_pos_site_id
 _symmetry_equiv_pos_as_xyz
  1  'x, y, z'
loop_
 _atom_site_type_symbol
 _atom_site_label
 _atom_site_symmetry_multiplicity
 _atom_site_fract_x
 _atom_site_fract_y
 _atom_site_fract_z
 _atom_site_occupancy
  Si  Si0  1  0.493679  0.500000  0.000000  1
  Ni  Ni1  1  0.752739  0.310063  0.969929  1
  Ni  Ni2  1  0.752739  0.689937  0.030071  1
  Ni  Ni3  1  0.249652  0.813692  0.529377  1
  Ni  Ni4  1  0.249652  0.186308  0.470623  1
  Ni  Ni5  1  0.248287  0.588749  0.087817  1
  Ni  Ni6  1  0.248287  0.411251  0.912183  1
  Ni  Ni7  1  0.749590  0.087308  0.414218  1
  Ni  Ni8  1  0.749590  0.912692  0.585782  1
  Ni  Ni9  1  0.245617  0.320580  0.042742  1
  Ni  Ni10  1  0.245617  0.679420  0.957258  1
  Ni  Ni11  1  0.751773  0.824626  0.458231  1
  Ni  Ni12  1  0.751773  0.175374  0.541769  1
  Ni  Ni13  1  0.752366  0.437079  0.090714  1
  Ni  Ni14  1  0.752366  0.562921  0.909286  1
  Ni  Ni15  1  0.250094  0.938544  0.411197  1
  Ni  Ni16  1  0.250094  0.061456  0.588803  1
  Bi  Bi17  1  0.252582  0.381222  0.170393  1
  Bi  Bi18  1  0.252582  0.618778  0.829607  1
  Bi  Bi19  1  0.751009  0.882004  0.330024  1
  Bi  Bi20  1  0.751009  0.117996  0.669976  1
  Bi  Bi21  1  0.745132  0.166083  0.082059  1
  Bi  Bi22  1  0.745132  0.833917  0.917941  1
  Bi  Bi23  1  0.251477  0.667626  0.417826  1
  Bi  Bi24  1  0.251477  0.332374  0.582174  1
  Bi  Bi25  1  0.253002  0.144046  0.944372  1
  Bi  Bi26  1  0.253002  0.855954  0.055628  1
  Bi  Bi27  1  0.750466  0.645143  0.555412  1
  Bi  Bi28  1  0.750466  0.354857  0.444588  1
  Bi  Bi29  1  0.748454  0.669497  0.160181  1
  Bi  Bi30  1  0.748454  0.330503  0.839819  1
  Bi  Bi31  1  0.248873  0.168384  0.340176  1
  Bi  Bi32  1  0.248873  0.831616  0.659824  1
  P  P33  1  0.504805  0.000000  0.500000  1
  Br  Br34  1  0.251080  0.007855  0.795685  1
  Br  Br35  1  0.251080  0.992145  0.204315  1
  Br  Br36  1  0.748565  0.507789  0.703820  1
  Br  Br37  1  0.748565  0.492211  0.296180  1
