# generated using pymatgen
data_Hf(AlOs)2
_symmetry_space_group_name_H-M   'P 1'
_cell_length_a   3.22494230
_cell_length_b   3.22494260
_cell_length_c   7.77481800
_cell_angle_alpha   101.96984562
_cell_angle_beta   101.96984677
_cell_angle_gamma   89.99999805
_symmetry_Int_Tables_number   1
_chemical_formula_structural   Hf(AlOs)2
_chemical_formula_sum   'Hf1 Al2 Os2'
_cell_volume   77.30380467
_cell_formula_units_Z   1
loop_
 _symmetry_equiv_pos_site_id
 _symmetry_equiv_pos_as_xyz
  1  'x, y, z'
loop_
 _atom_site_type_symbol
 _atom_site_label
 _atom_site_symmetry_multiplicity
 _atom_site_fract_x
 _atom_site_fract_y
 _atom_site_fract_z
 _atom_site_occupancy
  Hf  Hf0  1  0.000000  0.000000  0.000000  1
  Al  Al1  1  0.200147  0.200147  0.400295  1
  Al  Al2  1  0.799853  0.799853  0.599706  1
  Os  Os3  1  0.613279  0.613279  0.226557  1
  Os  Os4  1  0.386722  0.386722  0.773444  1
