# generated using pymatgen
data_Al9Cu13
_symmetry_space_group_name_H-M   'P 1'
_cell_length_a   6.46255677
_cell_length_b   6.46255675
_cell_length_c   8.71853361
_cell_angle_alpha   63.33712471
_cell_angle_beta   63.33712156
_cell_angle_gamma   78.28029723
_symmetry_Int_Tables_number   1
_chemical_formula_structural   Al9Cu13
_chemical_formula_sum   'Al9 Cu13'
_cell_volume   290.80243220
_cell_formula_units_Z   1
loop_
 _symmetry_equiv_pos_site_id
 _symmetry_equiv_pos_as_xyz
  1  'x, y, z'
loop_
 _atom_site_type_symbol
 _atom_site_label
 _atom_site_symmetry_multiplicity
 _atom_site_fract_x
 _atom_site_fract_y
 _atom_site_fract_z
 _atom_site_occupancy
  Al  Al0  1  0.170180  0.757577  0.305450  1
  Al  Al1  1  0.242423  0.829820  0.694550  1
  Al  Al2  1  0.829820  0.242423  0.694550  1
  Al  Al3  1  0.757577  0.170180  0.305450  1
  Al  Al4  1  0.832102  0.832102  0.119874  1
  Al  Al5  1  0.167898  0.167898  0.880126  1
  Al  Al6  1  0.276683  0.276683  0.167964  1
  Al  Al7  1  0.723317  0.723317  0.832036  1
  Al  Al8  1  0.500000  0.500000  0.500000  1
  Cu  Cu9  1  0.062258  0.543705  0.660734  1
  Cu  Cu10  1  0.456295  0.937742  0.339266  1
  Cu  Cu11  1  0.937742  0.456295  0.339266  1
  Cu  Cu12  1  0.543705  0.062258  0.660734  1
  Cu  Cu13  1  0.546722  0.546722  0.176480  1
  Cu  Cu14  1  0.453278  0.453278  0.823520  1
  Cu  Cu15  1  0.739159  0.739159  0.511461  1
  Cu  Cu16  1  0.260841  0.260841  0.488539  1
  Cu  Cu17  1  0.264999  0.735001  0.000000  1
  Cu  Cu18  1  0.000000  0.000000  0.500000  1
  Cu  Cu19  1  0.000000  0.500000  0.000000  1
  Cu  Cu20  1  0.500000  0.000000  0.000000  1
  Cu  Cu21  1  0.735001  0.264999  0.000000  1
