# generated using pymatgen
data_GdZnI
_symmetry_space_group_name_H-M   'P 1'
_cell_length_a   4.28144900
_cell_length_b   4.28144910
_cell_length_c   12.13755000
_cell_angle_alpha   90.00000000
_cell_angle_beta   90.00000000
_cell_angle_gamma   119.99999152
_symmetry_Int_Tables_number   1
_chemical_formula_structural   GdZnI
_chemical_formula_sum   'Gd2 Zn2 I2'
_cell_volume   192.68293851
_cell_formula_units_Z   2
loop_
 _symmetry_equiv_pos_site_id
 _symmetry_equiv_pos_as_xyz
  1  'x, y, z'
loop_
 _atom_site_type_symbol
 _atom_site_label
 _atom_site_symmetry_multiplicity
 _atom_site_fract_x
 _atom_site_fract_y
 _atom_site_fract_z
 _atom_site_occupancy
  Gd  Gd0  1  0.000000  0.000000  0.163663  1
  Gd  Gd1  1  0.000000  0.000000  0.836337  1
  Zn  Zn2  1  0.333333  0.666667  0.005673  1
  Zn  Zn3  1  0.666667  0.333333  0.994327  1
  I  I4  1  0.333333  0.666667  0.668290  1
  I  I5  1  0.666667  0.333333  0.331710  1
