# generated using pymatgen
data_Mg4TaNb7N12
_symmetry_space_group_name_H-M   'P 1'
_cell_length_a   5.27711400
_cell_length_b   5.27711419
_cell_length_c   10.50770500
_cell_angle_alpha   90.00000000
_cell_angle_beta   90.00000000
_cell_angle_gamma   119.99999882
_symmetry_Int_Tables_number   1
_chemical_formula_structural   Mg4TaNb7N12
_chemical_formula_sum   'Mg4 Ta1 Nb7 N12'
_cell_volume   253.41450903
_cell_formula_units_Z   1
loop_
 _symmetry_equiv_pos_site_id
 _symmetry_equiv_pos_as_xyz
  1  'x, y, z'
loop_
 _atom_site_type_symbol
 _atom_site_label
 _atom_site_symmetry_multiplicity
 _atom_site_fract_x
 _atom_site_fract_y
 _atom_site_fract_z
 _atom_site_occupancy
  Mg  Mg0  1  0.333333  0.666667  0.000000  1
  Mg  Mg1  1  0.333333  0.666667  0.500000  1
  Mg  Mg2  1  0.666667  0.333333  0.500000  1
  Mg  Mg3  1  0.666667  0.333333  0.000000  1
  Ta  Ta4  1  0.000000  0.000000  0.000000  1
  Nb  Nb5  1  0.000000  0.335465  0.250322  1
  Nb  Nb6  1  0.664535  0.000000  0.749678  1
  Nb  Nb7  1  0.335465  0.335465  0.749678  1
  Nb  Nb8  1  0.000000  0.000000  0.500000  1
  Nb  Nb9  1  0.664535  0.664535  0.250322  1
  Nb  Nb10  1  0.335465  0.000000  0.250322  1
  Nb  Nb11  1  0.000000  0.664535  0.749678  1
  N  N12  1  0.668852  0.668852  0.620734  1
  N  N13  1  0.672603  0.672603  0.880681  1
  N  N14  1  0.327397  0.327397  0.119319  1
  N  N15  1  0.331148  0.331148  0.379266  1
  N  N16  1  0.327397  0.000000  0.880681  1
  N  N17  1  0.331148  0.000000  0.620734  1
  N  N18  1  0.000000  0.668852  0.379266  1
  N  N19  1  0.000000  0.672603  0.119319  1
  N  N20  1  0.672603  0.000000  0.119319  1
  N  N21  1  0.668852  0.000000  0.379266  1
  N  N22  1  0.000000  0.327397  0.880681  1
  N  N23  1  0.000000  0.331148  0.620734  1
