# generated using pymatgen
data_Mg3Ta6TiB20
_symmetry_space_group_name_H-M   'P 1'
_cell_length_a   6.13615612
_cell_length_b   6.99317663
_cell_length_c   7.42078465
_cell_angle_alpha   94.36598750
_cell_angle_beta   101.98676035
_cell_angle_gamma   116.00518337
_symmetry_Int_Tables_number   1
_chemical_formula_structural   Mg3Ta6TiB20
_chemical_formula_sum   'Mg3 Ta6 Ti1 B20'
_cell_volume   274.84578741
_cell_formula_units_Z   1
loop_
 _symmetry_equiv_pos_site_id
 _symmetry_equiv_pos_as_xyz
  1  'x, y, z'
loop_
 _atom_site_type_symbol
 _atom_site_label
 _atom_site_symmetry_multiplicity
 _atom_site_fract_x
 _atom_site_fract_y
 _atom_site_fract_z
 _atom_site_occupancy
  Mg  Mg0  1  0.497642  0.997793  0.997196  1
  Mg  Mg1  1  0.000027  0.202392  0.603986  1
  Mg  Mg2  1  0.003763  0.602648  0.801594  1
  Ta  Ta3  1  0.500279  0.798537  0.401025  1
  Ta  Ta4  1  0.000156  0.399918  0.201158  1
  Ta  Ta5  1  0.500800  0.203538  0.597710  1
  Ta  Ta6  1  0.999779  0.802948  0.398279  1
  Ta  Ta7  1  0.500140  0.600706  0.798832  1
  Ta  Ta8  1  0.498976  0.395690  0.199527  1
  Ti  Ti9  1  0.997594  0.996709  0.002287  1
  B  B10  1  0.332201  0.231774  0.868751  1
  B  B11  1  0.332219  0.632274  0.066128  1
  B  B12  1  0.164344  0.364501  0.932349  1
  B  B13  1  0.332276  0.033200  0.261555  1
  B  B14  1  0.165871  0.766042  0.130350  1
  B  B15  1  0.835264  0.232840  0.868162  1
  B  B16  1  0.164120  0.165437  0.333309  1
  B  B17  1  0.834068  0.633618  0.063666  1
  B  B18  1  0.332027  0.432384  0.467899  1
  B  B19  1  0.665957  0.364673  0.934595  1
  B  B20  1  0.831726  0.031474  0.265151  1
  B  B21  1  0.666305  0.767535  0.130397  1
  B  B22  1  0.333962  0.835720  0.669091  1
  B  B23  1  0.166667  0.567004  0.535788  1
  B  B24  1  0.666264  0.165694  0.333530  1
  B  B25  1  0.835775  0.434227  0.468814  1
  B  B26  1  0.167093  0.967243  0.732287  1
  B  B27  1  0.835744  0.836404  0.667404  1
  B  B28  1  0.670728  0.569455  0.534375  1
  B  B29  1  0.668233  0.967622  0.734806  1
