# generated using pymatgen
data_Tb4Nd(FeB3)2
_symmetry_space_group_name_H-M   'P 1'
_cell_length_a   8.39149963
_cell_length_b   8.39149961
_cell_length_c   8.39149862
_cell_angle_alpha   37.81565858
_cell_angle_beta   37.81566293
_cell_angle_gamma   37.81565031
_symmetry_Int_Tables_number   1
_chemical_formula_structural   Tb4Nd(FeB3)2
_chemical_formula_sum   'Tb4 Nd1 Fe2 B6'
_cell_volume   199.32950711
_cell_formula_units_Z   1
loop_
 _symmetry_equiv_pos_site_id
 _symmetry_equiv_pos_as_xyz
  1  'x, y, z'
loop_
 _atom_site_type_symbol
 _atom_site_label
 _atom_site_symmetry_multiplicity
 _atom_site_fract_x
 _atom_site_fract_y
 _atom_site_fract_z
 _atom_site_occupancy
  Tb  Tb0  1  0.582379  0.582379  0.582379  1
  Tb  Tb1  1  0.417621  0.417621  0.417621  1
  Tb  Tb2  1  0.749971  0.749971  0.749971  1
  Tb  Tb3  1  0.250029  0.250029  0.250029  1
  Nd  Nd4  1  0.000000  0.000000  0.000000  1
  Fe  Fe5  1  0.882185  0.882185  0.882185  1
  Fe  Fe6  1  0.117815  0.117815  0.117815  1
  B  B7  1  0.500000  0.832525  0.167475  1
  B  B8  1  0.167475  0.500000  0.832525  1
  B  B9  1  0.832525  0.167475  0.500000  1
  B  B10  1  0.500000  0.167475  0.832525  1
  B  B11  1  0.832525  0.500000  0.167475  1
  B  B12  1  0.167475  0.832525  0.500000  1
