# generated using pymatgen
data_Yb3Dy(CuH6)2
_symmetry_space_group_name_H-M   'P 1'
_cell_length_a   6.72379790
_cell_length_b   6.72379826
_cell_length_c   5.07712200
_cell_angle_alpha   89.99933309
_cell_angle_beta   89.99934172
_cell_angle_gamma   135.69970123
_symmetry_Int_Tables_number   1
_chemical_formula_structural   Yb3Dy(CuH6)2
_chemical_formula_sum   'Yb3 Dy1 Cu2 H12'
_cell_volume   160.31087387
_cell_formula_units_Z   1
loop_
 _symmetry_equiv_pos_site_id
 _symmetry_equiv_pos_as_xyz
  1  'x, y, z'
loop_
 _atom_site_type_symbol
 _atom_site_label
 _atom_site_symmetry_multiplicity
 _atom_site_fract_x
 _atom_site_fract_y
 _atom_site_fract_z
 _atom_site_occupancy
  Yb  Yb0  1  0.643973  0.356027  0.000000  1
  Yb  Yb1  1  0.856761  0.143239  0.500000  1
  Yb  Yb2  1  0.356195  0.643805  0.000000  1
  Dy  Dy3  1  0.148940  0.851060  0.500000  1
  Cu  Cu4  1  0.500062  0.499938  0.500000  1
  Cu  Cu5  1  0.999296  0.000704  0.000000  1
  H  H6  1  0.002559  0.508182  0.744934  1
  H  H7  1  0.491818  0.997441  0.255066  1
  H  H8  1  0.002524  0.508153  0.255068  1
  H  H9  1  0.491847  0.997476  0.744932  1
  H  H10  1  0.367593  0.632407  0.500000  1
  H  H11  1  0.867015  0.132985  0.000000  1
  H  H12  1  0.632492  0.367508  0.500000  1
  H  H13  1  0.131848  0.868152  0.000000  1
  H  H14  1  0.249505  0.245953  0.747248  1
  H  H15  1  0.754047  0.750495  0.252752  1
  H  H16  1  0.249444  0.245919  0.252603  1
  H  H17  1  0.754081  0.750556  0.747397  1
