# generated using pymatgen
data_Th2RuPbAu
_symmetry_space_group_name_H-M   'P 1'
_cell_length_a   7.88308000
_cell_length_b   7.85669400
_cell_length_c   3.84840600
_cell_angle_alpha   90.00000000
_cell_angle_beta   90.00000000
_cell_angle_gamma   90.00000000
_symmetry_Int_Tables_number   1
_chemical_formula_structural   Th2RuPbAu
_chemical_formula_sum   'Th4 Ru2 Pb2 Au2'
_cell_volume   238.35082294
_cell_formula_units_Z   2
loop_
 _symmetry_equiv_pos_site_id
 _symmetry_equiv_pos_as_xyz
  1  'x, y, z'
loop_
 _atom_site_type_symbol
 _atom_site_label
 _atom_site_symmetry_multiplicity
 _atom_site_fract_x
 _atom_site_fract_y
 _atom_site_fract_z
 _atom_site_occupancy
  Th  Th0  1  0.691094  0.175778  0.500000  1
  Th  Th1  1  0.148135  0.326499  0.500000  1
  Th  Th2  1  0.808906  0.675778  0.500000  1
  Th  Th3  1  0.351865  0.826499  0.500000  1
  Ru  Ru4  1  0.625776  0.866125  0.000000  1
  Ru  Ru5  1  0.874224  0.366125  0.000000  1
  Pb  Pb6  1  0.994861  0.998530  0.000000  1
  Pb  Pb7  1  0.505139  0.498530  0.000000  1
  Au  Au8  1  0.375521  0.133068  0.000000  1
  Au  Au9  1  0.124479  0.633068  0.000000  1
