# generated using pymatgen
data_Li3DyLu2Si2Ge
_symmetry_space_group_name_H-M   'P 1'
_cell_length_a   6.86903700
_cell_length_b   6.92681756
_cell_length_c   4.20998900
_cell_angle_alpha   90.00000000
_cell_angle_beta   90.00000000
_cell_angle_gamma   119.72444922
_symmetry_Int_Tables_number   1
_chemical_formula_structural   Li3DyLu2Si2Ge
_chemical_formula_sum   'Li3 Dy1 Lu2 Si2 Ge1'
_cell_volume   173.95639130
_cell_formula_units_Z   1
loop_
 _symmetry_equiv_pos_site_id
 _symmetry_equiv_pos_as_xyz
  1  'x, y, z'
loop_
 _atom_site_type_symbol
 _atom_site_label
 _atom_site_symmetry_multiplicity
 _atom_site_fract_x
 _atom_site_fract_y
 _atom_site_fract_z
 _atom_site_occupancy
  Li  Li0  1  0.234589  0.000000  0.500000  1
  Li  Li1  1  0.000799  0.235716  0.500000  1
  Li  Li2  1  0.765083  0.764284  0.500000  1
  Dy  Dy3  1  0.570134  0.000000  0.000000  1
  Lu  Lu4  1  0.999785  0.572295  0.000000  1
  Lu  Lu5  1  0.427490  0.427705  0.000000  1
  Si  Si6  1  0.330679  0.662943  0.500000  1
  Si  Si7  1  0.667737  0.337057  0.500000  1
  Ge  Ge8  1  0.003704  0.000000  0.000000  1
