# generated using pymatgen
data_KLa6OsI12
_symmetry_space_group_name_H-M   'P 1'
_cell_length_a   10.26227835
_cell_length_b   10.26227759
_cell_length_c   10.26227818
_cell_angle_alpha   106.25210411
_cell_angle_beta   106.25210729
_cell_angle_gamma   106.25210631
_symmetry_Int_Tables_number   1
_chemical_formula_structural   KLa6OsI12
_chemical_formula_sum   'K1 La6 Os1 I12'
_cell_volume   917.81572305
_cell_formula_units_Z   1
loop_
 _symmetry_equiv_pos_site_id
 _symmetry_equiv_pos_as_xyz
  1  'x, y, z'
loop_
 _atom_site_type_symbol
 _atom_site_label
 _atom_site_symmetry_multiplicity
 _atom_site_fract_x
 _atom_site_fract_y
 _atom_site_fract_z
 _atom_site_occupancy
  K  K0  1  0.500000  0.500000  0.500000  1
  La  La1  1  0.099487  0.302282  0.024396  1
  La  La2  1  0.302281  0.024395  0.099487  1
  La  La3  1  0.024395  0.099487  0.302282  1
  La  La4  1  0.975604  0.900513  0.697718  1
  La  La5  1  0.697719  0.975604  0.900512  1
  La  La6  1  0.900513  0.697718  0.975604  1
  Os  Os7  1  0.000000  0.000000  0.000000  1
  I  I8  1  0.222724  0.680638  0.073382  1
  I  I9  1  0.444405  0.360324  0.127703  1
  I  I10  1  0.680638  0.073383  0.222724  1
  I  I11  1  0.926618  0.777277  0.319363  1
  I  I12  1  0.127703  0.444405  0.360324  1
  I  I13  1  0.360324  0.127703  0.444406  1
  I  I14  1  0.639676  0.872297  0.555594  1
  I  I15  1  0.872296  0.555595  0.639676  1
  I  I16  1  0.073383  0.222724  0.680638  1
  I  I17  1  0.319363  0.926618  0.777276  1
  I  I18  1  0.555594  0.639675  0.872297  1
  I  I19  1  0.777276  0.319363  0.926618  1
