# generated using pymatgen
data_Tb3LuPd3RuO14
_symmetry_space_group_name_H-M   'P 1'
_cell_length_a   7.22057058
_cell_length_b   7.22057033
_cell_length_c   7.26514542
_cell_angle_alpha   60.20276443
_cell_angle_beta   60.20275466
_cell_angle_gamma   59.99999500
_symmetry_Int_Tables_number   1
_chemical_formula_structural   Tb3LuPd3RuO14
_chemical_formula_sum   'Tb3 Lu1 Pd3 Ru1 O14'
_cell_volume   268.65598963
_cell_formula_units_Z   1
loop_
 _symmetry_equiv_pos_site_id
 _symmetry_equiv_pos_as_xyz
  1  'x, y, z'
loop_
 _atom_site_type_symbol
 _atom_site_label
 _atom_site_symmetry_multiplicity
 _atom_site_fract_x
 _atom_site_fract_y
 _atom_site_fract_z
 _atom_site_occupancy
  Tb  Tb0  1  0.125000  0.125000  0.125000  1
  Tb  Tb1  1  0.625000  0.125000  0.125000  1
  Tb  Tb2  1  0.125000  0.625000  0.125000  1
  Lu  Lu3  1  0.125000  0.125000  0.625000  1
  Pd  Pd4  1  0.625000  0.625000  0.625000  1
  Pd  Pd5  1  0.125000  0.625000  0.625000  1
  Pd  Pd6  1  0.625000  0.125000  0.625000  1
  Ru  Ru7  1  0.625000  0.625000  0.125000  1
  O  O8  1  0.291157  0.711386  0.286071  1
  O  O9  1  0.282467  0.282467  0.716237  1
  O  O10  1  0.538614  0.958843  0.963929  1
  O  O11  1  0.531173  0.967533  0.533763  1
  O  O12  1  0.538614  0.538614  0.963929  1
  O  O13  1  0.282467  0.718827  0.716237  1
  O  O14  1  0.958843  0.538614  0.963929  1
  O  O15  1  0.711386  0.291157  0.286071  1
  O  O16  1  0.718827  0.282467  0.716237  1
  O  O17  1  0.711386  0.711386  0.286071  1
  O  O18  1  0.247196  0.247196  0.258413  1
  O  O19  1  0.967533  0.967533  0.533763  1
  O  O20  1  0.967533  0.531173  0.533763  1
  O  O21  1  0.002804  0.002804  0.991587  1
