# generated using pymatgen
data_TbEr2Th3Si4
_symmetry_space_group_name_H-M   'P 1'
_cell_length_a   7.59590450
_cell_length_b   7.59590421
_cell_length_c   4.26115400
_cell_angle_alpha   90.00000000
_cell_angle_beta   90.00000000
_cell_angle_gamma   90.42321188
_symmetry_Int_Tables_number   1
_chemical_formula_structural   TbEr2Th3Si4
_chemical_formula_sum   'Tb1 Er2 Th3 Si4'
_cell_volume   245.85234650
_cell_formula_units_Z   1
loop_
 _symmetry_equiv_pos_site_id
 _symmetry_equiv_pos_as_xyz
  1  'x, y, z'
loop_
 _atom_site_type_symbol
 _atom_site_label
 _atom_site_symmetry_multiplicity
 _atom_site_fract_x
 _atom_site_fract_y
 _atom_site_fract_z
 _atom_site_occupancy
  Tb  Tb0  1  0.676299  0.176299  0.500000  1
  Er  Er1  1  0.500842  0.501279  0.000000  1
  Er  Er2  1  0.001279  0.000842  0.000000  1
  Th  Th3  1  0.322720  0.822720  0.500000  1
  Th  Th4  1  0.178207  0.320450  0.500000  1
  Th  Th5  1  0.820450  0.678207  0.500000  1
  Si  Si6  1  0.116621  0.616621  0.000000  1
  Si  Si7  1  0.880252  0.380252  0.000000  1
  Si  Si8  1  0.618093  0.885239  0.000000  1
  Si  Si9  1  0.385239  0.118093  0.000000  1
