# generated using pymatgen
data_Nd2SmRuI3
_symmetry_space_group_name_H-M   'P 1'
_cell_length_a   4.30521100
_cell_length_b   9.32139344
_cell_length_c   12.57361025
_cell_angle_alpha   86.59084111
_cell_angle_beta   90.00000000
_cell_angle_gamma   90.00000000
_symmetry_Int_Tables_number   1
_chemical_formula_structural   Nd2SmRuI3
_chemical_formula_sum   'Nd4 Sm2 Ru2 I6'
_cell_volume   503.69314237
_cell_formula_units_Z   2
loop_
 _symmetry_equiv_pos_site_id
 _symmetry_equiv_pos_as_xyz
  1  'x, y, z'
loop_
 _atom_site_type_symbol
 _atom_site_label
 _atom_site_symmetry_multiplicity
 _atom_site_fract_x
 _atom_site_fract_y
 _atom_site_fract_z
 _atom_site_occupancy
  Nd  Nd0  1  0.750000  0.690911  0.117542  1
  Nd  Nd1  1  0.250000  0.309089  0.882458  1
  Nd  Nd2  1  0.250000  0.885509  0.329601  1
  Nd  Nd3  1  0.750000  0.114491  0.670399  1
  Sm  Sm4  1  0.250000  0.906907  0.892271  1
  Sm  Sm5  1  0.750000  0.093093  0.107729  1
  Ru  Ru6  1  0.250000  0.892318  0.118225  1
  Ru  Ru7  1  0.750000  0.107682  0.881775  1
  I  I8  1  0.250000  0.865443  0.619353  1
  I  I9  1  0.750000  0.134557  0.380647  1
  I  I10  1  0.750000  0.633775  0.376904  1
  I  I11  1  0.250000  0.366225  0.623096  1
  I  I12  1  0.250000  0.392777  0.134872  1
  I  I13  1  0.750000  0.607223  0.865128  1
