# generated using pymatgen
data_YLuRe7Si4Mo
_symmetry_space_group_name_H-M   'P 1'
_cell_length_a   7.14371968
_cell_length_b   7.65005861
_cell_length_c   4.17988000
_cell_angle_alpha   90.00000000
_cell_angle_beta   90.00000000
_cell_angle_gamma   90.42690819
_symmetry_Int_Tables_number   1
_chemical_formula_structural   YLuRe7Si4Mo
_chemical_formula_sum   'Y1 Lu1 Re7 Si4 Mo1'
_cell_volume   228.42357548
_cell_formula_units_Z   1
loop_
 _symmetry_equiv_pos_site_id
 _symmetry_equiv_pos_as_xyz
  1  'x, y, z'
loop_
 _atom_site_type_symbol
 _atom_site_label
 _atom_site_symmetry_multiplicity
 _atom_site_fract_x
 _atom_site_fract_y
 _atom_site_fract_z
 _atom_site_occupancy
  Y  Y0  1  0.999123  0.000040  0.500000  1
  Lu  Lu1  1  0.501048  0.498560  0.000000  1
  Re  Re2  1  0.157412  0.603159  0.500000  1
  Re  Re3  1  0.087369  0.342271  0.000000  1
  Re  Re4  1  0.914391  0.656113  0.000000  1
  Re  Re5  1  0.415669  0.840161  0.500000  1
  Re  Re6  1  0.583181  0.163880  0.500000  1
  Re  Re7  1  0.344368  0.106973  0.000000  1
  Re  Re8  1  0.844635  0.395593  0.500000  1
  Si  Si9  1  0.222234  0.803474  0.000000  1
  Si  Si10  1  0.779344  0.198246  0.000000  1
  Si  Si11  1  0.720107  0.692822  0.500000  1
  Si  Si12  1  0.280436  0.305615  0.500000  1
  Mo  Mo13  1  0.650684  0.893094  0.000000  1
