# generated using pymatgen
data_Pa4Ti3Fe17P12
_symmetry_space_group_name_H-M   'P 1'
_cell_length_a   3.69736400
_cell_length_b   10.49290152
_cell_length_c   11.92956316
_cell_angle_alpha   90.26661812
_cell_angle_beta   90.00000000
_cell_angle_gamma   90.00000000
_symmetry_Int_Tables_number   1
_chemical_formula_structural   Pa4Ti3Fe17P12
_chemical_formula_sum   'Pa4 Ti3 Fe17 P12'
_cell_volume   462.81523193
_cell_formula_units_Z   1
loop_
 _symmetry_equiv_pos_site_id
 _symmetry_equiv_pos_as_xyz
  1  'x, y, z'
loop_
 _atom_site_type_symbol
 _atom_site_label
 _atom_site_symmetry_multiplicity
 _atom_site_fract_x
 _atom_site_fract_y
 _atom_site_fract_z
 _atom_site_occupancy
  Pa  Pa0  1  0.250000  0.574002  0.699622  1
  Pa  Pa1  1  0.250000  0.923526  0.202743  1
  Pa  Pa2  1  0.750000  0.417826  0.294632  1
  Pa  Pa3  1  0.750000  0.080106  0.796098  1
  Ti  Ti4  1  0.250000  0.694816  0.994297  1
  Ti  Ti5  1  0.250000  0.803561  0.494685  1
  Ti  Ti6  1  0.750000  0.305761  0.003044  1
  Fe  Fe7  1  0.750000  0.204439  0.505087  1
  Fe  Fe8  1  0.250000  0.398855  0.481895  1
  Fe  Fe9  1  0.250000  0.097192  0.981589  1
  Fe  Fe10  1  0.750000  0.590505  0.517446  1
  Fe  Fe11  1  0.750000  0.908460  0.021078  1
  Fe  Fe12  1  0.250000  0.222231  0.174286  1
  Fe  Fe13  1  0.250000  0.273527  0.665678  1
  Fe  Fe14  1  0.750000  0.781546  0.829900  1
  Fe  Fe15  1  0.750000  0.720612  0.329930  1
  Fe  Fe16  1  0.250000  0.881803  0.706254  1
  Fe  Fe17  1  0.250000  0.618588  0.207375  1
  Fe  Fe18  1  0.750000  0.115829  0.299552  1
  Fe  Fe19  1  0.750000  0.381754  0.791389  1
  Fe  Fe20  1  0.250000  0.466888  0.928920  1
  Fe  Fe21  1  0.250000  0.037881  0.432902  1
  Fe  Fe22  1  0.750000  0.534464  0.070221  1
  Fe  Fe23  1  0.750000  0.969799  0.569338  1
  P  P24  1  0.250000  0.424745  0.111751  1
  P  P25  1  0.250000  0.076569  0.610892  1
  P  P26  1  0.750000  0.573741  0.885240  1
  P  P27  1  0.750000  0.925699  0.388097  1
  P  P28  1  0.250000  0.276155  0.854074  1
  P  P29  1  0.250000  0.226284  0.364088  1
  P  P30  1  0.750000  0.726912  0.141658  1
  P  P31  1  0.750000  0.774205  0.641117  1
  P  P32  1  0.250000  0.594480  0.397336  1
  P  P33  1  0.250000  0.903390  0.896479  1
  P  P34  1  0.750000  0.388276  0.601201  1
  P  P35  1  0.750000  0.105573  0.110106  1
