# generated using pymatgen
data_La6MgP12Rh17
_symmetry_space_group_name_H-M   'P 1'
_cell_length_a   4.01794100
_cell_length_b   11.47614100
_cell_length_c   13.06799700
_cell_angle_alpha   90.00000000
_cell_angle_beta   90.00000000
_cell_angle_gamma   90.00000000
_symmetry_Int_Tables_number   1
_chemical_formula_structural   La6MgP12Rh17
_chemical_formula_sum   'La6 Mg1 P12 Rh17'
_cell_volume   602.57131957
_cell_formula_units_Z   1
loop_
 _symmetry_equiv_pos_site_id
 _symmetry_equiv_pos_as_xyz
  1  'x, y, z'
loop_
 _atom_site_type_symbol
 _atom_site_label
 _atom_site_symmetry_multiplicity
 _atom_site_fract_x
 _atom_site_fract_y
 _atom_site_fract_z
 _atom_site_occupancy
  La  La0  1  0.000000  0.500000  0.519231  1
  La  La1  1  0.500000  0.000000  0.477571  1
  La  La2  1  0.500000  0.819514  0.206291  1
  La  La3  1  0.500000  0.180486  0.206291  1
  La  La4  1  0.000000  0.681429  0.795398  1
  La  La5  1  0.000000  0.318571  0.795398  1
  Mg  Mg6  1  0.500000  0.500000  0.154670  1
  P  P7  1  0.500000  0.500000  0.885151  1
  P  P8  1  0.000000  0.000000  0.113765  1
  P  P9  1  0.500000  0.500000  0.348641  1
  P  P10  1  0.000000  0.000000  0.652843  1
  P  P11  1  0.500000  0.309848  0.616492  1
  P  P12  1  0.500000  0.690152  0.616492  1
  P  P13  1  0.000000  0.191815  0.385458  1
  P  P14  1  0.000000  0.808185  0.385458  1
  P  P15  1  0.500000  0.849442  0.891981  1
  P  P16  1  0.500000  0.150558  0.891981  1
  P  P17  1  0.000000  0.660930  0.104280  1
  P  P18  1  0.000000  0.339070  0.104280  1
  Rh  Rh19  1  0.000000  0.000000  0.828887  1
  Rh  Rh20  1  0.500000  0.500000  0.704252  1
  Rh  Rh21  1  0.000000  0.000000  0.296171  1
  Rh  Rh22  1  0.000000  0.500000  0.988105  1
  Rh  Rh23  1  0.500000  0.000000  0.014593  1
  Rh  Rh24  1  0.500000  0.331967  0.996750  1
  Rh  Rh25  1  0.500000  0.668033  0.996750  1
  Rh  Rh26  1  0.000000  0.164003  0.001886  1
  Rh  Rh27  1  0.000000  0.835997  0.001886  1
  Rh  Rh28  1  0.500000  0.287753  0.433944  1
  Rh  Rh29  1  0.500000  0.712247  0.433944  1
  Rh  Rh30  1  0.000000  0.203921  0.572734  1
  Rh  Rh31  1  0.000000  0.796079  0.572734  1
  Rh  Rh32  1  0.500000  0.876547  0.711250  1
  Rh  Rh33  1  0.500000  0.123453  0.711250  1
  Rh  Rh34  1  0.000000  0.624443  0.291596  1
  Rh  Rh35  1  0.000000  0.375557  0.291596  1
