# generated using pymatgen
data_Ti6AlIn5Rh12
_symmetry_space_group_name_H-M   'P 1'
_cell_length_a   4.30588500
_cell_length_b   6.79805600
_cell_length_c   12.87122900
_cell_angle_alpha   90.00000000
_cell_angle_beta   90.00000000
_cell_angle_gamma   90.00000000
_symmetry_Int_Tables_number   1
_chemical_formula_structural   Ti6AlIn5Rh12
_chemical_formula_sum   'Ti6 Al1 In5 Rh12'
_cell_volume   376.76207637
_cell_formula_units_Z   1
loop_
 _symmetry_equiv_pos_site_id
 _symmetry_equiv_pos_as_xyz
  1  'x, y, z'
loop_
 _atom_site_type_symbol
 _atom_site_label
 _atom_site_symmetry_multiplicity
 _atom_site_fract_x
 _atom_site_fract_y
 _atom_site_fract_z
 _atom_site_occupancy
  Ti  Ti0  1  0.000000  0.500000  0.997959  1
  Ti  Ti1  1  0.500003  0.000000  0.162409  1
  Ti  Ti2  1  0.000000  0.500000  0.333337  1
  Ti  Ti3  1  0.500000  0.000000  0.504268  1
  Ti  Ti4  1  0.000000  0.500000  0.668696  1
  Ti  Ti5  1  0.499996  0.000000  0.833354  1
  Al  Al6  1  0.499998  0.500000  0.833316  1
  In  In7  1  0.000000  0.000000  0.993971  1
  In  In8  1  0.500003  0.500000  0.166204  1
  In  In9  1  0.000000  0.000000  0.333369  1
  In  In10  1  0.500000  0.500000  0.500473  1
  In  In11  1  0.000000  0.000000  0.672665  1
  Rh  Rh12  1  0.500000  0.260467  0.994054  1
  Rh  Rh13  1  0.500000  0.739534  0.994054  1
  Rh  Rh14  1  0.000000  0.247366  0.164796  1
  Rh  Rh15  1  0.000000  0.752634  0.164796  1
  Rh  Rh16  1  0.500003  0.246246  0.333307  1
  Rh  Rh17  1  0.500003  0.753755  0.333307  1
  Rh  Rh18  1  0.000000  0.247319  0.501879  1
  Rh  Rh19  1  0.000000  0.752681  0.501879  1
  Rh  Rh20  1  0.499998  0.260438  0.672604  1
  Rh  Rh21  1  0.499998  0.739563  0.672604  1
  Rh  Rh22  1  0.000000  0.274821  0.833353  1
  Rh  Rh23  1  0.000000  0.725179  0.833353  1
