# generated using pymatgen
data_HoTm3InPt11
_symmetry_space_group_name_H-M   'P 1'
_cell_length_a   4.17007700
_cell_length_b   5.81595465
_cell_length_c   11.62798265
_cell_angle_alpha   87.90774168
_cell_angle_beta   90.00000000
_cell_angle_gamma   90.00000000
_symmetry_Int_Tables_number   1
_chemical_formula_structural   HoTm3InPt11
_chemical_formula_sum   'Ho1 Tm3 In1 Pt11'
_cell_volume   281.82520771
_cell_formula_units_Z   1
loop_
 _symmetry_equiv_pos_site_id
 _symmetry_equiv_pos_as_xyz
  1  'x, y, z'
loop_
 _atom_site_type_symbol
 _atom_site_label
 _atom_site_symmetry_multiplicity
 _atom_site_fract_x
 _atom_site_fract_y
 _atom_site_fract_z
 _atom_site_occupancy
  Ho  Ho0  1  0.500000  0.755704  0.375963  1
  Tm  Tm1  1  0.500000  0.718084  0.862349  1
  Tm  Tm2  1  0.500000  0.281941  0.137525  1
  Tm  Tm3  1  0.500000  0.244377  0.624213  1
  In  In4  1  0.000000  0.999775  0.999841  1
  Pt  Pt5  1  0.000000  0.015689  0.249082  1
  Pt  Pt6  1  0.000000  0.985140  0.750441  1
  Pt  Pt7  1  0.000000  0.499895  0.999736  1
  Pt  Pt8  1  0.000000  0.499207  0.500674  1
  Pt  Pt9  1  0.000000  0.516257  0.249679  1
  Pt  Pt10  1  0.000000  0.483168  0.749961  1
  Pt  Pt11  1  0.500000  0.254087  0.377657  1
  Pt  Pt12  1  0.500000  0.229693  0.879787  1
  Pt  Pt13  1  0.500000  0.770391  0.119530  1
  Pt  Pt14  1  0.500000  0.745864  0.622980  1
  Pt  Pt15  1  0.000000  0.000728  0.500581  1
