# generated using pymatgen
data_Dy2Tm2B12IrRu
_symmetry_space_group_name_H-M   'P 1'
_cell_length_a   3.63560500
_cell_length_b   9.13123181
_cell_length_c   11.46853305
_cell_angle_alpha   90.04859749
_cell_angle_beta   90.00000000
_cell_angle_gamma   90.00000000
_symmetry_Int_Tables_number   1
_chemical_formula_structural   Dy2Tm2B12IrRu
_chemical_formula_sum   'Dy4 Tm4 B24 Ir2 Ru2'
_cell_volume   380.72708547
_cell_formula_units_Z   2
loop_
 _symmetry_equiv_pos_site_id
 _symmetry_equiv_pos_as_xyz
  1  'x, y, z'
loop_
 _atom_site_type_symbol
 _atom_site_label
 _atom_site_symmetry_multiplicity
 _atom_site_fract_x
 _atom_site_fract_y
 _atom_site_fract_z
 _atom_site_occupancy
  Dy  Dy0  1  0.000000  0.318520  0.412312  1
  Dy  Dy1  1  0.000000  0.681480  0.587688  1
  Dy  Dy2  1  0.000000  0.822527  0.084905  1
  Dy  Dy3  1  0.000000  0.177473  0.915095  1
  Tm  Tm4  1  0.000000  0.945916  0.372664  1
  Tm  Tm5  1  0.000000  0.054084  0.627336  1
  Tm  Tm6  1  0.000000  0.442260  0.125942  1
  Tm  Tm7  1  0.000000  0.557740  0.874058  1
  B  B8  1  0.500000  0.553479  0.433499  1
  B  B9  1  0.500000  0.446521  0.566501  1
  B  B10  1  0.500000  0.054505  0.067037  1
  B  B11  1  0.500000  0.945495  0.932963  1
  B  B12  1  0.500000  0.751497  0.419846  1
  B  B13  1  0.500000  0.248503  0.580154  1
  B  B14  1  0.500000  0.248950  0.080505  1
  B  B15  1  0.500000  0.751050  0.919495  1
  B  B16  1  0.500000  0.792955  0.265581  1
  B  B17  1  0.500000  0.207045  0.734419  1
  B  B18  1  0.500000  0.292006  0.234547  1
  B  B19  1  0.500000  0.707994  0.765453  1
  B  B20  1  0.500000  0.630899  0.183658  1
  B  B21  1  0.500000  0.369101  0.816342  1
  B  B22  1  0.500000  0.131486  0.315375  1
  B  B23  1  0.500000  0.868514  0.684625  1
  B  B24  1  0.500000  0.983534  0.213234  1
  B  B25  1  0.500000  0.016466  0.786766  1
  B  B26  1  0.500000  0.481783  0.286051  1
  B  B27  1  0.500000  0.518217  0.713949  1
  B  B28  1  0.500000  0.607300  0.029573  1
  B  B29  1  0.500000  0.392700  0.970427  1
  B  B30  1  0.500000  0.107062  0.471085  1
  B  B31  1  0.500000  0.892938  0.528915  1
  Ir  Ir32  1  0.000000  0.637982  0.321557  1
  Ir  Ir33  1  0.000000  0.362018  0.678443  1
  Ru  Ru34  1  0.000000  0.138374  0.179481  1
  Ru  Ru35  1  0.000000  0.861626  0.820519  1
