# generated using pymatgen
data_NdGd6Sn23Ir6
_symmetry_space_group_name_H-M   'P 1'
_cell_length_a   9.88407100
_cell_length_b   9.88407211
_cell_length_c   10.13333600
_cell_angle_alpha   90.00000000
_cell_angle_beta   90.00000000
_cell_angle_gamma   120.00000631
_symmetry_Int_Tables_number   1
_chemical_formula_structural   NdGd6Sn23Ir6
_chemical_formula_sum   'Nd1 Gd6 Sn23 Ir6'
_cell_volume   857.34340024
_cell_formula_units_Z   1
loop_
 _symmetry_equiv_pos_site_id
 _symmetry_equiv_pos_as_xyz
  1  'x, y, z'
loop_
 _atom_site_type_symbol
 _atom_site_label
 _atom_site_symmetry_multiplicity
 _atom_site_fract_x
 _atom_site_fract_y
 _atom_site_fract_z
 _atom_site_occupancy
  Nd  Nd0  1  0.000000  0.000000  0.000000  1
  Gd  Gd1  1  0.041585  0.520793  0.307248  1
  Gd  Gd2  1  0.479207  0.958415  0.307248  1
  Gd  Gd3  1  0.479207  0.520793  0.307248  1
  Gd  Gd4  1  0.958415  0.479207  0.692752  1
  Gd  Gd5  1  0.520793  0.041585  0.692752  1
  Gd  Gd6  1  0.520793  0.479207  0.692752  1
  Sn  Sn7  1  0.000000  0.000000  0.500000  1
  Sn  Sn8  1  0.118895  0.881105  0.284215  1
  Sn  Sn9  1  0.762210  0.881105  0.284215  1
  Sn  Sn10  1  0.118895  0.237790  0.284215  1
  Sn  Sn11  1  0.881105  0.118895  0.715785  1
  Sn  Sn12  1  0.237790  0.118895  0.715785  1
  Sn  Sn13  1  0.881105  0.762210  0.715785  1
  Sn  Sn14  1  0.352427  0.000000  0.000000  1
  Sn  Sn15  1  0.647573  0.647573  0.000000  1
  Sn  Sn16  1  0.000000  0.352427  0.000000  1
  Sn  Sn17  1  0.352427  0.352427  0.000000  1
  Sn  Sn18  1  0.000000  0.647573  0.000000  1
  Sn  Sn19  1  0.647573  0.000000  0.000000  1
  Sn  Sn20  1  0.778007  0.556012  0.455407  1
  Sn  Sn21  1  0.778007  0.221993  0.455407  1
  Sn  Sn22  1  0.443988  0.221993  0.455407  1
  Sn  Sn23  1  0.221993  0.443988  0.544593  1
  Sn  Sn24  1  0.221993  0.778007  0.544593  1
  Sn  Sn25  1  0.556012  0.778007  0.544593  1
  Sn  Sn26  1  0.666667  0.333333  0.174784  1
  Sn  Sn27  1  0.333333  0.666667  0.825216  1
  Sn  Sn28  1  0.666667  0.333333  0.880359  1
  Sn  Sn29  1  0.333333  0.666667  0.119641  1
  Ir  Ir30  1  0.169102  0.830898  0.801051  1
  Ir  Ir31  1  0.661796  0.830898  0.801051  1
  Ir  Ir32  1  0.169102  0.338204  0.801051  1
  Ir  Ir33  1  0.830898  0.169102  0.198949  1
  Ir  Ir34  1  0.338204  0.169102  0.198949  1
  Ir  Ir35  1  0.830898  0.661796  0.198949  1
