# generated using pymatgen
data_Er3Al12CoRh3
_symmetry_space_group_name_H-M   'P 1'
_cell_length_a   8.76335200
_cell_length_b   8.76335334
_cell_length_c   9.41766900
_cell_angle_alpha   90.00000000
_cell_angle_beta   90.00000000
_cell_angle_gamma   119.99999495
_symmetry_Int_Tables_number   1
_chemical_formula_structural   Er3Al12CoRh3
_chemical_formula_sum   'Er6 Al24 Co2 Rh6'
_cell_volume   626.34650072
_cell_formula_units_Z   2
loop_
 _symmetry_equiv_pos_site_id
 _symmetry_equiv_pos_as_xyz
  1  'x, y, z'
loop_
 _atom_site_type_symbol
 _atom_site_label
 _atom_site_symmetry_multiplicity
 _atom_site_fract_x
 _atom_site_fract_y
 _atom_site_fract_z
 _atom_site_occupancy
  Er  Er0  1  0.194355  0.388711  0.250000  1
  Er  Er1  1  0.805645  0.611289  0.750000  1
  Er  Er2  1  0.611289  0.805645  0.250000  1
  Er  Er3  1  0.388711  0.194355  0.750000  1
  Er  Er4  1  0.194355  0.805645  0.250000  1
  Er  Er5  1  0.805645  0.194355  0.750000  1
  Al  Al6  1  0.333333  0.666667  0.025391  1
  Al  Al7  1  0.666667  0.333333  0.974609  1
  Al  Al8  1  0.666667  0.333333  0.525391  1
  Al  Al9  1  0.333333  0.666667  0.474609  1
  Al  Al10  1  0.160715  0.321428  0.577681  1
  Al  Al11  1  0.839285  0.678572  0.422319  1
  Al  Al12  1  0.678572  0.839285  0.577681  1
  Al  Al13  1  0.839285  0.678572  0.077681  1
  Al  Al14  1  0.321428  0.160715  0.422319  1
  Al  Al15  1  0.160715  0.321428  0.922319  1
  Al  Al16  1  0.160715  0.839285  0.577681  1
  Al  Al17  1  0.321428  0.160715  0.077681  1
  Al  Al18  1  0.839285  0.160715  0.422319  1
  Al  Al19  1  0.678572  0.839285  0.922319  1
  Al  Al20  1  0.839285  0.160715  0.077681  1
  Al  Al21  1  0.160715  0.839285  0.922319  1
  Al  Al22  1  0.561886  0.123774  0.250000  1
  Al  Al23  1  0.438114  0.876226  0.750000  1
  Al  Al24  1  0.876226  0.438114  0.250000  1
  Al  Al25  1  0.123774  0.561886  0.750000  1
  Al  Al26  1  0.561886  0.438114  0.250000  1
  Al  Al27  1  0.438114  0.561886  0.750000  1
  Al  Al28  1  0.000000  0.000000  0.250000  1
  Al  Al29  1  0.000000  0.000000  0.750000  1
  Co  Co30  1  0.000000  0.000000  0.000000  1
  Co  Co31  1  0.000000  0.000000  0.500000  1
  Rh  Rh32  1  0.500000  0.000000  0.000000  1
  Rh  Rh33  1  0.000000  0.500000  0.000000  1
  Rh  Rh34  1  0.500000  0.000000  0.500000  1
  Rh  Rh35  1  0.500000  0.500000  0.000000  1
  Rh  Rh36  1  0.000000  0.500000  0.500000  1
  Rh  Rh37  1  0.500000  0.500000  0.500000  1
