# generated using pymatgen
data_MnBe5(Fe2Si)6
_symmetry_space_group_name_H-M   'P 1'
_cell_length_a   3.84245800
_cell_length_b   5.40998300
_cell_length_c   11.53091700
_cell_angle_alpha   90.00000000
_cell_angle_beta   89.99925952
_cell_angle_gamma   90.00000000
_symmetry_Int_Tables_number   1
_chemical_formula_structural   MnBe5(Fe2Si)6
_chemical_formula_sum   'Mn1 Be5 Fe12 Si6'
_cell_volume   239.70046449
_cell_formula_units_Z   1
loop_
 _symmetry_equiv_pos_site_id
 _symmetry_equiv_pos_as_xyz
  1  'x, y, z'
loop_
 _atom_site_type_symbol
 _atom_site_label
 _atom_site_symmetry_multiplicity
 _atom_site_fract_x
 _atom_site_fract_y
 _atom_site_fract_z
 _atom_site_occupancy
  Mn  Mn0  1  0.000000  0.000000  0.000000  1
  Be  Be1  1  0.499938  0.500001  0.167671  1
  Be  Be2  1  0.999745  0.000000  0.333577  1
  Be  Be3  1  0.499999  0.500001  0.500000  1
  Be  Be4  1  0.000255  0.000000  0.666423  1
  Be  Be5  1  0.500062  0.500001  0.832328  1
  Fe  Fe6  1  0.499999  0.256454  0.000000  1
  Fe  Fe7  1  0.499999  0.743546  0.000000  1
  Fe  Fe8  1  0.999939  0.254263  0.170035  1
  Fe  Fe9  1  0.999939  0.745736  0.170035  1
  Fe  Fe10  1  0.499813  0.249756  0.333870  1
  Fe  Fe11  1  0.499813  0.750246  0.333870  1
  Fe  Fe12  1  0.000000  0.248666  0.500000  1
  Fe  Fe13  1  0.000000  0.751333  0.500000  1
  Fe  Fe14  1  0.500187  0.249756  0.666130  1
  Fe  Fe15  1  0.500187  0.750246  0.666130  1
  Fe  Fe16  1  0.000061  0.254263  0.829965  1
  Fe  Fe17  1  0.000061  0.745736  0.829965  1
  Si  Si18  1  0.000000  0.500001  0.000000  1
  Si  Si19  1  0.499947  0.000000  0.166757  1
  Si  Si20  1  0.999786  0.500001  0.337259  1
  Si  Si21  1  0.499999  0.000000  0.500000  1
  Si  Si22  1  0.000214  0.500001  0.662741  1
  Si  Si23  1  0.500053  0.000000  0.833243  1
