# generated using pymatgen
data_La8Cd2SnPbAu8
_symmetry_space_group_name_H-M   'P 1'
_cell_length_a   8.29567100
_cell_length_b   8.29567100
_cell_length_c   7.90565000
_cell_angle_alpha   90.00000000
_cell_angle_beta   90.00000000
_cell_angle_gamma   90.00000000
_symmetry_Int_Tables_number   1
_chemical_formula_structural   La8Cd2SnPbAu8
_chemical_formula_sum   'La8 Cd2 Sn1 Pb1 Au8'
_cell_volume   544.05226558
_cell_formula_units_Z   1
loop_
 _symmetry_equiv_pos_site_id
 _symmetry_equiv_pos_as_xyz
  1  'x, y, z'
loop_
 _atom_site_type_symbol
 _atom_site_label
 _atom_site_symmetry_multiplicity
 _atom_site_fract_x
 _atom_site_fract_y
 _atom_site_fract_z
 _atom_site_occupancy
  La  La0  1  0.835902  0.169018  0.498992  1
  La  La1  1  0.164098  0.830982  0.498992  1
  La  La2  1  0.330982  0.335902  0.001008  1
  La  La3  1  0.669018  0.664098  0.001008  1
  La  La4  1  0.681188  0.677428  0.499238  1
  La  La5  1  0.318812  0.322572  0.499238  1
  La  La6  1  0.177428  0.818812  0.000762  1
  La  La7  1  0.822572  0.181188  0.000762  1
  Cd  Cd8  1  0.500000  0.000000  0.250000  1
  Cd  Cd9  1  0.000000  0.500000  0.750000  1
  Sn  Sn10  1  0.000000  0.500000  0.250000  1
  Pb  Pb11  1  0.500000  0.000000  0.750000  1
  Au  Au12  1  0.621092  0.368677  0.262988  1
  Au  Au13  1  0.378908  0.631323  0.262988  1
  Au  Au14  1  0.121087  0.130680  0.762994  1
  Au  Au15  1  0.878913  0.869320  0.762994  1
  Au  Au16  1  0.369320  0.621087  0.737006  1
  Au  Au17  1  0.630680  0.378913  0.737006  1
  Au  Au18  1  0.868677  0.878908  0.237012  1
  Au  Au19  1  0.131323  0.121092  0.237012  1
