# generated using pymatgen
data_TbY(SbRh)2
_symmetry_space_group_name_H-M   'P 1'
_cell_length_a   4.57632300
_cell_length_b   7.21450923
_cell_length_c   7.87160925
_cell_angle_alpha   89.97128955
_cell_angle_beta   90.00000000
_cell_angle_gamma   90.00000000
_symmetry_Int_Tables_number   1
_chemical_formula_structural   TbY(SbRh)2
_chemical_formula_sum   'Tb2 Y2 Sb4 Rh4'
_cell_volume   259.88842402
_cell_formula_units_Z   2
loop_
 _symmetry_equiv_pos_site_id
 _symmetry_equiv_pos_as_xyz
  1  'x, y, z'
loop_
 _atom_site_type_symbol
 _atom_site_label
 _atom_site_symmetry_multiplicity
 _atom_site_fract_x
 _atom_site_fract_y
 _atom_site_fract_z
 _atom_site_occupancy
  Tb  Tb0  1  0.250000  0.009043  0.298206  1
  Tb  Tb1  1  0.750000  0.990957  0.701794  1
  Y  Y2  1  0.250000  0.508726  0.201670  1
  Y  Y3  1  0.750000  0.491274  0.798330  1
  Sb  Sb4  1  0.250000  0.194465  0.908019  1
  Sb  Sb5  1  0.750000  0.305962  0.407867  1
  Sb  Sb6  1  0.250000  0.694038  0.592133  1
  Sb  Sb7  1  0.750000  0.805535  0.091981  1
  Rh  Rh8  1  0.750000  0.195040  0.082043  1
  Rh  Rh9  1  0.250000  0.305088  0.581859  1
  Rh  Rh10  1  0.750000  0.694912  0.418141  1
  Rh  Rh11  1  0.250000  0.804960  0.917957  1
