# generated using pymatgen
data_Dy7CoNiSn23Ru4
_symmetry_space_group_name_H-M   'P 1'
_cell_length_a   9.81550828
_cell_length_b   9.80731547
_cell_length_c   10.05715344
_cell_angle_alpha   89.94092357
_cell_angle_beta   90.09669785
_cell_angle_gamma   120.12755001
_symmetry_Int_Tables_number   1
_chemical_formula_structural   Dy7CoNiSn23Ru4
_chemical_formula_sum   'Dy7 Co1 Ni1 Sn23 Ru4'
_cell_volume   837.35263866
_cell_formula_units_Z   1
loop_
 _symmetry_equiv_pos_site_id
 _symmetry_equiv_pos_as_xyz
  1  'x, y, z'
loop_
 _atom_site_type_symbol
 _atom_site_label
 _atom_site_symmetry_multiplicity
 _atom_site_fract_x
 _atom_site_fract_y
 _atom_site_fract_z
 _atom_site_occupancy
  Dy  Dy0  1  0.015833  0.000312  0.000706  1
  Dy  Dy1  1  0.481875  0.520243  0.304878  1
  Dy  Dy2  1  0.517229  0.480824  0.694632  1
  Dy  Dy3  1  0.480257  0.961702  0.306326  1
  Dy  Dy4  1  0.517762  0.035954  0.694175  1
  Dy  Dy5  1  0.036238  0.519921  0.305990  1
  Dy  Dy6  1  0.962595  0.480920  0.695291  1
  Co  Co7  1  0.659088  0.829250  0.800631  1
  Ni  Ni8  1  0.828111  0.170719  0.197821  1
  Sn  Sn9  1  0.353336  0.999696  0.999996  1
  Sn  Sn10  1  0.654300  0.996727  0.997901  1
  Sn  Sn11  1  0.999751  0.347252  0.002072  1
  Sn  Sn12  1  0.998418  0.648637  0.000270  1
  Sn  Sn13  1  0.652852  0.655623  0.995767  1
  Sn  Sn14  1  0.351293  0.352079  0.999243  1
  Sn  Sn15  1  0.335395  0.667293  0.818083  1
  Sn  Sn16  1  0.665477  0.334656  0.181476  1
  Sn  Sn17  1  0.001006  0.999407  0.499508  1
  Sn  Sn18  1  0.779279  0.219491  0.455205  1
  Sn  Sn19  1  0.219593  0.779744  0.541919  1
  Sn  Sn20  1  0.779748  0.561051  0.459239  1
  Sn  Sn21  1  0.219760  0.441139  0.541241  1
  Sn  Sn22  1  0.440143  0.220269  0.457503  1
  Sn  Sn23  1  0.563342  0.781704  0.547107  1
  Sn  Sn24  1  0.331988  0.665979  0.121960  1
  Sn  Sn25  1  0.665997  0.332142  0.878018  1
  Sn  Sn26  1  0.119455  0.881061  0.278298  1
  Sn  Sn27  1  0.876265  0.110460  0.726566  1
  Sn  Sn28  1  0.113238  0.235575  0.275187  1
  Sn  Sn29  1  0.877022  0.765874  0.727476  1
  Sn  Sn30  1  0.762872  0.886700  0.274059  1
  Sn  Sn31  1  0.238546  0.118628  0.723477  1
  Ru  Ru32  1  0.167740  0.830470  0.800413  1
  Ru  Ru33  1  0.830442  0.663816  0.200072  1
  Ru  Ru34  1  0.166960  0.335829  0.798806  1
  Ru  Ru35  1  0.336795  0.168859  0.198682  1
