# generated using pymatgen
data_Cs3SiS3
_symmetry_space_group_name_H-M   'P 1'
_cell_length_a   10.34092533
_cell_length_b   10.34092516
_cell_length_c   9.40911637
_cell_angle_alpha   85.23409459
_cell_angle_beta   85.23409304
_cell_angle_gamma   79.99966324
_symmetry_Int_Tables_number   1
_chemical_formula_structural   Cs3SiS3
_chemical_formula_sum   'Cs12 Si4 S12'
_cell_volume   985.02920699
_cell_formula_units_Z   4
loop_
 _symmetry_equiv_pos_site_id
 _symmetry_equiv_pos_as_xyz
  1  'x, y, z'
loop_
 _atom_site_type_symbol
 _atom_site_label
 _atom_site_symmetry_multiplicity
 _atom_site_fract_x
 _atom_site_fract_y
 _atom_site_fract_z
 _atom_site_occupancy
  Cs  Cs0  1  0.202373  0.248336  0.305492  1
  Cs  Cs1  1  0.751664  0.797627  0.194508  1
  Cs  Cs2  1  0.797627  0.751664  0.694508  1
  Cs  Cs3  1  0.248336  0.202373  0.805492  1
  Cs  Cs4  1  0.197571  0.608945  0.625158  1
  Cs  Cs5  1  0.391055  0.802429  0.874842  1
  Cs  Cs6  1  0.802429  0.391055  0.374842  1
  Cs  Cs7  1  0.608945  0.197571  0.125158  1
  Cs  Cs8  1  0.588628  0.411372  0.750000  1
  Cs  Cs9  1  0.411372  0.588628  0.250000  1
  Cs  Cs10  1  0.077583  0.922417  0.250000  1
  Cs  Cs11  1  0.922417  0.077583  0.750000  1
  Si  Si12  1  0.565688  0.078070  0.537679  1
  Si  Si13  1  0.921930  0.434312  0.962321  1
  Si  Si14  1  0.434312  0.921930  0.462321  1
  Si  Si15  1  0.078070  0.565688  0.037679  1
  S  S16  1  0.579534  0.056024  0.767806  1
  S  S17  1  0.943976  0.420466  0.732194  1
  S  S18  1  0.420466  0.943976  0.232194  1
  S  S19  1  0.056024  0.579534  0.267806  1
  S  S20  1  0.472756  0.278029  0.475227  1
  S  S21  1  0.721971  0.527244  0.024773  1
  S  S22  1  0.527244  0.721971  0.524773  1
  S  S23  1  0.278029  0.472756  0.975227  1
  S  S24  1  0.762066  0.043305  0.434860  1
  S  S25  1  0.956695  0.237934  0.065140  1
  S  S26  1  0.237934  0.956695  0.565140  1
  S  S27  1  0.043305  0.762066  0.934860  1
