# generated using pymatgen
data_Ba3Na2Ca(ReN4)2
_symmetry_space_group_name_H-M   'P 1'
_cell_length_a   6.16290700
_cell_length_b   6.57033875
_cell_length_c   7.35764536
_cell_angle_alpha   73.49921748
_cell_angle_beta   90.00000000
_cell_angle_gamma   90.00000000
_symmetry_Int_Tables_number   1
_chemical_formula_structural   Ba3Na2Ca(ReN4)2
_chemical_formula_sum   'Ba3 Na2 Ca1 Re2 N8'
_cell_volume   285.65868572
_cell_formula_units_Z   1
loop_
 _symmetry_equiv_pos_site_id
 _symmetry_equiv_pos_as_xyz
  1  'x, y, z'
loop_
 _atom_site_type_symbol
 _atom_site_label
 _atom_site_symmetry_multiplicity
 _atom_site_fract_x
 _atom_site_fract_y
 _atom_site_fract_z
 _atom_site_occupancy
  Ba  Ba0  1  0.750000  0.731062  0.945331  1
  Ba  Ba1  1  0.750000  0.771242  0.437238  1
  Ba  Ba2  1  0.250000  0.245148  0.545888  1
  Na  Na3  1  0.750000  0.290678  0.297953  1
  Na  Na4  1  0.250000  0.709747  0.703677  1
  Ca  Ca5  1  0.250000  0.233525  0.024077  1
  Re  Re6  1  0.250000  0.737022  0.196862  1
  Re  Re7  1  0.750000  0.266022  0.810220  1
  N  N8  1  0.507498  0.437350  0.771043  1
  N  N9  1  0.014292  0.559665  0.255000  1
  N  N10  1  0.485708  0.559665  0.255000  1
  N  N11  1  0.992502  0.437350  0.771043  1
  N  N12  1  0.750000  0.099932  0.644187  1
  N  N13  1  0.250000  0.929064  0.340125  1
  N  N14  1  0.750000  0.100228  0.055765  1
  N  N15  1  0.250000  0.892300  0.946593  1
