# generated using pymatgen
data_Sc22Os3Ru4Pt
_symmetry_space_group_name_H-M   'P 1'
_cell_length_a   9.43972598
_cell_length_b   9.42258085
_cell_length_c   9.43972520
_cell_angle_alpha   60.70470727
_cell_angle_beta   60.53785867
_cell_angle_gamma   60.70471428
_symmetry_Int_Tables_number   1
_chemical_formula_structural   Sc22Os3Ru4Pt
_chemical_formula_sum   'Sc22 Os3 Ru4 Pt1'
_cell_volume   602.40649404
_cell_formula_units_Z   1
loop_
 _symmetry_equiv_pos_site_id
 _symmetry_equiv_pos_as_xyz
  1  'x, y, z'
loop_
 _atom_site_type_symbol
 _atom_site_label
 _atom_site_symmetry_multiplicity
 _atom_site_fract_x
 _atom_site_fract_y
 _atom_site_fract_z
 _atom_site_occupancy
  Sc  Sc0  1  0.843853  0.843621  0.843853  1
  Sc  Sc1  1  0.530226  0.155664  0.150232  1
  Sc  Sc2  1  0.150232  0.155664  0.530226  1
  Sc  Sc3  1  0.154335  0.530244  0.154335  1
  Sc  Sc4  1  0.849768  0.844336  0.469774  1
  Sc  Sc5  1  0.845665  0.469756  0.845665  1
  Sc  Sc6  1  0.469774  0.844336  0.849768  1
  Sc  Sc7  1  0.156147  0.156379  0.156147  1
  Sc  Sc8  1  0.197516  0.799928  0.197516  1
  Sc  Sc9  1  0.199232  0.800898  0.803978  1
  Sc  Sc10  1  0.800768  0.199102  0.196022  1
  Sc  Sc11  1  0.803978  0.800898  0.199232  1
  Sc  Sc12  1  0.196022  0.199102  0.800768  1
  Sc  Sc13  1  0.802484  0.200072  0.802484  1
  Sc  Sc14  1  0.378861  0.386695  0.378861  1
  Sc  Sc15  1  0.151119  0.612936  0.616006  1
  Sc  Sc16  1  0.616168  0.152976  0.616168  1
  Sc  Sc17  1  0.616006  0.612936  0.151119  1
  Sc  Sc18  1  0.383832  0.847024  0.383832  1
  Sc  Sc19  1  0.383994  0.387064  0.848881  1
  Sc  Sc20  1  0.848881  0.387064  0.383994  1
  Sc  Sc21  1  0.621139  0.613305  0.621139  1
  Os  Os22  1  0.500000  0.500000  0.000000  1
  Os  Os23  1  0.000000  0.500000  0.500000  1
  Os  Os24  1  0.500000  0.500000  0.500000  1
  Ru  Ru25  1  0.000000  0.000000  0.500000  1
  Ru  Ru26  1  0.500000  0.000000  0.000000  1
  Ru  Ru27  1  0.000000  0.500000  0.000000  1
  Ru  Ru28  1  0.000000  0.000000  0.000000  1
  Pt  Pt29  1  0.500000  0.000000  0.500000  1
