# generated using pymatgen
data_Dy14Lu2ZnIn3Rh4
_symmetry_space_group_name_H-M   'P 1'
_cell_length_a   9.59987460
_cell_length_b   9.61247570
_cell_length_c   9.59043764
_cell_angle_alpha   59.92395297
_cell_angle_beta   60.02809454
_cell_angle_gamma   59.95655938
_symmetry_Int_Tables_number   1
_chemical_formula_structural   Dy14Lu2ZnIn3Rh4
_chemical_formula_sum   'Dy14 Lu2 Zn1 In3 Rh4'
_cell_volume   625.35029850
_cell_formula_units_Z   1
loop_
 _symmetry_equiv_pos_site_id
 _symmetry_equiv_pos_as_xyz
  1  'x, y, z'
loop_
 _atom_site_type_symbol
 _atom_site_label
 _atom_site_symmetry_multiplicity
 _atom_site_fract_x
 _atom_site_fract_y
 _atom_site_fract_z
 _atom_site_occupancy
  Dy  Dy0  1  0.312700  0.688511  0.310278  1
  Dy  Dy1  1  0.935221  0.937552  0.556858  1
  Dy  Dy2  1  0.147359  0.151635  0.549371  1
  Dy  Dy3  1  0.566506  0.939351  0.554791  1
  Dy  Dy4  1  0.147994  0.152406  0.151027  1
  Dy  Dy5  1  0.311814  0.307844  0.690160  1
  Dy  Dy6  1  0.935221  0.570369  0.556858  1
  Dy  Dy7  1  0.563151  0.562847  0.936547  1
  Dy  Dy8  1  0.563151  0.937455  0.936547  1
  Dy  Dy9  1  0.934728  0.565090  0.935092  1
  Dy  Dy10  1  0.147994  0.548570  0.151027  1
  Dy  Dy11  1  0.311814  0.690182  0.690160  1
  Dy  Dy12  1  0.690139  0.310352  0.689157  1
  Dy  Dy13  1  0.555070  0.148490  0.147948  1
  Lu  Lu14  1  0.689373  0.310454  0.311425  1
  Lu  Lu15  1  0.689373  0.688748  0.311425  1
  Zn  Zn16  1  0.918554  0.914925  0.251597  1
  In  In17  1  0.243266  0.916081  0.924571  1
  In  In18  1  0.917644  0.244007  0.922846  1
  In  In19  1  0.917644  0.915502  0.922846  1
  Rh  Rh20  1  0.360563  0.355197  0.357395  1
  Rh  Rh21  1  0.922168  0.360239  0.357357  1
  Rh  Rh22  1  0.357986  0.357346  0.927322  1
  Rh  Rh23  1  0.360563  0.926846  0.357395  1
