# generated using pymatgen
data_Er11Sc(Si3Ir)4
_symmetry_space_group_name_H-M   'P 1'
_cell_length_a   4.19010600
_cell_length_b   10.56912461
_cell_length_c   12.14041201
_cell_angle_alpha   89.87951616
_cell_angle_beta   90.00000000
_cell_angle_gamma   90.00000000
_symmetry_Int_Tables_number   1
_chemical_formula_structural   Er11Sc(Si3Ir)4
_chemical_formula_sum   'Er11 Sc1 Si12 Ir4'
_cell_volume   537.64609212
_cell_formula_units_Z   1
loop_
 _symmetry_equiv_pos_site_id
 _symmetry_equiv_pos_as_xyz
  1  'x, y, z'
loop_
 _atom_site_type_symbol
 _atom_site_label
 _atom_site_symmetry_multiplicity
 _atom_site_fract_x
 _atom_site_fract_y
 _atom_site_fract_z
 _atom_site_occupancy
  Er  Er0  1  0.250000  0.881215  0.019291  1
  Er  Er1  1  0.250000  0.619378  0.519858  1
  Er  Er2  1  0.750000  0.120337  0.977300  1
  Er  Er3  1  0.750000  0.377408  0.481756  1
  Er  Er4  1  0.250000  0.920559  0.603239  1
  Er  Er5  1  0.250000  0.581105  0.103028  1
  Er  Er6  1  0.750000  0.080508  0.399045  1
  Er  Er7  1  0.750000  0.418117  0.895757  1
  Er  Er8  1  0.250000  0.659291  0.800811  1
  Er  Er9  1  0.250000  0.842660  0.301079  1
  Er  Er10  1  0.750000  0.339511  0.199359  1
  Sc  Sc11  1  0.750000  0.159880  0.701393  1
  Si  Si12  1  0.250000  0.013565  0.819621  1
  Si  Si13  1  0.250000  0.487718  0.321298  1
  Si  Si14  1  0.750000  0.990234  0.178791  1
  Si  Si15  1  0.750000  0.511991  0.678659  1
  Si  Si16  1  0.250000  0.244909  0.836965  1
  Si  Si17  1  0.250000  0.252250  0.343428  1
  Si  Si18  1  0.750000  0.754370  0.158918  1
  Si  Si19  1  0.750000  0.746449  0.658160  1
  Si  Si20  1  0.250000  0.197201  0.551172  1
  Si  Si21  1  0.250000  0.299764  0.042178  1
  Si  Si22  1  0.750000  0.799383  0.456332  1
  Si  Si23  1  0.750000  0.700998  0.955834  1
  Ir  Ir24  1  0.250000  0.388650  0.679958  1
  Ir  Ir25  1  0.250000  0.111172  0.180507  1
  Ir  Ir26  1  0.750000  0.609913  0.319143  1
  Ir  Ir27  1  0.750000  0.891461  0.817121  1
