# generated using pymatgen
data_Zn4Te(PN2)6
_symmetry_space_group_name_H-M   'P 1'
_cell_length_a   7.24752468
_cell_length_b   7.24752526
_cell_length_c   7.24752500
_cell_angle_alpha   109.47121432
_cell_angle_beta   109.47121593
_cell_angle_gamma   109.47122374
_symmetry_Int_Tables_number   1
_chemical_formula_structural   Zn4Te(PN2)6
_chemical_formula_sum   'Zn4 Te1 P6 N12'
_cell_volume   293.05377124
_cell_formula_units_Z   1
loop_
 _symmetry_equiv_pos_site_id
 _symmetry_equiv_pos_as_xyz
  1  'x, y, z'
loop_
 _atom_site_type_symbol
 _atom_site_label
 _atom_site_symmetry_multiplicity
 _atom_site_fract_x
 _atom_site_fract_y
 _atom_site_fract_z
 _atom_site_occupancy
  Zn  Zn0  1  0.000000  0.361012  0.000000  1
  Zn  Zn1  1  0.638988  0.638988  0.638988  1
  Zn  Zn2  1  0.361012  0.000000  0.000000  1
  Zn  Zn3  1  0.000000  0.000000  0.361012  1
  Te  Te4  1  0.000000  0.000000  0.000000  1
  P  P5  1  0.750000  0.250000  0.500000  1
  P  P6  1  0.250000  0.750000  0.500000  1
  P  P7  1  0.500000  0.750000  0.250000  1
  P  P8  1  0.500000  0.250000  0.750000  1
  P  P9  1  0.750000  0.500000  0.250000  1
  P  P10  1  0.250000  0.500000  0.750000  1
  N  N11  1  0.560751  0.275268  0.000000  1
  N  N12  1  0.439249  0.439249  0.714517  1
  N  N13  1  0.000000  0.275268  0.560751  1
  N  N14  1  0.275268  0.000000  0.560751  1
  N  N15  1  0.714517  0.439249  0.439249  1
  N  N16  1  0.000000  0.560751  0.275268  1
  N  N17  1  0.560751  0.000000  0.275268  1
  N  N18  1  0.439249  0.714517  0.439249  1
  N  N19  1  0.275268  0.560751  0.000000  1
  N  N20  1  0.724732  0.285483  0.724732  1
  N  N21  1  0.724732  0.724732  0.285483  1
  N  N22  1  0.285483  0.724732  0.724732  1
