# generated using pymatgen
data_Rb8CePu3F20
_symmetry_space_group_name_H-M   'P 1'
_cell_length_a   7.01592593
_cell_length_b   7.66548300
_cell_length_c   11.56890100
_cell_angle_alpha   90.00000000
_cell_angle_beta   90.06066917
_cell_angle_gamma   90.00000000
_symmetry_Int_Tables_number   1
_chemical_formula_structural   Rb8CePu3F20
_chemical_formula_sum   'Rb8 Ce1 Pu3 F20'
_cell_volume   622.18047990
_cell_formula_units_Z   1
loop_
 _symmetry_equiv_pos_site_id
 _symmetry_equiv_pos_as_xyz
  1  'x, y, z'
loop_
 _atom_site_type_symbol
 _atom_site_label
 _atom_site_symmetry_multiplicity
 _atom_site_fract_x
 _atom_site_fract_y
 _atom_site_fract_z
 _atom_site_occupancy
  Rb  Rb0  1  0.534692  0.996920  0.831175  1
  Rb  Rb1  1  0.464538  0.497040  0.169332  1
  Rb  Rb2  1  0.966110  0.997221  0.329307  1
  Rb  Rb3  1  0.035647  0.498339  0.670531  1
  Rb  Rb4  1  0.534692  0.503080  0.831175  1
  Rb  Rb5  1  0.464538  0.002960  0.169332  1
  Rb  Rb6  1  0.966110  0.502779  0.329307  1
  Rb  Rb7  1  0.035647  0.001661  0.670531  1
  Ce  Ce8  1  0.559119  0.250000  0.502283  1
  Pu  Pu9  1  0.443304  0.750000  0.498374  1
  Pu  Pu10  1  0.943997  0.250000  0.000936  1
  Pu  Pu11  1  0.055111  0.750000  0.998891  1
  F  F12  1  0.874455  0.750000  0.832585  1
  F  F13  1  0.124605  0.250000  0.166995  1
  F  F14  1  0.623747  0.750000  0.332687  1
  F  F15  1  0.375835  0.250000  0.666762  1
  F  F16  1  0.841966  0.250000  0.811911  1
  F  F17  1  0.156843  0.750000  0.187457  1
  F  F18  1  0.657033  0.250000  0.312570  1
  F  F19  1  0.343025  0.750000  0.686940  1
  F  F20  1  0.648524  0.967645  0.575080  1
  F  F21  1  0.351676  0.465301  0.425732  1
  F  F22  1  0.851351  0.967982  0.075025  1
  F  F23  1  0.148176  0.468282  0.924800  1
  F  F24  1  0.389051  0.750000  0.986965  1
  F  F25  1  0.609788  0.250000  0.012759  1
  F  F26  1  0.110108  0.750000  0.486323  1
  F  F27  1  0.890585  0.250000  0.513595  1
  F  F28  1  0.148176  0.031718  0.924800  1
  F  F29  1  0.851351  0.532018  0.075025  1
  F  F30  1  0.351676  0.034699  0.425732  1
  F  F31  1  0.648524  0.532355  0.575080  1
