# generated using pymatgen
data_Tm8Si16RhW11
_symmetry_space_group_name_H-M   'P 1'
_cell_length_a   6.74857020
_cell_length_b   6.88577766
_cell_length_c   12.84912876
_cell_angle_alpha   89.72509784
_cell_angle_beta   89.97558763
_cell_angle_gamma   90.04666481
_symmetry_Int_Tables_number   1
_chemical_formula_structural   Tm8Si16RhW11
_chemical_formula_sum   'Tm8 Si16 Rh1 W11'
_cell_volume   597.08101624
_cell_formula_units_Z   1
loop_
 _symmetry_equiv_pos_site_id
 _symmetry_equiv_pos_as_xyz
  1  'x, y, z'
loop_
 _atom_site_type_symbol
 _atom_site_label
 _atom_site_symmetry_multiplicity
 _atom_site_fract_x
 _atom_site_fract_y
 _atom_site_fract_z
 _atom_site_occupancy
  Tm  Tm0  1  0.997445  0.166683  0.092620  1
  Tm  Tm1  1  0.002357  0.830001  0.905456  1
  Tm  Tm2  1  0.505923  0.667599  0.907146  1
  Tm  Tm3  1  0.004286  0.832777  0.593380  1
  Tm  Tm4  1  0.501580  0.327642  0.095006  1
  Tm  Tm5  1  0.995104  0.168662  0.407789  1
  Tm  Tm6  1  0.494494  0.334252  0.404819  1
  Tm  Tm7  1  0.503565  0.668066  0.593893  1
  Si  Si8  1  0.033137  0.128598  0.750753  1
  Si  Si9  1  0.969511  0.871276  0.244213  1
  Si  Si10  1  0.464075  0.633257  0.248109  1
  Si  Si11  1  0.533257  0.369650  0.751854  1
  Si  Si12  1  0.303018  0.864339  0.750053  1
  Si  Si13  1  0.698463  0.137448  0.252693  1
  Si  Si14  1  0.195718  0.367334  0.249620  1
  Si  Si15  1  0.799470  0.635629  0.750110  1
  Si  Si16  1  0.161095  0.460990  0.544954  1
  Si  Si17  1  0.833167  0.543470  0.455059  1
  Si  Si18  1  0.340567  0.958688  0.455204  1
  Si  Si19  1  0.835803  0.544206  0.047331  1
  Si  Si20  1  0.661850  0.042565  0.546838  1
  Si  Si21  1  0.163533  0.455798  0.952087  1
  Si  Si22  1  0.661063  0.041249  0.955447  1
  Si  Si23  1  0.341013  0.949506  0.049893  1
  Rh  Rh24  1  0.174197  0.644689  0.113944  1
  W  W25  1  0.163524  0.499182  0.749831  1
  W  W26  1  0.833176  0.502910  0.251218  1
  W  W27  1  0.332896  0.003289  0.250783  1
  W  W28  1  0.665571  0.997057  0.751836  1
  W  W29  1  0.329664  0.164790  0.624602  1
  W  W30  1  0.670715  0.839413  0.376094  1
  W  W31  1  0.163679  0.668569  0.369658  1
  W  W32  1  0.675197  0.842047  0.128197  1
  W  W33  1  0.830896  0.338990  0.625278  1
  W  W34  1  0.328220  0.158357  0.877662  1
  W  W35  1  0.832771  0.341021  0.876576  1
