# generated using pymatgen
data_HoTm2Ag(Pt2O7)2
_symmetry_space_group_name_H-M   'P 1'
_cell_length_a   7.29151962
_cell_length_b   7.29389014
_cell_length_c   7.16051446
_cell_angle_alpha   59.37046008
_cell_angle_beta   59.39292342
_cell_angle_gamma   60.01075433
_symmetry_Int_Tables_number   1
_chemical_formula_structural   HoTm2Ag(Pt2O7)2
_chemical_formula_sum   'Ho1 Tm2 Ag1 Pt4 O14'
_cell_volume   266.75858911
_cell_formula_units_Z   1
loop_
 _symmetry_equiv_pos_site_id
 _symmetry_equiv_pos_as_xyz
  1  'x, y, z'
loop_
 _atom_site_type_symbol
 _atom_site_label
 _atom_site_symmetry_multiplicity
 _atom_site_fract_x
 _atom_site_fract_y
 _atom_site_fract_z
 _atom_site_occupancy
  Ho  Ho0  1  0.625000  0.125000  0.625000  1
  Tm  Tm1  1  0.625000  0.625000  0.625000  1
  Tm  Tm2  1  0.125000  0.625000  0.625000  1
  Ag  Ag3  1  0.625000  0.625000  0.125000  1
  Pt  Pt4  1  0.125000  0.125000  0.125000  1
  Pt  Pt5  1  0.625000  0.125000  0.125000  1
  Pt  Pt6  1  0.125000  0.625000  0.125000  1
  Pt  Pt7  1  0.125000  0.125000  0.625000  1
  O  O8  1  0.030206  0.466839  0.472748  1
  O  O9  1  0.791336  0.791293  0.222451  1
  O  O10  1  0.792255  0.195410  0.220080  1
  O  O11  1  0.466231  0.029455  0.472258  1
  O  O12  1  0.032056  0.029455  0.472258  1
  O  O13  1  0.055080  0.458707  0.027549  1
  O  O14  1  0.747854  0.743047  0.761245  1
  O  O15  1  0.502146  0.506953  0.488755  1
  O  O16  1  0.783769  0.220545  0.777742  1
  O  O17  1  0.194920  0.791293  0.222451  1
  O  O18  1  0.217944  0.220545  0.777742  1
  O  O19  1  0.457745  0.054590  0.029920  1
  O  O20  1  0.458664  0.458707  0.027549  1
  O  O21  1  0.219794  0.783161  0.777252  1
