# generated using pymatgen
data_Cs2Tb5DyTe10
_symmetry_space_group_name_H-M   'P 1'
_cell_length_a   4.43235800
_cell_length_b   13.39395010
_cell_length_c   23.89396917
_cell_angle_alpha   89.98628474
_cell_angle_beta   90.00000000
_cell_angle_gamma   90.00000000
_symmetry_Int_Tables_number   1
_chemical_formula_structural   Cs2Tb5DyTe10
_chemical_formula_sum   'Cs4 Tb10 Dy2 Te20'
_cell_volume   1418.50801490
_cell_formula_units_Z   2
loop_
 _symmetry_equiv_pos_site_id
 _symmetry_equiv_pos_as_xyz
  1  'x, y, z'
loop_
 _atom_site_type_symbol
 _atom_site_label
 _atom_site_symmetry_multiplicity
 _atom_site_fract_x
 _atom_site_fract_y
 _atom_site_fract_z
 _atom_site_occupancy
  Cs  Cs0  1  0.250000  0.353932  0.089650  1
  Cs  Cs1  1  0.750000  0.646068  0.910350  1
  Cs  Cs2  1  0.750000  0.853956  0.410339  1
  Cs  Cs3  1  0.250000  0.146044  0.589661  1
  Tb  Tb4  1  0.250000  0.454357  0.697704  1
  Tb  Tb5  1  0.750000  0.545643  0.302296  1
  Tb  Tb6  1  0.750000  0.954349  0.802328  1
  Tb  Tb7  1  0.250000  0.045651  0.197672  1
  Tb  Tb8  1  0.250000  0.796680  0.674628  1
  Tb  Tb9  1  0.750000  0.203320  0.325372  1
  Tb  Tb10  1  0.750000  0.296653  0.825387  1
  Tb  Tb11  1  0.250000  0.703347  0.174613  1
  Tb  Tb12  1  0.250000  0.392170  0.444435  1
  Tb  Tb13  1  0.750000  0.607830  0.555565  1
  Dy  Dy14  1  0.750000  0.892222  0.055576  1
  Dy  Dy15  1  0.250000  0.107778  0.944424  1
  Te  Te16  1  0.250000  0.444299  0.568899  1
  Te  Te17  1  0.750000  0.555701  0.431101  1
  Te  Te18  1  0.750000  0.944785  0.931356  1
  Te  Te19  1  0.250000  0.055215  0.068644  1
  Te  Te20  1  0.250000  0.768374  0.546574  1
  Te  Te21  1  0.750000  0.231626  0.453426  1
  Te  Te22  1  0.750000  0.267742  0.953431  1
  Te  Te23  1  0.250000  0.732258  0.046569  1
  Te  Te24  1  0.250000  0.799013  0.803187  1
  Te  Te25  1  0.750000  0.200987  0.196813  1
  Te  Te26  1  0.750000  0.299005  0.696810  1
  Te  Te27  1  0.250000  0.700995  0.303190  1
  Te  Te28  1  0.250000  0.453557  0.826421  1
  Te  Te29  1  0.750000  0.546443  0.173579  1
  Te  Te30  1  0.750000  0.953559  0.673589  1
  Te  Te31  1  0.250000  0.046441  0.326411  1
  Te  Te32  1  0.250000  0.375003  0.313476  1
  Te  Te33  1  0.750000  0.624997  0.686524  1
  Te  Te34  1  0.750000  0.875024  0.186288  1
  Te  Te35  1  0.250000  0.124976  0.813712  1
