# generated using pymatgen
data_Tb2Gd2Y(SiB4)2
_symmetry_space_group_name_H-M   'P 1'
_cell_length_a   7.25389001
_cell_length_b   7.25420803
_cell_length_c   8.16222403
_cell_angle_alpha   89.99055256
_cell_angle_beta   90.00228271
_cell_angle_gamma   90.00550532
_symmetry_Int_Tables_number   1
_chemical_formula_structural   Tb2Gd2Y(SiB4)2
_chemical_formula_sum   'Tb4 Gd4 Y2 Si4 B16'
_cell_volume   429.50623678
_cell_formula_units_Z   2
loop_
 _symmetry_equiv_pos_site_id
 _symmetry_equiv_pos_as_xyz
  1  'x, y, z'
loop_
 _atom_site_type_symbol
 _atom_site_label
 _atom_site_symmetry_multiplicity
 _atom_site_fract_x
 _atom_site_fract_y
 _atom_site_fract_z
 _atom_site_occupancy
  Tb  Tb0  1  0.680364  0.180262  0.223522  1
  Tb  Tb1  1  0.319716  0.819712  0.776720  1
  Tb  Tb2  1  0.319741  0.819671  0.223644  1
  Tb  Tb3  1  0.819603  0.680418  0.223892  1
  Gd  Gd4  1  0.819500  0.680499  0.774719  1
  Gd  Gd5  1  0.680419  0.180392  0.775126  1
  Gd  Gd6  1  0.180483  0.319550  0.774860  1
  Gd  Gd7  1  0.180564  0.319479  0.225426  1
  Y  Y8  1  0.000010  0.999895  0.499866  1
  Y  Y9  1  0.499878  0.500134  0.499889  1
  Si  Si10  1  0.114779  0.615180  0.499489  1
  Si  Si11  1  0.885218  0.385670  0.499546  1
  Si  Si12  1  0.385346  0.114116  0.499384  1
  Si  Si13  1  0.614593  0.884941  0.499501  1
  B  B14  1  0.172418  0.039012  0.000345  1
  B  B15  1  0.827572  0.960678  0.000180  1
  B  B16  1  0.960762  0.172319  0.000291  1
  B  B17  1  0.327594  0.539419  0.000353  1
  B  B18  1  0.039278  0.827471  0.000235  1
  B  B19  1  0.672445  0.460877  0.000165  1
  B  B20  1  0.539199  0.672534  0.000298  1
  B  B21  1  0.460888  0.327685  0.000233  1
  B  B22  1  0.090073  0.590204  0.000262  1
  B  B23  1  0.909867  0.410002  0.000275  1
  B  B24  1  0.409950  0.089907  0.000235  1
  B  B25  1  0.589955  0.909904  0.000254  1
  B  B26  1  0.999836  0.999863  0.160454  1
  B  B27  1  0.000022  0.999966  0.840199  1
  B  B28  1  0.499920  0.500142  0.840195  1
  B  B29  1  0.500006  0.500095  0.160443  1
