# generated using pymatgen
data_CaNdGaIr2
_symmetry_space_group_name_H-M   'P 1'
_cell_length_a   5.70419649
_cell_length_b   5.70419564
_cell_length_c   5.70419593
_cell_angle_alpha   137.75286424
_cell_angle_beta   118.44138109
_cell_angle_gamma   77.49580171
_symmetry_Int_Tables_number   1
_chemical_formula_structural   CaNdGaIr2
_chemical_formula_sum   'Ca1 Nd1 Ga1 Ir2'
_cell_volume   106.78022079
_cell_formula_units_Z   1
loop_
 _symmetry_equiv_pos_site_id
 _symmetry_equiv_pos_as_xyz
  1  'x, y, z'
loop_
 _atom_site_type_symbol
 _atom_site_label
 _atom_site_symmetry_multiplicity
 _atom_site_fract_x
 _atom_site_fract_y
 _atom_site_fract_z
 _atom_site_occupancy
  Ca  Ca0  1  0.295410  0.795410  0.500000  1
  Nd  Nd1  1  0.700401  0.200402  0.500000  1
  Ga  Ga2  1  0.001409  0.001409  0.000000  1
  Ir  Ir3  1  0.732704  0.501389  0.231315  1
  Ir  Ir4  1  0.270074  0.501389  0.768685  1
