# generated using pymatgen
data_K4Zr6FeI18
_symmetry_space_group_name_H-M   'P 1'
_cell_length_a   11.27997070
_cell_length_b   11.44175848
_cell_length_c   11.55361559
_cell_angle_alpha   118.58844346
_cell_angle_beta   99.99860178
_cell_angle_gamma   103.88436754
_symmetry_Int_Tables_number   1
_chemical_formula_structural   K4Zr6FeI18
_chemical_formula_sum   'K4 Zr6 Fe1 I18'
_cell_volume   1196.09837329
_cell_formula_units_Z   1
loop_
 _symmetry_equiv_pos_site_id
 _symmetry_equiv_pos_as_xyz
  1  'x, y, z'
loop_
 _atom_site_type_symbol
 _atom_site_label
 _atom_site_symmetry_multiplicity
 _atom_site_fract_x
 _atom_site_fract_y
 _atom_site_fract_z
 _atom_site_occupancy
  K  K0  1  0.185168  0.724078  0.563965  1
  K  K1  1  0.848490  0.961770  0.773311  1
  K  K2  1  0.151510  0.038230  0.226689  1
  K  K3  1  0.814832  0.275922  0.436035  1
  Zr  Zr4  1  0.353808  0.445514  0.775461  1
  Zr  Zr5  1  0.364874  0.623381  0.129877  1
  Zr  Zr6  1  0.641972  0.733409  0.044051  1
  Zr  Zr7  1  0.646192  0.554486  0.224539  1
  Zr  Zr8  1  0.358028  0.266591  0.955949  1
  Zr  Zr9  1  0.635126  0.376619  0.870123  1
  Fe  Fe10  1  0.500000  0.500000  0.000000  1
  I  I11  1  0.822687  0.422801  0.110362  1
  I  I12  1  0.514365  0.706036  0.411046  1
  I  I13  1  0.176496  0.974746  0.899364  1
  I  I14  1  0.177313  0.577199  0.889638  1
  I  I15  1  0.830349  0.834934  0.312626  1
  I  I16  1  0.503517  0.294125  0.210741  1
  I  I17  1  0.799102  0.223055  0.710150  1
  I  I18  1  0.169651  0.165066  0.687374  1
  I  I19  1  0.507853  0.912560  0.198700  1
  I  I20  1  0.819354  0.628466  0.902683  1
  I  I21  1  0.200898  0.776945  0.289850  1
  I  I22  1  0.165822  0.378293  0.495673  1
  I  I23  1  0.496483  0.705875  0.789259  1
  I  I24  1  0.823504  0.025254  0.100636  1
  I  I25  1  0.485635  0.293964  0.588954  1
  I  I26  1  0.180646  0.371534  0.097317  1
  I  I27  1  0.834178  0.621707  0.504327  1
  I  I28  1  0.492147  0.087440  0.801300  1
