# generated using pymatgen
data_Ca4YSc3(Ni4As3)4
_symmetry_space_group_name_H-M   'P 1'
_cell_length_a   12.79150640
_cell_length_b   12.80507554
_cell_length_c   3.93827900
_cell_angle_alpha   90.00000000
_cell_angle_beta   90.00000000
_cell_angle_gamma   120.03510542
_symmetry_Int_Tables_number   1
_chemical_formula_structural   Ca4YSc3(Ni4As3)4
_chemical_formula_sum   'Ca4 Y1 Sc3 Ni16 As12'
_cell_volume   558.45374809
_cell_formula_units_Z   1
loop_
 _symmetry_equiv_pos_site_id
 _symmetry_equiv_pos_as_xyz
  1  'x, y, z'
loop_
 _atom_site_type_symbol
 _atom_site_label
 _atom_site_symmetry_multiplicity
 _atom_site_fract_x
 _atom_site_fract_y
 _atom_site_fract_z
 _atom_site_occupancy
  Ca  Ca0  1  0.183949  0.184010  0.500000  1
  Ca  Ca1  1  0.816051  0.000060  0.500000  1
  Ca  Ca2  1  0.333292  0.666854  0.000000  1
  Ca  Ca3  1  0.666708  0.333561  0.000000  1
  Y  Y4  1  0.000000  0.814621  0.500000  1
  Sc  Sc5  1  0.565409  0.565136  0.000000  1
  Sc  Sc6  1  0.434591  0.999727  0.000000  1
  Sc  Sc7  1  0.000000  0.434935  0.000000  1
  Ni  Ni8  1  0.722305  0.721500  0.500000  1
  Ni  Ni9  1  0.277695  0.999195  0.500000  1
  Ni  Ni10  1  0.000000  0.279042  0.500000  1
  Ni  Ni11  1  0.184886  0.378955  0.000000  1
  Ni  Ni12  1  0.620528  0.806508  0.000000  1
  Ni  Ni13  1  0.192904  0.815289  0.000000  1
  Ni  Ni14  1  0.807096  0.622385  0.000000  1
  Ni  Ni15  1  0.815114  0.194069  0.000000  1
  Ni  Ni16  1  0.379472  0.185980  0.000000  1
  Ni  Ni17  1  0.361320  0.480837  0.500000  1
  Ni  Ni18  1  0.519173  0.880670  0.500000  1
  Ni  Ni19  1  0.119046  0.638450  0.500000  1
  Ni  Ni20  1  0.880954  0.519403  0.500000  1
  Ni  Ni21  1  0.638680  0.119517  0.500000  1
  Ni  Ni22  1  0.480827  0.361496  0.500000  1
  Ni  Ni23  1  0.000000  0.998477  0.000000  1
  As  As24  1  0.820862  0.820284  0.000000  1
  As  As25  1  0.179138  0.999422  0.000000  1
  As  As26  1  0.000000  0.178433  0.000000  1
  As  As27  1  0.171283  0.478375  0.500000  1
  As  As28  1  0.522486  0.693302  0.500000  1
  As  As29  1  0.306563  0.828866  0.500000  1
  As  As30  1  0.693437  0.522303  0.500000  1
  As  As31  1  0.828717  0.307092  0.500000  1
  As  As32  1  0.477514  0.170816  0.500000  1
  As  As33  1  0.357132  0.357448  0.000000  1
  As  As34  1  0.642868  0.000316  0.000000  1
  As  As35  1  0.000000  0.642666  0.000000  1
