# generated using pymatgen
data_Sc5Al16Ir7Se
_symmetry_space_group_name_H-M   'P 1'
_cell_length_a   8.72640174
_cell_length_b   8.77086108
_cell_length_c   8.77086156
_cell_angle_alpha   59.66492702
_cell_angle_beta   60.16754476
_cell_angle_gamma   60.16754686
_symmetry_Int_Tables_number   1
_chemical_formula_structural   Sc5Al16Ir7Se
_chemical_formula_sum   'Sc5 Al16 Ir7 Se1'
_cell_volume   474.65990552
_cell_formula_units_Z   1
loop_
 _symmetry_equiv_pos_site_id
 _symmetry_equiv_pos_as_xyz
  1  'x, y, z'
loop_
 _atom_site_type_symbol
 _atom_site_label
 _atom_site_symmetry_multiplicity
 _atom_site_fract_x
 _atom_site_fract_y
 _atom_site_fract_z
 _atom_site_occupancy
  Sc  Sc0  1  0.795758  0.204242  0.204242  1
  Sc  Sc1  1  0.785254  0.214746  0.777516  1
  Sc  Sc2  1  0.785254  0.777516  0.214746  1
  Sc  Sc3  1  0.222484  0.777516  0.214746  1
  Sc  Sc4  1  0.222484  0.214746  0.777516  1
  Al  Al5  1  0.859678  0.829193  0.829193  1
  Al  Al6  1  0.844617  0.820388  0.490380  1
  Al  Al7  1  0.481937  0.829193  0.829193  1
  Al  Al8  1  0.844617  0.490380  0.820388  1
  Al  Al9  1  0.179612  0.155383  0.155383  1
  Al  Al10  1  0.170807  0.140322  0.518063  1
  Al  Al11  1  0.170807  0.518063  0.140322  1
  Al  Al12  1  0.509620  0.155383  0.155383  1
  Al  Al13  1  0.609710  0.620056  0.620056  1
  Al  Al14  1  0.629466  0.615602  0.125464  1
  Al  Al15  1  0.150178  0.620056  0.620056  1
  Al  Al16  1  0.629466  0.125464  0.615602  1
  Al  Al17  1  0.384398  0.370534  0.370534  1
  Al  Al18  1  0.379944  0.390290  0.849822  1
  Al  Al19  1  0.379944  0.849822  0.390290  1
  Al  Al20  1  0.874536  0.370534  0.370534  1
  Ir  Ir21  1  0.511404  0.488596  0.488596  1
  Ir  Ir22  1  0.011562  0.488438  0.488438  1
  Ir  Ir23  1  0.511562  0.988438  0.988438  1
  Ir  Ir24  1  0.514371  0.995141  0.485629  1
  Ir  Ir25  1  0.514371  0.485629  0.995141  1
  Ir  Ir26  1  0.004859  0.485629  0.995141  1
  Ir  Ir27  1  0.004859  0.995141  0.485629  1
  Se  Se28  1  0.016437  0.983563  0.983563  1
