# generated using pymatgen
data_Mg2GePd5
_symmetry_space_group_name_H-M   'P 1'
_cell_length_a   4.16762300
_cell_length_b   5.53358300
_cell_length_c   10.71646200
_cell_angle_alpha   90.00000000
_cell_angle_beta   90.00000000
_cell_angle_gamma   90.00000000
_symmetry_Int_Tables_number   1
_chemical_formula_structural   Mg2GePd5
_chemical_formula_sum   'Mg4 Ge2 Pd10'
_cell_volume   247.14184408
_cell_formula_units_Z   2
loop_
 _symmetry_equiv_pos_site_id
 _symmetry_equiv_pos_as_xyz
  1  'x, y, z'
loop_
 _atom_site_type_symbol
 _atom_site_label
 _atom_site_symmetry_multiplicity
 _atom_site_fract_x
 _atom_site_fract_y
 _atom_site_fract_z
 _atom_site_occupancy
  Mg  Mg0  1  0.500000  0.159689  0.142239  1
  Mg  Mg1  1  0.500000  0.840311  0.857761  1
  Mg  Mg2  1  0.500000  0.340311  0.642239  1
  Mg  Mg3  1  0.500000  0.659689  0.357761  1
  Ge  Ge4  1  0.000000  0.000000  0.500000  1
  Ge  Ge5  1  0.000000  0.500000  0.000000  1
  Pd  Pd6  1  0.500000  0.178355  0.394820  1
  Pd  Pd7  1  0.500000  0.821645  0.605180  1
  Pd  Pd8  1  0.500000  0.321645  0.894820  1
  Pd  Pd9  1  0.500000  0.678355  0.105180  1
  Pd  Pd10  1  0.000000  0.413511  0.237192  1
  Pd  Pd11  1  0.000000  0.586489  0.762808  1
  Pd  Pd12  1  0.000000  0.086489  0.737192  1
  Pd  Pd13  1  0.000000  0.913511  0.262808  1
  Pd  Pd14  1  0.000000  0.000000  0.000000  1
  Pd  Pd15  1  0.000000  0.500000  0.500000  1
