# generated using pymatgen
data_Nd12Ga3Si5Ni4
_symmetry_space_group_name_H-M   'P 1'
_cell_length_a   4.19135200
_cell_length_b   11.67421626
_cell_length_c   11.79742800
_cell_angle_alpha   89.98781861
_cell_angle_beta   90.00000000
_cell_angle_gamma   90.00000000
_symmetry_Int_Tables_number   1
_chemical_formula_structural   Nd12Ga3Si5Ni4
_chemical_formula_sum   'Nd12 Ga3 Si5 Ni4'
_cell_volume   577.25698336
_cell_formula_units_Z   1
loop_
 _symmetry_equiv_pos_site_id
 _symmetry_equiv_pos_as_xyz
  1  'x, y, z'
loop_
 _atom_site_type_symbol
 _atom_site_label
 _atom_site_symmetry_multiplicity
 _atom_site_fract_x
 _atom_site_fract_y
 _atom_site_fract_z
 _atom_site_occupancy
  Nd  Nd0  1  0.250000  0.124638  0.558422  1
  Nd  Nd1  1  0.250000  0.368644  0.051982  1
  Nd  Nd2  1  0.750000  0.871795  0.450129  1
  Nd  Nd3  1  0.750000  0.631239  0.947559  1
  Nd  Nd4  1  0.250000  0.802949  0.715087  1
  Nd  Nd5  1  0.250000  0.703697  0.220515  1
  Nd  Nd6  1  0.750000  0.201888  0.280886  1
  Nd  Nd7  1  0.750000  0.296905  0.780128  1
  Nd  Nd8  1  0.250000  0.057965  0.880769  1
  Nd  Nd9  1  0.250000  0.442627  0.385647  1
  Nd  Nd10  1  0.750000  0.943473  0.114906  1
  Nd  Nd11  1  0.750000  0.556038  0.615259  1
  Ga  Ga12  1  0.250000  0.494650  0.804635  1
  Ga  Ga13  1  0.250000  0.004352  0.305635  1
  Ga  Ga14  1  0.750000  0.505671  0.195683  1
  Si  Si15  1  0.750000  0.992931  0.698682  1
  Si  Si16  1  0.250000  0.816337  0.971574  1
  Si  Si17  1  0.250000  0.687105  0.475846  1
  Si  Si18  1  0.750000  0.184145  0.024343  1
  Si  Si19  1  0.750000  0.312498  0.525049  1
  Ni  Ni20  1  0.250000  0.365371  0.624243  1
  Ni  Ni21  1  0.250000  0.131320  0.124303  1
  Ni  Ni22  1  0.750000  0.632960  0.376871  1
  Ni  Ni23  1  0.750000  0.870800  0.871845  1
