# generated using pymatgen
data_Tb3Y5Re2(RuC4)2
_symmetry_space_group_name_H-M   'P 1'
_cell_length_a   5.13268000
_cell_length_b   6.54540719
_cell_length_c   9.87524229
_cell_angle_alpha   89.97222692
_cell_angle_beta   90.00000000
_cell_angle_gamma   90.00000000
_symmetry_Int_Tables_number   1
_chemical_formula_structural   Tb3Y5Re2(RuC4)2
_chemical_formula_sum   'Tb3 Y5 Re2 Ru2 C8'
_cell_volume   331.76347168
_cell_formula_units_Z   1
loop_
 _symmetry_equiv_pos_site_id
 _symmetry_equiv_pos_as_xyz
  1  'x, y, z'
loop_
 _atom_site_type_symbol
 _atom_site_label
 _atom_site_symmetry_multiplicity
 _atom_site_fract_x
 _atom_site_fract_y
 _atom_site_fract_z
 _atom_site_occupancy
  Tb  Tb0  1  0.250000  0.031204  0.284587  1
  Tb  Tb1  1  0.750000  0.970986  0.715043  1
  Tb  Tb2  1  0.250000  0.528979  0.215032  1
  Y  Y3  1  0.750000  0.822645  0.054284  1
  Y  Y4  1  0.250000  0.677405  0.554327  1
  Y  Y5  1  0.750000  0.317734  0.443653  1
  Y  Y6  1  0.250000  0.182290  0.943620  1
  Y  Y7  1  0.750000  0.468684  0.784498  1
  Re  Re8  1  0.750000  0.777015  0.363938  1
  Re  Re9  1  0.250000  0.722981  0.863963  1
  Ru  Ru10  1  0.750000  0.276333  0.135275  1
  Ru  Ru11  1  0.250000  0.223782  0.635265  1
  C  C12  1  0.750000  0.177734  0.951065  1
  C  C13  1  0.250000  0.820835  0.049474  1
  C  C14  1  0.750000  0.679114  0.549533  1
  C  C15  1  0.250000  0.322378  0.451126  1
  C  C16  1  0.750000  0.041987  0.259931  1
  C  C17  1  0.250000  0.457996  0.759976  1
  C  C18  1  0.750000  0.543496  0.242696  1
  C  C19  1  0.250000  0.956422  0.742716  1
