# generated using pymatgen
data_TbPa(TcB4)2
_symmetry_space_group_name_H-M   'P 1'
_cell_length_a   5.97134721
_cell_length_b   11.55547612
_cell_length_c   3.64068900
_cell_angle_alpha   90.00000000
_cell_angle_beta   90.00000000
_cell_angle_gamma   89.91296959
_symmetry_Int_Tables_number   1
_chemical_formula_structural   TbPa(TcB4)2
_chemical_formula_sum   'Tb2 Pa2 Tc4 B16'
_cell_volume   251.21365900
_cell_formula_units_Z   2
loop_
 _symmetry_equiv_pos_site_id
 _symmetry_equiv_pos_as_xyz
  1  'x, y, z'
loop_
 _atom_site_type_symbol
 _atom_site_label
 _atom_site_symmetry_multiplicity
 _atom_site_fract_x
 _atom_site_fract_y
 _atom_site_fract_z
 _atom_site_occupancy
  Tb  Tb0  1  0.126668  0.148493  0.000000  1
  Tb  Tb1  1  0.873332  0.851507  0.000000  1
  Pa  Pa2  1  0.627812  0.348530  0.000000  1
  Pa  Pa3  1  0.372188  0.651470  0.000000  1
  Tc  Tc4  1  0.634256  0.091390  0.000000  1
  Tc  Tc5  1  0.365744  0.908610  0.000000  1
  Tc  Tc6  1  0.140079  0.407934  0.000000  1
  Tc  Tc7  1  0.859921  0.592066  0.000000  1
  B  B8  1  0.786680  0.186056  0.500000  1
  B  B9  1  0.213320  0.813944  0.500000  1
  B  B10  1  0.287961  0.314404  0.500000  1
  B  B11  1  0.712039  0.685596  0.500000  1
  B  B12  1  0.863023  0.031576  0.500000  1
  B  B13  1  0.136977  0.968424  0.500000  1
  B  B14  1  0.364881  0.468789  0.500000  1
  B  B15  1  0.635119  0.531211  0.500000  1
  B  B16  1  0.887975  0.453556  0.500000  1
  B  B17  1  0.112025  0.546444  0.500000  1
  B  B18  1  0.387185  0.045913  0.500000  1
  B  B19  1  0.612815  0.954087  0.500000  1
  B  B20  1  0.973092  0.308883  0.500000  1
  B  B21  1  0.026908  0.691117  0.500000  1
  B  B22  1  0.478003  0.191517  0.500000  1
  B  B23  1  0.521997  0.808483  0.500000  1
