# generated using pymatgen
data_VCoBiO5
_symmetry_space_group_name_H-M   'P 1'
_cell_length_a   5.35184499
_cell_length_b   7.78130295
_cell_length_c   11.73029600
_cell_angle_alpha   90.00000000
_cell_angle_beta   90.00000000
_cell_angle_gamma   107.28169494
_symmetry_Int_Tables_number   1
_chemical_formula_structural   VCoBiO5
_chemical_formula_sum   'V4 Co4 Bi4 O20'
_cell_volume   466.44730911
_cell_formula_units_Z   4
loop_
 _symmetry_equiv_pos_site_id
 _symmetry_equiv_pos_as_xyz
  1  'x, y, z'
loop_
 _atom_site_type_symbol
 _atom_site_label
 _atom_site_symmetry_multiplicity
 _atom_site_fract_x
 _atom_site_fract_y
 _atom_site_fract_z
 _atom_site_occupancy
  V  V0  1  0.785882  0.967632  0.647645  1
  V  V1  1  0.214118  0.032368  0.352355  1
  V  V2  1  0.714118  0.532368  0.147645  1
  V  V3  1  0.285882  0.467632  0.852355  1
  Co  Co4  1  0.625231  0.173905  0.920613  1
  Co  Co5  1  0.374769  0.826095  0.079387  1
  Co  Co6  1  0.874769  0.326095  0.420613  1
  Co  Co7  1  0.125231  0.673905  0.579387  1
  Bi  Bi8  1  0.115213  0.177186  0.096865  1
  Bi  Bi9  1  0.884787  0.822814  0.903135  1
  Bi  Bi10  1  0.615213  0.677186  0.403135  1
  Bi  Bi11  1  0.384787  0.322814  0.596865  1
  O  O12  1  0.568739  0.332490  0.072307  1
  O  O13  1  0.027435  0.324922  0.932951  1
  O  O14  1  0.484823  0.643185  0.175080  1
  O  O15  1  0.757292  0.516403  0.524445  1
  O  O16  1  0.806910  0.488489  0.285629  1
  O  O17  1  0.306910  0.988489  0.214371  1
  O  O18  1  0.527435  0.824922  0.567049  1
  O  O19  1  0.472565  0.175078  0.432951  1
  O  O20  1  0.242708  0.483597  0.475555  1
  O  O21  1  0.931261  0.167510  0.572307  1
  O  O22  1  0.193090  0.511511  0.714371  1
  O  O23  1  0.431261  0.667510  0.927693  1
  O  O24  1  0.068739  0.832490  0.427693  1
  O  O25  1  0.693090  0.011511  0.785629  1
  O  O26  1  0.742708  0.983597  0.024445  1
  O  O27  1  0.257292  0.016403  0.975555  1
  O  O28  1  0.515177  0.356815  0.824920  1
  O  O29  1  0.972565  0.675078  0.067049  1
  O  O30  1  0.015177  0.856815  0.675080  1
  O  O31  1  0.984823  0.143185  0.324920  1
