# generated using pymatgen
data_LiSc5B4(RuRh4)2
_symmetry_space_group_name_H-M   'P 1'
_cell_length_a   9.42987000
_cell_length_b   9.42987000
_cell_length_c   3.07277700
_cell_angle_alpha   90.00000000
_cell_angle_beta   90.00000000
_cell_angle_gamma   90.00000000
_symmetry_Int_Tables_number   1
_chemical_formula_structural   LiSc5B4(RuRh4)2
_chemical_formula_sum   'Li1 Sc5 B4 Ru2 Rh8'
_cell_volume   273.23885366
_cell_formula_units_Z   1
loop_
 _symmetry_equiv_pos_site_id
 _symmetry_equiv_pos_as_xyz
  1  'x, y, z'
loop_
 _atom_site_type_symbol
 _atom_site_label
 _atom_site_symmetry_multiplicity
 _atom_site_fract_x
 _atom_site_fract_y
 _atom_site_fract_z
 _atom_site_occupancy
  Li  Li0  1  0.000000  0.000000  0.000000  1
  Sc  Sc1  1  0.828546  0.323403  0.000000  1
  Sc  Sc2  1  0.323403  0.171454  0.000000  1
  Sc  Sc3  1  0.676597  0.828546  0.000000  1
  Sc  Sc4  1  0.171454  0.676597  0.000000  1
  Sc  Sc5  1  0.500000  0.500000  0.000000  1
  B  B6  1  0.631100  0.115033  0.000000  1
  B  B7  1  0.115033  0.368900  0.000000  1
  B  B8  1  0.884967  0.631100  0.000000  1
  B  B9  1  0.368900  0.884967  0.000000  1
  Ru  Ru10  1  0.500000  0.000000  0.500000  1
  Ru  Ru11  1  0.000000  0.500000  0.500000  1
  Rh  Rh12  1  0.068931  0.213005  0.500000  1
  Rh  Rh13  1  0.213005  0.931069  0.500000  1
  Rh  Rh14  1  0.786995  0.068931  0.500000  1
  Rh  Rh15  1  0.931069  0.786995  0.500000  1
  Rh  Rh16  1  0.422984  0.722203  0.500000  1
  Rh  Rh17  1  0.577016  0.277797  0.500000  1
  Rh  Rh18  1  0.722203  0.577016  0.500000  1
  Rh  Rh19  1  0.277797  0.422984  0.500000  1
