# generated using pymatgen
data_Yb2PaN3
_symmetry_space_group_name_H-M   'P 1'
_cell_length_a   6.10359732
_cell_length_b   6.10359468
_cell_length_c   6.01412194
_cell_angle_alpha   99.75349994
_cell_angle_beta   99.75348828
_cell_angle_gamma   119.96518322
_symmetry_Int_Tables_number   1
_chemical_formula_structural   Yb2PaN3
_chemical_formula_sum   'Yb4 Pa2 N6'
_cell_volume   182.63220915
_cell_formula_units_Z   2
loop_
 _symmetry_equiv_pos_site_id
 _symmetry_equiv_pos_as_xyz
  1  'x, y, z'
loop_
 _atom_site_type_symbol
 _atom_site_label
 _atom_site_symmetry_multiplicity
 _atom_site_fract_x
 _atom_site_fract_y
 _atom_site_fract_z
 _atom_site_occupancy
  Yb  Yb0  1  0.836076  0.163924  0.500000  1
  Yb  Yb1  1  0.163924  0.836076  0.500000  1
  Yb  Yb2  1  0.500000  0.500000  0.500000  1
  Yb  Yb3  1  0.000000  0.000000  0.000000  1
  Pa  Pa4  1  0.332895  0.667105  0.000000  1
  Pa  Pa5  1  0.667105  0.332895  0.000000  1
  N  N6  1  0.433018  0.073993  0.222206  1
  N  N7  1  0.926007  0.566982  0.777794  1
  N  N8  1  0.566982  0.926007  0.777794  1
  N  N9  1  0.073993  0.433018  0.222206  1
  N  N10  1  0.716260  0.716260  0.223854  1
  N  N11  1  0.283740  0.283740  0.776146  1
