# generated using pymatgen
data_EuAlSi2Pd
_symmetry_space_group_name_H-M   'P 1'
_cell_length_a   6.10107100
_cell_length_b   6.10107045
_cell_length_c   6.10106992
_cell_angle_alpha   140.39105654
_cell_angle_beta   140.39105180
_cell_angle_gamma   57.26002059
_symmetry_Int_Tables_number   1
_chemical_formula_structural   EuAlSi2Pd
_chemical_formula_sum   'Eu1 Al1 Si2 Pd1'
_cell_volume   91.52844027
_cell_formula_units_Z   1
loop_
 _symmetry_equiv_pos_site_id
 _symmetry_equiv_pos_as_xyz
  1  'x, y, z'
loop_
 _atom_site_type_symbol
 _atom_site_label
 _atom_site_symmetry_multiplicity
 _atom_site_fract_x
 _atom_site_fract_y
 _atom_site_fract_z
 _atom_site_occupancy
  Eu  Eu0  1  0.000000  0.000000  0.000000  1
  Al  Al1  1  0.250000  0.750000  0.500000  1
  Si  Si2  1  0.612148  0.612148  0.000000  1
  Si  Si3  1  0.387852  0.387852  0.000000  1
  Pd  Pd4  1  0.750000  0.250000  0.500000  1
