# generated using pymatgen
data_Pr11(MnC6)3
_symmetry_space_group_name_H-M   'P 1'
_cell_length_a   10.02509582
_cell_length_b   10.02509614
_cell_length_c   10.02509600
_cell_angle_alpha   95.54260538
_cell_angle_beta   95.54260556
_cell_angle_gamma   95.54259895
_symmetry_Int_Tables_number   1
_chemical_formula_structural   Pr11(MnC6)3
_chemical_formula_sum   'Pr22 Mn6 C36'
_cell_volume   992.42755607
_cell_formula_units_Z   2
loop_
 _symmetry_equiv_pos_site_id
 _symmetry_equiv_pos_as_xyz
  1  'x, y, z'
loop_
 _atom_site_type_symbol
 _atom_site_label
 _atom_site_symmetry_multiplicity
 _atom_site_fract_x
 _atom_site_fract_y
 _atom_site_fract_z
 _atom_site_occupancy
  Pr  Pr0  1  0.167090  0.825913  0.766543  1
  Pr  Pr1  1  0.766543  0.167090  0.825913  1
  Pr  Pr2  1  0.825913  0.766543  0.167090  1
  Pr  Pr3  1  0.832910  0.174087  0.233457  1
  Pr  Pr4  1  0.233457  0.832910  0.174087  1
  Pr  Pr5  1  0.174087  0.233457  0.832910  1
  Pr  Pr6  1  0.826717  0.494113  0.420716  1
  Pr  Pr7  1  0.420716  0.826717  0.494113  1
  Pr  Pr8  1  0.494113  0.420716  0.826717  1
  Pr  Pr9  1  0.173283  0.505887  0.579284  1
  Pr  Pr10  1  0.579284  0.173283  0.505887  1
  Pr  Pr11  1  0.505887  0.579284  0.173283  1
  Pr  Pr12  1  0.842040  0.903069  0.508146  1
  Pr  Pr13  1  0.508146  0.842040  0.903069  1
  Pr  Pr14  1  0.903069  0.508146  0.842040  1
  Pr  Pr15  1  0.157960  0.096931  0.491854  1
  Pr  Pr16  1  0.491854  0.157960  0.096931  1
  Pr  Pr17  1  0.096931  0.491854  0.157960  1
  Pr  Pr18  1  0.863428  0.863428  0.863428  1
  Pr  Pr19  1  0.136572  0.136572  0.136573  1
  Pr  Pr20  1  0.638931  0.638931  0.638931  1
  Pr  Pr21  1  0.361069  0.361069  0.361069  1
  Mn  Mn22  1  0.920758  0.253625  0.574372  1
  Mn  Mn23  1  0.574372  0.920758  0.253625  1
  Mn  Mn24  1  0.253625  0.574372  0.920758  1
  Mn  Mn25  1  0.079242  0.746375  0.425628  1
  Mn  Mn26  1  0.425628  0.079242  0.746375  1
  Mn  Mn27  1  0.746375  0.425628  0.079242  1
  C  C28  1  0.339813  0.629775  0.785718  1
  C  C29  1  0.785718  0.339813  0.629775  1
  C  C30  1  0.629775  0.785718  0.339813  1
  C  C31  1  0.660187  0.370225  0.214282  1
  C  C32  1  0.214282  0.660187  0.370225  1
  C  C33  1  0.370225  0.214282  0.660187  1
  C  C34  1  0.988193  0.701855  0.562153  1
  C  C35  1  0.562153  0.988193  0.701855  1
  C  C36  1  0.701855  0.562153  0.988193  1
  C  C37  1  0.011807  0.298145  0.437847  1
  C  C38  1  0.437847  0.011807  0.298145  1
  C  C39  1  0.298145  0.437847  0.011807  1
  C  C40  1  0.965728  0.117089  0.665144  1
  C  C41  1  0.665144  0.965728  0.117089  1
  C  C42  1  0.117089  0.665144  0.965728  1
  C  C43  1  0.034272  0.882911  0.334856  1
  C  C44  1  0.334856  0.034272  0.882911  1
  C  C45  1  0.882911  0.334856  0.034272  1
  C  C46  1  0.909381  0.682668  0.661369  1
  C  C47  1  0.661369  0.909381  0.682668  1
  C  C48  1  0.682668  0.661369  0.909381  1
  C  C49  1  0.090619  0.317332  0.338631  1
  C  C50  1  0.338631  0.090619  0.317332  1
  C  C51  1  0.317332  0.338631  0.090619  1
  C  C52  1  0.673591  0.681898  0.397910  1
  C  C53  1  0.397910  0.673591  0.681898  1
  C  C54  1  0.681898  0.397910  0.673591  1
  C  C55  1  0.326409  0.318102  0.602090  1
  C  C56  1  0.602090  0.326409  0.318102  1
  C  C57  1  0.318102  0.602090  0.326409  1
  C  C58  1  0.004407  0.015366  0.730653  1
  C  C59  1  0.730653  0.004407  0.015366  1
  C  C60  1  0.015366  0.730653  0.004407  1
  C  C61  1  0.995593  0.984634  0.269347  1
  C  C62  1  0.269347  0.995593  0.984634  1
  C  C63  1  0.984634  0.269347  0.995593  1
