# generated using pymatgen
data_Pa4BeB2C5
_symmetry_space_group_name_H-M   'P 1'
_cell_length_a   3.41270800
_cell_length_b   3.67522000
_cell_length_c   12.27256300
_cell_angle_alpha   90.00000000
_cell_angle_beta   90.00000000
_cell_angle_gamma   90.00000000
_symmetry_Int_Tables_number   1
_chemical_formula_structural   Pa4BeB2C5
_chemical_formula_sum   'Pa4 Be1 B2 C5'
_cell_volume   153.92804088
_cell_formula_units_Z   1
loop_
 _symmetry_equiv_pos_site_id
 _symmetry_equiv_pos_as_xyz
  1  'x, y, z'
loop_
 _atom_site_type_symbol
 _atom_site_label
 _atom_site_symmetry_multiplicity
 _atom_site_fract_x
 _atom_site_fract_y
 _atom_site_fract_z
 _atom_site_occupancy
  Pa  Pa0  1  0.000000  0.000000  0.139911  1
  Pa  Pa1  1  0.000000  0.500000  0.642804  1
  Pa  Pa2  1  0.500000  0.500000  0.357789  1
  Pa  Pa3  1  0.500000  0.000000  0.864094  1
  Be  Be4  1  0.500000  0.000000  0.528024  1
  B  B5  1  0.000000  0.500000  0.966950  1
  B  B6  1  0.500000  0.500000  0.035440  1
  C  C7  1  0.000000  0.000000  0.335777  1
  C  C8  1  0.000000  0.500000  0.837497  1
  C  C9  1  0.500000  0.500000  0.164769  1
  C  C10  1  0.500000  0.000000  0.669390  1
  C  C11  1  0.000000  0.000000  0.457556  1
