# generated using pymatgen
data_Ta2BeNb2B3Mo2
_symmetry_space_group_name_H-M   'P 1'
_cell_length_a   6.20534566
_cell_length_b   6.20534679
_cell_length_c   3.28224400
_cell_angle_alpha   90.00000000
_cell_angle_beta   90.00000000
_cell_angle_gamma   90.31719174
_symmetry_Int_Tables_number   1
_chemical_formula_structural   Ta2BeNb2B3Mo2
_chemical_formula_sum   'Ta2 Be1 Nb2 B3 Mo2'
_cell_volume   126.38520689
_cell_formula_units_Z   1
loop_
 _symmetry_equiv_pos_site_id
 _symmetry_equiv_pos_as_xyz
  1  'x, y, z'
loop_
 _atom_site_type_symbol
 _atom_site_label
 _atom_site_symmetry_multiplicity
 _atom_site_fract_x
 _atom_site_fract_y
 _atom_site_fract_z
 _atom_site_occupancy
  Ta  Ta0  1  0.679036  0.179036  0.500000  1
  Ta  Ta1  1  0.327618  0.827618  0.500000  1
  Be  Be2  1  0.111672  0.611672  0.000000  1
  Nb  Nb3  1  0.179217  0.315257  0.500000  1
  Nb  Nb4  1  0.815257  0.679217  0.500000  1
  B  B5  1  0.884903  0.384903  0.000000  1
  B  B6  1  0.608865  0.892461  0.000000  1
  B  B7  1  0.392461  0.108865  0.000000  1
  Mo  Mo8  1  0.998497  0.002474  0.000000  1
  Mo  Mo9  1  0.502474  0.498497  0.000000  1
