# generated using pymatgen
data_Gd2AgTe2(SO7)2
_symmetry_space_group_name_H-M   'P 1'
_cell_length_a   5.33151481
_cell_length_b   8.10800501
_cell_length_c   8.49886246
_cell_angle_alpha   117.02649996
_cell_angle_beta   105.03546705
_cell_angle_gamma   85.50656649
_symmetry_Int_Tables_number   1
_chemical_formula_structural   Gd2AgTe2(SO7)2
_chemical_formula_sum   'Gd2 Ag1 Te2 S2 O14'
_cell_volume   315.73047142
_cell_formula_units_Z   1
loop_
 _symmetry_equiv_pos_site_id
 _symmetry_equiv_pos_as_xyz
  1  'x, y, z'
loop_
 _atom_site_type_symbol
 _atom_site_label
 _atom_site_symmetry_multiplicity
 _atom_site_fract_x
 _atom_site_fract_y
 _atom_site_fract_z
 _atom_site_occupancy
  Gd  Gd0  1  0.069043  0.249747  0.983468  1
  Gd  Gd1  1  0.930957  0.750253  0.016532  1
  Ag  Ag2  1  0.000000  0.000000  0.500000  1
  Te  Te3  1  0.518037  0.282970  0.672847  1
  Te  Te4  1  0.481963  0.717030  0.327153  1
  S  S5  1  0.740352  0.253657  0.245623  1
  S  S6  1  0.259648  0.746343  0.754377  1
  O  O7  1  0.847124  0.410757  0.231766  1
  O  O8  1  0.152876  0.589243  0.768234  1
  O  O9  1  0.831688  0.266593  0.429190  1
  O  O10  1  0.168312  0.733407  0.570810  1
  O  O11  1  0.451369  0.250843  0.194320  1
  O  O12  1  0.548631  0.749157  0.805680  1
  O  O13  1  0.839136  0.083710  0.106317  1
  O  O14  1  0.160864  0.916290  0.893683  1
  O  O15  1  0.754304  0.444598  0.892221  1
  O  O16  1  0.245696  0.555402  0.107779  1
  O  O17  1  0.282324  0.205104  0.763689  1
  O  O18  1  0.717676  0.794896  0.236311  1
  O  O19  1  0.739543  0.083040  0.675231  1
  O  O20  1  0.260457  0.916960  0.324769  1
