# generated using pymatgen
data_Ca(AuCl4)2
_symmetry_space_group_name_H-M   'P 1'
_cell_length_a   8.15882000
_cell_length_b   7.26047601
_cell_length_c   13.97535700
_cell_angle_alpha   96.27128924
_cell_angle_beta   90.00000000
_cell_angle_gamma   90.00000000
_symmetry_Int_Tables_number   1
_chemical_formula_structural   Ca(AuCl4)2
_chemical_formula_sum   'Ca2 Au4 Cl16'
_cell_volume   822.90301364
_cell_formula_units_Z   2
loop_
 _symmetry_equiv_pos_site_id
 _symmetry_equiv_pos_as_xyz
  1  'x, y, z'
loop_
 _atom_site_type_symbol
 _atom_site_label
 _atom_site_symmetry_multiplicity
 _atom_site_fract_x
 _atom_site_fract_y
 _atom_site_fract_z
 _atom_site_occupancy
  Ca  Ca0  1  0.818283  0.113095  0.808460  1
  Ca  Ca1  1  0.181717  0.113095  0.308460  1
  Au  Au2  1  0.031966  0.178193  0.568102  1
  Au  Au3  1  0.968034  0.178193  0.068102  1
  Au  Au4  1  0.564530  0.670880  0.799275  1
  Au  Au5  1  0.435470  0.670880  0.299275  1
  Cl  Cl6  1  0.288347  0.612706  0.782955  1
  Cl  Cl7  1  0.711653  0.612706  0.282955  1
  Cl  Cl8  1  0.848459  0.727423  0.807064  1
  Cl  Cl9  1  0.151541  0.727423  0.307064  1
  Cl  Cl10  1  0.944711  0.292933  0.428332  1
  Cl  Cl11  1  0.055289  0.292933  0.928332  1
  Cl  Cl12  1  0.720970  0.077076  0.998703  1
  Cl  Cl13  1  0.279030  0.077076  0.498703  1
  Cl  Cl14  1  0.786922  0.280409  0.639421  1
  Cl  Cl15  1  0.213078  0.280409  0.139421  1
  Cl  Cl16  1  0.594746  0.401756  0.872064  1
  Cl  Cl17  1  0.405254  0.401756  0.372064  1
  Cl  Cl18  1  0.526501  0.954472  0.740544  1
  Cl  Cl19  1  0.473499  0.954472  0.240544  1
  Cl  Cl20  1  0.886803  0.058458  0.207282  1
  Cl  Cl21  1  0.113197  0.058458  0.707282  1
