# generated using pymatgen
data_YbTl(AgTe2)4
_symmetry_space_group_name_H-M   'P 1'
_cell_length_a   12.41210539
_cell_length_b   12.41210477
_cell_length_c   10.91317900
_cell_angle_alpha   93.51932763
_cell_angle_beta   93.51932745
_cell_angle_gamma   14.65877614
_symmetry_Int_Tables_number   1
_chemical_formula_structural   YbTl(AgTe2)4
_chemical_formula_sum   'Yb1 Tl1 Ag4 Te8'
_cell_volume   424.65438927
_cell_formula_units_Z   1
loop_
 _symmetry_equiv_pos_site_id
 _symmetry_equiv_pos_as_xyz
  1  'x, y, z'
loop_
 _atom_site_type_symbol
 _atom_site_label
 _atom_site_symmetry_multiplicity
 _atom_site_fract_x
 _atom_site_fract_y
 _atom_site_fract_z
 _atom_site_occupancy
  Yb  Yb0  1  0.500000  0.500000  0.500000  1
  Tl  Tl1  1  0.000000  0.000000  0.000000  1
  Ag  Ag2  1  0.245286  0.245286  0.118510  1
  Ag  Ag3  1  0.841267  0.841267  0.464503  1
  Ag  Ag4  1  0.158733  0.158733  0.535497  1
  Ag  Ag5  1  0.754714  0.754714  0.881490  1
  Te  Te6  1  0.921564  0.921564  0.663310  1
  Te  Te7  1  0.078436  0.078436  0.336690  1
  Te  Te8  1  0.591496  0.591496  0.722353  1
  Te  Te9  1  0.408504  0.408504  0.277647  1
  Te  Te10  1  0.650071  0.650071  0.990438  1
  Te  Te11  1  0.349929  0.349929  0.009562  1
  Te  Te12  1  0.738145  0.738145  0.338726  1
  Te  Te13  1  0.261855  0.261855  0.661274  1
