# generated using pymatgen
data_EuGd(ZnNi)5
_symmetry_space_group_name_H-M   'P 1'
_cell_length_a   3.99184700
_cell_length_b   5.33534300
_cell_length_c   9.02892500
_cell_angle_alpha   90.00000000
_cell_angle_beta   90.00000000
_cell_angle_gamma   90.00000000
_symmetry_Int_Tables_number   1
_chemical_formula_structural   EuGd(ZnNi)5
_chemical_formula_sum   'Eu1 Gd1 Zn5 Ni5'
_cell_volume   192.29689751
_cell_formula_units_Z   1
loop_
 _symmetry_equiv_pos_site_id
 _symmetry_equiv_pos_as_xyz
  1  'x, y, z'
loop_
 _atom_site_type_symbol
 _atom_site_label
 _atom_site_symmetry_multiplicity
 _atom_site_fract_x
 _atom_site_fract_y
 _atom_site_fract_z
 _atom_site_occupancy
  Eu  Eu0  1  0.000000  0.000000  0.500000  1
  Gd  Gd1  1  0.000000  0.500000  0.000000  1
  Zn  Zn2  1  0.500000  0.000000  0.000000  1
  Zn  Zn3  1  0.500000  0.746621  0.256355  1
  Zn  Zn4  1  0.500000  0.253379  0.743645  1
  Zn  Zn5  1  0.500000  0.253379  0.256355  1
  Zn  Zn6  1  0.500000  0.746621  0.743645  1
  Ni  Ni7  1  0.000000  0.500000  0.340182  1
  Ni  Ni8  1  0.000000  0.000000  0.833565  1
  Ni  Ni9  1  0.000000  0.000000  0.166435  1
  Ni  Ni10  1  0.000000  0.500000  0.659818  1
  Ni  Ni11  1  0.500000  0.500000  0.500000  1
