# generated using pymatgen
data_Nd8Ga2CoHg
_symmetry_space_group_name_H-M   'P 1'
_cell_length_a   10.53783331
_cell_length_b   10.50151172
_cell_length_c   7.11887629
_cell_angle_alpha   90.01482915
_cell_angle_beta   89.97044394
_cell_angle_gamma   120.11448532
_symmetry_Int_Tables_number   1
_chemical_formula_structural   Nd8Ga2CoHg
_chemical_formula_sum   'Nd16 Ga4 Co2 Hg2'
_cell_volume   681.46411852
_cell_formula_units_Z   2
loop_
 _symmetry_equiv_pos_site_id
 _symmetry_equiv_pos_as_xyz
  1  'x, y, z'
loop_
 _atom_site_type_symbol
 _atom_site_label
 _atom_site_symmetry_multiplicity
 _atom_site_fract_x
 _atom_site_fract_y
 _atom_site_fract_z
 _atom_site_occupancy
  Nd  Nd0  1  0.168493  0.825556  0.988430  1
  Nd  Nd1  1  0.342936  0.174444  0.488430  1
  Nd  Nd2  1  0.827774  0.659157  0.489335  1
  Nd  Nd3  1  0.168617  0.340843  0.989335  1
  Nd  Nd4  1  0.657823  0.827688  0.988103  1
  Nd  Nd5  1  0.830135  0.172312  0.488103  1
  Nd  Nd6  1  0.335010  0.664715  0.677454  1
  Nd  Nd7  1  0.670296  0.335285  0.177454  1
  Nd  Nd8  1  0.461290  0.539312  0.291458  1
  Nd  Nd9  1  0.921978  0.460688  0.791458  1
  Nd  Nd10  1  0.541704  0.077759  0.788773  1
  Nd  Nd11  1  0.463946  0.922241  0.288773  1
  Nd  Nd12  1  0.076822  0.535830  0.290739  1
  Nd  Nd13  1  0.540994  0.464170  0.790739  1
  Nd  Nd14  1  0.991217  0.997728  0.277130  1
  Nd  Nd15  1  0.993489  0.002272  0.777130  1
  Ga  Ga16  1  0.835960  0.672857  0.038323  1
  Ga  Ga17  1  0.163104  0.327143  0.538323  1
  Ga  Ga18  1  0.671521  0.836721  0.539082  1
  Ga  Ga19  1  0.834799  0.163279  0.039082  1
  Co  Co20  1  0.332182  0.663922  0.053651  1
  Co  Co21  1  0.668261  0.336078  0.553651  1
  Hg  Hg22  1  0.167691  0.833733  0.540522  1
  Hg  Hg23  1  0.333956  0.166267  0.040522  1
