# generated using pymatgen
data_Ho4Nb2CoOs5
_symmetry_space_group_name_H-M   'P 1'
_cell_length_a   5.53908188
_cell_length_b   5.53908182
_cell_length_c   8.43836500
_cell_angle_alpha   90.00000000
_cell_angle_beta   90.00000000
_cell_angle_gamma   120.60637735
_symmetry_Int_Tables_number   1
_chemical_formula_structural   Ho4Nb2CoOs5
_chemical_formula_sum   'Ho4 Nb2 Co1 Os5'
_cell_volume   222.83237536
_cell_formula_units_Z   1
loop_
 _symmetry_equiv_pos_site_id
 _symmetry_equiv_pos_as_xyz
  1  'x, y, z'
loop_
 _atom_site_type_symbol
 _atom_site_label
 _atom_site_symmetry_multiplicity
 _atom_site_fract_x
 _atom_site_fract_y
 _atom_site_fract_z
 _atom_site_occupancy
  Ho  Ho0  1  0.332066  0.667934  0.433612  1
  Ho  Ho1  1  0.667012  0.332988  0.562778  1
  Ho  Ho2  1  0.667012  0.332988  0.937222  1
  Ho  Ho3  1  0.332066  0.667934  0.066388  1
  Nb  Nb4  1  0.998987  0.001013  0.495834  1
  Nb  Nb5  1  0.998987  0.001013  0.004166  1
  Co  Co6  1  0.834032  0.165968  0.250000  1
  Os  Os7  1  0.819917  0.645188  0.250000  1
  Os  Os8  1  0.354812  0.180083  0.250000  1
  Os  Os9  1  0.170583  0.829417  0.750000  1
  Os  Os10  1  0.174764  0.350239  0.750000  1
  Os  Os11  1  0.649761  0.825236  0.750000  1
