# generated using pymatgen
data_Ba12VGa3O19
_symmetry_space_group_name_H-M   'P 1'
_cell_length_a   7.88719453
_cell_length_b   7.90776756
_cell_length_c   10.54754227
_cell_angle_alpha   90.00217422
_cell_angle_beta   90.11180745
_cell_angle_gamma   96.68857417
_symmetry_Int_Tables_number   1
_chemical_formula_structural   Ba12VGa3O19
_chemical_formula_sum   'Ba12 V1 Ga3 O19'
_cell_volume   653.37260538
_cell_formula_units_Z   1
loop_
 _symmetry_equiv_pos_site_id
 _symmetry_equiv_pos_as_xyz
  1  'x, y, z'
loop_
 _atom_site_type_symbol
 _atom_site_label
 _atom_site_symmetry_multiplicity
 _atom_site_fract_x
 _atom_site_fract_y
 _atom_site_fract_z
 _atom_site_occupancy
  Ba  Ba0  1  0.746600  0.268200  0.485699  1
  Ba  Ba1  1  0.253586  0.723645  0.015225  1
  Ba  Ba2  1  0.748644  0.276079  0.011343  1
  Ba  Ba3  1  0.249360  0.729525  0.488609  1
  Ba  Ba4  1  0.576679  0.579960  0.246581  1
  Ba  Ba5  1  0.063796  0.067069  0.766530  1
  Ba  Ba6  1  0.423247  0.429172  0.754969  1
  Ba  Ba7  1  0.930643  0.930414  0.235593  1
  Ba  Ba8  1  0.748116  0.741788  0.933367  1
  Ba  Ba9  1  0.259644  0.264021  0.422598  1
  Ba  Ba10  1  0.255101  0.254461  0.076585  1
  Ba  Ba11  1  0.742150  0.733284  0.568361  1
  V  V12  1  0.496638  0.997860  0.743448  1
  Ga  Ga13  1  0.505370  0.005180  0.259942  1
  Ga  Ga14  1  0.995680  0.494844  0.740543  1
  Ga  Ga15  1  0.002015  0.501407  0.255141  1
  O  O16  1  0.266935  0.962723  0.294947  1
  O  O17  1  0.757326  0.466814  0.761559  1
  O  O18  1  0.538968  0.243862  0.240595  1
  O  O19  1  0.040518  0.732967  0.704343  1
  O  O20  1  0.922012  0.625388  0.389676  1
  O  O21  1  0.425733  0.099983  0.876693  1
  O  O22  1  0.894890  0.583883  0.112793  1
  O  O23  1  0.382400  0.070129  0.616301  1
  O  O24  1  0.240738  0.538671  0.242548  1
  O  O25  1  0.717693  0.040416  0.721808  1
  O  O26  1  0.964803  0.263424  0.276795  1
  O  O27  1  0.454776  0.777651  0.757774  1
  O  O28  1  0.574103  0.888946  0.116396  1
  O  O29  1  0.064969  0.350034  0.610438  1
  O  O30  1  0.646276  0.939285  0.392646  1
  O  O31  1  0.111706  0.417288  0.882819  1
  O  O32  1  0.498497  0.498442  0.997482  1
  O  O33  1  0.004653  0.999351  0.997429  1
  O  O34  1  0.495735  0.503833  0.502426  1
