# generated using pymatgen
data_Ta9TiSi5Ge
_symmetry_space_group_name_H-M   'P 1'
_cell_length_a   7.55917361
_cell_length_b   7.55917423
_cell_length_c   7.55917383
_cell_angle_alpha   128.56372119
_cell_angle_beta   128.56372115
_cell_angle_gamma   75.71358760
_symmetry_Int_Tables_number   1
_chemical_formula_structural   Ta9TiSi5Ge
_chemical_formula_sum   'Ta9 Ti1 Si5 Ge1'
_cell_volume   256.87928608
_cell_formula_units_Z   1
loop_
 _symmetry_equiv_pos_site_id
 _symmetry_equiv_pos_as_xyz
  1  'x, y, z'
loop_
 _atom_site_type_symbol
 _atom_site_label
 _atom_site_symmetry_multiplicity
 _atom_site_fract_x
 _atom_site_fract_y
 _atom_site_fract_z
 _atom_site_occupancy
  Ta  Ta0  1  0.017758  0.188567  0.504889  1
  Ta  Ta1  1  0.683678  0.512869  0.495111  1
  Ta  Ta2  1  0.512869  0.017758  0.829192  1
  Ta  Ta3  1  0.188567  0.683678  0.170808  1
  Ta  Ta4  1  0.986794  0.816089  0.504337  1
  Ta  Ta5  1  0.311753  0.482457  0.495663  1
  Ta  Ta6  1  0.482457  0.986794  0.170703  1
  Ta  Ta7  1  0.816089  0.311753  0.829297  1
  Ta  Ta8  1  0.498980  0.498980  0.000000  1
  Ti  Ti9  1  0.000835  0.000835  0.000000  1
  Si  Si10  1  0.249199  0.249199  0.000000  1
  Si  Si11  1  0.365875  0.127496  0.493412  1
  Si  Si12  1  0.634084  0.872463  0.506588  1
  Si  Si13  1  0.872463  0.365875  0.238379  1
  Si  Si14  1  0.127496  0.634084  0.761621  1
  Ge  Ge15  1  0.751102  0.751102  0.000000  1
