# generated using pymatgen
data_Nd2Be2Cd(SiO5)2
_symmetry_space_group_name_H-M   'P 1'
_cell_length_a   7.75188000
_cell_length_b   4.94028042
_cell_length_c   10.32617103
_cell_angle_alpha   89.73443966
_cell_angle_beta   90.00000000
_cell_angle_gamma   90.00000000
_symmetry_Int_Tables_number   1
_chemical_formula_structural   Nd2Be2Cd(SiO5)2
_chemical_formula_sum   'Nd4 Be4 Cd2 Si4 O20'
_cell_volume   395.45155806
_cell_formula_units_Z   2
loop_
 _symmetry_equiv_pos_site_id
 _symmetry_equiv_pos_as_xyz
  1  'x, y, z'
loop_
 _atom_site_type_symbol
 _atom_site_label
 _atom_site_symmetry_multiplicity
 _atom_site_fract_x
 _atom_site_fract_y
 _atom_site_fract_z
 _atom_site_occupancy
  Nd  Nd0  1  0.606077  0.002191  0.828660  1
  Nd  Nd1  1  0.106077  0.997809  0.671340  1
  Nd  Nd2  1  0.393923  0.997809  0.171340  1
  Nd  Nd3  1  0.893923  0.002191  0.328660  1
  Be  Be4  1  0.908842  0.526784  0.831523  1
  Be  Be5  1  0.408842  0.473216  0.668477  1
  Be  Be6  1  0.091158  0.473216  0.168477  1
  Be  Be7  1  0.591158  0.526784  0.331523  1
  Cd  Cd8  1  0.000000  0.000000  0.000000  1
  Cd  Cd9  1  0.500000  0.000000  0.500000  1
  Si  Si10  1  0.775493  0.478762  0.578753  1
  Si  Si11  1  0.275493  0.521238  0.921247  1
  Si  Si12  1  0.224507  0.521238  0.421247  1
  Si  Si13  1  0.724507  0.478762  0.078753  1
  O  O14  1  0.601813  0.334528  0.644413  1
  O  O15  1  0.101813  0.665472  0.855587  1
  O  O16  1  0.398187  0.665472  0.355587  1
  O  O17  1  0.898187  0.334528  0.144413  1
  O  O18  1  0.404847  0.794786  0.677173  1
  O  O19  1  0.904847  0.205214  0.822827  1
  O  O20  1  0.595153  0.205214  0.322827  1
  O  O21  1  0.216698  0.342344  0.050723  1
  O  O22  1  0.595252  0.237215  0.032470  1
  O  O23  1  0.095252  0.762785  0.467530  1
  O  O24  1  0.847122  0.682358  0.693704  1
  O  O25  1  0.904748  0.237215  0.532470  1
  O  O26  1  0.716698  0.657656  0.449277  1
  O  O27  1  0.404748  0.762785  0.967530  1
  O  O28  1  0.283302  0.342344  0.550723  1
  O  O29  1  0.783302  0.657656  0.949277  1
  O  O30  1  0.652878  0.682358  0.193704  1
  O  O31  1  0.152878  0.317642  0.306296  1
  O  O32  1  0.347122  0.317642  0.806296  1
  O  O33  1  0.095153  0.794786  0.177173  1
