# generated using pymatgen
data_Lu2Ni7(As2Ru)3
_symmetry_space_group_name_H-M   'P 1'
_cell_length_a   3.82146000
_cell_length_b   10.95754800
_cell_length_c   12.36617000
_cell_angle_alpha   90.00000000
_cell_angle_beta   90.00000000
_cell_angle_gamma   90.00000000
_symmetry_Int_Tables_number   1
_chemical_formula_structural   Lu2Ni7(As2Ru)3
_chemical_formula_sum   'Lu4 Ni14 As12 Ru6'
_cell_volume   517.81891740
_cell_formula_units_Z   2
loop_
 _symmetry_equiv_pos_site_id
 _symmetry_equiv_pos_as_xyz
  1  'x, y, z'
loop_
 _atom_site_type_symbol
 _atom_site_label
 _atom_site_symmetry_multiplicity
 _atom_site_fract_x
 _atom_site_fract_y
 _atom_site_fract_z
 _atom_site_occupancy
  Lu  Lu0  1  0.250000  0.588000  0.704673  1
  Lu  Lu1  1  0.250000  0.912000  0.204673  1
  Lu  Lu2  1  0.750000  0.412016  0.293846  1
  Lu  Lu3  1  0.750000  0.087984  0.793846  1
  Ni  Ni4  1  0.750000  0.592061  0.512439  1
  Ni  Ni5  1  0.750000  0.907939  0.012439  1
  Ni  Ni6  1  0.250000  0.218007  0.183417  1
  Ni  Ni7  1  0.250000  0.281993  0.683417  1
  Ni  Ni8  1  0.750000  0.784222  0.817427  1
  Ni  Ni9  1  0.750000  0.715778  0.317427  1
  Ni  Ni10  1  0.250000  0.887517  0.697510  1
  Ni  Ni11  1  0.250000  0.612483  0.197510  1
  Ni  Ni12  1  0.750000  0.108356  0.302160  1
  Ni  Ni13  1  0.750000  0.391644  0.802160  1
  Ni  Ni14  1  0.250000  0.470805  0.929879  1
  Ni  Ni15  1  0.250000  0.029195  0.429879  1
  Ni  Ni16  1  0.750000  0.532649  0.069617  1
  Ni  Ni17  1  0.750000  0.967351  0.569617  1
  As  As18  1  0.250000  0.412906  0.113667  1
  As  As19  1  0.250000  0.087094  0.613667  1
  As  As20  1  0.750000  0.589158  0.886326  1
  As  As21  1  0.750000  0.910842  0.386326  1
  As  As22  1  0.250000  0.270635  0.872925  1
  As  As23  1  0.250000  0.229365  0.372925  1
  As  As24  1  0.750000  0.733009  0.126543  1
  As  As25  1  0.750000  0.766991  0.626543  1
  As  As26  1  0.250000  0.596927  0.384042  1
  As  As27  1  0.250000  0.903073  0.884042  1
  As  As28  1  0.750000  0.404263  0.615964  1
  As  As29  1  0.750000  0.095737  0.115964  1
  Ru  Ru30  1  0.250000  0.715644  0.988567  1
  Ru  Ru31  1  0.250000  0.784356  0.488567  1
  Ru  Ru32  1  0.750000  0.289224  0.012454  1
  Ru  Ru33  1  0.750000  0.210776  0.512454  1
  Ru  Ru34  1  0.250000  0.410967  0.488542  1
  Ru  Ru35  1  0.250000  0.089033  0.988542  1
