# generated using pymatgen
data_Dy5Y3Re3B24Ru
_symmetry_space_group_name_H-M   'P 1'
_cell_length_a   3.68201600
_cell_length_b   9.17743864
_cell_length_c   11.56965404
_cell_angle_alpha   90.10101671
_cell_angle_beta   90.00000000
_cell_angle_gamma   90.00000000
_symmetry_Int_Tables_number   1
_chemical_formula_structural   Dy5Y3Re3B24Ru
_chemical_formula_sum   'Dy5 Y3 Re3 B24 Ru1'
_cell_volume   390.95507807
_cell_formula_units_Z   1
loop_
 _symmetry_equiv_pos_site_id
 _symmetry_equiv_pos_as_xyz
  1  'x, y, z'
loop_
 _atom_site_type_symbol
 _atom_site_label
 _atom_site_symmetry_multiplicity
 _atom_site_fract_x
 _atom_site_fract_y
 _atom_site_fract_z
 _atom_site_occupancy
  Dy  Dy0  1  0.000000  0.176180  0.913563  1
  Dy  Dy1  1  0.000000  0.941998  0.369702  1
  Dy  Dy2  1  0.000000  0.056261  0.629288  1
  Dy  Dy3  1  0.000000  0.443351  0.130507  1
  Dy  Dy4  1  0.000000  0.556729  0.870900  1
  Y  Y5  1  0.000000  0.322270  0.414321  1
  Y  Y6  1  0.000000  0.677192  0.587509  1
  Y  Y7  1  0.000000  0.824922  0.084103  1
  Re  Re8  1  0.000000  0.362070  0.678311  1
  Re  Re9  1  0.000000  0.138308  0.179353  1
  Re  Re10  1  0.000000  0.861998  0.821041  1
  B  B11  1  0.500000  0.554191  0.432556  1
  B  B12  1  0.500000  0.446719  0.566932  1
  B  B13  1  0.500000  0.053614  0.066890  1
  B  B14  1  0.500000  0.946853  0.932749  1
  B  B15  1  0.500000  0.748256  0.418457  1
  B  B16  1  0.500000  0.250750  0.581264  1
  B  B17  1  0.500000  0.249121  0.081347  1
  B  B18  1  0.500000  0.751352  0.918717  1
  B  B19  1  0.500000  0.790792  0.265759  1
  B  B20  1  0.500000  0.208047  0.734058  1
  B  B21  1  0.500000  0.291747  0.234753  1
  B  B22  1  0.500000  0.707988  0.766020  1
  B  B23  1  0.500000  0.631675  0.186142  1
  B  B24  1  0.500000  0.369022  0.813744  1
  B  B25  1  0.500000  0.131104  0.314515  1
  B  B26  1  0.500000  0.868531  0.685983  1
  B  B27  1  0.500000  0.983134  0.211855  1
  B  B28  1  0.500000  0.017131  0.787733  1
  B  B29  1  0.500000  0.484038  0.288239  1
  B  B30  1  0.500000  0.517453  0.712134  1
  B  B31  1  0.500000  0.602373  0.028962  1
  B  B32  1  0.500000  0.398182  0.972085  1
  B  B33  1  0.500000  0.101170  0.471266  1
  B  B34  1  0.500000  0.897079  0.528237  1
  Ru  Ru35  1  0.000000  0.638401  0.321004  1
