# generated using pymatgen
data_TmTcN2
_symmetry_space_group_name_H-M   'P 1'
_cell_length_a   3.10386500
_cell_length_b   5.59648700
_cell_length_c   10.66910800
_cell_angle_alpha   90.00000000
_cell_angle_beta   90.00000000
_cell_angle_gamma   90.00000000
_symmetry_Int_Tables_number   1
_chemical_formula_structural   TmTcN2
_chemical_formula_sum   'Tm4 Tc4 N8'
_cell_volume   185.33030240
_cell_formula_units_Z   4
loop_
 _symmetry_equiv_pos_site_id
 _symmetry_equiv_pos_as_xyz
  1  'x, y, z'
loop_
 _atom_site_type_symbol
 _atom_site_label
 _atom_site_symmetry_multiplicity
 _atom_site_fract_x
 _atom_site_fract_y
 _atom_site_fract_z
 _atom_site_occupancy
  Tm  Tm0  1  0.250000  0.078809  0.851527  1
  Tm  Tm1  1  0.250000  0.578809  0.648473  1
  Tm  Tm2  1  0.750000  0.921191  0.148473  1
  Tm  Tm3  1  0.750000  0.421191  0.351527  1
  Tc  Tc4  1  0.250000  0.435692  0.096931  1
  Tc  Tc5  1  0.250000  0.935692  0.403069  1
  Tc  Tc6  1  0.750000  0.564308  0.903069  1
  Tc  Tc7  1  0.750000  0.064308  0.596931  1
  N  N8  1  0.250000  0.167539  0.244289  1
  N  N9  1  0.250000  0.667539  0.255711  1
  N  N10  1  0.750000  0.832461  0.755711  1
  N  N11  1  0.750000  0.332461  0.744289  1
  N  N12  1  0.250000  0.754540  0.998253  1
  N  N13  1  0.250000  0.254540  0.501747  1
  N  N14  1  0.750000  0.245460  0.001747  1
  N  N15  1  0.750000  0.745460  0.498253  1
