# generated using pymatgen
data_SrDy2Cd(Pt2O7)2
_symmetry_space_group_name_H-M   'P 1'
_cell_length_a   7.29559135
_cell_length_b   7.30112652
_cell_length_c   7.29559200
_cell_angle_alpha   60.81020395
_cell_angle_beta   60.71161997
_cell_angle_gamma   60.81020507
_symmetry_Int_Tables_number   1
_chemical_formula_structural   SrDy2Cd(Pt2O7)2
_chemical_formula_sum   'Sr1 Dy2 Cd1 Pt4 O14'
_cell_volume   279.60488600
_cell_formula_units_Z   1
loop_
 _symmetry_equiv_pos_site_id
 _symmetry_equiv_pos_as_xyz
  1  'x, y, z'
loop_
 _atom_site_type_symbol
 _atom_site_label
 _atom_site_symmetry_multiplicity
 _atom_site_fract_x
 _atom_site_fract_y
 _atom_site_fract_z
 _atom_site_occupancy
  Sr  Sr0  1  0.125000  0.625000  0.125000  1
  Dy  Dy1  1  0.625000  0.125000  0.125000  1
  Dy  Dy2  1  0.125000  0.125000  0.625000  1
  Cd  Cd3  1  0.125000  0.125000  0.125000  1
  Pt  Pt4  1  0.125000  0.625000  0.625000  1
  Pt  Pt5  1  0.625000  0.125000  0.625000  1
  Pt  Pt6  1  0.625000  0.625000  0.125000  1
  Pt  Pt7  1  0.625000  0.625000  0.625000  1
  O  O8  1  0.695505  0.722738  0.292666  1
  O  O9  1  0.296156  0.294340  0.692363  1
  O  O10  1  0.713024  0.287882  0.713024  1
  O  O11  1  0.297691  0.709977  0.297691  1
  O  O12  1  0.292666  0.722738  0.695505  1
  O  O13  1  0.692363  0.294340  0.296156  1
  O  O14  1  0.554495  0.527262  0.957334  1
  O  O15  1  0.953844  0.955660  0.557637  1
  O  O16  1  0.536976  0.962118  0.536976  1
  O  O17  1  0.952309  0.540023  0.952309  1
  O  O18  1  0.957334  0.527262  0.554495  1
  O  O19  1  0.557637  0.955660  0.953844  1
  O  O20  1  0.257272  0.224653  0.257272  1
  O  O21  1  0.992728  0.025347  0.992728  1
