# generated using pymatgen
data_Dy3GaC3
_symmetry_space_group_name_H-M   'P 1'
_cell_length_a   3.57031800
_cell_length_b   7.06005000
_cell_length_c   9.88354400
_cell_angle_alpha   90.00000000
_cell_angle_beta   90.00000000
_cell_angle_gamma   90.00000000
_symmetry_Int_Tables_number   1
_chemical_formula_structural   Dy3GaC3
_chemical_formula_sum   'Dy6 Ga2 C6'
_cell_volume   249.13077340
_cell_formula_units_Z   2
loop_
 _symmetry_equiv_pos_site_id
 _symmetry_equiv_pos_as_xyz
  1  'x, y, z'
loop_
 _atom_site_type_symbol
 _atom_site_label
 _atom_site_symmetry_multiplicity
 _atom_site_fract_x
 _atom_site_fract_y
 _atom_site_fract_z
 _atom_site_occupancy
  Dy  Dy0  1  0.500000  0.511160  0.196729  1
  Dy  Dy1  1  0.500000  0.488840  0.803271  1
  Dy  Dy2  1  0.500000  0.988840  0.196729  1
  Dy  Dy3  1  0.500000  0.011160  0.803271  1
  Dy  Dy4  1  0.000000  0.750000  0.458433  1
  Dy  Dy5  1  0.000000  0.250000  0.541567  1
  Ga  Ga6  1  0.000000  0.750000  0.000585  1
  Ga  Ga7  1  0.000000  0.250000  0.999415  1
  C  C8  1  0.500000  0.508996  0.566811  1
  C  C9  1  0.500000  0.491004  0.433189  1
  C  C10  1  0.500000  0.991004  0.566811  1
  C  C11  1  0.500000  0.008996  0.433189  1
  C  C12  1  0.000000  0.750000  0.208906  1
  C  C13  1  0.000000  0.250000  0.791094  1
