# generated using pymatgen
data_CaY3B16
_symmetry_space_group_name_H-M   'P 1'
_cell_length_a   7.12373013
_cell_length_b   7.12373013
_cell_length_c   4.03725500
_cell_angle_alpha   90.00000000
_cell_angle_beta   90.00000000
_cell_angle_gamma   90.06464921
_symmetry_Int_Tables_number   1
_chemical_formula_structural   CaY3B16
_chemical_formula_sum   'Ca1 Y3 B16'
_cell_volume   204.88059292
_cell_formula_units_Z   1
loop_
 _symmetry_equiv_pos_site_id
 _symmetry_equiv_pos_as_xyz
  1  'x, y, z'
loop_
 _atom_site_type_symbol
 _atom_site_label
 _atom_site_symmetry_multiplicity
 _atom_site_fract_x
 _atom_site_fract_y
 _atom_site_fract_z
 _atom_site_occupancy
  Ca  Ca0  1  0.318471  0.818470  0.000000  1
  Y  Y1  1  0.681387  0.181386  0.000000  1
  Y  Y2  1  0.818001  0.682093  0.000000  1
  Y  Y3  1  0.182092  0.318002  0.000000  1
  B  B4  1  0.499822  0.500688  0.203254  1
  B  B5  1  0.000689  0.999823  0.796746  1
  B  B6  1  0.499822  0.500688  0.796746  1
  B  B7  1  0.000689  0.999823  0.203254  1
  B  B8  1  0.086604  0.586605  0.500000  1
  B  B9  1  0.913022  0.413021  0.500000  1
  B  B10  1  0.587126  0.913517  0.500000  1
  B  B11  1  0.413516  0.087125  0.500000  1
  B  B12  1  0.175760  0.038604  0.500000  1
  B  B13  1  0.823618  0.962000  0.500000  1
  B  B14  1  0.675393  0.461351  0.500000  1
  B  B15  1  0.324391  0.537642  0.500000  1
  B  B16  1  0.461999  0.323618  0.500000  1
  B  B17  1  0.538605  0.675761  0.500000  1
  B  B18  1  0.037641  0.824391  0.500000  1
  B  B19  1  0.961352  0.175392  0.500000  1
