# generated using pymatgen
data_Ca12PaGa7Rh8
_symmetry_space_group_name_H-M   'P 1'
_cell_length_a   5.90339700
_cell_length_b   7.94831438
_cell_length_c   13.85422970
_cell_angle_alpha   89.81328568
_cell_angle_beta   90.00000000
_cell_angle_gamma   90.00000000
_symmetry_Int_Tables_number   1
_chemical_formula_structural   Ca12PaGa7Rh8
_chemical_formula_sum   'Ca12 Pa1 Ga7 Rh8'
_cell_volume   650.06547951
_cell_formula_units_Z   1
loop_
 _symmetry_equiv_pos_site_id
 _symmetry_equiv_pos_as_xyz
  1  'x, y, z'
loop_
 _atom_site_type_symbol
 _atom_site_label
 _atom_site_symmetry_multiplicity
 _atom_site_fract_x
 _atom_site_fract_y
 _atom_site_fract_z
 _atom_site_occupancy
  Ca  Ca0  1  0.133254  0.616526  0.102706  1
  Ca  Ca1  1  0.133254  0.883474  0.897294  1
  Ca  Ca2  1  0.854563  0.101870  0.405064  1
  Ca  Ca3  1  0.854563  0.398130  0.594936  1
  Ca  Ca4  1  0.866605  0.405908  0.893937  1
  Ca  Ca5  1  0.866605  0.094092  0.106063  1
  Ca  Ca6  1  0.143358  0.896303  0.596914  1
  Ca  Ca7  1  0.143358  0.603697  0.403086  1
  Ca  Ca8  1  0.372560  0.257050  0.260694  1
  Ca  Ca9  1  0.372560  0.242950  0.739306  1
  Ca  Ca10  1  0.628308  0.753920  0.256248  1
  Ca  Ca11  1  0.628308  0.746080  0.743752  1
  Pa  Pa12  1  0.392739  0.250000  0.000000  1
  Ga  Ga13  1  0.599812  0.750000  0.500000  1
  Ga  Ga14  1  0.612296  0.750000  0.000000  1
  Ga  Ga15  1  0.395310  0.250000  0.500000  1
  Ga  Ga16  1  0.850633  0.405285  0.249472  1
  Ga  Ga17  1  0.850633  0.094715  0.750528  1
  Ga  Ga18  1  0.151648  0.911086  0.253885  1
  Ga  Ga19  1  0.151648  0.588914  0.746115  1
  Rh  Rh20  1  0.631067  0.464780  0.091763  1
  Rh  Rh21  1  0.631067  0.035220  0.908237  1
  Rh  Rh22  1  0.363105  0.972373  0.408610  1
  Rh  Rh23  1  0.363105  0.527627  0.591390  1
  Rh  Rh24  1  0.365731  0.520696  0.909204  1
  Rh  Rh25  1  0.365731  0.979304  0.090796  1
  Rh  Rh26  1  0.639089  0.028916  0.593052  1
  Rh  Rh27  1  0.639089  0.471084  0.406948  1
