# generated using pymatgen
data_Ce2CoAs4Pd3
_symmetry_space_group_name_H-M   'P 1'
_cell_length_a   4.35588500
_cell_length_b   4.35588500
_cell_length_c   9.80790900
_cell_angle_alpha   90.00000000
_cell_angle_beta   90.00000000
_cell_angle_gamma   90.00000000
_symmetry_Int_Tables_number   1
_chemical_formula_structural   Ce2CoAs4Pd3
_chemical_formula_sum   'Ce2 Co1 As4 Pd3'
_cell_volume   186.09265777
_cell_formula_units_Z   1
loop_
 _symmetry_equiv_pos_site_id
 _symmetry_equiv_pos_as_xyz
  1  'x, y, z'
loop_
 _atom_site_type_symbol
 _atom_site_label
 _atom_site_symmetry_multiplicity
 _atom_site_fract_x
 _atom_site_fract_y
 _atom_site_fract_z
 _atom_site_occupancy
  Ce  Ce0  1  0.000000  0.499999  0.241366  1
  Ce  Ce1  1  0.499999  0.000000  0.752359  1
  Co  Co2  1  0.000000  0.499999  0.888009  1
  As  As3  1  0.000000  0.000000  0.986383  1
  As  As4  1  0.499999  0.499999  0.986383  1
  As  As5  1  0.499999  0.000000  0.366543  1
  As  As6  1  0.000000  0.499999  0.651534  1
  Pd  Pd7  1  0.499999  0.000000  0.117966  1
  Pd  Pd8  1  0.000000  0.000000  0.504728  1
  Pd  Pd9  1  0.499999  0.499999  0.504728  1
