# generated using pymatgen
data_Er3Ti10Al9Ir8
_symmetry_space_group_name_H-M   'P 1'
_cell_length_a   8.92104732
_cell_length_b   8.92104651
_cell_length_c   8.92104663
_cell_angle_alpha   59.74583312
_cell_angle_beta   59.74583740
_cell_angle_gamma   59.74583865
_symmetry_Int_Tables_number   1
_chemical_formula_structural   Er3Ti10Al9Ir8
_chemical_formula_sum   'Er3 Ti10 Al9 Ir8'
_cell_volume   499.13565384
_cell_formula_units_Z   1
loop_
 _symmetry_equiv_pos_site_id
 _symmetry_equiv_pos_as_xyz
  1  'x, y, z'
loop_
 _atom_site_type_symbol
 _atom_site_label
 _atom_site_symmetry_multiplicity
 _atom_site_fract_x
 _atom_site_fract_y
 _atom_site_fract_z
 _atom_site_occupancy
  Er  Er0  1  0.206232  0.206232  0.798218  1
  Er  Er1  1  0.798218  0.206232  0.206232  1
  Er  Er2  1  0.206232  0.798218  0.206232  1
  Ti  Ti3  1  0.790342  0.790342  0.202141  1
  Ti  Ti4  1  0.202141  0.790342  0.790342  1
  Ti  Ti5  1  0.790342  0.202141  0.790342  1
  Ti  Ti6  1  0.377363  0.377363  0.377363  1
  Ti  Ti7  1  0.383812  0.861853  0.383812  1
  Ti  Ti8  1  0.861853  0.383812  0.383812  1
  Ti  Ti9  1  0.383812  0.383812  0.861853  1
  Ti  Ti10  1  0.831757  0.499530  0.831757  1
  Ti  Ti11  1  0.499530  0.831757  0.831757  1
  Ti  Ti12  1  0.831757  0.831757  0.499530  1
  Al  Al13  1  0.173875  0.173875  0.173875  1
  Al  Al14  1  0.157467  0.519365  0.157467  1
  Al  Al15  1  0.519365  0.157467  0.157467  1
  Al  Al16  1  0.157467  0.157467  0.519365  1
  Al  Al17  1  0.617658  0.617658  0.617658  1
  Al  Al18  1  0.623353  0.143352  0.623353  1
  Al  Al19  1  0.143352  0.623353  0.623353  1
  Al  Al20  1  0.623353  0.623353  0.143352  1
  Al  Al21  1  0.834047  0.834047  0.834047  1
  Ir  Ir22  1  0.000366  0.000366  0.499066  1
  Ir  Ir23  1  0.499066  0.000366  0.000366  1
  Ir  Ir24  1  0.000366  0.499066  0.000366  1
  Ir  Ir25  1  0.499799  0.499799  0.999366  1
  Ir  Ir26  1  0.999366  0.499799  0.499799  1
  Ir  Ir27  1  0.499799  0.999366  0.499799  1
  Ir  Ir28  1  0.500429  0.500429  0.500429  1
  Ir  Ir29  1  0.987478  0.987478  0.987478  1
