# generated using pymatgen
data_Ho5Er2CoI12
_symmetry_space_group_name_H-M   'P 1'
_cell_length_a   9.70076146
_cell_length_b   9.70087588
_cell_length_c   9.69754608
_cell_angle_alpha   106.82894750
_cell_angle_beta   106.83928461
_cell_angle_gamma   106.83811478
_symmetry_Int_Tables_number   1
_chemical_formula_structural   Ho5Er2CoI12
_chemical_formula_sum   'Ho5 Er2 Co1 I12'
_cell_volume   763.40464453
_cell_formula_units_Z   1
loop_
 _symmetry_equiv_pos_site_id
 _symmetry_equiv_pos_as_xyz
  1  'x, y, z'
loop_
 _atom_site_type_symbol
 _atom_site_label
 _atom_site_symmetry_multiplicity
 _atom_site_fract_x
 _atom_site_fract_y
 _atom_site_fract_z
 _atom_site_occupancy
  Ho  Ho0  1  0.286399  0.091112  0.021354  1
  Ho  Ho1  1  0.021457  0.286382  0.090882  1
  Ho  Ho2  1  0.091171  0.021547  0.286582  1
  Ho  Ho3  1  0.713476  0.908871  0.978311  1
  Ho  Ho4  1  0.978422  0.713526  0.908726  1
  Er  Er5  1  0.500045  0.500049  0.499995  1
  Er  Er6  1  0.909288  0.978599  0.714418  1
  Co  Co7  1  0.999924  0.999979  0.999776  1
  I  I8  1  0.463341  0.161243  0.386780  1
  I  I9  1  0.386788  0.463353  0.161234  1
  I  I10  1  0.161244  0.386775  0.463353  1
  I  I11  1  0.536873  0.838811  0.613191  1
  I  I12  1  0.613197  0.536637  0.838740  1
  I  I13  1  0.838718  0.613396  0.536655  1
  I  I14  1  0.323376  0.775651  0.929351  1
  I  I15  1  0.929302  0.323116  0.775523  1
  I  I16  1  0.775712  0.929399  0.323580  1
  I  I17  1  0.676616  0.224348  0.070654  1
  I  I18  1  0.070670  0.676659  0.224338  1
  I  I19  1  0.223981  0.070546  0.676559  1
