# generated using pymatgen
data_Dy16HoTh3Sn16
_symmetry_space_group_name_H-M   'P 1'
_cell_length_a   8.09143155
_cell_length_b   8.20730087
_cell_length_c   15.50056271
_cell_angle_alpha   90.05714270
_cell_angle_beta   90.17518260
_cell_angle_gamma   89.91057134
_symmetry_Int_Tables_number   1
_chemical_formula_structural   Dy16HoTh3Sn16
_chemical_formula_sum   'Dy16 Ho1 Th3 Sn16'
_cell_volume   1029.36740044
_cell_formula_units_Z   1
loop_
 _symmetry_equiv_pos_site_id
 _symmetry_equiv_pos_as_xyz
  1  'x, y, z'
loop_
 _atom_site_type_symbol
 _atom_site_label
 _atom_site_symmetry_multiplicity
 _atom_site_fract_x
 _atom_site_fract_y
 _atom_site_fract_z
 _atom_site_occupancy
  Dy  Dy0  1  0.366776  0.834990  0.878244  1
  Dy  Dy1  1  0.865963  0.664959  0.622840  1
  Dy  Dy2  1  0.634000  0.163588  0.376556  1
  Dy  Dy3  1  0.133002  0.336506  0.122604  1
  Dy  Dy4  1  0.632926  0.162167  0.122806  1
  Dy  Dy5  1  0.134389  0.337920  0.377012  1
  Dy  Dy6  1  0.366261  0.837830  0.623005  1
  Dy  Dy7  1  0.867962  0.662088  0.877596  1
  Dy  Dy8  1  0.527300  0.322856  0.900379  1
  Dy  Dy9  1  0.026193  0.176975  0.599883  1
  Dy  Dy10  1  0.475662  0.677548  0.400949  1
  Dy  Dy11  1  0.975012  0.821733  0.100337  1
  Dy  Dy12  1  0.478058  0.677283  0.097315  1
  Dy  Dy13  1  0.196554  0.500985  0.750443  1
  Dy  Dy14  1  0.695983  0.998856  0.749996  1
  Dy  Dy15  1  0.802863  0.499930  0.249286  1
  Ho  Ho16  1  0.303065  0.002256  0.248798  1
  Th  Th17  1  0.981610  0.819428  0.402432  1
  Th  Th18  1  0.517938  0.320808  0.596118  1
  Th  Th19  1  0.018623  0.179350  0.904651  1
  Sn  Sn20  1  0.291814  0.032337  0.043103  1
  Sn  Sn21  1  0.792290  0.466184  0.457078  1
  Sn  Sn22  1  0.709174  0.967359  0.542446  1
  Sn  Sn23  1  0.211823  0.533047  0.957641  1
  Sn  Sn24  1  0.704659  0.960092  0.959026  1
  Sn  Sn25  1  0.203252  0.541294  0.540521  1
  Sn  Sn26  1  0.296077  0.039971  0.459201  1
  Sn  Sn27  1  0.792146  0.462744  0.041329  1
  Sn  Sn28  1  0.562924  0.621960  0.749210  1
  Sn  Sn29  1  0.063541  0.878983  0.751323  1
  Sn  Sn30  1  0.436653  0.379581  0.249721  1
  Sn  Sn31  1  0.936214  0.121398  0.250968  1
  Sn  Sn32  1  0.328839  0.145581  0.752211  1
  Sn  Sn33  1  0.829584  0.354604  0.747800  1
  Sn  Sn34  1  0.667313  0.851659  0.249552  1
  Sn  Sn35  1  0.173553  0.645148  0.247620  1
