# generated using pymatgen
data_Tb6Ho4In8Pd3Rh
_symmetry_space_group_name_H-M   'P 1'
_cell_length_a   3.64333700
_cell_length_b   8.14486028
_cell_length_c   18.28128911
_cell_angle_alpha   90.00861689
_cell_angle_beta   90.00000000
_cell_angle_gamma   90.00000000
_symmetry_Int_Tables_number   1
_chemical_formula_structural   Tb6Ho4In8Pd3Rh
_chemical_formula_sum   'Tb6 Ho4 In8 Pd3 Rh1'
_cell_volume   542.48757381
_cell_formula_units_Z   1
loop_
 _symmetry_equiv_pos_site_id
 _symmetry_equiv_pos_as_xyz
  1  'x, y, z'
loop_
 _atom_site_type_symbol
 _atom_site_label
 _atom_site_symmetry_multiplicity
 _atom_site_fract_x
 _atom_site_fract_y
 _atom_site_fract_z
 _atom_site_occupancy
  Tb  Tb0  1  0.000000  0.500227  0.499806  1
  Tb  Tb1  1  0.000000  0.999667  0.000445  1
  Tb  Tb2  1  0.000000  0.731905  0.278296  1
  Tb  Tb3  1  0.000000  0.260915  0.719285  1
  Tb  Tb4  1  0.000000  0.760169  0.780452  1
  Tb  Tb5  1  0.000000  0.251666  0.219601  1
  Ho  Ho6  1  0.000000  0.613359  0.086808  1
  Ho  Ho7  1  0.000000  0.383708  0.916823  1
  Ho  Ho8  1  0.000000  0.883698  0.583199  1
  Ho  Ho9  1  0.000000  0.116271  0.415462  1
  In  In10  1  0.500000  0.707667  0.932868  1
  In  In11  1  0.500000  0.291927  0.068342  1
  In  In12  1  0.500000  0.791869  0.432079  1
  In  In13  1  0.500000  0.207577  0.567217  1
  In  In14  1  0.500000  0.580816  0.649686  1
  In  In15  1  0.500000  0.421365  0.350348  1
  In  In16  1  0.500000  0.920391  0.150035  1
  In  In17  1  0.500000  0.080688  0.850204  1
  Pd  Pd18  1  0.500000  0.476389  0.804749  1
  Pd  Pd19  1  0.500000  0.976590  0.695417  1
  Pd  Pd20  1  0.500000  0.021679  0.304070  1
  Rh  Rh21  1  0.500000  0.521457  0.194805  1
