# generated using pymatgen
data_Mg4Zn6CuOs
_symmetry_space_group_name_H-M   'P 1'
_cell_length_a   5.12191337
_cell_length_b   5.18297346
_cell_length_c   8.42795600
_cell_angle_alpha   90.00000000
_cell_angle_beta   90.00000000
_cell_angle_gamma   119.40350646
_symmetry_Int_Tables_number   1
_chemical_formula_structural   Mg4Zn6CuOs
_chemical_formula_sum   'Mg4 Zn6 Cu1 Os1'
_cell_volume   194.91409577
_cell_formula_units_Z   1
loop_
 _symmetry_equiv_pos_site_id
 _symmetry_equiv_pos_as_xyz
  1  'x, y, z'
loop_
 _atom_site_type_symbol
 _atom_site_label
 _atom_site_symmetry_multiplicity
 _atom_site_fract_x
 _atom_site_fract_y
 _atom_site_fract_z
 _atom_site_occupancy
  Mg  Mg0  1  0.323558  0.648363  0.056980  1
  Mg  Mg1  1  0.670049  0.336746  0.574055  1
  Mg  Mg2  1  0.670049  0.336746  0.925945  1
  Mg  Mg3  1  0.323558  0.648363  0.443020  1
  Zn  Zn4  1  0.005308  0.021130  0.002286  1
  Zn  Zn5  1  0.005308  0.021130  0.497714  1
  Zn  Zn6  1  0.346351  0.160346  0.250000  1
  Zn  Zn7  1  0.661285  0.829577  0.750000  1
  Zn  Zn8  1  0.169193  0.831050  0.750000  1
  Zn  Zn9  1  0.831803  0.662737  0.250000  1
  Cu  Cu10  1  0.821931  0.162606  0.250000  1
  Os  Os11  1  0.171609  0.341207  0.750000  1
