# generated using pymatgen
data_Yb5Np4(BiO8)3
_symmetry_space_group_name_H-M   'P 1'
_cell_length_a   5.49012308
_cell_length_b   7.81031934
_cell_length_c   11.79248200
_cell_angle_alpha   74.04382139
_cell_angle_beta   89.90795307
_cell_angle_gamma   90.11441571
_symmetry_Int_Tables_number   1
_chemical_formula_structural   Yb5Np4(BiO8)3
_chemical_formula_sum   'Yb5 Np4 Bi3 O24'
_cell_volume   486.17305139
_cell_formula_units_Z   1
loop_
 _symmetry_equiv_pos_site_id
 _symmetry_equiv_pos_as_xyz
  1  'x, y, z'
loop_
 _atom_site_type_symbol
 _atom_site_label
 _atom_site_symmetry_multiplicity
 _atom_site_fract_x
 _atom_site_fract_y
 _atom_site_fract_z
 _atom_site_occupancy
  Yb  Yb0  1  0.186927  0.802153  0.076927  1
  Yb  Yb1  1  0.811707  0.796602  0.582233  1
  Yb  Yb2  1  0.809214  0.198294  0.919287  1
  Yb  Yb3  1  0.749951  0.002844  0.250324  1
  Yb  Yb4  1  0.253193  0.994997  0.754417  1
  Np  Np5  1  0.254730  0.277559  0.106934  1
  Np  Np6  1  0.258651  0.731033  0.383912  1
  Np  Np7  1  0.744855  0.725258  0.887697  1
  Np  Np8  1  0.745717  0.273082  0.616486  1
  Bi  Bi9  1  0.204104  0.208731  0.415680  1
  Bi  Bi10  1  0.704815  0.503349  0.244106  1
  Bi  Bi11  1  0.296504  0.499754  0.757836  1
  O  O12  1  0.456880  0.198964  0.272434  1
  O  O13  1  0.442953  0.803113  0.233008  1
  O  O14  1  0.553411  0.795672  0.734622  1
  O  O15  1  0.552273  0.200137  0.767473  1
  O  O16  1  0.052917  0.068461  0.101561  1
  O  O17  1  0.040424  0.953826  0.401897  1
  O  O18  1  0.952139  0.933655  0.898545  1
  O  O19  1  0.929944  0.059804  0.615479  1
  O  O20  1  0.974170  0.290743  0.228553  1
  O  O21  1  0.972608  0.718790  0.274981  1
  O  O22  1  0.028339  0.711697  0.767474  1
  O  O23  1  0.027009  0.289305  0.731270  1
  O  O24  1  0.880353  0.365604  0.443637  1
  O  O25  1  0.874483  0.625075  0.053706  1
  O  O26  1  0.124448  0.628530  0.540110  1
  O  O27  1  0.125002  0.375549  0.940683  1
  O  O28  1  0.626511  0.509088  0.606368  1
  O  O29  1  0.613842  0.481958  0.892748  1
  O  O30  1  0.388454  0.476067  0.384397  1
  O  O31  1  0.376935  0.513648  0.108437  1
  O  O32  1  0.445905  0.138102  0.567046  1
  O  O33  1  0.467103  0.852869  0.935230  1
  O  O34  1  0.535530  0.845448  0.435490  1
  O  O35  1  0.537995  0.150242  0.069015  1
