# generated using pymatgen
data_Th2Cd2SiPIrRu3
_symmetry_space_group_name_H-M   'P 1'
_cell_length_a   4.05769100
_cell_length_b   4.05769100
_cell_length_c   11.40730100
_cell_angle_alpha   90.00000000
_cell_angle_beta   90.00000000
_cell_angle_gamma   90.00000000
_symmetry_Int_Tables_number   1
_chemical_formula_structural   Th2Cd2SiPIrRu3
_chemical_formula_sum   'Th2 Cd2 Si1 P1 Ir1 Ru3'
_cell_volume   187.81957118
_cell_formula_units_Z   1
loop_
 _symmetry_equiv_pos_site_id
 _symmetry_equiv_pos_as_xyz
  1  'x, y, z'
loop_
 _atom_site_type_symbol
 _atom_site_label
 _atom_site_symmetry_multiplicity
 _atom_site_fract_x
 _atom_site_fract_y
 _atom_site_fract_z
 _atom_site_occupancy
  Th  Th0  1  0.000000  0.500000  0.758583  1
  Th  Th1  1  0.500000  0.000000  0.235361  1
  Cd  Cd2  1  0.000000  0.000000  0.503050  1
  Cd  Cd3  1  0.500000  0.500000  0.503050  1
  Si  Si4  1  0.000000  0.500000  0.105561  1
  P  P5  1  0.500000  0.000000  0.895691  1
  Ir  Ir6  1  0.000000  0.500000  0.314543  1
  Ru  Ru7  1  0.500000  0.000000  0.692620  1
  Ru  Ru8  1  0.500000  0.500000  0.995770  1
  Ru  Ru9  1  0.000000  0.000000  0.995770  1
