# generated using pymatgen
data_CePrZn3CuRu
_symmetry_space_group_name_H-M   'P 1'
_cell_length_a   7.19440600
_cell_length_b   7.17717005
_cell_length_c   5.12570844
_cell_angle_alpha   90.18180682
_cell_angle_beta   90.00000000
_cell_angle_gamma   90.00000000
_symmetry_Int_Tables_number   1
_chemical_formula_structural   CePrZn3CuRu
_chemical_formula_sum   'Ce2 Pr2 Zn6 Cu2 Ru2'
_cell_volume   264.66705892
_cell_formula_units_Z   2
loop_
 _symmetry_equiv_pos_site_id
 _symmetry_equiv_pos_as_xyz
  1  'x, y, z'
loop_
 _atom_site_type_symbol
 _atom_site_label
 _atom_site_symmetry_multiplicity
 _atom_site_fract_x
 _atom_site_fract_y
 _atom_site_fract_z
 _atom_site_occupancy
  Ce  Ce0  1  0.000000  0.992667  0.012355  1
  Ce  Ce1  1  0.500000  0.507015  0.009966  1
  Pr  Pr2  1  0.000000  0.508224  0.760712  1
  Pr  Pr3  1  0.500000  0.993096  0.233220  1
  Zn  Zn4  1  0.813199  0.318252  0.288272  1
  Zn  Zn5  1  0.312498  0.187084  0.715196  1
  Zn  Zn6  1  0.186801  0.318252  0.288272  1
  Zn  Zn7  1  0.687502  0.187084  0.715196  1
  Zn  Zn8  1  0.690331  0.810193  0.702758  1
  Zn  Zn9  1  0.309669  0.810193  0.702758  1
  Cu  Cu10  1  0.181039  0.682800  0.282179  1
  Cu  Cu11  1  0.818961  0.682800  0.282179  1
  Ru  Ru12  1  0.500000  0.496554  0.504090  1
  Ru  Ru13  1  0.000000  0.005789  0.502847  1
