# generated using pymatgen
data_NaY2Si2(AsPd5)4
_symmetry_space_group_name_H-M   'P 1'
_cell_length_a   8.85779814
_cell_length_b   8.78643509
_cell_length_c   8.78643436
_cell_angle_alpha   60.53806585
_cell_angle_beta   59.73096470
_cell_angle_gamma   59.73096200
_symmetry_Int_Tables_number   1
_chemical_formula_structural   NaY2Si2(AsPd5)4
_chemical_formula_sum   'Na1 Y2 Si2 As4 Pd20'
_cell_volume   483.47983022
_cell_formula_units_Z   1
loop_
 _symmetry_equiv_pos_site_id
 _symmetry_equiv_pos_as_xyz
  1  'x, y, z'
loop_
 _atom_site_type_symbol
 _atom_site_label
 _atom_site_symmetry_multiplicity
 _atom_site_fract_x
 _atom_site_fract_y
 _atom_site_fract_z
 _atom_site_occupancy
  Na  Na0  1  0.000000  0.000000  0.000000  1
  Y  Y1  1  0.750000  0.750000  0.750000  1
  Y  Y2  1  0.250000  0.250000  0.250000  1
  Si  Si3  1  0.264970  0.735030  0.735030  1
  Si  Si4  1  0.735030  0.264970  0.264970  1
  As  As5  1  0.738155  0.738155  0.261845  1
  As  As6  1  0.261845  0.261845  0.738155  1
  As  As7  1  0.738155  0.261845  0.738155  1
  As  As8  1  0.261845  0.738155  0.261845  1
  Pd  Pd9  1  0.612054  0.618214  0.618214  1
  Pd  Pd10  1  0.387946  0.381786  0.381786  1
  Pd  Pd11  1  0.151516  0.618214  0.618214  1
  Pd  Pd12  1  0.618214  0.151516  0.612054  1
  Pd  Pd13  1  0.848484  0.381786  0.381786  1
  Pd  Pd14  1  0.381786  0.848484  0.387946  1
  Pd  Pd15  1  0.618214  0.612054  0.151516  1
  Pd  Pd16  1  0.381786  0.387946  0.848484  1
  Pd  Pd17  1  0.007776  0.992224  0.651156  1
  Pd  Pd18  1  0.992224  0.007776  0.348844  1
  Pd  Pd19  1  0.348844  0.651156  0.992224  1
  Pd  Pd20  1  0.651156  0.348844  0.007776  1
  Pd  Pd21  1  0.007776  0.651156  0.992224  1
  Pd  Pd22  1  0.651156  0.007776  0.348844  1
  Pd  Pd23  1  0.992224  0.348844  0.007776  1
  Pd  Pd24  1  0.348844  0.992224  0.651156  1
  Pd  Pd25  1  0.650056  0.000000  0.000000  1
  Pd  Pd26  1  0.349944  0.000000  0.000000  1
  Pd  Pd27  1  0.000000  0.650056  0.349944  1
  Pd  Pd28  1  0.000000  0.349944  0.650056  1
