# generated using pymatgen
data_CaSm3Sb6Rh7
_symmetry_space_group_name_H-M   'P 1'
_cell_length_a   7.68640618
_cell_length_b   7.68640699
_cell_length_c   7.67384600
_cell_angle_alpha   109.43812282
_cell_angle_beta   109.43812495
_cell_angle_gamma   109.50429389
_symmetry_Int_Tables_number   1
_chemical_formula_structural   CaSm3Sb6Rh7
_chemical_formula_sum   'Ca1 Sm3 Sb6 Rh7'
_cell_volume   349.15248823
_cell_formula_units_Z   1
loop_
 _symmetry_equiv_pos_site_id
 _symmetry_equiv_pos_as_xyz
  1  'x, y, z'
loop_
 _atom_site_type_symbol
 _atom_site_label
 _atom_site_symmetry_multiplicity
 _atom_site_fract_x
 _atom_site_fract_y
 _atom_site_fract_z
 _atom_site_occupancy
  Ca  Ca0  1  0.000000  0.000000  0.500000  1
  Sm  Sm1  1  0.500000  0.000000  0.000000  1
  Sm  Sm2  1  0.000000  0.500000  0.000000  1
  Sm  Sm3  1  0.500000  0.500000  0.500000  1
  Sb  Sb4  1  0.000000  0.317740  0.321922  1
  Sb  Sb5  1  0.682260  0.000000  0.678078  1
  Sb  Sb6  1  0.682260  0.682260  0.004182  1
  Sb  Sb7  1  0.000000  0.682260  0.678078  1
  Sb  Sb8  1  0.317740  0.000000  0.321922  1
  Sb  Sb9  1  0.317740  0.317740  0.995818  1
  Rh  Rh10  1  0.000000  0.000000  0.000000  1
  Rh  Rh11  1  0.494767  0.747384  0.247384  1
  Rh  Rh12  1  0.747384  0.494767  0.247384  1
  Rh  Rh13  1  0.252616  0.747384  0.500000  1
  Rh  Rh14  1  0.252616  0.505233  0.752616  1
  Rh  Rh15  1  0.505233  0.252616  0.752616  1
  Rh  Rh16  1  0.747384  0.252616  0.500000  1
