# generated using pymatgen
data_Dy4Al18ZnOs4Rh
_symmetry_space_group_name_H-M   'P 1'
_cell_length_a   7.58724862
_cell_length_b   7.58724864
_cell_length_c   9.53949878
_cell_angle_alpha   90.02224953
_cell_angle_beta   90.02225264
_cell_angle_gamma   119.67931387
_symmetry_Int_Tables_number   1
_chemical_formula_structural   Dy4Al18ZnOs4Rh
_chemical_formula_sum   'Dy4 Al18 Zn1 Os4 Rh1'
_cell_volume   477.11057059
_cell_formula_units_Z   1
loop_
 _symmetry_equiv_pos_site_id
 _symmetry_equiv_pos_as_xyz
  1  'x, y, z'
loop_
 _atom_site_type_symbol
 _atom_site_label
 _atom_site_symmetry_multiplicity
 _atom_site_fract_x
 _atom_site_fract_y
 _atom_site_fract_z
 _atom_site_occupancy
  Dy  Dy0  1  0.997744  0.670131  0.748924  1
  Dy  Dy1  1  0.002256  0.329869  0.251076  1
  Dy  Dy2  1  0.670131  0.997744  0.748924  1
  Dy  Dy3  1  0.329869  0.002256  0.251076  1
  Al  Al4  1  0.131176  0.131176  0.755255  1
  Al  Al5  1  0.868824  0.868824  0.244745  1
  Al  Al6  1  0.002979  0.343116  0.575374  1
  Al  Al7  1  0.997021  0.656884  0.424626  1
  Al  Al8  1  0.998331  0.663631  0.070278  1
  Al  Al9  1  0.336369  0.001669  0.929722  1
  Al  Al10  1  0.001669  0.336369  0.929722  1
  Al  Al11  1  0.663631  0.998331  0.070278  1
  Al  Al12  1  0.656884  0.997021  0.424626  1
  Al  Al13  1  0.343116  0.002979  0.575374  1
  Al  Al14  1  0.336335  0.336335  0.048443  1
  Al  Al15  1  0.663665  0.663665  0.951557  1
  Al  Al16  1  0.656781  0.656781  0.552529  1
  Al  Al17  1  0.343219  0.343219  0.447471  1
  Al  Al18  1  0.336339  0.548945  0.749972  1
  Al  Al19  1  0.663661  0.451055  0.250028  1
  Al  Al20  1  0.548945  0.336339  0.749972  1
  Al  Al21  1  0.451055  0.663661  0.250028  1
  Zn  Zn22  1  0.000000  0.000000  0.500000  1
  Os  Os23  1  0.672537  0.327463  0.500000  1
  Os  Os24  1  0.327463  0.672537  0.500000  1
  Os  Os25  1  0.327766  0.672234  0.000000  1
  Os  Os26  1  0.672234  0.327766  0.000000  1
  Rh  Rh27  1  0.000000  0.000000  0.000000  1
