# generated using pymatgen
data_BeGa3Rh4
_symmetry_space_group_name_H-M   'P 1'
_cell_length_a   5.16377309
_cell_length_b   5.16377252
_cell_length_c   4.22660300
_cell_angle_alpha   90.00000000
_cell_angle_beta   90.00000000
_cell_angle_gamma   109.31996396
_symmetry_Int_Tables_number   1
_chemical_formula_structural   BeGa3Rh4
_chemical_formula_sum   'Be1 Ga3 Rh4'
_cell_volume   106.35382111
_cell_formula_units_Z   1
loop_
 _symmetry_equiv_pos_site_id
 _symmetry_equiv_pos_as_xyz
  1  'x, y, z'
loop_
 _atom_site_type_symbol
 _atom_site_label
 _atom_site_symmetry_multiplicity
 _atom_site_fract_x
 _atom_site_fract_y
 _atom_site_fract_z
 _atom_site_occupancy
  Be  Be0  1  0.500000  0.500000  0.000000  1
  Ga  Ga1  1  0.000000  0.000000  0.000000  1
  Ga  Ga2  1  0.744805  0.255195  0.500000  1
  Ga  Ga3  1  0.255195  0.744805  0.500000  1
  Rh  Rh4  1  0.500000  0.000000  0.000000  1
  Rh  Rh5  1  0.000000  0.500000  0.000000  1
  Rh  Rh6  1  0.746284  0.746284  0.500000  1
  Rh  Rh7  1  0.253716  0.253716  0.500000  1
