# generated using pymatgen
data_TbEr4In4IrPd
_symmetry_space_group_name_H-M   'P 1'
_cell_length_a   3.60649200
_cell_length_b   8.10500956
_cell_length_c   18.20206337
_cell_angle_alpha   90.11020936
_cell_angle_beta   90.00000000
_cell_angle_gamma   90.00000000
_symmetry_Int_Tables_number   1
_chemical_formula_structural   TbEr4In4IrPd
_chemical_formula_sum   'Tb2 Er8 In8 Ir2 Pd2'
_cell_volume   532.05719830
_cell_formula_units_Z   2
loop_
 _symmetry_equiv_pos_site_id
 _symmetry_equiv_pos_as_xyz
  1  'x, y, z'
loop_
 _atom_site_type_symbol
 _atom_site_label
 _atom_site_symmetry_multiplicity
 _atom_site_fract_x
 _atom_site_fract_y
 _atom_site_fract_z
 _atom_site_occupancy
  Tb  Tb0  1  0.000000  0.500000  0.500000  1
  Tb  Tb1  1  0.000000  0.000000  0.000000  1
  Er  Er2  1  0.000000  0.728036  0.277445  1
  Er  Er3  1  0.000000  0.271964  0.722555  1
  Er  Er4  1  0.000000  0.747041  0.779910  1
  Er  Er5  1  0.000000  0.252959  0.220090  1
  Er  Er6  1  0.000000  0.613199  0.087290  1
  Er  Er7  1  0.000000  0.386801  0.912710  1
  Er  Er8  1  0.000000  0.885060  0.584644  1
  Er  Er9  1  0.000000  0.114940  0.415356  1
  In  In10  1  0.500000  0.708924  0.932021  1
  In  In11  1  0.500000  0.291076  0.067979  1
  In  In12  1  0.500000  0.791549  0.431912  1
  In  In13  1  0.500000  0.208451  0.568088  1
  In  In14  1  0.500000  0.579301  0.648482  1
  In  In15  1  0.500000  0.420699  0.351518  1
  In  In16  1  0.500000  0.921932  0.150004  1
  In  In17  1  0.500000  0.078068  0.849996  1
  Ir  Ir18  1  0.500000  0.519371  0.195806  1
  Ir  Ir19  1  0.500000  0.480629  0.804194  1
  Pd  Pd20  1  0.500000  0.980478  0.696119  1
  Pd  Pd21  1  0.500000  0.019522  0.303881  1
