# generated using pymatgen
data_Pr3Al12Ru3Pt
_symmetry_space_group_name_H-M   'P 1'
_cell_length_a   8.95610434
_cell_length_b   8.95610310
_cell_length_c   9.68156051
_cell_angle_alpha   90.16537383
_cell_angle_beta   89.83462567
_cell_angle_gamma   120.12203978
_symmetry_Int_Tables_number   1
_chemical_formula_structural   Pr3Al12Ru3Pt
_chemical_formula_sum   'Pr6 Al24 Ru6 Pt2'
_cell_volume   671.70166663
_cell_formula_units_Z   2
loop_
 _symmetry_equiv_pos_site_id
 _symmetry_equiv_pos_as_xyz
  1  'x, y, z'
loop_
 _atom_site_type_symbol
 _atom_site_label
 _atom_site_symmetry_multiplicity
 _atom_site_fract_x
 _atom_site_fract_y
 _atom_site_fract_z
 _atom_site_occupancy
  Pr  Pr0  1  0.192589  0.383719  0.250787  1
  Pr  Pr1  1  0.807411  0.616281  0.749213  1
  Pr  Pr2  1  0.616281  0.807411  0.250787  1
  Pr  Pr3  1  0.383719  0.192589  0.749213  1
  Pr  Pr4  1  0.191451  0.808549  0.250696  1
  Pr  Pr5  1  0.808549  0.191451  0.749304  1
  Al  Al6  1  0.336014  0.663986  0.014074  1
  Al  Al7  1  0.663986  0.336014  0.985926  1
  Al  Al8  1  0.666409  0.333591  0.509771  1
  Al  Al9  1  0.333591  0.666409  0.490229  1
  Al  Al10  1  0.163486  0.325762  0.576301  1
  Al  Al11  1  0.836514  0.674238  0.423699  1
  Al  Al12  1  0.674238  0.836514  0.576301  1
  Al  Al13  1  0.833753  0.675776  0.075766  1
  Al  Al14  1  0.325762  0.163486  0.423699  1
  Al  Al15  1  0.166247  0.324224  0.924234  1
  Al  Al16  1  0.162722  0.837278  0.576364  1
  Al  Al17  1  0.324224  0.166247  0.075766  1
  Al  Al18  1  0.837278  0.162722  0.423636  1
  Al  Al19  1  0.675776  0.833753  0.924234  1
  Al  Al20  1  0.838956  0.161044  0.076618  1
  Al  Al21  1  0.161044  0.838956  0.923382  1
  Al  Al22  1  0.564065  0.127400  0.251914  1
  Al  Al23  1  0.435935  0.872600  0.748086  1
  Al  Al24  1  0.872600  0.435935  0.251914  1
  Al  Al25  1  0.127400  0.564065  0.748086  1
  Al  Al26  1  0.562886  0.437114  0.248000  1
  Al  Al27  1  0.437114  0.562886  0.752000  1
  Al  Al28  1  0.000580  0.999420  0.250290  1
  Al  Al29  1  0.999420  0.000580  0.749710  1
  Ru  Ru30  1  0.500000  0.000000  0.500000  1
  Ru  Ru31  1  0.500000  0.500000  0.000000  1
  Ru  Ru32  1  0.000000  0.500000  0.500000  1
  Ru  Ru33  1  0.500000  0.500000  0.500000  1
  Ru  Ru34  1  0.000000  0.000000  0.000000  1
  Ru  Ru35  1  0.000000  0.000000  0.500000  1
  Pt  Pt36  1  0.500000  0.000000  0.000000  1
  Pt  Pt37  1  0.000000  0.500000  0.000000  1
