# generated using pymatgen
data_Y9HoCd3In5Pd4
_symmetry_space_group_name_H-M   'P 1'
_cell_length_a   3.62657300
_cell_length_b   8.13415902
_cell_length_c   18.36421935
_cell_angle_alpha   90.01469533
_cell_angle_beta   90.00000000
_cell_angle_gamma   90.00000000
_symmetry_Int_Tables_number   1
_chemical_formula_structural   Y9HoCd3In5Pd4
_chemical_formula_sum   'Y9 Ho1 Cd3 In5 Pd4'
_cell_volume   541.72831932
_cell_formula_units_Z   1
loop_
 _symmetry_equiv_pos_site_id
 _symmetry_equiv_pos_as_xyz
  1  'x, y, z'
loop_
 _atom_site_type_symbol
 _atom_site_label
 _atom_site_symmetry_multiplicity
 _atom_site_fract_x
 _atom_site_fract_y
 _atom_site_fract_z
 _atom_site_occupancy
  Y  Y0  1  0.000000  0.499350  0.499309  1
  Y  Y1  1  0.000000  0.999641  0.999909  1
  Y  Y2  1  0.000000  0.742384  0.281769  1
  Y  Y3  1  0.000000  0.260286  0.719481  1
  Y  Y4  1  0.000000  0.757393  0.781771  1
  Y  Y5  1  0.000000  0.242280  0.218430  1
  Y  Y6  1  0.000000  0.613281  0.083909  1
  Y  Y7  1  0.000000  0.387059  0.917081  1
  Y  Y8  1  0.000000  0.883960  0.583489  1
  Ho  Ho9  1  0.000000  0.113129  0.414817  1
  Cd  Cd10  1  0.500000  0.710016  0.931785  1
  Cd  Cd11  1  0.500000  0.289942  0.068200  1
  Cd  Cd12  1  0.500000  0.790073  0.431856  1
  In  In13  1  0.500000  0.207833  0.567295  1
  In  In14  1  0.500000  0.578605  0.648860  1
  In  In15  1  0.500000  0.422898  0.351376  1
  In  In16  1  0.500000  0.923423  0.147940  1
  In  In17  1  0.500000  0.077405  0.851786  1
  Pd  Pd18  1  0.500000  0.523485  0.196986  1
  Pd  Pd19  1  0.500000  0.476036  0.803126  1
  Pd  Pd20  1  0.500000  0.976657  0.696656  1
  Pd  Pd21  1  0.500000  0.024862  0.304165  1
