# generated using pymatgen
data_RbCr3Ge2O9
_symmetry_space_group_name_H-M   'P 1'
_cell_length_a   5.93553444
_cell_length_b   5.93602547
_cell_length_c   13.87551377
_cell_angle_alpha   89.96366271
_cell_angle_beta   90.07266004
_cell_angle_gamma   119.99607793
_symmetry_Int_Tables_number   1
_chemical_formula_structural   RbCr3Ge2O9
_chemical_formula_sum   'Rb2 Cr6 Ge4 O18'
_cell_volume   423.40121734
_cell_formula_units_Z   2
loop_
 _symmetry_equiv_pos_site_id
 _symmetry_equiv_pos_as_xyz
  1  'x, y, z'
loop_
 _atom_site_type_symbol
 _atom_site_label
 _atom_site_symmetry_multiplicity
 _atom_site_fract_x
 _atom_site_fract_y
 _atom_site_fract_z
 _atom_site_occupancy
  Rb  Rb0  1  0.333299  0.666553  0.750003  1
  Rb  Rb1  1  0.666708  0.333463  0.249988  1
  Cr  Cr2  1  0.500032  0.500075  0.500028  1
  Cr  Cr3  1  0.500124  0.000143  0.000025  1
  Cr  Cr4  1  0.499898  0.499838  0.999990  1
  Cr  Cr5  1  0.999992  0.499837  0.500019  1
  Cr  Cr6  1  0.500136  0.999989  0.500052  1
  Cr  Cr7  1  0.999898  0.499857  0.999973  1
  Ge  Ge8  1  0.000210  0.999785  0.621772  1
  Ge  Ge9  1  0.999808  0.000244  0.378226  1
  Ge  Ge10  1  0.000430  0.000230  0.121843  1
  Ge  Ge11  1  0.999550  0.999761  0.878158  1
  O  O12  1  0.999793  0.999478  0.749954  1
  O  O13  1  0.000200  0.000545  0.250018  1
  O  O14  1  0.666811  0.333380  0.567877  1
  O  O15  1  0.333186  0.666657  0.432132  1
  O  O16  1  0.333426  0.666641  0.067865  1
  O  O17  1  0.666526  0.333353  0.932111  1
  O  O18  1  0.166136  0.833947  0.583049  1
  O  O19  1  0.668181  0.833969  0.583082  1
  O  O20  1  0.166000  0.331703  0.583105  1
  O  O21  1  0.833851  0.166091  0.416955  1
  O  O22  1  0.331827  0.166069  0.416918  1
  O  O23  1  0.833989  0.668320  0.416893  1
  O  O24  1  0.834243  0.166043  0.083081  1
  O  O25  1  0.332190  0.166089  0.083060  1
  O  O26  1  0.834346  0.668378  0.083099  1
  O  O27  1  0.165757  0.833989  0.916903  1
  O  O28  1  0.667808  0.833926  0.916932  1
  O  O29  1  0.165641  0.331647  0.916887  1
