# generated using pymatgen
data_La2Ho3Tm(IrO7)2
_symmetry_space_group_name_H-M   'P 1'
_cell_length_a   6.46176908
_cell_length_b   6.46583270
_cell_length_c   7.49764100
_cell_angle_alpha   90.00000000
_cell_angle_beta   90.00000000
_cell_angle_gamma   109.41181289
_symmetry_Int_Tables_number   1
_chemical_formula_structural   La2Ho3Tm(IrO7)2
_chemical_formula_sum   'La2 Ho3 Tm1 Ir2 O14'
_cell_volume   295.44947398
_cell_formula_units_Z   1
loop_
 _symmetry_equiv_pos_site_id
 _symmetry_equiv_pos_as_xyz
  1  'x, y, z'
loop_
 _atom_site_type_symbol
 _atom_site_label
 _atom_site_symmetry_multiplicity
 _atom_site_fract_x
 _atom_site_fract_y
 _atom_site_fract_z
 _atom_site_occupancy
  La  La0  1  0.000755  0.001471  0.499186  1
  La  La1  1  0.000755  0.001471  0.000814  1
  Ho  Ho2  1  0.939250  0.485387  0.750000  1
  Ho  Ho3  1  0.485015  0.940222  0.750000  1
  Ho  Ho4  1  0.062333  0.514448  0.250000  1
  Tm  Tm5  1  0.513083  0.060192  0.250000  1
  Ir  Ir6  1  0.501139  0.500950  0.499189  1
  Ir  Ir7  1  0.501139  0.500950  0.000811  1
  O  O8  1  0.444339  0.180559  0.531838  1
  O  O9  1  0.820026  0.558873  0.465369  1
  O  O10  1  0.444339  0.180559  0.968162  1
  O  O11  1  0.820026  0.558873  0.034631  1
  O  O12  1  0.556618  0.819729  0.464060  1
  O  O13  1  0.180956  0.442439  0.533788  1
  O  O14  1  0.556618  0.819729  0.035940  1
  O  O15  1  0.180956  0.442439  0.966212  1
  O  O16  1  0.163417  0.877609  0.250000  1
  O  O17  1  0.122610  0.839158  0.750000  1
  O  O18  1  0.838860  0.122867  0.750000  1
  O  O19  1  0.873068  0.161879  0.250000  1
  O  O20  1  0.405635  0.401678  0.250000  1
  O  O21  1  0.589062  0.588518  0.750000  1
