# generated using pymatgen
data_Ho5Th(MoO7)2
_symmetry_space_group_name_H-M   'P 1'
_cell_length_a   6.47490259
_cell_length_b   6.47490237
_cell_length_c   7.51369430
_cell_angle_alpha   90.88182768
_cell_angle_beta   89.11817541
_cell_angle_gamma   109.46938446
_symmetry_Int_Tables_number   1
_chemical_formula_structural   Ho5Th(MoO7)2
_chemical_formula_sum   'Ho5 Th1 Mo2 O14'
_cell_volume   296.94189778
_cell_formula_units_Z   1
loop_
 _symmetry_equiv_pos_site_id
 _symmetry_equiv_pos_as_xyz
  1  'x, y, z'
loop_
 _atom_site_type_symbol
 _atom_site_label
 _atom_site_symmetry_multiplicity
 _atom_site_fract_x
 _atom_site_fract_y
 _atom_site_fract_z
 _atom_site_occupancy
  Ho  Ho0  1  0.463205  0.998458  0.255623  1
  Ho  Ho1  1  0.535180  0.003788  0.752529  1
  Ho  Ho2  1  0.003788  0.535180  0.247471  1
  Ho  Ho3  1  0.534824  0.534824  0.500000  1
  Ho  Ho4  1  0.998458  0.463205  0.744377  1
  Th  Th5  1  0.496857  0.496857  0.000000  1
  Mo  Mo6  1  0.999120  0.999120  0.000000  1
  Mo  Mo7  1  0.002503  0.002503  0.500000  1
  O  O8  1  0.059974  0.313635  0.460946  1
  O  O9  1  0.079796  0.918338  0.253606  1
  O  O10  1  0.632357  0.369381  0.254720  1
  O  O11  1  0.313635  0.059974  0.539054  1
  O  O12  1  0.914154  0.671309  0.530456  1
  O  O13  1  0.918338  0.079796  0.746394  1
  O  O14  1  0.671309  0.914154  0.469544  1
  O  O15  1  0.365307  0.634427  0.255568  1
  O  O16  1  0.666133  0.919308  0.028682  1
  O  O17  1  0.634427  0.365307  0.744432  1
  O  O18  1  0.085248  0.336696  0.022321  1
  O  O19  1  0.919308  0.666133  0.971318  1
  O  O20  1  0.369381  0.632357  0.745280  1
  O  O21  1  0.336696  0.085248  0.977679  1
