# generated using pymatgen
data_TbEr9(Bi3C)2
_symmetry_space_group_name_H-M   'P 1'
_cell_length_a   9.09562200
_cell_length_b   9.09562225
_cell_length_c   6.44565300
_cell_angle_alpha   90.00000000
_cell_angle_beta   90.00000000
_cell_angle_gamma   119.99999910
_symmetry_Int_Tables_number   1
_chemical_formula_structural   TbEr9(Bi3C)2
_chemical_formula_sum   'Tb1 Er9 Bi6 C2'
_cell_volume   461.80898248
_cell_formula_units_Z   1
loop_
 _symmetry_equiv_pos_site_id
 _symmetry_equiv_pos_as_xyz
  1  'x, y, z'
loop_
 _atom_site_type_symbol
 _atom_site_label
 _atom_site_symmetry_multiplicity
 _atom_site_fract_x
 _atom_site_fract_y
 _atom_site_fract_z
 _atom_site_occupancy
  Tb  Tb0  1  0.666667  0.333333  0.000000  1
  Er  Er1  1  0.333333  0.666667  0.000000  1
  Er  Er2  1  0.333333  0.666667  0.500000  1
  Er  Er3  1  0.666667  0.333333  0.500000  1
  Er  Er4  1  0.793829  0.793604  0.749849  1
  Er  Er5  1  0.206396  0.000225  0.749849  1
  Er  Er6  1  0.999775  0.206171  0.749849  1
  Er  Er7  1  0.206396  0.206171  0.250151  1
  Er  Er8  1  0.793829  0.000225  0.250151  1
  Er  Er9  1  0.999775  0.793604  0.250151  1
  Bi  Bi10  1  0.400235  0.401611  0.748633  1
  Bi  Bi11  1  0.598389  0.998624  0.748633  1
  Bi  Bi12  1  0.001376  0.599765  0.748633  1
  Bi  Bi13  1  0.598389  0.599765  0.251367  1
  Bi  Bi14  1  0.400235  0.998624  0.251367  1
  Bi  Bi15  1  0.001376  0.401611  0.251367  1
  C  C16  1  0.000000  0.000000  0.000000  1
  C  C17  1  0.000000  0.000000  0.500000  1
