# generated using pymatgen
data_Dy14YHo(InRh)4
_symmetry_space_group_name_H-M   'P 1'
_cell_length_a   9.67484918
_cell_length_b   9.67476449
_cell_length_c   9.67282008
_cell_angle_alpha   59.92117301
_cell_angle_beta   59.92018013
_cell_angle_gamma   59.92156009
_symmetry_Int_Tables_number   1
_chemical_formula_structural   Dy14YHo(InRh)4
_chemical_formula_sum   'Dy14 Y1 Ho1 In4 Rh4'
_cell_volume   639.06270171
_cell_formula_units_Z   1
loop_
 _symmetry_equiv_pos_site_id
 _symmetry_equiv_pos_as_xyz
  1  'x, y, z'
loop_
 _atom_site_type_symbol
 _atom_site_label
 _atom_site_symmetry_multiplicity
 _atom_site_fract_x
 _atom_site_fract_y
 _atom_site_fract_z
 _atom_site_occupancy
  Dy  Dy0  1  0.601108  0.601112  0.200448  1
  Dy  Dy1  1  0.439690  0.059196  0.439400  1
  Dy  Dy2  1  0.439572  0.439572  0.059160  1
  Dy  Dy3  1  0.811775  0.188637  0.812049  1
  Dy  Dy4  1  0.188612  0.812185  0.188475  1
  Dy  Dy5  1  0.438880  0.060579  0.060536  1
  Dy  Dy6  1  0.188614  0.811789  0.812059  1
  Dy  Dy7  1  0.060574  0.438872  0.060529  1
  Dy  Dy8  1  0.812424  0.812411  0.187989  1
  Dy  Dy9  1  0.200068  0.601334  0.601148  1
  Dy  Dy10  1  0.059205  0.439688  0.439400  1
  Dy  Dy11  1  0.060609  0.060618  0.438608  1
  Dy  Dy12  1  0.812192  0.188604  0.188481  1
  Dy  Dy13  1  0.601333  0.200074  0.601146  1
  Y  Y14  1  0.188484  0.188472  0.812478  1
  Ho  Ho15  1  0.598412  0.598413  0.598519  1
  In  In16  1  0.832870  0.832867  0.833223  1
  In  In17  1  0.832404  0.832426  0.501510  1
  In  In18  1  0.501560  0.832326  0.832567  1
  In  In19  1  0.832323  0.501537  0.832588  1
  Rh  Rh20  1  0.392097  0.822624  0.392453  1
  Rh  Rh21  1  0.392237  0.392231  0.392192  1
  Rh  Rh22  1  0.822619  0.392097  0.392460  1
  Rh  Rh23  1  0.392340  0.392338  0.822578  1
