# generated using pymatgen
data_Ho6Mn5(AlPt8)2
_symmetry_space_group_name_H-M   'P 1'
_cell_length_a   8.98792438
_cell_length_b   8.96577678
_cell_length_c   8.96576784
_cell_angle_alpha   60.06162382
_cell_angle_beta   59.92162297
_cell_angle_gamma   59.92165997
_symmetry_Int_Tables_number   1
_chemical_formula_structural   Ho6Mn5(AlPt8)2
_chemical_formula_sum   'Ho6 Mn5 Al2 Pt16'
_cell_volume   510.51182258
_cell_formula_units_Z   1
loop_
 _symmetry_equiv_pos_site_id
 _symmetry_equiv_pos_as_xyz
  1  'x, y, z'
loop_
 _atom_site_type_symbol
 _atom_site_label
 _atom_site_symmetry_multiplicity
 _atom_site_fract_x
 _atom_site_fract_y
 _atom_site_fract_z
 _atom_site_occupancy
  Ho  Ho0  1  0.711812  0.288176  0.288175  1
  Ho  Ho1  1  0.709606  0.288063  0.711951  1
  Ho  Ho2  1  0.709606  0.711951  0.288062  1
  Ho  Ho3  1  0.288188  0.711824  0.711825  1
  Ho  Ho4  1  0.290394  0.711937  0.288049  1
  Ho  Ho5  1  0.290394  0.288049  0.711938  1
  Mn  Mn6  1  0.500000  0.000000  0.000000  1
  Mn  Mn7  1  0.500000  0.000000  0.500000  1
  Mn  Mn8  1  0.500000  0.500000  0.000000  1
  Mn  Mn9  1  0.000000  0.500000  0.000000  1
  Mn  Mn10  1  0.000000  0.000000  0.500000  1
  Al  Al11  1  0.000000  0.000000  0.000000  1
  Al  Al12  1  0.000000  0.500000  0.500000  1
  Pt  Pt13  1  0.643844  0.118849  0.118851  1
  Pt  Pt14  1  0.118828  0.644965  0.117504  1
  Pt  Pt15  1  0.118829  0.117504  0.644964  1
  Pt  Pt16  1  0.118553  0.118785  0.118786  1
  Pt  Pt17  1  0.356156  0.881151  0.881149  1
  Pt  Pt18  1  0.881172  0.355035  0.882496  1
  Pt  Pt19  1  0.881171  0.882496  0.355036  1
  Pt  Pt20  1  0.881447  0.881215  0.881214  1
  Pt  Pt21  1  0.992796  0.337941  0.337941  1
  Pt  Pt22  1  0.336239  0.991601  0.335941  1
  Pt  Pt23  1  0.336238  0.335940  0.991604  1
  Pt  Pt24  1  0.331406  0.337887  0.337888  1
  Pt  Pt25  1  0.007204  0.662059  0.662059  1
  Pt  Pt26  1  0.663761  0.008399  0.664059  1
  Pt  Pt27  1  0.663762  0.664060  0.008396  1
  Pt  Pt28  1  0.668594  0.662113  0.662112  1
