# generated using pymatgen
data_Zr7Ti3Sn6Se
_symmetry_space_group_name_H-M   'P 1'
_cell_length_a   5.75029100
_cell_length_b   8.51771533
_cell_length_c   8.51780400
_cell_angle_alpha   120.00038146
_cell_angle_beta   89.99998205
_cell_angle_gamma   89.99999525
_symmetry_Int_Tables_number   1
_chemical_formula_structural   Zr7Ti3Sn6Se
_chemical_formula_sum   'Zr7 Ti3 Sn6 Se1'
_cell_volume   361.30132084
_cell_formula_units_Z   1
loop_
 _symmetry_equiv_pos_site_id
 _symmetry_equiv_pos_as_xyz
  1  'x, y, z'
loop_
 _atom_site_type_symbol
 _atom_site_label
 _atom_site_symmetry_multiplicity
 _atom_site_fract_x
 _atom_site_fract_y
 _atom_site_fract_z
 _atom_site_occupancy
  Zr  Zr0  1  0.000001  0.333332  0.666666  1
  Zr  Zr1  1  0.768014  0.253764  0.998239  1
  Zr  Zr2  1  0.768015  0.744473  0.746231  1
  Zr  Zr3  1  0.768002  0.001761  0.255536  1
  Zr  Zr4  1  0.231982  0.744474  0.998240  1
  Zr  Zr5  1  0.231989  0.253766  0.255528  1
  Zr  Zr6  1  0.231995  0.001764  0.746228  1
  Ti  Ti7  1  0.500000  0.333330  0.666666  1
  Ti  Ti8  1  0.500000  0.666670  0.333334  1
  Ti  Ti9  1  0.000000  0.666665  0.333333  1
  Sn  Sn10  1  0.741658  0.605666  0.004840  1
  Sn  Sn11  1  0.741656  0.399178  0.394333  1
  Sn  Sn12  1  0.741659  0.995158  0.600826  1
  Sn  Sn13  1  0.258345  0.399178  0.004846  1
  Sn  Sn14  1  0.258342  0.605666  0.600823  1
  Sn  Sn15  1  0.258340  0.995157  0.394329  1
  Se  Se16  1  0.500000  0.000002  0.000001  1
