# generated using pymatgen
data_Tm2Lu6B24Rh3W
_symmetry_space_group_name_H-M   'P 1'
_cell_length_a   3.60112200
_cell_length_b   9.08966669
_cell_length_c   11.44960849
_cell_angle_alpha   90.23324313
_cell_angle_beta   90.00000000
_cell_angle_gamma   90.00000000
_symmetry_Int_Tables_number   1
_chemical_formula_structural   Tm2Lu6B24Rh3W
_chemical_formula_sum   'Tm2 Lu6 B24 Rh3 W1'
_cell_volume   374.77691409
_cell_formula_units_Z   1
loop_
 _symmetry_equiv_pos_site_id
 _symmetry_equiv_pos_as_xyz
  1  'x, y, z'
loop_
 _atom_site_type_symbol
 _atom_site_label
 _atom_site_symmetry_multiplicity
 _atom_site_fract_x
 _atom_site_fract_y
 _atom_site_fract_z
 _atom_site_occupancy
  Tm  Tm0  1  0.500000  0.318022  0.410918  1
  Tm  Tm1  1  0.500000  0.677638  0.584985  1
  Lu  Lu2  1  0.500000  0.180212  0.916813  1
  Lu  Lu3  1  0.500000  0.822598  0.086519  1
  Lu  Lu4  1  0.500000  0.445415  0.125317  1
  Lu  Lu5  1  0.500000  0.557649  0.871729  1
  Lu  Lu6  1  0.500000  0.055963  0.629245  1
  Lu  Lu7  1  0.500000  0.944195  0.374381  1
  B  B8  1  0.000000  0.103830  0.473686  1
  B  B9  1  0.000000  0.894380  0.529983  1
  B  B10  1  0.000000  0.397423  0.969475  1
  B  B11  1  0.000000  0.607234  0.027882  1
  B  B12  1  0.000000  0.131057  0.318153  1
  B  B13  1  0.000000  0.867529  0.683576  1
  B  B14  1  0.000000  0.369238  0.816820  1
  B  B15  1  0.000000  0.632649  0.182611  1
  B  B16  1  0.000000  0.051207  0.063587  1
  B  B17  1  0.000000  0.946595  0.933737  1
  B  B18  1  0.000000  0.444789  0.564968  1
  B  B19  1  0.000000  0.552723  0.434132  1
  B  B20  1  0.000000  0.482693  0.286967  1
  B  B21  1  0.000000  0.518122  0.712173  1
  B  B22  1  0.000000  0.018933  0.787961  1
  B  B23  1  0.000000  0.977877  0.214005  1
  B  B24  1  0.000000  0.252606  0.077466  1
  B  B25  1  0.000000  0.750869  0.920128  1
  B  B26  1  0.000000  0.248983  0.579453  1
  B  B27  1  0.000000  0.749276  0.421192  1
  B  B28  1  0.000000  0.296370  0.236308  1
  B  B29  1  0.000000  0.705961  0.763076  1
  B  B30  1  0.000000  0.207126  0.737234  1
  B  B31  1  0.000000  0.792102  0.265379  1
  Rh  Rh32  1  0.500000  0.861590  0.821237  1
  Rh  Rh33  1  0.500000  0.360357  0.679454  1
  Rh  Rh34  1  0.500000  0.638809  0.320473  1
  W  W35  1  0.500000  0.137979  0.178976  1
