# generated using pymatgen
data_LiEu2Ga5Ni4
_symmetry_space_group_name_H-M   'P 1'
_cell_length_a   6.33389538
_cell_length_b   6.33389509
_cell_length_c   5.15576100
_cell_angle_alpha   90.00000000
_cell_angle_beta   90.00000000
_cell_angle_gamma   103.74419285
_symmetry_Int_Tables_number   1
_chemical_formula_structural   LiEu2Ga5Ni4
_chemical_formula_sum   'Li1 Eu2 Ga5 Ni4'
_cell_volume   200.91737529
_cell_formula_units_Z   1
loop_
 _symmetry_equiv_pos_site_id
 _symmetry_equiv_pos_as_xyz
  1  'x, y, z'
loop_
 _atom_site_type_symbol
 _atom_site_label
 _atom_site_symmetry_multiplicity
 _atom_site_fract_x
 _atom_site_fract_y
 _atom_site_fract_z
 _atom_site_occupancy
  Li  Li0  1  0.055735  0.055735  0.250000  1
  Eu  Eu1  1  0.661678  0.661678  0.250000  1
  Eu  Eu2  1  0.347875  0.347875  0.750000  1
  Ga  Ga3  1  0.954032  0.954032  0.750000  1
  Ga  Ga4  1  0.083666  0.460450  0.250000  1
  Ga  Ga5  1  0.532987  0.911610  0.750000  1
  Ga  Ga6  1  0.911610  0.532987  0.750000  1
  Ga  Ga7  1  0.460450  0.083666  0.250000  1
  Ni  Ni8  1  0.207628  0.788356  0.499423  1
  Ni  Ni9  1  0.207628  0.788356  0.000577  1
  Ni  Ni10  1  0.788356  0.207628  0.499423  1
  Ni  Ni11  1  0.788356  0.207628  0.000577  1
