# generated using pymatgen
data_LiAcNi4
_symmetry_space_group_name_H-M   'P 1'
_cell_length_a   5.08711800
_cell_length_b   5.08711814
_cell_length_c   4.01935800
_cell_angle_alpha   90.00000000
_cell_angle_beta   90.00000000
_cell_angle_gamma   120.00001212
_symmetry_Int_Tables_number   1
_chemical_formula_structural   LiAcNi4
_chemical_formula_sum   'Li1 Ac1 Ni4'
_cell_volume   90.08052394
_cell_formula_units_Z   1
loop_
 _symmetry_equiv_pos_site_id
 _symmetry_equiv_pos_as_xyz
  1  'x, y, z'
loop_
 _atom_site_type_symbol
 _atom_site_label
 _atom_site_symmetry_multiplicity
 _atom_site_fract_x
 _atom_site_fract_y
 _atom_site_fract_z
 _atom_site_occupancy
  Li  Li0  1  0.666667  0.333333  0.000000  1
  Ac  Ac1  1  0.000000  0.000000  0.000000  1
  Ni  Ni2  1  0.333333  0.666667  0.000000  1
  Ni  Ni3  1  0.498083  0.501917  0.500000  1
  Ni  Ni4  1  0.498083  0.996165  0.500000  1
  Ni  Ni5  1  0.003835  0.501917  0.500000  1
