# generated using pymatgen
data_Yb6Si24Ir3Ru5
_symmetry_space_group_name_H-M   'P 1'
_cell_length_a   10.15124821
_cell_length_b   10.15124820
_cell_length_c   8.15650498
_cell_angle_alpha   90.02254288
_cell_angle_beta   90.02253997
_cell_angle_gamma   132.62301685
_symmetry_Int_Tables_number   1
_chemical_formula_structural   Yb6Si24Ir3Ru5
_chemical_formula_sum   'Yb6 Si24 Ir3 Ru5'
_cell_volume   618.46823189
_cell_formula_units_Z   1
loop_
 _symmetry_equiv_pos_site_id
 _symmetry_equiv_pos_as_xyz
  1  'x, y, z'
loop_
 _atom_site_type_symbol
 _atom_site_label
 _atom_site_symmetry_multiplicity
 _atom_site_fract_x
 _atom_site_fract_y
 _atom_site_fract_z
 _atom_site_occupancy
  Yb  Yb0  1  0.999654  0.000346  0.000000  1
  Yb  Yb1  1  0.499825  0.500175  0.500000  1
  Yb  Yb2  1  0.002425  0.501990  0.250228  1
  Yb  Yb3  1  0.998835  0.498443  0.749452  1
  Yb  Yb4  1  0.498010  0.997575  0.749772  1
  Yb  Yb5  1  0.501557  0.001165  0.250548  1
  Si  Si6  1  0.704959  0.295041  0.000000  1
  Si  Si7  1  0.296011  0.703989  0.000000  1
  Si  Si8  1  0.795850  0.204150  0.500000  1
  Si  Si9  1  0.205750  0.794250  0.500000  1
  Si  Si10  1  0.332976  0.334102  0.167368  1
  Si  Si11  1  0.665898  0.667024  0.832632  1
  Si  Si12  1  0.165691  0.166828  0.667035  1
  Si  Si13  1  0.833172  0.834309  0.332965  1
  Si  Si14  1  0.842860  0.611080  0.003837  1
  Si  Si15  1  0.158200  0.389933  0.996380  1
  Si  Si16  1  0.652418  0.885314  0.506413  1
  Si  Si17  1  0.114686  0.347582  0.493587  1
  Si  Si18  1  0.342457  0.110222  0.495858  1
  Si  Si19  1  0.889778  0.657543  0.504142  1
  Si  Si20  1  0.388920  0.157140  0.996163  1
  Si  Si21  1  0.610067  0.841800  0.003620  1
  Si  Si22  1  0.890091  0.122648  0.273779  1
  Si  Si23  1  0.109941  0.877944  0.726661  1
  Si  Si24  1  0.610472  0.378381  0.772939  1
  Si  Si25  1  0.621619  0.389528  0.227061  1
  Si  Si26  1  0.390991  0.623260  0.231225  1
  Si  Si27  1  0.376740  0.609009  0.768775  1
  Si  Si28  1  0.877352  0.109909  0.726221  1
  Si  Si29  1  0.122056  0.890059  0.273339  1
  Ir  Ir30  1  0.830845  0.169155  0.000000  1
  Ir  Ir31  1  0.169418  0.830582  0.000000  1
  Ir  Ir32  1  0.669437  0.330563  0.500000  1
  Ru  Ru33  1  0.330175  0.669825  0.500000  1
  Ru  Ru34  1  0.126848  0.126650  0.374204  1
  Ru  Ru35  1  0.873350  0.873152  0.625796  1
  Ru  Ru36  1  0.373345  0.372678  0.873669  1
  Ru  Ru37  1  0.627322  0.626655  0.126331  1
