# generated using pymatgen
data_Tb7Pr(Ga3Pt)4
_symmetry_space_group_name_H-M   'P 1'
_cell_length_a   8.87774600
_cell_length_b   8.90684776
_cell_length_c   7.08094900
_cell_angle_alpha   90.00000000
_cell_angle_beta   90.00000000
_cell_angle_gamma   120.10423245
_symmetry_Int_Tables_number   1
_chemical_formula_structural   Tb7Pr(Ga3Pt)4
_chemical_formula_sum   'Tb7 Pr1 Ga12 Pt4'
_cell_volume   484.38617301
_cell_formula_units_Z   1
loop_
 _symmetry_equiv_pos_site_id
 _symmetry_equiv_pos_as_xyz
  1  'x, y, z'
loop_
 _atom_site_type_symbol
 _atom_site_label
 _atom_site_symmetry_multiplicity
 _atom_site_fract_x
 _atom_site_fract_y
 _atom_site_fract_z
 _atom_site_occupancy
  Tb  Tb0  1  0.000111  0.000008  0.250000  1
  Tb  Tb1  1  0.999403  0.999756  0.750000  1
  Tb  Tb2  1  0.519716  0.038979  0.250000  1
  Tb  Tb3  1  0.519680  0.480823  0.250000  1
  Tb  Tb4  1  0.960775  0.480411  0.250000  1
  Tb  Tb5  1  0.481321  0.962073  0.750000  1
  Tb  Tb6  1  0.481352  0.519172  0.750000  1
  Pr  Pr7  1  0.039310  0.519631  0.750000  1
  Ga  Ga8  1  0.167862  0.333722  0.048295  1
  Ga  Ga9  1  0.167962  0.834103  0.451723  1
  Ga  Ga10  1  0.666301  0.833180  0.453578  1
  Ga  Ga11  1  0.666301  0.833180  0.046422  1
  Ga  Ga12  1  0.167962  0.834103  0.048277  1
  Ga  Ga13  1  0.831402  0.666534  0.955122  1
  Ga  Ga14  1  0.831304  0.164903  0.955139  1
  Ga  Ga15  1  0.333507  0.166723  0.953043  1
  Ga  Ga16  1  0.167862  0.333722  0.451705  1
  Ga  Ga17  1  0.333507  0.166723  0.546957  1
  Ga  Ga18  1  0.831402  0.666534  0.544878  1
  Ga  Ga19  1  0.831304  0.164903  0.544861  1
  Pt  Pt20  1  0.336031  0.667953  0.034922  1
  Pt  Pt21  1  0.336031  0.667953  0.465078  1
  Pt  Pt22  1  0.664797  0.332455  0.971151  1
  Pt  Pt23  1  0.664797  0.332455  0.528849  1
