# generated using pymatgen
data_Y13Ho6ErPb16
_symmetry_space_group_name_H-M   'P 1'
_cell_length_a   8.22015505
_cell_length_b   8.28170623
_cell_length_c   15.65612601
_cell_angle_alpha   89.99944469
_cell_angle_beta   90.00375606
_cell_angle_gamma   90.01981294
_symmetry_Int_Tables_number   1
_chemical_formula_structural   Y13Ho6ErPb16
_chemical_formula_sum   'Y13 Ho6 Er1 Pb16'
_cell_volume   1065.82060451
_cell_formula_units_Z   1
loop_
 _symmetry_equiv_pos_site_id
 _symmetry_equiv_pos_as_xyz
  1  'x, y, z'
loop_
 _atom_site_type_symbol
 _atom_site_label
 _atom_site_symmetry_multiplicity
 _atom_site_fract_x
 _atom_site_fract_y
 _atom_site_fract_z
 _atom_site_occupancy
  Y  Y0  1  0.122895  0.341735  0.121173  1
  Y  Y1  1  0.622524  0.158027  0.121277  1
  Y  Y2  1  0.122916  0.341753  0.378799  1
  Y  Y3  1  0.377197  0.841855  0.620863  1
  Y  Y4  1  0.877243  0.658235  0.878964  1
  Y  Y5  1  0.536037  0.324659  0.899899  1
  Y  Y6  1  0.036130  0.175385  0.599948  1
  Y  Y7  1  0.463769  0.675672  0.399854  1
  Y  Y8  1  0.964092  0.824821  0.100153  1
  Y  Y9  1  0.463845  0.675720  0.100053  1
  Y  Y10  1  0.964136  0.824809  0.399951  1
  Y  Y11  1  0.536034  0.324632  0.600003  1
  Y  Y12  1  0.036079  0.175304  0.900033  1
  Ho  Ho13  1  0.377251  0.841829  0.879110  1
  Ho  Ho14  1  0.877246  0.658285  0.621053  1
  Ho  Ho15  1  0.622508  0.158019  0.378765  1
  Ho  Ho16  1  0.209549  0.504125  0.749972  1
  Ho  Ho17  1  0.709544  0.995961  0.750013  1
  Ho  Ho18  1  0.790373  0.496019  0.250065  1
  Er  Er19  1  0.290447  0.004255  0.250055  1
  Pb  Pb20  1  0.281448  0.032893  0.043121  1
  Pb  Pb21  1  0.781208  0.466107  0.457173  1
  Pb  Pb22  1  0.718900  0.966166  0.542657  1
  Pb  Pb23  1  0.218912  0.533926  0.957019  1
  Pb  Pb24  1  0.718401  0.966383  0.957061  1
  Pb  Pb25  1  0.218264  0.533509  0.542956  1
  Pb  Pb26  1  0.281725  0.033259  0.456580  1
  Pb  Pb27  1  0.781214  0.466413  0.043000  1
  Pb  Pb28  1  0.572498  0.625822  0.750077  1
  Pb  Pb29  1  0.072586  0.874332  0.749895  1
  Pb  Pb30  1  0.427556  0.374097  0.250239  1
  Pb  Pb31  1  0.927589  0.125081  0.250117  1
  Pb  Pb32  1  0.348523  0.153487  0.750094  1
  Pb  Pb33  1  0.848605  0.346338  0.749877  1
  Pb  Pb34  1  0.650952  0.846466  0.250123  1
  Pb  Pb35  1  0.151807  0.654623  0.250006  1
