# generated using pymatgen
data_Ti6GaHgC4
_symmetry_space_group_name_H-M   'P 1'
_cell_length_a   3.10855200
_cell_length_b   3.10855077
_cell_length_c   18.72446200
_cell_angle_alpha   90.00000000
_cell_angle_beta   90.00000000
_cell_angle_gamma   120.00003440
_symmetry_Int_Tables_number   1
_chemical_formula_structural   Ti6GaHgC4
_chemical_formula_sum   'Ti6 Ga1 Hg1 C4'
_cell_volume   156.69528564
_cell_formula_units_Z   1
loop_
 _symmetry_equiv_pos_site_id
 _symmetry_equiv_pos_as_xyz
  1  'x, y, z'
loop_
 _atom_site_type_symbol
 _atom_site_label
 _atom_site_symmetry_multiplicity
 _atom_site_fract_x
 _atom_site_fract_y
 _atom_site_fract_z
 _atom_site_occupancy
  Ti  Ti0  1  0.666667  0.333333  0.369039  1
  Ti  Ti1  1  0.333333  0.666667  0.879584  1
  Ti  Ti2  1  0.333333  0.666667  0.620416  1
  Ti  Ti3  1  0.666667  0.333333  0.130961  1
  Ti  Ti4  1  0.000000  0.000000  0.494936  1
  Ti  Ti5  1  0.000000  0.000000  0.005064  1
  Ga  Ga6  1  0.000000  0.000000  0.250000  1
  Hg  Hg7  1  0.000000  0.000000  0.750000  1
  C  C8  1  0.333333  0.666667  0.426051  1
  C  C9  1  0.666667  0.333333  0.935830  1
  C  C10  1  0.333333  0.666667  0.073949  1
  C  C11  1  0.666667  0.333333  0.564170  1
