# generated using pymatgen
data_Gd3Dy2YTa2O14
_symmetry_space_group_name_H-M   'P 1'
_cell_length_a   6.52986927
_cell_length_b   6.51950746
_cell_length_c   7.53676445
_cell_angle_alpha   90.03352105
_cell_angle_beta   90.02008615
_cell_angle_gamma   108.81225615
_symmetry_Int_Tables_number   1
_chemical_formula_structural   Gd3Dy2YTa2O14
_chemical_formula_sum   'Gd3 Dy2 Y1 Ta2 O14'
_cell_volume   303.71170744
_cell_formula_units_Z   1
loop_
 _symmetry_equiv_pos_site_id
 _symmetry_equiv_pos_as_xyz
  1  'x, y, z'
loop_
 _atom_site_type_symbol
 _atom_site_label
 _atom_site_symmetry_multiplicity
 _atom_site_fract_x
 _atom_site_fract_y
 _atom_site_fract_z
 _atom_site_occupancy
  Gd  Gd0  1  0.466327  0.000266  0.256022  1
  Gd  Gd1  1  0.470378  0.471592  0.998853  1
  Gd  Gd2  1  0.530547  0.530164  0.501315  1
  Dy  Dy3  1  0.999897  0.465148  0.743705  1
  Dy  Dy4  1  0.535450  0.000083  0.756547  1
  Y  Y5  1  0.000164  0.534211  0.243867  1
  Ta  Ta6  1  0.003018  0.002760  0.501229  1
  Ta  Ta7  1  0.997849  0.997243  0.998892  1
  O  O8  1  0.933149  0.068083  0.750062  1
  O  O9  1  0.641239  0.359722  0.749895  1
  O  O10  1  0.308692  0.052716  0.543714  1
  O  O11  1  0.949037  0.690154  0.958596  1
  O  O12  1  0.633469  0.373171  0.249230  1
  O  O13  1  0.922528  0.674376  0.527072  1
  O  O14  1  0.324302  0.079138  0.970758  1
  O  O15  1  0.078280  0.325207  0.026183  1
  O  O16  1  0.673828  0.918864  0.477127  1
  O  O17  1  0.368567  0.630623  0.750079  1
  O  O18  1  0.688382  0.942742  0.036460  1
  O  O19  1  0.053285  0.309936  0.460001  1
  O  O20  1  0.359519  0.638196  0.250380  1
  O  O21  1  0.062093  0.935606  0.250013  1
