# generated using pymatgen
data_RbLi5(BO3)2
_symmetry_space_group_name_H-M   'P 1'
_cell_length_a   7.56356331
_cell_length_b   7.56356323
_cell_length_c   7.95527267
_cell_angle_alpha   58.80405217
_cell_angle_beta   58.80405183
_cell_angle_gamma   78.53950406
_symmetry_Int_Tables_number   1
_chemical_formula_structural   RbLi5(BO3)2
_chemical_formula_sum   'Rb2 Li10 B4 O12'
_cell_volume   331.49264175
_cell_formula_units_Z   2
loop_
 _symmetry_equiv_pos_site_id
 _symmetry_equiv_pos_as_xyz
  1  'x, y, z'
loop_
 _atom_site_type_symbol
 _atom_site_label
 _atom_site_symmetry_multiplicity
 _atom_site_fract_x
 _atom_site_fract_y
 _atom_site_fract_z
 _atom_site_occupancy
  Rb  Rb0  1  0.677336  0.322664  0.750000  1
  Rb  Rb1  1  0.322664  0.677336  0.250000  1
  Li  Li2  1  0.530225  0.263803  0.229409  1
  Li  Li3  1  0.703801  0.073395  0.462177  1
  Li  Li4  1  0.469775  0.736197  0.770591  1
  Li  Li5  1  0.736197  0.469775  0.270591  1
  Li  Li6  1  0.000000  0.000000  0.000000  1
  Li  Li7  1  0.296199  0.926605  0.537823  1
  Li  Li8  1  0.263803  0.530225  0.729409  1
  Li  Li9  1  0.073395  0.703801  0.962177  1
  Li  Li10  1  0.000000  0.000000  0.500000  1
  Li  Li11  1  0.926605  0.296199  0.037823  1
  B  B12  1  0.831351  0.687929  0.810196  1
  B  B13  1  0.687929  0.831351  0.310196  1
  B  B14  1  0.168649  0.312071  0.189804  1
  B  B15  1  0.312071  0.168649  0.689804  1
  O  O16  1  0.164008  0.271669  0.796662  1
  O  O17  1  0.045519  0.733570  0.712576  1
  O  O18  1  0.954481  0.266430  0.287424  1
  O  O19  1  0.271669  0.164008  0.296662  1
  O  O20  1  0.733570  0.045519  0.212576  1
  O  O21  1  0.266430  0.954481  0.787424  1
  O  O22  1  0.502285  0.729737  0.505317  1
  O  O23  1  0.835992  0.728331  0.203338  1
  O  O24  1  0.729737  0.502285  0.005317  1
  O  O25  1  0.270263  0.497715  0.994683  1
  O  O26  1  0.497715  0.270263  0.494683  1
  O  O27  1  0.728331  0.835992  0.703338  1
