# generated using pymatgen
data_Y3MnFe4(Co2P3)2
_symmetry_space_group_name_H-M   'P 1'
_cell_length_a   3.71151100
_cell_length_b   10.61764400
_cell_length_c   12.14461700
_cell_angle_alpha   90.00000000
_cell_angle_beta   90.00000000
_cell_angle_gamma   90.00000000
_symmetry_Int_Tables_number   1
_chemical_formula_structural   Y3MnFe4(Co2P3)2
_chemical_formula_sum   'Y6 Mn2 Fe8 Co8 P12'
_cell_volume   478.58902479
_cell_formula_units_Z   2
loop_
 _symmetry_equiv_pos_site_id
 _symmetry_equiv_pos_as_xyz
  1  'x, y, z'
loop_
 _atom_site_type_symbol
 _atom_site_label
 _atom_site_symmetry_multiplicity
 _atom_site_fract_x
 _atom_site_fract_y
 _atom_site_fract_z
 _atom_site_occupancy
  Y  Y0  1  0.000000  0.500000  0.523860  1
  Y  Y1  1  0.500000  0.000000  0.475843  1
  Y  Y2  1  0.500000  0.821022  0.204409  1
  Y  Y3  1  0.500000  0.178978  0.204409  1
  Y  Y4  1  0.000000  0.679271  0.795631  1
  Y  Y5  1  0.000000  0.320729  0.795631  1
  Mn  Mn6  1  0.500000  0.500000  0.152644  1
  Mn  Mn7  1  0.000000  0.000000  0.846476  1
  Fe  Fe8  1  0.000000  0.500000  0.989942  1
  Fe  Fe9  1  0.500000  0.000000  0.010008  1
  Fe  Fe10  1  0.500000  0.332033  0.996641  1
  Fe  Fe11  1  0.500000  0.667967  0.996641  1
  Fe  Fe12  1  0.000000  0.167590  0.002868  1
  Fe  Fe13  1  0.000000  0.832410  0.002868  1
  Fe  Fe14  1  0.500000  0.297015  0.430357  1
  Fe  Fe15  1  0.500000  0.702985  0.430357  1
  Co  Co16  1  0.500000  0.500000  0.701604  1
  Co  Co17  1  0.000000  0.000000  0.299035  1
  Co  Co18  1  0.000000  0.202423  0.571023  1
  Co  Co19  1  0.000000  0.797577  0.571023  1
  Co  Co20  1  0.500000  0.880438  0.709654  1
  Co  Co21  1  0.500000  0.119562  0.709654  1
  Co  Co22  1  0.000000  0.619411  0.289815  1
  Co  Co23  1  0.000000  0.380589  0.289815  1
  P  P24  1  0.500000  0.500000  0.886872  1
  P  P25  1  0.000000  0.000000  0.113187  1
  P  P26  1  0.500000  0.500000  0.345041  1
  P  P27  1  0.000000  0.000000  0.656176  1
  P  P28  1  0.500000  0.308968  0.614984  1
  P  P29  1  0.500000  0.691032  0.614984  1
  P  P30  1  0.000000  0.192836  0.384307  1
  P  P31  1  0.000000  0.807164  0.384307  1
  P  P32  1  0.500000  0.844607  0.895313  1
  P  P33  1  0.500000  0.155393  0.895313  1
  P  P34  1  0.000000  0.655685  0.104655  1
  P  P35  1  0.000000  0.344315  0.104655  1
