# generated using pymatgen
data_Yb3Ni6Sn5
_symmetry_space_group_name_H-M   'P 1'
_cell_length_a   4.34714867
_cell_length_b   8.11925976
_cell_length_c   8.11925999
_cell_angle_alpha   72.12035008
_cell_angle_beta   74.47219440
_cell_angle_gamma   74.47219425
_symmetry_Int_Tables_number   1
_chemical_formula_structural   Yb3Ni6Sn5
_chemical_formula_sum   'Yb3 Ni6 Sn5'
_cell_volume   257.34515434
_cell_formula_units_Z   1
loop_
 _symmetry_equiv_pos_site_id
 _symmetry_equiv_pos_as_xyz
  1  'x, y, z'
loop_
 _atom_site_type_symbol
 _atom_site_label
 _atom_site_symmetry_multiplicity
 _atom_site_fract_x
 _atom_site_fract_y
 _atom_site_fract_z
 _atom_site_occupancy
  Yb  Yb0  1  0.000000  0.000000  0.000000  1
  Yb  Yb1  1  0.683264  0.316736  0.316736  1
  Yb  Yb2  1  0.316736  0.683264  0.683264  1
  Ni  Ni3  1  0.500000  0.312483  0.687517  1
  Ni  Ni4  1  0.500000  0.687517  0.312483  1
  Ni  Ni5  1  0.889180  0.836128  0.385513  1
  Ni  Ni6  1  0.110820  0.163872  0.614487  1
  Ni  Ni7  1  0.889180  0.385513  0.836128  1
  Ni  Ni8  1  0.110820  0.614487  0.163872  1
  Sn  Sn9  1  0.675821  0.984842  0.663515  1
  Sn  Sn10  1  0.324179  0.015158  0.336485  1
  Sn  Sn11  1  0.675821  0.663515  0.984842  1
  Sn  Sn12  1  0.324179  0.336485  0.015158  1
  Sn  Sn13  1  0.000000  0.500000  0.500000  1
