# generated using pymatgen
data_Ca(ThPd4)3
_symmetry_space_group_name_H-M   'P 1'
_cell_length_a   5.92727800
_cell_length_b   5.92727772
_cell_length_c   9.72069700
_cell_angle_alpha   90.00000000
_cell_angle_beta   90.00000000
_cell_angle_gamma   120.00000156
_symmetry_Int_Tables_number   1
_chemical_formula_structural   Ca(ThPd4)3
_chemical_formula_sum   'Ca1 Th3 Pd12'
_cell_volume   295.75943252
_cell_formula_units_Z   1
loop_
 _symmetry_equiv_pos_site_id
 _symmetry_equiv_pos_as_xyz
  1  'x, y, z'
loop_
 _atom_site_type_symbol
 _atom_site_label
 _atom_site_symmetry_multiplicity
 _atom_site_fract_x
 _atom_site_fract_y
 _atom_site_fract_z
 _atom_site_occupancy
  Ca  Ca0  1  0.333333  0.666667  0.250000  1
  Th  Th1  1  0.000000  0.000000  0.493082  1
  Th  Th2  1  0.000000  0.000000  0.006918  1
  Th  Th3  1  0.666667  0.333333  0.750000  1
  Pd  Pd4  1  0.500734  0.499266  0.501280  1
  Pd  Pd5  1  0.500734  0.001466  0.501280  1
  Pd  Pd6  1  0.998534  0.499266  0.501280  1
  Pd  Pd7  1  0.500734  0.499266  0.998720  1
  Pd  Pd8  1  0.500734  0.001466  0.998720  1
  Pd  Pd9  1  0.998534  0.499266  0.998720  1
  Pd  Pd10  1  0.824247  0.648493  0.250000  1
  Pd  Pd11  1  0.351507  0.175753  0.250000  1
  Pd  Pd12  1  0.824247  0.175753  0.250000  1
  Pd  Pd13  1  0.173488  0.346976  0.750000  1
  Pd  Pd14  1  0.653024  0.826512  0.750000  1
  Pd  Pd15  1  0.173488  0.826512  0.750000  1
