# generated using pymatgen
data_Hf4TiMn7
_symmetry_space_group_name_H-M   'P 1'
_cell_length_a   4.97764300
_cell_length_b   4.97764337
_cell_length_c   8.15577000
_cell_angle_alpha   90.00000000
_cell_angle_beta   90.00000000
_cell_angle_gamma   119.99999092
_symmetry_Int_Tables_number   1
_chemical_formula_structural   Hf4TiMn7
_chemical_formula_sum   'Hf4 Ti1 Mn7'
_cell_volume   175.00206128
_cell_formula_units_Z   1
loop_
 _symmetry_equiv_pos_site_id
 _symmetry_equiv_pos_as_xyz
  1  'x, y, z'
loop_
 _atom_site_type_symbol
 _atom_site_label
 _atom_site_symmetry_multiplicity
 _atom_site_fract_x
 _atom_site_fract_y
 _atom_site_fract_z
 _atom_site_occupancy
  Hf  Hf0  1  0.666667  0.333333  0.069393  1
  Hf  Hf1  1  0.333333  0.666667  0.930607  1
  Hf  Hf2  1  0.333333  0.666667  0.560156  1
  Hf  Hf3  1  0.666667  0.333333  0.439844  1
  Ti  Ti4  1  0.000000  0.000000  0.000000  1
  Mn  Mn5  1  0.655647  0.827823  0.255933  1
  Mn  Mn6  1  0.172177  0.827823  0.255933  1
  Mn  Mn7  1  0.172177  0.344353  0.255933  1
  Mn  Mn8  1  0.344353  0.172177  0.744067  1
  Mn  Mn9  1  0.827823  0.172177  0.744067  1
  Mn  Mn10  1  0.827823  0.655647  0.744067  1
  Mn  Mn11  1  0.000000  0.000000  0.500000  1
