# generated using pymatgen
data_Dy6HoLu(Si4Mo3)4
_symmetry_space_group_name_H-M   'P 1'
_cell_length_a   6.76189905
_cell_length_b   6.94492733
_cell_length_c   12.92184230
_cell_angle_alpha   89.94482088
_cell_angle_beta   89.99305589
_cell_angle_gamma   89.97931388
_symmetry_Int_Tables_number   1
_chemical_formula_structural   Dy6HoLu(Si4Mo3)4
_chemical_formula_sum   'Dy6 Ho1 Lu1 Si16 Mo12'
_cell_volume   606.82098717
_cell_formula_units_Z   1
loop_
 _symmetry_equiv_pos_site_id
 _symmetry_equiv_pos_as_xyz
  1  'x, y, z'
loop_
 _atom_site_type_symbol
 _atom_site_label
 _atom_site_symmetry_multiplicity
 _atom_site_fract_x
 _atom_site_fract_y
 _atom_site_fract_z
 _atom_site_occupancy
  Dy  Dy0  1  0.497288  0.332699  0.093980  1
  Dy  Dy1  1  0.997218  0.167169  0.406099  1
  Dy  Dy2  1  0.502838  0.667049  0.593851  1
  Dy  Dy3  1  0.002566  0.832845  0.906586  1
  Dy  Dy4  1  0.502687  0.667391  0.906431  1
  Dy  Dy5  1  0.002785  0.832869  0.593884  1
  Ho  Ho6  1  0.497032  0.332730  0.405523  1
  Lu  Lu7  1  0.996383  0.167864  0.094396  1
  Si  Si8  1  0.658767  0.042069  0.547326  1
  Si  Si9  1  0.158708  0.457349  0.953114  1
  Si  Si10  1  0.339170  0.959343  0.047730  1
  Si  Si11  1  0.840885  0.541825  0.452347  1
  Si  Si12  1  0.341307  0.958280  0.452245  1
  Si  Si13  1  0.841857  0.540142  0.047766  1
  Si  Si14  1  0.659446  0.041988  0.953154  1
  Si  Si15  1  0.158981  0.458131  0.547293  1
  Si  Si16  1  0.534974  0.365957  0.750278  1
  Si  Si17  1  0.034900  0.133820  0.750064  1
  Si  Si18  1  0.465363  0.634025  0.249829  1
  Si  Si19  1  0.965520  0.867205  0.249433  1
  Si  Si20  1  0.802651  0.629015  0.750259  1
  Si  Si21  1  0.302470  0.870721  0.750112  1
  Si  Si22  1  0.196612  0.369583  0.249264  1
  Si  Si23  1  0.698569  0.129686  0.249429  1
  Mo  Mo24  1  0.830501  0.334523  0.625388  1
  Mo  Mo25  1  0.330234  0.165170  0.875019  1
  Mo  Mo26  1  0.169391  0.665605  0.125349  1
  Mo  Mo27  1  0.669594  0.834827  0.374254  1
  Mo  Mo28  1  0.169516  0.665165  0.374356  1
  Mo  Mo29  1  0.670316  0.835338  0.124942  1
  Mo  Mo30  1  0.831092  0.333938  0.875275  1
  Mo  Mo31  1  0.330740  0.165488  0.625291  1
  Mo  Mo32  1  0.665764  0.999161  0.750221  1
  Mo  Mo33  1  0.165859  0.500675  0.750176  1
  Mo  Mo34  1  0.333713  0.001712  0.249601  1
  Mo  Mo35  1  0.834302  0.498647  0.249740  1
