# generated using pymatgen
data_Tb6Ho13Er(Cd3Ru)2
_symmetry_space_group_name_H-M   'P 1'
_cell_length_a   9.57980500
_cell_length_b   9.57969392
_cell_length_c   9.81619100
_cell_angle_alpha   90.00153926
_cell_angle_beta   90.00031996
_cell_angle_gamma   119.99874757
_symmetry_Int_Tables_number   1
_chemical_formula_structural   Tb6Ho13Er(Cd3Ru)2
_chemical_formula_sum   'Tb6 Ho13 Er1 Cd6 Ru2'
_cell_volume   780.16671000
_cell_formula_units_Z   1
loop_
 _symmetry_equiv_pos_site_id
 _symmetry_equiv_pos_as_xyz
  1  'x, y, z'
loop_
 _atom_site_type_symbol
 _atom_site_label
 _atom_site_symmetry_multiplicity
 _atom_site_fract_x
 _atom_site_fract_y
 _atom_site_fract_z
 _atom_site_occupancy
  Tb  Tb0  1  0.541034  0.458968  0.249982  1
  Tb  Tb1  1  0.541034  0.082072  0.249989  1
  Tb  Tb2  1  0.917929  0.458965  0.249988  1
  Tb  Tb3  1  0.458966  0.541032  0.750018  1
  Tb  Tb4  1  0.458966  0.917928  0.750011  1
  Tb  Tb5  1  0.082071  0.541035  0.750012  1
  Ho  Ho6  1  0.000000  0.000000  0.500000  1
  Ho  Ho7  1  0.209801  0.790201  0.440085  1
  Ho  Ho8  1  0.209795  0.419597  0.440086  1
  Ho  Ho9  1  0.580398  0.790201  0.440092  1
  Ho  Ho10  1  0.790199  0.209799  0.559915  1
  Ho  Ho11  1  0.790205  0.580403  0.559914  1
  Ho  Ho12  1  0.419602  0.209799  0.559908  1
  Ho  Ho13  1  0.790266  0.209729  0.940084  1
  Ho  Ho14  1  0.790270  0.580535  0.940085  1
  Ho  Ho15  1  0.419471  0.209734  0.940087  1
  Ho  Ho16  1  0.209734  0.790271  0.059916  1
  Ho  Ho17  1  0.209730  0.419465  0.059915  1
  Ho  Ho18  1  0.580529  0.790266  0.059913  1
  Er  Er19  1  0.000000  0.000000  0.000000  1
  Cd  Cd20  1  0.885670  0.114331  0.249863  1
  Cd  Cd21  1  0.885675  0.771344  0.249862  1
  Cd  Cd22  1  0.228663  0.114328  0.249865  1
  Cd  Cd23  1  0.114330  0.885669  0.750137  1
  Cd  Cd24  1  0.114325  0.228656  0.750138  1
  Cd  Cd25  1  0.771337  0.885672  0.750135  1
  Ru  Ru26  1  0.333333  0.666669  0.249998  1
  Ru  Ru27  1  0.666667  0.333331  0.750002  1
