# generated using pymatgen
data_Sc6Fe4Si5Sn
_symmetry_space_group_name_H-M   'P 1'
_cell_length_a   5.39285444
_cell_length_b   5.39285584
_cell_length_c   13.10684100
_cell_angle_alpha   90.00000000
_cell_angle_beta   90.00000000
_cell_angle_gamma   136.51108125
_symmetry_Int_Tables_number   1
_chemical_formula_structural   Sc6Fe4Si5Sn
_chemical_formula_sum   'Sc6 Fe4 Si5 Sn1'
_cell_volume   262.33679877
_cell_formula_units_Z   1
loop_
 _symmetry_equiv_pos_site_id
 _symmetry_equiv_pos_as_xyz
  1  'x, y, z'
loop_
 _atom_site_type_symbol
 _atom_site_label
 _atom_site_symmetry_multiplicity
 _atom_site_fract_x
 _atom_site_fract_y
 _atom_site_fract_z
 _atom_site_occupancy
  Sc  Sc0  1  0.639724  0.360276  0.750000  1
  Sc  Sc1  1  0.918533  0.081467  0.615108  1
  Sc  Sc2  1  0.918533  0.081467  0.884892  1
  Sc  Sc3  1  0.075983  0.924017  0.100182  1
  Sc  Sc4  1  0.364668  0.635332  0.250000  1
  Sc  Sc5  1  0.075983  0.924017  0.399818  1
  Fe  Fe6  1  0.790695  0.209305  0.072770  1
  Fe  Fe7  1  0.215321  0.784679  0.584855  1
  Fe  Fe8  1  0.790695  0.209305  0.427230  1
  Fe  Fe9  1  0.215321  0.784679  0.915145  1
  Si  Si10  1  0.383422  0.616578  0.462152  1
  Si  Si11  1  0.383422  0.616578  0.037848  1
  Si  Si12  1  0.619352  0.380648  0.544807  1
  Si  Si13  1  0.328185  0.671815  0.750000  1
  Si  Si14  1  0.619352  0.380648  0.955193  1
  Sn  Sn15  1  0.660811  0.339189  0.250000  1
