# generated using pymatgen
data_Tb17Dy3(Cd3Ni)2
_symmetry_space_group_name_H-M   'P 1'
_cell_length_a   9.61315413
_cell_length_b   9.61317010
_cell_length_c   9.83939000
_cell_angle_alpha   90.00077102
_cell_angle_beta   89.99931071
_cell_angle_gamma   120.01890439
_symmetry_Int_Tables_number   1
_chemical_formula_structural   Tb17Dy3(Cd3Ni)2
_chemical_formula_sum   'Tb17 Dy3 Cd6 Ni2'
_cell_volume   787.31509348
_cell_formula_units_Z   1
loop_
 _symmetry_equiv_pos_site_id
 _symmetry_equiv_pos_as_xyz
  1  'x, y, z'
loop_
 _atom_site_type_symbol
 _atom_site_label
 _atom_site_symmetry_multiplicity
 _atom_site_fract_x
 _atom_site_fract_y
 _atom_site_fract_z
 _atom_site_occupancy
  Tb  Tb0  1  0.000008  0.999991  0.499877  1
  Tb  Tb1  1  0.000014  0.999987  0.999660  1
  Tb  Tb2  1  0.543396  0.456606  0.250413  1
  Tb  Tb3  1  0.543364  0.086745  0.250413  1
  Tb  Tb4  1  0.913255  0.456637  0.250414  1
  Tb  Tb5  1  0.456067  0.543932  0.749369  1
  Tb  Tb6  1  0.456093  0.912198  0.749370  1
  Tb  Tb7  1  0.087804  0.543908  0.749369  1
  Tb  Tb8  1  0.789539  0.210462  0.563321  1
  Tb  Tb9  1  0.789568  0.579116  0.563305  1
  Tb  Tb10  1  0.420884  0.210432  0.563304  1
  Tb  Tb11  1  0.789485  0.210514  0.936582  1
  Tb  Tb12  1  0.789511  0.579002  0.936598  1
  Tb  Tb13  1  0.420998  0.210489  0.936598  1
  Tb  Tb14  1  0.210559  0.789440  0.063827  1
  Tb  Tb15  1  0.210543  0.421112  0.063818  1
  Tb  Tb16  1  0.578888  0.789456  0.063817  1
  Dy  Dy17  1  0.210955  0.789046  0.436428  1
  Dy  Dy18  1  0.210940  0.421901  0.436441  1
  Dy  Dy19  1  0.578100  0.789061  0.436442  1
  Cd  Cd20  1  0.885190  0.114810  0.250105  1
  Cd  Cd21  1  0.885187  0.770351  0.250095  1
  Cd  Cd22  1  0.229649  0.114814  0.250095  1
  Cd  Cd23  1  0.114924  0.885074  0.749867  1
  Cd  Cd24  1  0.114919  0.229852  0.749872  1
  Cd  Cd25  1  0.770147  0.885080  0.749872  1
  Ni  Ni26  1  0.333305  0.666699  0.250768  1
  Ni  Ni27  1  0.666706  0.333288  0.749960  1
