# generated using pymatgen
data_Ho3Er7Ru4
_symmetry_space_group_name_H-M   'P 1'
_cell_length_a   6.27940383
_cell_length_b   7.25259298
_cell_length_c   8.39996867
_cell_angle_alpha   96.79729145
_cell_angle_beta   112.03202689
_cell_angle_gamma   89.98795906
_symmetry_Int_Tables_number   1
_chemical_formula_structural   Ho3Er7Ru4
_chemical_formula_sum   'Ho3 Er7 Ru4'
_cell_volume   351.71643642
_cell_formula_units_Z   1
loop_
 _symmetry_equiv_pos_site_id
 _symmetry_equiv_pos_as_xyz
  1  'x, y, z'
loop_
 _atom_site_type_symbol
 _atom_site_label
 _atom_site_symmetry_multiplicity
 _atom_site_fract_x
 _atom_site_fract_y
 _atom_site_fract_z
 _atom_site_occupancy
  Ho  Ho0  1  0.791181  0.584366  0.813123  1
  Ho  Ho1  1  0.977641  0.915637  0.186357  1
  Ho  Ho2  1  0.208934  0.415617  0.186731  1
  Er  Er3  1  0.022166  0.084502  0.813582  1
  Er  Er4  1  0.205810  0.684790  0.565404  1
  Er  Er5  1  0.640669  0.815265  0.435060  1
  Er  Er6  1  0.794272  0.315170  0.434768  1
  Er  Er7  1  0.359426  0.184864  0.565266  1
  Er  Er8  1  0.418940  0.749791  0.999776  1
  Er  Er9  1  0.580776  0.250219  0.000006  1
  Ru  Ru10  1  0.602457  0.924241  0.779273  1
  Ru  Ru11  1  0.822718  0.576523  0.220578  1
  Ru  Ru12  1  0.397921  0.075851  0.220582  1
  Ru  Ru13  1  0.177087  0.423164  0.779492  1
