# generated using pymatgen
data_Th2Zn2IrRh
_symmetry_space_group_name_H-M   'P 1'
_cell_length_a   3.93975500
_cell_length_b   7.52350081
_cell_length_c   16.63316835
_cell_angle_alpha   89.83097374
_cell_angle_beta   90.00000000
_cell_angle_gamma   90.00000000
_symmetry_Int_Tables_number   1
_chemical_formula_structural   Th2Zn2IrRh
_chemical_formula_sum   'Th8 Zn8 Ir4 Rh4'
_cell_volume   493.01743829
_cell_formula_units_Z   4
loop_
 _symmetry_equiv_pos_site_id
 _symmetry_equiv_pos_as_xyz
  1  'x, y, z'
loop_
 _atom_site_type_symbol
 _atom_site_label
 _atom_site_symmetry_multiplicity
 _atom_site_fract_x
 _atom_site_fract_y
 _atom_site_fract_z
 _atom_site_occupancy
  Th  Th0  1  0.250000  0.172592  0.940454  1
  Th  Th1  1  0.250000  0.674796  0.559669  1
  Th  Th2  1  0.750000  0.329254  0.439876  1
  Th  Th3  1  0.750000  0.941976  0.285038  1
  Th  Th4  1  0.750000  0.825849  0.060529  1
  Th  Th5  1  0.750000  0.438965  0.215036  1
  Th  Th6  1  0.250000  0.058620  0.715578  1
  Th  Th7  1  0.250000  0.557864  0.784883  1
  Zn  Zn8  1  0.750000  0.004283  0.558932  1
  Zn  Zn9  1  0.250000  0.614501  0.346512  1
  Zn  Zn10  1  0.750000  0.384452  0.652782  1
  Zn  Zn11  1  0.250000  0.495083  0.059411  1
  Zn  Zn12  1  0.750000  0.504543  0.941221  1
  Zn  Zn13  1  0.250000  0.996945  0.440498  1
  Zn  Zn14  1  0.250000  0.113647  0.152920  1
  Zn  Zn15  1  0.750000  0.885279  0.847475  1
  Ir  Ir16  1  0.750000  0.745821  0.435632  1
  Ir  Ir17  1  0.250000  0.243006  0.314368  1
  Ir  Ir18  1  0.750000  0.257225  0.815678  1
  Ir  Ir19  1  0.750000  0.757943  0.685592  1
  Rh  Rh20  1  0.250000  0.255683  0.561965  1
  Rh  Rh21  1  0.250000  0.741127  0.183836  1
  Rh  Rh22  1  0.750000  0.244082  0.063284  1
  Rh  Rh23  1  0.250000  0.756460  0.938833  1
