# generated using pymatgen
data_Ho2MgSi3P3Pd20
_symmetry_space_group_name_H-M   'P 1'
_cell_length_a   8.66048210
_cell_length_b   8.65655999
_cell_length_c   8.65654889
_cell_angle_alpha   60.03002317
_cell_angle_beta   59.98505698
_cell_angle_gamma   59.98491961
_symmetry_Int_Tables_number   1
_chemical_formula_structural   Ho2MgSi3P3Pd20
_chemical_formula_sum   'Ho2 Mg1 Si3 P3 Pd20'
_cell_volume   458.89890373
_cell_formula_units_Z   1
loop_
 _symmetry_equiv_pos_site_id
 _symmetry_equiv_pos_as_xyz
  1  'x, y, z'
loop_
 _atom_site_type_symbol
 _atom_site_label
 _atom_site_symmetry_multiplicity
 _atom_site_fract_x
 _atom_site_fract_y
 _atom_site_fract_z
 _atom_site_occupancy
  Ho  Ho0  1  0.249596  0.250404  0.249596  1
  Ho  Ho1  1  0.749596  0.750404  0.749596  1
  Mg  Mg2  1  0.000933  0.999067  0.000933  1
  Si  Si3  1  0.735066  0.264934  0.263672  1
  Si  Si4  1  0.263672  0.736328  0.735066  1
  Si  Si5  1  0.264798  0.735202  0.264798  1
  P  P6  1  0.736080  0.263920  0.736080  1
  P  P7  1  0.263615  0.265009  0.734991  1
  P  P8  1  0.734991  0.736385  0.263615  1
  Pd  Pd9  1  0.383308  0.383115  0.385362  1
  Pd  Pd10  1  0.616918  0.615055  0.615187  1
  Pd  Pd11  1  0.384945  0.383082  0.847161  1
  Pd  Pd12  1  0.385362  0.848215  0.383308  1
  Pd  Pd13  1  0.616885  0.616692  0.151785  1
  Pd  Pd14  1  0.615187  0.152839  0.616918  1
  Pd  Pd15  1  0.847161  0.384813  0.384945  1
  Pd  Pd16  1  0.151785  0.614638  0.616885  1
  Pd  Pd17  1  0.344148  0.001785  0.998215  1
  Pd  Pd18  1  0.656798  0.000105  0.999895  1
  Pd  Pd19  1  0.999895  0.343202  0.656798  1
  Pd  Pd20  1  0.998215  0.655852  0.344148  1
  Pd  Pd21  1  0.002433  0.343795  0.998715  1
  Pd  Pd22  1  0.656205  0.997567  0.344943  1
  Pd  Pd23  1  0.998715  0.655057  0.002433  1
  Pd  Pd24  1  0.344943  0.001285  0.656205  1
  Pd  Pd25  1  0.000027  0.999973  0.345484  1
  Pd  Pd26  1  0.998107  0.001893  0.655132  1
  Pd  Pd27  1  0.655132  0.344868  0.998107  1
  Pd  Pd28  1  0.345484  0.654516  0.000027  1
