# generated using pymatgen
data_Mg2Co9As7Ru3
_symmetry_space_group_name_H-M   'P 1'
_cell_length_a   3.73789200
_cell_length_b   9.36965949
_cell_length_c   9.36966000
_cell_angle_alpha   120.00000179
_cell_angle_beta   90.00000000
_cell_angle_gamma   90.00000000
_symmetry_Int_Tables_number   1
_chemical_formula_structural   Mg2Co9As7Ru3
_chemical_formula_sum   'Mg2 Co9 As7 Ru3'
_cell_volume   284.18752712
_cell_formula_units_Z   1
loop_
 _symmetry_equiv_pos_site_id
 _symmetry_equiv_pos_as_xyz
  1  'x, y, z'
loop_
 _atom_site_type_symbol
 _atom_site_label
 _atom_site_symmetry_multiplicity
 _atom_site_fract_x
 _atom_site_fract_y
 _atom_site_fract_z
 _atom_site_occupancy
  Mg  Mg0  1  0.000000  0.666667  0.333333  1
  Mg  Mg1  1  0.500000  0.333333  0.666667  1
  Co  Co2  1  0.000000  0.562970  0.937328  1
  Co  Co3  1  0.000000  0.374359  0.437030  1
  Co  Co4  1  0.000000  0.062672  0.625641  1
  Co  Co5  1  0.000000  0.874554  0.159990  1
  Co  Co6  1  0.000000  0.285436  0.125446  1
  Co  Co7  1  0.000000  0.840010  0.714564  1
  Co  Co8  1  0.500000  0.945476  0.384030  1
  Co  Co9  1  0.500000  0.438554  0.054524  1
  Co  Co10  1  0.500000  0.615970  0.561446  1
  As  As11  1  0.000000  0.000000  0.000000  1
  As  As12  1  0.500000  0.707580  0.121546  1
  As  As13  1  0.500000  0.413966  0.292420  1
  As  As14  1  0.500000  0.878454  0.586034  1
  As  As15  1  0.000000  0.586488  0.704345  1
  As  As16  1  0.000000  0.117858  0.413512  1
  As  As17  1  0.000000  0.295655  0.882142  1
  Ru  Ru18  1  0.500000  0.777631  0.900925  1
  Ru  Ru19  1  0.500000  0.123294  0.222369  1
  Ru  Ru20  1  0.500000  0.099075  0.876706  1
