# generated using pymatgen
data_NdTa3(PO4)6
_symmetry_space_group_name_H-M   'P 1'
_cell_length_a   8.92257848
_cell_length_b   9.18209508
_cell_length_c   8.92240500
_cell_angle_alpha   89.99934490
_cell_angle_beta   59.99862414
_cell_angle_gamma   119.06862888
_symmetry_Int_Tables_number   1
_chemical_formula_structural   NdTa3(PO4)6
_chemical_formula_sum   'Nd1 Ta3 P6 O24'
_cell_volume   524.03521494
_cell_formula_units_Z   1
loop_
 _symmetry_equiv_pos_site_id
 _symmetry_equiv_pos_as_xyz
  1  'x, y, z'
loop_
 _atom_site_type_symbol
 _atom_site_label
 _atom_site_symmetry_multiplicity
 _atom_site_fract_x
 _atom_site_fract_y
 _atom_site_fract_z
 _atom_site_occupancy
  Nd  Nd0  1  0.728572  0.092786  0.635637  1
  Ta  Ta1  1  0.284228  0.926226  0.357874  1
  Ta  Ta2  1  0.288136  0.432087  0.855923  1
  Ta  Ta3  1  0.716443  0.574575  0.141726  1
  P  P4  1  0.789146  0.746598  0.748489  1
  P  P5  1  0.471168  0.251886  0.536229  1
  P  P6  1  0.495240  0.746618  0.462278  1
  P  P7  1  0.244582  0.251939  0.219168  1
  P  P8  1  0.788246  0.251901  0.992533  1
  P  P9  1  0.209027  0.746605  0.042415  1
  O  O10  1  0.657429  0.905468  0.467792  1
  O  O11  1  0.988209  0.703615  0.111105  1
  O  O12  1  0.219733  0.583916  0.004936  1
  O  O13  1  0.231643  0.779392  0.204985  1
  O  O14  1  0.988205  0.274723  0.959606  1
  O  O15  1  0.797917  0.416699  0.038258  1
  O  O16  1  0.788203  0.244172  0.824800  1
  O  O17  1  0.814928  0.703750  0.900607  1
  O  O18  1  0.984477  0.779332  0.563294  1
  O  O19  1  0.631359  0.244345  0.543827  1
  O  O20  1  0.780125  0.905363  0.751870  1
  O  O21  1  0.588954  0.583846  0.775360  1
  O  O22  1  0.592229  0.084973  0.161140  1
  O  O23  1  0.580376  0.416604  0.381105  1
  O  O24  1  0.234329  0.274627  0.052201  1
  O  O25  1  0.326933  0.274670  0.713402  1
  O  O26  1  0.604488  0.703703  0.284429  1
  O  O27  1  0.331694  0.084867  0.507219  1
  O  O28  1  0.373334  0.905389  0.874633  1
  O  O29  1  0.359414  0.583936  0.635665  1
  O  O30  1  0.246264  0.085037  0.246667  1
  O  O31  1  0.455156  0.416792  0.163595  1
  O  O32  1  0.342742  0.779279  0.452139  1
  O  O33  1  0.069199  0.244284  0.386962  1
