# generated using pymatgen
data_La3Pr4Er3Si8O3
_symmetry_space_group_name_H-M   'P 1'
_cell_length_a   10.73406800
_cell_length_b   10.71204250
_cell_length_c   4.48997300
_cell_angle_alpha   90.00000000
_cell_angle_beta   90.00000000
_cell_angle_gamma   120.06804002
_symmetry_Int_Tables_number   1
_chemical_formula_structural   La3Pr4Er3Si8O3
_chemical_formula_sum   'La3 Pr4 Er3 Si8 O3'
_cell_volume   446.79964838
_cell_formula_units_Z   1
loop_
 _symmetry_equiv_pos_site_id
 _symmetry_equiv_pos_as_xyz
  1  'x, y, z'
loop_
 _atom_site_type_symbol
 _atom_site_label
 _atom_site_symmetry_multiplicity
 _atom_site_fract_x
 _atom_site_fract_y
 _atom_site_fract_z
 _atom_site_occupancy
  La  La0  1  0.999810  0.999620  0.000000  1
  La  La1  1  0.424565  0.212675  0.000000  1
  La  La2  1  0.788109  0.212675  0.000000  1
  Pr  Pr3  1  0.211343  0.787920  0.000000  1
  Pr  Pr4  1  0.576579  0.787920  0.000000  1
  Pr  Pr5  1  0.788469  0.576940  0.000000  1
  Pr  Pr6  1  0.211688  0.423376  0.000000  1
  Er  Er7  1  0.000729  0.500992  0.500000  1
  Er  Er8  1  0.500264  0.500992  0.500000  1
  Er  Er9  1  0.499177  0.998354  0.500000  1
  Si  Si10  1  0.999819  0.774995  0.500000  1
  Si  Si11  1  0.000111  0.224300  0.500000  1
  Si  Si12  1  0.224189  0.224300  0.500000  1
  Si  Si13  1  0.775512  0.999647  0.500000  1
  Si  Si14  1  0.333327  0.666654  0.500000  1
  Si  Si15  1  0.224134  0.999647  0.500000  1
  Si  Si16  1  0.667016  0.334031  0.500000  1
  Si  Si17  1  0.775177  0.774995  0.500000  1
  O  O18  1  0.000286  0.500069  0.000000  1
  O  O19  1  0.499783  0.500069  0.000000  1
  O  O20  1  0.499914  0.999828  0.000000  1
