# generated using pymatgen
data_LaNd11(SnRh)8
_symmetry_space_group_name_H-M   'P 1'
_cell_length_a   5.94838675
_cell_length_b   8.53260375
_cell_length_c   13.83866538
_cell_angle_alpha   90.01453805
_cell_angle_beta   90.19078116
_cell_angle_gamma   90.10616697
_symmetry_Int_Tables_number   1
_chemical_formula_structural   LaNd11(SnRh)8
_chemical_formula_sum   'La1 Nd11 Sn8 Rh8'
_cell_volume   702.37948052
_cell_formula_units_Z   1
loop_
 _symmetry_equiv_pos_site_id
 _symmetry_equiv_pos_as_xyz
  1  'x, y, z'
loop_
 _atom_site_type_symbol
 _atom_site_label
 _atom_site_symmetry_multiplicity
 _atom_site_fract_x
 _atom_site_fract_y
 _atom_site_fract_z
 _atom_site_occupancy
  La  La0  1  0.171002  0.397317  0.092302  1
  Nd  Nd1  1  0.632135  0.251372  0.250793  1
  Nd  Nd2  1  0.368950  0.747887  0.749588  1
  Nd  Nd3  1  0.368181  0.753463  0.250343  1
  Nd  Nd4  1  0.631051  0.247544  0.750208  1
  Nd  Nd5  1  0.834143  0.605089  0.904458  1
  Nd  Nd6  1  0.833244  0.604558  0.595011  1
  Nd  Nd7  1  0.833990  0.895726  0.405552  1
  Nd  Nd8  1  0.165574  0.395414  0.405410  1
  Nd  Nd9  1  0.165835  0.104257  0.594821  1
  Nd  Nd10  1  0.165199  0.103737  0.904337  1
  Nd  Nd11  1  0.833857  0.895426  0.094856  1
  Sn  Sn12  1  0.130624  0.103681  0.250533  1
  Sn  Sn13  1  0.870143  0.895283  0.750308  1
  Sn  Sn14  1  0.867950  0.605679  0.251190  1
  Sn  Sn15  1  0.129787  0.395049  0.749720  1
  Sn  Sn16  1  0.664274  0.248484  0.999178  1
  Sn  Sn17  1  0.337334  0.751678  0.999215  1
  Sn  Sn18  1  0.337432  0.749889  0.500023  1
  Sn  Sn19  1  0.662352  0.250186  0.500102  1
  Rh  Rh20  1  0.382415  0.039075  0.093571  1
  Rh  Rh21  1  0.618194  0.959800  0.906547  1
  Rh  Rh22  1  0.619064  0.961316  0.592936  1
  Rh  Rh23  1  0.617616  0.539391  0.407422  1
  Rh  Rh24  1  0.381439  0.038508  0.407584  1
  Rh  Rh25  1  0.382359  0.460979  0.593150  1
  Rh  Rh26  1  0.380029  0.460742  0.907911  1
  Rh  Rh27  1  0.615830  0.538471  0.092929  1
