# generated using pymatgen
data_Ta4Ti2Re6Si5B
_symmetry_space_group_name_H-M   'P 1'
_cell_length_a   7.51749099
_cell_length_b   7.52364323
_cell_length_c   7.51749192
_cell_angle_alpha   126.42698855
_cell_angle_beta   128.27232544
_cell_angle_gamma   77.67192504
_symmetry_Int_Tables_number   1
_chemical_formula_structural   Ta4Ti2Re6Si5B
_chemical_formula_sum   'Ta4 Ti2 Re6 Si5 B1'
_cell_volume   260.44501026
_cell_formula_units_Z   1
loop_
 _symmetry_equiv_pos_site_id
 _symmetry_equiv_pos_as_xyz
  1  'x, y, z'
loop_
 _atom_site_type_symbol
 _atom_site_label
 _atom_site_symmetry_multiplicity
 _atom_site_fract_x
 _atom_site_fract_y
 _atom_site_fract_z
 _atom_site_occupancy
  Ta  Ta0  1  0.949506  0.496006  0.046500  1
  Ta  Ta1  1  0.050275  0.096191  0.545916  1
  Ta  Ta2  1  0.753149  0.895874  0.642725  1
  Ta  Ta3  1  0.246080  0.894826  0.148746  1
  Ti  Ti4  1  0.553416  0.102609  0.049194  1
  Ti  Ti5  1  0.448384  0.493961  0.545578  1
  Re  Re6  1  0.512768  0.246049  0.759581  1
  Re  Re7  1  0.986469  0.246049  0.233281  1
  Re  Re8  1  0.111701  0.747100  0.608515  1
  Re  Re9  1  0.861206  0.497029  0.608314  1
  Re  Re10  1  0.638585  0.747100  0.135399  1
  Re  Re11  1  0.388715  0.497029  0.135822  1
  Si  Si12  1  0.251063  0.498120  0.747057  1
  Si  Si13  1  0.339562  0.828862  0.505747  1
  Si  Si14  1  0.660502  0.165080  0.489336  1
  Si  Si15  1  0.823116  0.828862  0.989301  1
  Si  Si16  1  0.175744  0.165080  0.004578  1
  B  B17  1  0.749759  0.496371  0.246612  1
