# generated using pymatgen
data_CsTbPr5(CBr6)2
_symmetry_space_group_name_H-M   'P 1'
_cell_length_a   9.22794353
_cell_length_b   9.23126414
_cell_length_c   9.71044594
_cell_angle_alpha   71.85193921
_cell_angle_beta   70.60010121
_cell_angle_gamma   72.37966788
_symmetry_Int_Tables_number   1
_chemical_formula_structural   CsTbPr5(CBr6)2
_chemical_formula_sum   'Cs1 Tb1 Pr5 C2 Br12'
_cell_volume   722.86078967
_cell_formula_units_Z   1
loop_
 _symmetry_equiv_pos_site_id
 _symmetry_equiv_pos_as_xyz
  1  'x, y, z'
loop_
 _atom_site_type_symbol
 _atom_site_label
 _atom_site_symmetry_multiplicity
 _atom_site_fract_x
 _atom_site_fract_y
 _atom_site_fract_z
 _atom_site_occupancy
  Cs  Cs0  1  0.000749  0.499461  0.999916  1
  Tb  Tb1  1  0.475620  0.115993  0.186783  1
  Pr  Pr2  1  0.784377  0.032779  0.403811  1
  Pr  Pr3  1  0.596726  0.718534  0.473859  1
  Pr  Pr4  1  0.403654  0.281497  0.526721  1
  Pr  Pr5  1  0.215689  0.967745  0.594275  1
  Pr  Pr6  1  0.523463  0.882216  0.820150  1
  C  C7  1  0.493966  0.027180  0.423474  1
  C  C8  1  0.506120  0.974553  0.572985  1
  Br  Br9  1  0.788748  0.160653  0.081271  1
  Br  Br10  1  0.583451  0.795512  0.143519  1
  Br  Br11  1  0.353734  0.426196  0.219716  1
  Br  Br12  1  0.144872  0.074739  0.288238  1
  Br  Br13  1  0.929254  0.720179  0.351675  1
  Br  Br14  1  0.717277  0.366784  0.427396  1
  Br  Br15  1  0.283177  0.633020  0.571690  1
  Br  Br16  1  0.071558  0.280042  0.648203  1
  Br  Br17  1  0.863443  0.926535  0.706392  1
  Br  Br18  1  0.650724  0.563997  0.776636  1
  Br  Br19  1  0.414502  0.213837  0.864014  1
  Br  Br20  1  0.198904  0.838546  0.919276  1
