# generated using pymatgen
data_DyHo9Ir3Os
_symmetry_space_group_name_H-M   'P 1'
_cell_length_a   6.45977288
_cell_length_b   7.22962369
_cell_length_c   8.42416497
_cell_angle_alpha   96.48736216
_cell_angle_beta   112.28199594
_cell_angle_gamma   89.95171249
_symmetry_Int_Tables_number   1
_chemical_formula_structural   DyHo9Ir3Os
_chemical_formula_sum   'Dy1 Ho9 Ir3 Os1'
_cell_volume   361.33710902
_cell_formula_units_Z   1
loop_
 _symmetry_equiv_pos_site_id
 _symmetry_equiv_pos_as_xyz
  1  'x, y, z'
loop_
 _atom_site_type_symbol
 _atom_site_label
 _atom_site_symmetry_multiplicity
 _atom_site_fract_x
 _atom_site_fract_y
 _atom_site_fract_z
 _atom_site_occupancy
  Dy  Dy0  1  0.971715  0.916524  0.183271  1
  Ho  Ho1  1  0.790529  0.582730  0.821323  1
  Ho  Ho2  1  0.028219  0.083074  0.817956  1
  Ho  Ho3  1  0.210269  0.417809  0.183228  1
  Ho  Ho4  1  0.656006  0.817005  0.439871  1
  Ho  Ho5  1  0.211129  0.681541  0.557638  1
  Ho  Ho6  1  0.345995  0.181946  0.559641  1
  Ho  Ho7  1  0.786120  0.319017  0.439535  1
  Ho  Ho8  1  0.426799  0.749484  0.000236  1
  Ho  Ho9  1  0.574825  0.251492  0.000524  1
  Ir  Ir10  1  0.606257  0.926892  0.779302  1
  Ir  Ir11  1  0.173018  0.425350  0.780284  1
  Ir  Ir12  1  0.393216  0.073941  0.220011  1
  Os  Os13  1  0.825902  0.573193  0.217179  1
