# generated using pymatgen
data_Rb(Ti3Te4)4
_symmetry_space_group_name_H-M   'P 1'
_cell_length_a   7.69632745
_cell_length_b   10.67048629
_cell_length_c   11.32889971
_cell_angle_alpha   118.06847560
_cell_angle_beta   109.82841228
_cell_angle_gamma   90.03914478
_symmetry_Int_Tables_number   1
_chemical_formula_structural   Rb(Ti3Te4)4
_chemical_formula_sum   'Rb1 Ti12 Te16'
_cell_volume   757.73823276
_cell_formula_units_Z   1
loop_
 _symmetry_equiv_pos_site_id
 _symmetry_equiv_pos_as_xyz
  1  'x, y, z'
loop_
 _atom_site_type_symbol
 _atom_site_label
 _atom_site_symmetry_multiplicity
 _atom_site_fract_x
 _atom_site_fract_y
 _atom_site_fract_z
 _atom_site_occupancy
  Rb  Rb0  1  0.500000  0.000000  0.000000  1
  Ti  Ti1  1  0.123645  0.130752  0.492259  1
  Ti  Ti2  1  0.619719  0.129145  0.493856  1
  Ti  Ti3  1  0.308835  0.362656  0.869728  1
  Ti  Ti4  1  0.811461  0.363975  0.869259  1
  Ti  Ti5  1  0.190600  0.506204  0.635118  1
  Ti  Ti6  1  0.696639  0.507875  0.638539  1
  Ti  Ti7  1  0.380281  0.870855  0.506144  1
  Ti  Ti8  1  0.876355  0.869248  0.507741  1
  Ti  Ti9  1  0.188539  0.636025  0.130741  1
  Ti  Ti10  1  0.691165  0.637344  0.130272  1
  Ti  Ti11  1  0.303361  0.492125  0.361461  1
  Ti  Ti12  1  0.809400  0.493796  0.364882  1
  Te  Te13  1  0.727139  0.052128  0.704926  1
  Te  Te14  1  0.224031  0.051858  0.700752  1
  Te  Te15  1  0.850368  0.652892  0.948773  1
  Te  Te16  1  0.347187  0.649347  0.947937  1
  Te  Te17  1  0.549026  0.298835  0.350955  1
  Te  Te18  1  0.048178  0.294885  0.346220  1
  Te  Te19  1  0.775969  0.948142  0.299248  1
  Te  Te20  1  0.272861  0.947872  0.295074  1
  Te  Te21  1  0.652813  0.350653  0.052063  1
  Te  Te22  1  0.149632  0.347108  0.051227  1
  Te  Te23  1  0.951822  0.705115  0.653780  1
  Te  Te24  1  0.450974  0.701165  0.649045  1
  Te  Te25  1  0.957913  0.332091  0.665302  1
  Te  Te26  1  0.458578  0.334516  0.667143  1
  Te  Te27  1  0.541422  0.665484  0.332857  1
  Te  Te28  1  0.042087  0.667909  0.334698  1
