# generated using pymatgen
data_Dy3Ho17Ir5Rh7
_symmetry_space_group_name_H-M   'P 1'
_cell_length_a   10.85562114
_cell_length_b   10.85589831
_cell_length_c   6.36053901
_cell_angle_alpha   89.98827178
_cell_angle_beta   89.99776685
_cell_angle_gamma   90.06887528
_symmetry_Int_Tables_number   1
_chemical_formula_structural   Dy3Ho17Ir5Rh7
_chemical_formula_sum   'Dy3 Ho17 Ir5 Rh7'
_cell_volume   749.57318552
_cell_formula_units_Z   1
loop_
 _symmetry_equiv_pos_site_id
 _symmetry_equiv_pos_as_xyz
  1  'x, y, z'
loop_
 _atom_site_type_symbol
 _atom_site_label
 _atom_site_symmetry_multiplicity
 _atom_site_fract_x
 _atom_site_fract_y
 _atom_site_fract_z
 _atom_site_occupancy
  Dy  Dy0  1  0.290639  0.088348  0.378050  1
  Dy  Dy1  1  0.290629  0.909598  0.879382  1
  Dy  Dy2  1  0.708847  0.089894  0.878946  1
  Ho  Ho3  1  0.708247  0.909842  0.378428  1
  Ho  Ho4  1  0.587691  0.789748  0.879548  1
  Ho  Ho5  1  0.587388  0.210045  0.379268  1
  Ho  Ho6  1  0.410971  0.790132  0.379532  1
  Ho  Ho7  1  0.412274  0.210075  0.879165  1
  Ho  Ho8  1  0.210045  0.412555  0.620473  1
  Ho  Ho9  1  0.209644  0.589143  0.120442  1
  Ho  Ho10  1  0.790085  0.412783  0.120707  1
  Ho  Ho11  1  0.790190  0.587690  0.620793  1
  Ho  Ho12  1  0.911816  0.709149  0.121712  1
  Ho  Ho13  1  0.910233  0.291563  0.620680  1
  Ho  Ho14  1  0.090134  0.709010  0.620144  1
  Ho  Ho15  1  0.089817  0.291872  0.121392  1
  Ho  Ho16  1  0.999782  0.999690  0.500263  1
  Ho  Ho17  1  0.000197  0.999972  0.000056  1
  Ho  Ho18  1  0.499895  0.499696  0.000257  1
  Ho  Ho19  1  0.500369  0.500134  0.499878  1
  Ir  Ir20  1  0.152913  0.846348  0.250394  1
  Ir  Ir21  1  0.654506  0.345795  0.749857  1
  Ir  Ir22  1  0.654859  0.654379  0.249722  1
  Ir  Ir23  1  0.345669  0.345518  0.250151  1
  Ir  Ir24  1  0.346217  0.653528  0.749832  1
  Rh  Rh25  1  0.846899  0.153381  0.250481  1
  Rh  Rh26  1  0.845982  0.846461  0.749778  1
  Rh  Rh27  1  0.153073  0.154466  0.750437  1
  Rh  Rh28  1  0.500813  0.000141  0.123261  1
  Rh  Rh29  1  0.500688  0.000135  0.623506  1
  Rh  Rh30  1  0.999754  0.499511  0.876403  1
  Rh  Rh31  1  0.999733  0.499400  0.377064  1
