# generated using pymatgen
data_Er2Lu2MoI4
_symmetry_space_group_name_H-M   'P 1'
_cell_length_a   11.32804371
_cell_length_b   11.32804383
_cell_length_c   5.90674101
_cell_angle_alpha   90.37649033
_cell_angle_beta   90.37648539
_cell_angle_gamma   90.02163185
_symmetry_Int_Tables_number   1
_chemical_formula_structural   Er2Lu2MoI4
_chemical_formula_sum   'Er4 Lu4 Mo2 I8'
_cell_volume   757.94723946
_cell_formula_units_Z   2
loop_
 _symmetry_equiv_pos_site_id
 _symmetry_equiv_pos_as_xyz
  1  'x, y, z'
loop_
 _atom_site_type_symbol
 _atom_site_label
 _atom_site_symmetry_multiplicity
 _atom_site_fract_x
 _atom_site_fract_y
 _atom_site_fract_z
 _atom_site_occupancy
  Er  Er0  1  0.794807  0.916155  0.496086  1
  Er  Er1  1  0.205193  0.083845  0.503914  1
  Er  Er2  1  0.083845  0.205193  0.003914  1
  Er  Er3  1  0.916155  0.794807  0.996086  1
  Lu  Lu4  1  0.200684  0.916872  0.002155  1
  Lu  Lu5  1  0.799316  0.083128  0.997845  1
  Lu  Lu6  1  0.083128  0.799316  0.497845  1
  Lu  Lu7  1  0.916872  0.200684  0.502155  1
  Mo  Mo8  1  0.999908  0.000092  0.250000  1
  Mo  Mo9  1  0.000092  0.999908  0.750000  1
  I  I10  1  0.357592  0.847987  0.496640  1
  I  I11  1  0.642408  0.152013  0.503360  1
  I  I12  1  0.152013  0.642408  0.003360  1
  I  I13  1  0.847987  0.357592  0.996640  1
  I  I14  1  0.358938  0.149559  0.008712  1
  I  I15  1  0.641062  0.850441  0.991288  1
  I  I16  1  0.850441  0.641062  0.491288  1
  I  I17  1  0.149559  0.358938  0.508712  1
