# generated using pymatgen
data_Yb4FeCoRu6
_symmetry_space_group_name_H-M   'P 1'
_cell_length_a   5.13806702
_cell_length_b   5.20073862
_cell_length_c   8.69098000
_cell_angle_alpha   90.00000000
_cell_angle_beta   90.00000000
_cell_angle_gamma   119.59816813
_symmetry_Int_Tables_number   1
_chemical_formula_structural   Yb4FeCoRu6
_chemical_formula_sum   'Yb4 Fe1 Co1 Ru6'
_cell_volume   201.93355164
_cell_formula_units_Z   1
loop_
 _symmetry_equiv_pos_site_id
 _symmetry_equiv_pos_as_xyz
  1  'x, y, z'
loop_
 _atom_site_type_symbol
 _atom_site_label
 _atom_site_symmetry_multiplicity
 _atom_site_fract_x
 _atom_site_fract_y
 _atom_site_fract_z
 _atom_site_occupancy
  Yb  Yb0  1  0.667020  0.334034  0.566404  1
  Yb  Yb1  1  0.332116  0.664259  0.437461  1
  Yb  Yb2  1  0.332116  0.664259  0.062539  1
  Yb  Yb3  1  0.667020  0.334034  0.933596  1
  Fe  Fe4  1  0.834374  0.668735  0.250000  1
  Co  Co5  1  0.167971  0.335932  0.750000  1
  Ru  Ru6  1  0.998206  0.996446  0.500072  1
  Ru  Ru7  1  0.998206  0.996446  0.999928  1
  Ru  Ru8  1  0.176667  0.831938  0.750000  1
  Ru  Ru9  1  0.655287  0.831934  0.750000  1
  Ru  Ru10  1  0.825016  0.170977  0.250000  1
  Ru  Ru11  1  0.345999  0.171005  0.250000  1
