# generated using pymatgen
data_Lu3Co8P6W
_symmetry_space_group_name_H-M   'P 1'
_cell_length_a   3.69265400
_cell_length_b   10.49646000
_cell_length_c   12.16082200
_cell_angle_alpha   90.00000000
_cell_angle_beta   90.00000000
_cell_angle_gamma   90.00000000
_symmetry_Int_Tables_number   1
_chemical_formula_structural   Lu3Co8P6W
_chemical_formula_sum   'Lu6 Co16 P12 W2'
_cell_volume   471.35096781
_cell_formula_units_Z   2
loop_
 _symmetry_equiv_pos_site_id
 _symmetry_equiv_pos_as_xyz
  1  'x, y, z'
loop_
 _atom_site_type_symbol
 _atom_site_label
 _atom_site_symmetry_multiplicity
 _atom_site_fract_x
 _atom_site_fract_y
 _atom_site_fract_z
 _atom_site_occupancy
  Lu  Lu0  1  0.000000  0.500000  0.525791  1
  Lu  Lu1  1  0.500000  0.000000  0.474209  1
  Lu  Lu2  1  0.500000  0.820359  0.205266  1
  Lu  Lu3  1  0.500000  0.179641  0.205266  1
  Lu  Lu4  1  0.000000  0.679641  0.794734  1
  Lu  Lu5  1  0.000000  0.320359  0.794734  1
  Co  Co6  1  0.500000  0.500000  0.700887  1
  Co  Co7  1  0.000000  0.000000  0.299113  1
  Co  Co8  1  0.000000  0.500000  0.987111  1
  Co  Co9  1  0.500000  0.000000  0.012889  1
  Co  Co10  1  0.500000  0.332739  0.990002  1
  Co  Co11  1  0.500000  0.667261  0.990002  1
  Co  Co12  1  0.000000  0.167261  0.009998  1
  Co  Co13  1  0.000000  0.832739  0.009998  1
  Co  Co14  1  0.500000  0.296318  0.431973  1
  Co  Co15  1  0.500000  0.703682  0.431973  1
  Co  Co16  1  0.000000  0.203682  0.568027  1
  Co  Co17  1  0.000000  0.796318  0.568027  1
  Co  Co18  1  0.500000  0.876997  0.706243  1
  Co  Co19  1  0.500000  0.123003  0.706243  1
  Co  Co20  1  0.000000  0.623003  0.293757  1
  Co  Co21  1  0.000000  0.376997  0.293757  1
  P  P22  1  0.500000  0.500000  0.879134  1
  P  P23  1  0.000000  0.000000  0.120866  1
  P  P24  1  0.500000  0.500000  0.353425  1
  P  P25  1  0.000000  0.000000  0.646575  1
  P  P26  1  0.500000  0.313330  0.616702  1
  P  P27  1  0.500000  0.686670  0.616702  1
  P  P28  1  0.000000  0.186670  0.383298  1
  P  P29  1  0.000000  0.813330  0.383298  1
  P  P30  1  0.500000  0.842951  0.891090  1
  P  P31  1  0.500000  0.157049  0.891090  1
  P  P32  1  0.000000  0.657049  0.108910  1
  P  P33  1  0.000000  0.342951  0.108910  1
  W  W34  1  0.500000  0.500000  0.157918  1
  W  W35  1  0.000000  0.000000  0.842082  1
