# generated using pymatgen
data_YbCe(ThPt2)2
_symmetry_space_group_name_H-M   'P 1'
_cell_length_a   4.54101900
_cell_length_b   5.75267129
_cell_length_c   7.22447200
_cell_angle_alpha   88.43228236
_cell_angle_beta   90.00000000
_cell_angle_gamma   90.00000000
_symmetry_Int_Tables_number   1
_chemical_formula_structural   YbCe(ThPt2)2
_chemical_formula_sum   'Yb1 Ce1 Th2 Pt4'
_cell_volume   188.65416530
_cell_formula_units_Z   1
loop_
 _symmetry_equiv_pos_site_id
 _symmetry_equiv_pos_as_xyz
  1  'x, y, z'
loop_
 _atom_site_type_symbol
 _atom_site_label
 _atom_site_symmetry_multiplicity
 _atom_site_fract_x
 _atom_site_fract_y
 _atom_site_fract_z
 _atom_site_occupancy
  Yb  Yb0  1  0.250000  0.353646  0.682789  1
  Ce  Ce1  1  0.750000  0.641375  0.320622  1
  Th  Th2  1  0.250000  0.146663  0.182218  1
  Th  Th3  1  0.750000  0.854912  0.812654  1
  Pt  Pt4  1  0.750000  0.158399  0.452094  1
  Pt  Pt5  1  0.250000  0.840640  0.544988  1
  Pt  Pt6  1  0.250000  0.669720  0.047539  1
  Pt  Pt7  1  0.750000  0.334645  0.957097  1
