# generated using pymatgen
data_Nd2Fe8P7Ru4
_symmetry_space_group_name_H-M   'P 1'
_cell_length_a   9.14849931
_cell_length_b   9.15556734
_cell_length_c   3.77967400
_cell_angle_alpha   90.00000000
_cell_angle_beta   90.00000000
_cell_angle_gamma   120.28002171
_symmetry_Int_Tables_number   1
_chemical_formula_structural   Nd2Fe8P7Ru4
_chemical_formula_sum   'Nd2 Fe8 P7 Ru4'
_cell_volume   273.39321055
_cell_formula_units_Z   1
loop_
 _symmetry_equiv_pos_site_id
 _symmetry_equiv_pos_as_xyz
  1  'x, y, z'
loop_
 _atom_site_type_symbol
 _atom_site_label
 _atom_site_symmetry_multiplicity
 _atom_site_fract_x
 _atom_site_fract_y
 _atom_site_fract_z
 _atom_site_occupancy
  Nd  Nd0  1  0.662889  0.329296  0.000000  1
  Nd  Nd1  1  0.336817  0.667522  0.500000  1
  Fe  Fe2  1  0.423996  0.056542  0.500000  1
  Fe  Fe3  1  0.941252  0.361853  0.500000  1
  Fe  Fe4  1  0.632209  0.577199  0.500000  1
  Fe  Fe5  1  0.153978  0.272671  0.500000  1
  Fe  Fe6  1  0.725319  0.880443  0.500000  1
  Fe  Fe7  1  0.119537  0.850392  0.500000  1
  Fe  Fe8  1  0.386328  0.435538  0.000000  1
  Fe  Fe9  1  0.565318  0.948945  0.000000  1
  P  P10  1  0.115199  0.395794  0.000000  1
  P  P11  1  0.597741  0.709764  0.000000  1
  P  P12  1  0.296383  0.895750  0.000000  1
  P  P13  1  0.998798  0.000528  0.500000  1
  P  P14  1  0.411114  0.307546  0.500000  1
  P  P15  1  0.692549  0.103285  0.500000  1
  P  P16  1  0.888385  0.588634  0.500000  1
  Ru  Ru17  1  0.050990  0.613889  0.000000  1
  Ru  Ru18  1  0.217423  0.099296  0.000000  1
  Ru  Ru19  1  0.902503  0.115371  0.000000  1
  Ru  Ru20  1  0.881273  0.789741  0.000000  1
