# generated using pymatgen
data_CsSr2CoH12Pt
_symmetry_space_group_name_H-M   'P 1'
_cell_length_a   5.38431500
_cell_length_b   5.38431562
_cell_length_c   9.46602200
_cell_angle_alpha   90.00000000
_cell_angle_beta   90.00000000
_cell_angle_gamma   120.00000233
_symmetry_Int_Tables_number   1
_chemical_formula_structural   CsSr2CoH12Pt
_chemical_formula_sum   'Cs1 Sr2 Co1 H12 Pt1'
_cell_volume   237.66164578
_cell_formula_units_Z   1
loop_
 _symmetry_equiv_pos_site_id
 _symmetry_equiv_pos_as_xyz
  1  'x, y, z'
loop_
 _atom_site_type_symbol
 _atom_site_label
 _atom_site_symmetry_multiplicity
 _atom_site_fract_x
 _atom_site_fract_y
 _atom_site_fract_z
 _atom_site_occupancy
  Cs  Cs0  1  0.000000  0.000000  0.973289  1
  Sr  Sr1  1  0.666667  0.333333  0.390068  1
  Sr  Sr2  1  0.333333  0.666667  0.650924  1
  Co  Co3  1  0.666667  0.333333  0.712586  1
  H  H4  1  0.184824  0.815176  0.381557  1
  H  H5  1  0.630352  0.815176  0.381557  1
  H  H6  1  0.184824  0.369648  0.381557  1
  H  H7  1  0.807734  0.192266  0.621410  1
  H  H8  1  0.384533  0.192266  0.621410  1
  H  H9  1  0.807734  0.615467  0.621410  1
  H  H10  1  0.538973  0.077945  0.815303  1
  H  H11  1  0.538973  0.461027  0.815303  1
  H  H12  1  0.922055  0.461027  0.815303  1
  H  H13  1  0.472540  0.945077  0.178218  1
  H  H14  1  0.472540  0.527460  0.178218  1
  H  H15  1  0.054923  0.527460  0.178218  1
  Pt  Pt16  1  0.333333  0.666667  0.283664  1
