# generated using pymatgen
data_SmNbB6Os
_symmetry_space_group_name_H-M   'P 1'
_cell_length_a   3.54271000
_cell_length_b   9.05448900
_cell_length_c   11.39064100
_cell_angle_alpha   90.00000000
_cell_angle_beta   90.00000000
_cell_angle_gamma   90.00000000
_symmetry_Int_Tables_number   1
_chemical_formula_structural   SmNbB6Os
_chemical_formula_sum   'Sm4 Nb4 B24 Os4'
_cell_volume   365.38247481
_cell_formula_units_Z   4
loop_
 _symmetry_equiv_pos_site_id
 _symmetry_equiv_pos_as_xyz
  1  'x, y, z'
loop_
 _atom_site_type_symbol
 _atom_site_label
 _atom_site_symmetry_multiplicity
 _atom_site_fract_x
 _atom_site_fract_y
 _atom_site_fract_z
 _atom_site_occupancy
  Sm  Sm0  1  0.000000  0.323369  0.413553  1
  Sm  Sm1  1  0.000000  0.676631  0.586447  1
  Sm  Sm2  1  0.000000  0.823369  0.086447  1
  Sm  Sm3  1  0.000000  0.176631  0.913553  1
  Nb  Nb4  1  0.000000  0.946801  0.377059  1
  Nb  Nb5  1  0.000000  0.053199  0.622941  1
  Nb  Nb6  1  0.000000  0.446801  0.122941  1
  Nb  Nb7  1  0.000000  0.553199  0.877059  1
  B  B8  1  0.500000  0.555516  0.432474  1
  B  B9  1  0.500000  0.444484  0.567526  1
  B  B10  1  0.500000  0.055516  0.067526  1
  B  B11  1  0.500000  0.944484  0.932474  1
  B  B12  1  0.500000  0.754417  0.417583  1
  B  B13  1  0.500000  0.245583  0.582417  1
  B  B14  1  0.500000  0.254417  0.082417  1
  B  B15  1  0.500000  0.745583  0.917583  1
  B  B16  1  0.500000  0.797437  0.263864  1
  B  B17  1  0.500000  0.202563  0.736135  1
  B  B18  1  0.500000  0.297437  0.236136  1
  B  B19  1  0.500000  0.702563  0.763865  1
  B  B20  1  0.500000  0.628760  0.181577  1
  B  B21  1  0.500000  0.371240  0.818423  1
  B  B22  1  0.500000  0.128760  0.318423  1
  B  B23  1  0.500000  0.871240  0.681577  1
  B  B24  1  0.500000  0.981810  0.214748  1
  B  B25  1  0.500000  0.018190  0.785252  1
  B  B26  1  0.500000  0.481810  0.285252  1
  B  B27  1  0.500000  0.518190  0.714748  1
  B  B28  1  0.500000  0.599301  0.026459  1
  B  B29  1  0.500000  0.400699  0.973541  1
  B  B30  1  0.500000  0.099301  0.473541  1
  B  B31  1  0.500000  0.900699  0.526459  1
  Os  Os32  1  0.000000  0.643963  0.316790  1
  Os  Os33  1  0.000000  0.356037  0.683210  1
  Os  Os34  1  0.000000  0.143963  0.183210  1
  Os  Os35  1  0.000000  0.856037  0.816790  1
