# generated using pymatgen
data_Sr6NpPtO12
_symmetry_space_group_name_H-M   'P 1'
_cell_length_a   6.98853570
_cell_length_b   6.98853542
_cell_length_c   6.98853637
_cell_angle_alpha   94.13290418
_cell_angle_beta   94.13290153
_cell_angle_gamma   94.13290801
_symmetry_Int_Tables_number   1
_chemical_formula_structural   Sr6NpPtO12
_chemical_formula_sum   'Sr6 Np1 Pt1 O12'
_cell_volume   338.51901627
_cell_formula_units_Z   1
loop_
 _symmetry_equiv_pos_site_id
 _symmetry_equiv_pos_as_xyz
  1  'x, y, z'
loop_
 _atom_site_type_symbol
 _atom_site_label
 _atom_site_symmetry_multiplicity
 _atom_site_fract_x
 _atom_site_fract_y
 _atom_site_fract_z
 _atom_site_occupancy
  Sr  Sr0  1  0.080420  0.273338  0.571059  1
  Sr  Sr1  1  0.428941  0.919580  0.726662  1
  Sr  Sr2  1  0.726662  0.428941  0.919580  1
  Sr  Sr3  1  0.273338  0.571059  0.080420  1
  Sr  Sr4  1  0.571059  0.080420  0.273338  1
  Sr  Sr5  1  0.919580  0.726662  0.428941  1
  Np  Np6  1  0.000000  0.000000  0.000000  1
  Pt  Pt7  1  0.500000  0.500000  0.500000  1
  O  O8  1  0.059044  0.280433  0.946815  1
  O  O9  1  0.053185  0.940956  0.719567  1
  O  O10  1  0.447654  0.577177  0.778306  1
  O  O11  1  0.719567  0.053185  0.940956  1
  O  O12  1  0.221694  0.552346  0.422823  1
  O  O13  1  0.422823  0.221694  0.552346  1
  O  O14  1  0.577177  0.778306  0.447654  1
  O  O15  1  0.778306  0.447654  0.577177  1
  O  O16  1  0.280433  0.946815  0.059044  1
  O  O17  1  0.552346  0.422823  0.221694  1
  O  O18  1  0.946815  0.059044  0.280433  1
  O  O19  1  0.940956  0.719567  0.053185  1
