# generated using pymatgen
data_Ba4LiSmU2O12
_symmetry_space_group_name_H-M   'P 1'
_cell_length_a   6.10265733
_cell_length_b   6.14784928
_cell_length_c   8.85812557
_cell_angle_alpha   89.92373056
_cell_angle_beta   90.44554253
_cell_angle_gamma   89.91542429
_symmetry_Int_Tables_number   1
_chemical_formula_structural   Ba4LiSmU2O12
_chemical_formula_sum   'Ba4 Li1 Sm1 U2 O12'
_cell_volume   332.33037201
_cell_formula_units_Z   1
loop_
 _symmetry_equiv_pos_site_id
 _symmetry_equiv_pos_as_xyz
  1  'x, y, z'
loop_
 _atom_site_type_symbol
 _atom_site_label
 _atom_site_symmetry_multiplicity
 _atom_site_fract_x
 _atom_site_fract_y
 _atom_site_fract_z
 _atom_site_occupancy
  Ba  Ba0  1  0.009150  0.999534  0.732209  1
  Ba  Ba1  1  0.494101  0.501576  0.267742  1
  Ba  Ba2  1  0.505899  0.498424  0.732258  1
  Ba  Ba3  1  0.990851  0.000466  0.267791  1
  Li  Li4  1  0.500000  0.000000  0.500000  1
  Sm  Sm5  1  0.000000  0.500000  0.000000  1
  U  U6  1  0.000000  0.500000  0.500000  1
  U  U7  1  0.500000  0.000000  0.000000  1
  O  O8  1  0.206489  0.183782  0.028423  1
  O  O9  1  0.509663  0.948594  0.227560  1
  O  O10  1  0.763836  0.261362  0.476131  1
  O  O11  1  0.684842  0.291939  0.028492  1
  O  O12  1  0.759971  0.734358  0.520842  1
  O  O13  1  0.006092  0.553121  0.258292  1
  O  O14  1  0.240029  0.265642  0.479158  1
  O  O15  1  0.315158  0.708061  0.971508  1
  O  O16  1  0.236164  0.738638  0.523869  1
  O  O17  1  0.490337  0.051406  0.772440  1
  O  O18  1  0.793511  0.816218  0.971577  1
  O  O19  1  0.993908  0.446879  0.741708  1
