# generated using pymatgen
data_Tb2Pr3(ThS4)3
_symmetry_space_group_name_H-M   'P 1'
_cell_length_a   4.01567000
_cell_length_b   10.62690486
_cell_length_c   10.93018339
_cell_angle_alpha   89.98149480
_cell_angle_beta   90.00000000
_cell_angle_gamma   90.00000000
_symmetry_Int_Tables_number   1
_chemical_formula_structural   Tb2Pr3(ThS4)3
_chemical_formula_sum   'Tb2 Pr3 Th3 S12'
_cell_volume   466.43618497
_cell_formula_units_Z   1
loop_
 _symmetry_equiv_pos_site_id
 _symmetry_equiv_pos_as_xyz
  1  'x, y, z'
loop_
 _atom_site_type_symbol
 _atom_site_label
 _atom_site_symmetry_multiplicity
 _atom_site_fract_x
 _atom_site_fract_y
 _atom_site_fract_z
 _atom_site_occupancy
  Tb  Tb0  1  0.750000  0.311380  0.510750  1
  Tb  Tb1  1  0.750000  0.186349  0.011714  1
  Pr  Pr2  1  0.250000  0.011943  0.309245  1
  Pr  Pr3  1  0.750000  0.998465  0.694089  1
  Pr  Pr4  1  0.750000  0.496617  0.196324  1
  Th  Th5  1  0.250000  0.495120  0.809355  1
  Th  Th6  1  0.250000  0.684906  0.485528  1
  Th  Th7  1  0.250000  0.814354  0.987803  1
  S  S8  1  0.250000  0.057305  0.882622  1
  S  S9  1  0.750000  0.948135  0.118884  1
  S  S10  1  0.750000  0.551382  0.620543  1
  S  S11  1  0.250000  0.441915  0.384909  1
  S  S12  1  0.250000  0.135173  0.548632  1
  S  S13  1  0.750000  0.871955  0.451756  1
  S  S14  1  0.750000  0.625946  0.949047  1
  S  S15  1  0.250000  0.367815  0.041794  1
  S  S16  1  0.250000  0.701663  0.225500  1
  S  S17  1  0.750000  0.300042  0.774320  1
  S  S18  1  0.750000  0.209707  0.268910  1
  S  S19  1  0.250000  0.789825  0.728276  1
