# generated using pymatgen
data_Nd5NbRuO12
_symmetry_space_group_name_H-M   'P 1'
_cell_length_a   7.05955527
_cell_length_b   7.05955600
_cell_length_c   7.77908328
_cell_angle_alpha   74.01116859
_cell_angle_beta   74.01116849
_cell_angle_gamma   50.31392272
_symmetry_Int_Tables_number   1
_chemical_formula_structural   Nd5NbRuO12
_chemical_formula_sum   'Nd5 Nb1 Ru1 O12'
_cell_volume   284.19746177
_cell_formula_units_Z   1
loop_
 _symmetry_equiv_pos_site_id
 _symmetry_equiv_pos_as_xyz
  1  'x, y, z'
loop_
 _atom_site_type_symbol
 _atom_site_label
 _atom_site_symmetry_multiplicity
 _atom_site_fract_x
 _atom_site_fract_y
 _atom_site_fract_z
 _atom_site_occupancy
  Nd  Nd0  1  0.301786  0.311687  0.358661  1
  Nd  Nd1  1  0.688313  0.698214  0.641339  1
  Nd  Nd2  1  0.683658  0.694887  0.170472  1
  Nd  Nd3  1  0.305113  0.316342  0.829528  1
  Nd  Nd4  1  0.999197  0.000803  0.500000  1
  Nb  Nb5  1  0.792594  0.207406  0.000000  1
  Ru  Ru6  1  0.246473  0.753527  0.000000  1
  O  O7  1  0.091991  0.596436  0.577184  1
  O  O8  1  0.003494  0.994784  0.193649  1
  O  O9  1  0.403564  0.908009  0.422816  1
  O  O10  1  0.503753  0.496460  0.173444  1
  O  O11  1  0.092896  0.587052  0.079782  1
  O  O12  1  0.899987  0.409369  0.422251  1
  O  O13  1  0.005216  0.996506  0.806351  1
  O  O14  1  0.590631  0.100012  0.577749  1
  O  O15  1  0.503540  0.496247  0.826556  1
  O  O16  1  0.576493  0.101646  0.079517  1
  O  O17  1  0.412948  0.907104  0.920218  1
  O  O18  1  0.898354  0.423507  0.920483  1
