# generated using pymatgen
data_Ga2Co(SeO3)4
_symmetry_space_group_name_H-M   'P 1'
_cell_length_a   4.69822000
_cell_length_b   8.54907931
_cell_length_c   15.08878000
_cell_angle_alpha   70.86506447
_cell_angle_beta   89.99981707
_cell_angle_gamma   89.99987972
_symmetry_Int_Tables_number   1
_chemical_formula_structural   Ga2Co(SeO3)4
_chemical_formula_sum   'Ga4 Co2 Se8 O24'
_cell_volume   572.56311012
_cell_formula_units_Z   2
loop_
 _symmetry_equiv_pos_site_id
 _symmetry_equiv_pos_as_xyz
  1  'x, y, z'
loop_
 _atom_site_type_symbol
 _atom_site_label
 _atom_site_symmetry_multiplicity
 _atom_site_fract_x
 _atom_site_fract_y
 _atom_site_fract_z
 _atom_site_occupancy
  Ga  Ga0  1  0.526546  0.142981  0.791162  1
  Ga  Ga1  1  0.973444  0.142991  0.291164  1
  Ga  Ga2  1  0.473454  0.857019  0.208838  1
  Ga  Ga3  1  0.026556  0.857009  0.708836  1
  Co  Co4  1  0.000000  0.000000  0.000000  1
  Co  Co5  1  0.500000  0.000000  0.500000  1
  Se  Se6  1  0.568570  0.786682  0.881876  1
  Se  Se7  1  0.931430  0.786687  0.381876  1
  Se  Se8  1  0.431430  0.213318  0.118124  1
  Se  Se9  1  0.068570  0.213313  0.618124  1
  Se  Se10  1  0.010207  0.339155  0.869716  1
  Se  Se11  1  0.489792  0.339165  0.369723  1
  Se  Se12  1  0.989793  0.660845  0.130284  1
  Se  Se13  1  0.510208  0.660835  0.630277  1
  O  O14  1  0.746938  0.333568  0.790232  1
  O  O15  1  0.753031  0.333574  0.290231  1
  O  O16  1  0.253062  0.666432  0.209768  1
  O  O17  1  0.246969  0.666426  0.709769  1
  O  O18  1  0.831631  0.723709  0.822284  1
  O  O19  1  0.668379  0.723712  0.322287  1
  O  O20  1  0.168369  0.276291  0.177716  1
  O  O21  1  0.331621  0.276288  0.677713  1
  O  O22  1  0.223503  0.163519  0.878079  1
  O  O23  1  0.276474  0.163529  0.378092  1
  O  O24  1  0.776497  0.836481  0.121921  1
  O  O25  1  0.723526  0.836471  0.621908  1
  O  O26  1  0.706823  0.964699  0.900407  1
  O  O27  1  0.793154  0.964706  0.400403  1
  O  O28  1  0.293177  0.035301  0.099593  1
  O  O29  1  0.206846  0.035294  0.599597  1
  O  O30  1  0.350858  0.916953  0.793085  1
  O  O31  1  0.149142  0.916961  0.293086  1
  O  O32  1  0.649142  0.083047  0.206915  1
  O  O33  1  0.850858  0.083039  0.706914  1
  O  O34  1  0.859504  0.242859  0.976839  1
  O  O35  1  0.640540  0.242872  0.476837  1
  O  O36  1  0.140496  0.757141  0.023161  1
  O  O37  1  0.359460  0.757128  0.523163  1
