# generated using pymatgen
data_Ho2Co8CuTcP6
_symmetry_space_group_name_H-M   'P 1'
_cell_length_a   3.69873300
_cell_length_b   10.32856900
_cell_length_c   11.79519700
_cell_angle_alpha   90.00000000
_cell_angle_beta   90.00000000
_cell_angle_gamma   90.00000000
_symmetry_Int_Tables_number   1
_chemical_formula_structural   Ho2Co8CuTcP6
_chemical_formula_sum   'Ho4 Co16 Cu2 Tc2 P12'
_cell_volume   450.60741706
_cell_formula_units_Z   2
loop_
 _symmetry_equiv_pos_site_id
 _symmetry_equiv_pos_as_xyz
  1  'x, y, z'
loop_
 _atom_site_type_symbol
 _atom_site_label
 _atom_site_symmetry_multiplicity
 _atom_site_fract_x
 _atom_site_fract_y
 _atom_site_fract_z
 _atom_site_occupancy
  Ho  Ho0  1  0.250000  0.583235  0.703084  1
  Ho  Ho1  1  0.250000  0.916765  0.203084  1
  Ho  Ho2  1  0.750000  0.416909  0.295612  1
  Ho  Ho3  1  0.750000  0.083091  0.795612  1
  Co  Co4  1  0.250000  0.407551  0.486788  1
  Co  Co5  1  0.250000  0.092449  0.986788  1
  Co  Co6  1  0.750000  0.592759  0.511368  1
  Co  Co7  1  0.750000  0.907241  0.011368  1
  Co  Co8  1  0.250000  0.220405  0.176454  1
  Co  Co9  1  0.250000  0.279595  0.676454  1
  Co  Co10  1  0.750000  0.778510  0.822817  1
  Co  Co11  1  0.750000  0.721490  0.322817  1
  Co  Co12  1  0.250000  0.885106  0.701955  1
  Co  Co13  1  0.250000  0.614894  0.201955  1
  Co  Co14  1  0.750000  0.116524  0.301278  1
  Co  Co15  1  0.750000  0.383476  0.801278  1
  Co  Co16  1  0.250000  0.464074  0.932101  1
  Co  Co17  1  0.250000  0.035926  0.432101  1
  Co  Co18  1  0.750000  0.532822  0.069329  1
  Co  Co19  1  0.750000  0.967178  0.569329  1
  Cu  Cu20  1  0.750000  0.286333  0.009426  1
  Cu  Cu21  1  0.750000  0.213667  0.509426  1
  Tc  Tc22  1  0.250000  0.710538  0.990308  1
  Tc  Tc23  1  0.250000  0.789462  0.490308  1
  P  P24  1  0.250000  0.419950  0.114435  1
  P  P25  1  0.250000  0.080050  0.614435  1
  P  P26  1  0.750000  0.578876  0.887260  1
  P  P27  1  0.750000  0.921124  0.387260  1
  P  P28  1  0.250000  0.269872  0.863753  1
  P  P29  1  0.250000  0.230128  0.363753  1
  P  P30  1  0.750000  0.729640  0.132795  1
  P  P31  1  0.750000  0.770360  0.632795  1
  P  P32  1  0.250000  0.596201  0.391426  1
  P  P33  1  0.250000  0.903799  0.891426  1
  P  P34  1  0.750000  0.400515  0.609814  1
  P  P35  1  0.750000  0.099485  0.109814  1
