# generated using pymatgen
data_DyLuCoB6
_symmetry_space_group_name_H-M   'P 1'
_cell_length_a   3.51939300
_cell_length_b   9.03797400
_cell_length_c   11.38591900
_cell_angle_alpha   90.00000000
_cell_angle_beta   90.00000000
_cell_angle_gamma   90.00000000
_symmetry_Int_Tables_number   1
_chemical_formula_structural   DyLuCoB6
_chemical_formula_sum   'Dy4 Lu4 Co4 B24'
_cell_volume   362.16538868
_cell_formula_units_Z   4
loop_
 _symmetry_equiv_pos_site_id
 _symmetry_equiv_pos_as_xyz
  1  'x, y, z'
loop_
 _atom_site_type_symbol
 _atom_site_label
 _atom_site_symmetry_multiplicity
 _atom_site_fract_x
 _atom_site_fract_y
 _atom_site_fract_z
 _atom_site_occupancy
  Dy  Dy0  1  0.000000  0.823821  0.085636  1
  Dy  Dy1  1  0.000000  0.176179  0.914364  1
  Dy  Dy2  1  0.000000  0.323821  0.414364  1
  Dy  Dy3  1  0.000000  0.676179  0.585636  1
  Lu  Lu4  1  0.000000  0.443747  0.128849  1
  Lu  Lu5  1  0.000000  0.556253  0.871151  1
  Lu  Lu6  1  0.000000  0.943747  0.371151  1
  Lu  Lu7  1  0.000000  0.056253  0.628849  1
  Co  Co8  1  0.000000  0.140781  0.180408  1
  Co  Co9  1  0.000000  0.859219  0.819592  1
  Co  Co10  1  0.000000  0.640781  0.319592  1
  Co  Co11  1  0.000000  0.359219  0.680408  1
  B  B12  1  0.500000  0.054591  0.067590  1
  B  B13  1  0.500000  0.945409  0.932410  1
  B  B14  1  0.500000  0.554591  0.432410  1
  B  B15  1  0.500000  0.445409  0.567590  1
  B  B16  1  0.500000  0.248630  0.082292  1
  B  B17  1  0.500000  0.751370  0.917708  1
  B  B18  1  0.500000  0.748630  0.417708  1
  B  B19  1  0.500000  0.251370  0.582292  1
  B  B20  1  0.500000  0.292662  0.235346  1
  B  B21  1  0.500000  0.707338  0.764654  1
  B  B22  1  0.500000  0.792662  0.264654  1
  B  B23  1  0.500000  0.207338  0.735346  1
  B  B24  1  0.500000  0.133077  0.315615  1
  B  B25  1  0.500000  0.866923  0.684385  1
  B  B26  1  0.500000  0.633077  0.184385  1
  B  B27  1  0.500000  0.366923  0.815615  1
  B  B28  1  0.500000  0.485740  0.287667  1
  B  B29  1  0.500000  0.514260  0.712333  1
  B  B30  1  0.500000  0.985740  0.212333  1
  B  B31  1  0.500000  0.014260  0.787667  1
  B  B32  1  0.500000  0.105161  0.471702  1
  B  B33  1  0.500000  0.894839  0.528298  1
  B  B34  1  0.500000  0.605161  0.028298  1
  B  B35  1  0.500000  0.394839  0.971702  1
