# generated using pymatgen
data_Tb2DyHo3Ir2
_symmetry_space_group_name_H-M   'P 1'
_cell_length_a   6.38470439
_cell_length_b   7.23594300
_cell_length_c   9.22725632
_cell_angle_alpha   90.00000000
_cell_angle_beta   90.16164162
_cell_angle_gamma   90.00000000
_symmetry_Int_Tables_number   1
_chemical_formula_structural   Tb2DyHo3Ir2
_chemical_formula_sum   'Tb4 Dy2 Ho6 Ir4'
_cell_volume   426.29161302
_cell_formula_units_Z   2
loop_
 _symmetry_equiv_pos_site_id
 _symmetry_equiv_pos_as_xyz
  1  'x, y, z'
loop_
 _atom_site_type_symbol
 _atom_site_label
 _atom_site_symmetry_multiplicity
 _atom_site_fract_x
 _atom_site_fract_y
 _atom_site_fract_z
 _atom_site_occupancy
  Tb  Tb0  1  0.868855  0.534153  0.250233  1
  Tb  Tb1  1  0.631145  0.034153  0.249767  1
  Tb  Tb2  1  0.130438  0.465849  0.749911  1
  Tb  Tb3  1  0.369562  0.965849  0.750089  1
  Dy  Dy4  1  0.328201  0.676877  0.062632  1
  Dy  Dy5  1  0.171799  0.176877  0.437368  1
  Ho  Ho6  1  0.671330  0.323485  0.563242  1
  Ho  Ho7  1  0.828670  0.823485  0.936758  1
  Ho  Ho8  1  0.671451  0.323212  0.936810  1
  Ho  Ho9  1  0.828549  0.823212  0.563190  1
  Ho  Ho10  1  0.328844  0.676480  0.437229  1
  Ho  Ho11  1  0.171156  0.176480  0.062771  1
  Ir  Ir12  1  0.048431  0.882893  0.249959  1
  Ir  Ir13  1  0.451569  0.382893  0.250041  1
  Ir  Ir14  1  0.950741  0.117049  0.750815  1
  Ir  Ir15  1  0.549259  0.617049  0.749185  1
