# generated using pymatgen
data_Tb9YIrRu3
_symmetry_space_group_name_H-M   'P 1'
_cell_length_a   6.40715418
_cell_length_b   7.30286486
_cell_length_c   8.53027830
_cell_angle_alpha   96.62122968
_cell_angle_beta   111.89736943
_cell_angle_gamma   90.07462255
_symmetry_Int_Tables_number   1
_chemical_formula_structural   Tb9YIrRu3
_chemical_formula_sum   'Tb9 Y1 Ir1 Ru3'
_cell_volume   367.44490693
_cell_formula_units_Z   1
loop_
 _symmetry_equiv_pos_site_id
 _symmetry_equiv_pos_as_xyz
  1  'x, y, z'
loop_
 _atom_site_type_symbol
 _atom_site_label
 _atom_site_symmetry_multiplicity
 _atom_site_fract_x
 _atom_site_fract_y
 _atom_site_fract_z
 _atom_site_occupancy
  Tb  Tb0  1  0.793778  0.585750  0.813893  1
  Tb  Tb1  1  0.019225  0.086274  0.812751  1
  Tb  Tb2  1  0.204773  0.416200  0.185635  1
  Tb  Tb3  1  0.646990  0.814181  0.435914  1
  Tb  Tb4  1  0.209989  0.684965  0.565582  1
  Tb  Tb5  1  0.355197  0.183864  0.565779  1
  Tb  Tb6  1  0.792167  0.316178  0.435535  1
  Tb  Tb7  1  0.422882  0.748489  0.999238  1
  Tb  Tb8  1  0.576320  0.250020  0.999383  1
  Y  Y9  1  0.976896  0.914754  0.184598  1
  Ir  Ir10  1  0.399156  0.075495  0.222196  1
  Ru  Ru11  1  0.823378  0.573367  0.220574  1
  Ru  Ru12  1  0.605897  0.925777  0.779123  1
  Ru  Ru13  1  0.173352  0.424684  0.779800  1
