# generated using pymatgen
data_Ba2Hf4Zr2BBr17
_symmetry_space_group_name_H-M   'P 1'
_cell_length_a   10.17561533
_cell_length_b   10.17561520
_cell_length_c   10.17561500
_cell_angle_alpha   105.31058022
_cell_angle_beta   105.31058585
_cell_angle_gamma   118.15754304
_symmetry_Int_Tables_number   1
_chemical_formula_structural   Ba2Hf4Zr2BBr17
_chemical_formula_sum   'Ba2 Hf4 Zr2 B1 Br17'
_cell_volume   796.89976318
_cell_formula_units_Z   1
loop_
 _symmetry_equiv_pos_site_id
 _symmetry_equiv_pos_as_xyz
  1  'x, y, z'
loop_
 _atom_site_type_symbol
 _atom_site_label
 _atom_site_symmetry_multiplicity
 _atom_site_fract_x
 _atom_site_fract_y
 _atom_site_fract_z
 _atom_site_occupancy
  Ba  Ba0  1  0.250000  0.750000  0.500000  1
  Ba  Ba1  1  0.750000  0.250000  0.500000  1
  Hf  Hf2  1  0.176503  0.061279  0.237783  1
  Hf  Hf3  1  0.938721  0.176503  0.115224  1
  Hf  Hf4  1  0.823497  0.938721  0.762217  1
  Hf  Hf5  1  0.061279  0.823497  0.884776  1
  Zr  Zr6  1  0.224218  0.224218  0.000000  1
  Zr  Zr7  1  0.775782  0.775782  0.000000  1
  B  B8  1  0.000000  0.000000  0.000000  1
  Br  Br9  1  0.867551  0.725286  0.592836  1
  Br  Br10  1  0.274714  0.867551  0.142265  1
  Br  Br11  1  0.131388  0.598938  0.730327  1
  Br  Br12  1  0.541181  0.673017  0.719015  1
  Br  Br13  1  0.868612  0.401062  0.269673  1
  Br  Br14  1  0.458819  0.326983  0.280985  1
  Br  Br15  1  0.822167  0.541181  0.868165  1
  Br  Br16  1  0.401062  0.131388  0.532449  1
  Br  Br17  1  0.598938  0.868612  0.467551  1
  Br  Br18  1  0.132449  0.274714  0.407164  1
  Br  Br19  1  0.326983  0.045998  0.868165  1
  Br  Br20  1  0.954002  0.822167  0.280985  1
  Br  Br21  1  0.725286  0.132449  0.857735  1
  Br  Br22  1  0.500000  0.500000  0.000000  1
  Br  Br23  1  0.177833  0.458819  0.131835  1
  Br  Br24  1  0.045998  0.177833  0.719015  1
  Br  Br25  1  0.673017  0.954002  0.131835  1
