# generated using pymatgen
data_Cs4SbRhCl12
_symmetry_space_group_name_H-M   'P 1'
_cell_length_a   7.48431900
_cell_length_b   7.48431900
_cell_length_c   10.86268500
_cell_angle_alpha   90.00000000
_cell_angle_beta   90.00000000
_cell_angle_gamma   90.00000000
_symmetry_Int_Tables_number   1
_chemical_formula_structural   Cs4SbRhCl12
_chemical_formula_sum   'Cs4 Sb1 Rh1 Cl12'
_cell_volume   608.47363586
_cell_formula_units_Z   1
loop_
 _symmetry_equiv_pos_site_id
 _symmetry_equiv_pos_as_xyz
  1  'x, y, z'
loop_
 _atom_site_type_symbol
 _atom_site_label
 _atom_site_symmetry_multiplicity
 _atom_site_fract_x
 _atom_site_fract_y
 _atom_site_fract_z
 _atom_site_occupancy
  Cs  Cs0  1  0.500000  0.000000  0.780976  1
  Cs  Cs1  1  0.000000  0.500000  0.219024  1
  Cs  Cs2  1  0.500000  0.000000  0.219024  1
  Cs  Cs3  1  0.000000  0.500000  0.780976  1
  Sb  Sb4  1  0.500000  0.500000  0.500000  1
  Rh  Rh5  1  0.000000  0.000000  0.000000  1
  Cl  Cl6  1  0.000000  0.000000  0.781046  1
  Cl  Cl7  1  0.500000  0.500000  0.273822  1
  Cl  Cl8  1  0.730127  0.730127  0.500000  1
  Cl  Cl9  1  0.224858  0.224858  0.000000  1
  Cl  Cl10  1  0.730127  0.269873  0.500000  1
  Cl  Cl11  1  0.224858  0.775142  0.000000  1
  Cl  Cl12  1  0.000000  0.000000  0.218954  1
  Cl  Cl13  1  0.500000  0.500000  0.726178  1
  Cl  Cl14  1  0.269873  0.269873  0.500000  1
  Cl  Cl15  1  0.775142  0.775142  0.000000  1
  Cl  Cl16  1  0.269873  0.730127  0.500000  1
  Cl  Cl17  1  0.775142  0.224858  0.000000  1
