# generated using pymatgen
data_Y9Tm(Ga2Ru3)2
_symmetry_space_group_name_H-M   'P 1'
_cell_length_a   8.33758175
_cell_length_b   8.34023647
_cell_length_c   8.33758105
_cell_angle_alpha   109.47766454
_cell_angle_beta   109.46476867
_cell_angle_gamma   109.47767396
_symmetry_Int_Tables_number   1
_chemical_formula_structural   Y9Tm(Ga2Ru3)2
_chemical_formula_sum   'Y9 Tm1 Ga4 Ru6'
_cell_volume   446.27452078
_cell_formula_units_Z   1
loop_
 _symmetry_equiv_pos_site_id
 _symmetry_equiv_pos_as_xyz
  1  'x, y, z'
loop_
 _atom_site_type_symbol
 _atom_site_label
 _atom_site_symmetry_multiplicity
 _atom_site_fract_x
 _atom_site_fract_y
 _atom_site_fract_z
 _atom_site_occupancy
  Y  Y0  1  0.750454  0.432038  0.182515  1
  Y  Y1  1  0.432061  0.681586  0.249546  1
  Y  Y2  1  0.249587  0.067061  0.316557  1
  Y  Y3  1  0.216519  0.499334  0.498600  1
  Y  Y4  1  0.817485  0.249524  0.567939  1
  Y  Y5  1  0.501401  0.000734  0.717920  1
  Y  Y6  1  0.066969  0.817474  0.750413  1
  Y  Y7  1  0.282080  0.282814  0.783482  1
  Y  Y8  1  0.683445  0.750505  0.933031  1
  Tm  Tm9  1  0.000000  0.213289  0.000000  1
  Ga  Ga10  1  0.000000  0.585091  0.000000  1
  Ga  Ga11  1  0.500225  0.000957  0.087840  1
  Ga  Ga12  1  0.912160  0.913118  0.412386  1
  Ga  Ga13  1  0.587614  0.500732  0.499775  1
  Ru  Ru14  1  0.372774  0.249765  0.125399  1
  Ru  Ru15  1  0.874602  0.124367  0.247374  1
  Ru  Ru16  1  0.123321  0.750561  0.373742  1
  Ru  Ru17  1  0.752625  0.876992  0.627227  1
  Ru  Ru18  1  0.626257  0.376819  0.749577  1
  Ru  Ru19  1  0.250423  0.627240  0.876680  1
