# generated using pymatgen
data_Dy4LuSc(Si3Ru)8
_symmetry_space_group_name_H-M   'P 1'
_cell_length_a   10.07590045
_cell_length_b   10.07590048
_cell_length_c   8.11680198
_cell_angle_alpha   90.00540175
_cell_angle_beta   90.00539797
_cell_angle_gamma   132.55236358
_symmetry_Int_Tables_number   1
_chemical_formula_structural   Dy4LuSc(Si3Ru)8
_chemical_formula_sum   'Dy4 Lu1 Sc1 Si24 Ru8'
_cell_volume   607.04309922
_cell_formula_units_Z   1
loop_
 _symmetry_equiv_pos_site_id
 _symmetry_equiv_pos_as_xyz
  1  'x, y, z'
loop_
 _atom_site_type_symbol
 _atom_site_label
 _atom_site_symmetry_multiplicity
 _atom_site_fract_x
 _atom_site_fract_y
 _atom_site_fract_z
 _atom_site_occupancy
  Dy  Dy0  1  0.502646  0.002408  0.749620  1
  Dy  Dy1  1  0.997592  0.497354  0.250380  1
  Dy  Dy2  1  0.497354  0.997592  0.250380  1
  Dy  Dy3  1  0.002408  0.502646  0.749620  1
  Lu  Lu4  1  0.000000  0.000000  0.000000  1
  Sc  Sc5  1  0.500000  0.500000  0.500000  1
  Si  Si6  1  0.794370  0.205630  0.500000  1
  Si  Si7  1  0.295110  0.704890  0.000000  1
  Si  Si8  1  0.205630  0.794370  0.500000  1
  Si  Si9  1  0.704890  0.295110  0.000000  1
  Si  Si10  1  0.332921  0.332921  0.831337  1
  Si  Si11  1  0.667079  0.667079  0.168663  1
  Si  Si12  1  0.169460  0.169460  0.333981  1
  Si  Si13  1  0.830540  0.830540  0.666019  1
  Si  Si14  1  0.121363  0.886841  0.728185  1
  Si  Si15  1  0.113159  0.878637  0.271815  1
  Si  Si16  1  0.610843  0.378535  0.230394  1
  Si  Si17  1  0.621465  0.389157  0.769606  1
  Si  Si18  1  0.878637  0.113159  0.271815  1
  Si  Si19  1  0.886841  0.121363  0.728185  1
  Si  Si20  1  0.389157  0.621465  0.769606  1
  Si  Si21  1  0.378535  0.610843  0.230394  1
  Si  Si22  1  0.345803  0.114072  0.504439  1
  Si  Si23  1  0.885928  0.654197  0.495561  1
  Si  Si24  1  0.387905  0.154818  0.005033  1
  Si  Si25  1  0.845182  0.612095  0.994967  1
  Si  Si26  1  0.654197  0.885928  0.495561  1
  Si  Si27  1  0.114072  0.345803  0.504439  1
  Si  Si28  1  0.612095  0.845182  0.994967  1
  Si  Si29  1  0.154818  0.387905  0.005033  1
  Ru  Ru30  1  0.667928  0.332072  0.500000  1
  Ru  Ru31  1  0.168654  0.831346  0.000000  1
  Ru  Ru32  1  0.332072  0.667928  0.500000  1
  Ru  Ru33  1  0.831346  0.168654  0.000000  1
  Ru  Ru34  1  0.125516  0.125516  0.627799  1
  Ru  Ru35  1  0.874484  0.874484  0.372201  1
  Ru  Ru36  1  0.373052  0.373052  0.127271  1
  Ru  Ru37  1  0.626948  0.626948  0.872729  1
