# generated using pymatgen
data_Zr4Ta2Nb2GaP3
_symmetry_space_group_name_H-M   'P 1'
_cell_length_a   3.58237700
_cell_length_b   6.99340710
_cell_length_c   8.46364769
_cell_angle_alpha   89.37517790
_cell_angle_beta   90.00000000
_cell_angle_gamma   90.00000000
_symmetry_Int_Tables_number   1
_chemical_formula_structural   Zr4Ta2Nb2GaP3
_chemical_formula_sum   'Zr4 Ta2 Nb2 Ga1 P3'
_cell_volume   212.02733298
_cell_formula_units_Z   1
loop_
 _symmetry_equiv_pos_site_id
 _symmetry_equiv_pos_as_xyz
  1  'x, y, z'
loop_
 _atom_site_type_symbol
 _atom_site_label
 _atom_site_symmetry_multiplicity
 _atom_site_fract_x
 _atom_site_fract_y
 _atom_site_fract_z
 _atom_site_occupancy
  Zr  Zr0  1  0.250000  0.531181  0.838738  1
  Zr  Zr1  1  0.750000  0.961464  0.329941  1
  Zr  Zr2  1  0.250000  0.046386  0.669530  1
  Zr  Zr3  1  0.750000  0.464241  0.171027  1
  Ta  Ta4  1  0.750000  0.867558  0.945631  1
  Ta  Ta5  1  0.750000  0.360535  0.557095  1
  Nb  Nb6  1  0.250000  0.141475  0.060349  1
  Nb  Nb7  1  0.250000  0.628198  0.432228  1
  Ga  Ga8  1  0.750000  0.743852  0.641814  1
  P  P9  1  0.250000  0.762444  0.140588  1
  P  P10  1  0.750000  0.237907  0.854938  1
  P  P11  1  0.250000  0.254761  0.358121  1
