# generated using pymatgen
data_Rb2Ba(SiSe3)2
_symmetry_space_group_name_H-M   'P 1'
_cell_length_a   8.98590143
_cell_length_b   8.98590104
_cell_length_c   10.25976523
_cell_angle_alpha   89.01022725
_cell_angle_beta   89.01022571
_cell_angle_gamma   112.73493346
_symmetry_Int_Tables_number   1
_chemical_formula_structural   Rb2Ba(SiSe3)2
_chemical_formula_sum   'Rb4 Ba2 Si4 Se12'
_cell_volume   763.70007082
_cell_formula_units_Z   2
loop_
 _symmetry_equiv_pos_site_id
 _symmetry_equiv_pos_as_xyz
  1  'x, y, z'
loop_
 _atom_site_type_symbol
 _atom_site_label
 _atom_site_symmetry_multiplicity
 _atom_site_fract_x
 _atom_site_fract_y
 _atom_site_fract_z
 _atom_site_occupancy
  Rb  Rb0  1  0.264772  0.530639  0.529975  1
  Rb  Rb1  1  0.735228  0.469361  0.470025  1
  Rb  Rb2  1  0.469361  0.735228  0.970025  1
  Rb  Rb3  1  0.530639  0.264772  0.029975  1
  Ba  Ba4  1  0.971143  0.028857  0.250000  1
  Ba  Ba5  1  0.028857  0.971143  0.750000  1
  Si  Si6  1  0.980190  0.652716  0.058051  1
  Si  Si7  1  0.019810  0.347284  0.941949  1
  Si  Si8  1  0.347284  0.019810  0.441949  1
  Si  Si9  1  0.652716  0.980190  0.558051  1
  Se  Se10  1  0.648748  0.756741  0.662221  1
  Se  Se11  1  0.912870  0.528994  0.854330  1
  Se  Se12  1  0.243259  0.351252  0.837779  1
  Se  Se13  1  0.528994  0.912870  0.354330  1
  Se  Se14  1  0.351252  0.243259  0.337779  1
  Se  Se15  1  0.899856  0.178855  0.534015  1
  Se  Se16  1  0.821145  0.100144  0.965985  1
  Se  Se17  1  0.178855  0.899856  0.034015  1
  Se  Se18  1  0.087130  0.471006  0.145670  1
  Se  Se19  1  0.471006  0.087130  0.645670  1
  Se  Se20  1  0.100144  0.821145  0.465985  1
  Se  Se21  1  0.756741  0.648748  0.162221  1
