# generated using pymatgen
data_Dy(TcO4)2
_symmetry_space_group_name_H-M   'P 1'
_cell_length_a   6.12288000
_cell_length_b   6.12287896
_cell_length_c   6.54006500
_cell_angle_alpha   90.00000000
_cell_angle_beta   90.00000000
_cell_angle_gamma   119.99999482
_symmetry_Int_Tables_number   1
_chemical_formula_structural   Dy(TcO4)2
_chemical_formula_sum   'Dy1 Tc2 O8'
_cell_volume   212.33624901
_cell_formula_units_Z   1
loop_
 _symmetry_equiv_pos_site_id
 _symmetry_equiv_pos_as_xyz
  1  'x, y, z'
loop_
 _atom_site_type_symbol
 _atom_site_label
 _atom_site_symmetry_multiplicity
 _atom_site_fract_x
 _atom_site_fract_y
 _atom_site_fract_z
 _atom_site_occupancy
  Dy  Dy0  1  0.000000  0.000000  0.000000  1
  Tc  Tc1  1  0.666667  0.333333  0.714855  1
  Tc  Tc2  1  0.333333  0.666667  0.285145  1
  O  O3  1  0.352928  0.182774  0.808522  1
  O  O4  1  0.182774  0.829846  0.191478  1
  O  O5  1  0.170154  0.352928  0.191478  1
  O  O6  1  0.666667  0.333333  0.451844  1
  O  O7  1  0.333333  0.666667  0.548156  1
  O  O8  1  0.829846  0.647072  0.808522  1
  O  O9  1  0.817226  0.170154  0.808522  1
  O  O10  1  0.647072  0.817226  0.191478  1
