# generated using pymatgen
data_Cs5SiHS5
_symmetry_space_group_name_H-M   'P 1'
_cell_length_a   8.08998753
_cell_length_b   8.08998693
_cell_length_c   14.64078854
_cell_angle_alpha   81.50300003
_cell_angle_beta   81.50299866
_cell_angle_gamma   110.57780724
_symmetry_Int_Tables_number   1
_chemical_formula_structural   Cs5SiHS5
_chemical_formula_sum   'Cs10 Si2 H2 S10'
_cell_volume   866.34506837
_cell_formula_units_Z   2
loop_
 _symmetry_equiv_pos_site_id
 _symmetry_equiv_pos_as_xyz
  1  'x, y, z'
loop_
 _atom_site_type_symbol
 _atom_site_label
 _atom_site_symmetry_multiplicity
 _atom_site_fract_x
 _atom_site_fract_y
 _atom_site_fract_z
 _atom_site_occupancy
  Cs  Cs0  1  0.262868  0.262868  0.959940  1
  Cs  Cs1  1  0.599666  0.082684  0.801659  1
  Cs  Cs2  1  0.082684  0.599666  0.801659  1
  Cs  Cs3  1  0.804739  0.804739  0.604935  1
  Cs  Cs4  1  0.674768  0.325232  0.500000  1
  Cs  Cs5  1  0.325232  0.674768  0.500000  1
  Cs  Cs6  1  0.195261  0.195261  0.395065  1
  Cs  Cs7  1  0.917316  0.400334  0.198341  1
  Cs  Cs8  1  0.400334  0.917316  0.198341  1
  Cs  Cs9  1  0.737132  0.737132  0.040060  1
  Si  Si10  1  0.167182  0.167182  0.694179  1
  Si  Si11  1  0.832818  0.832818  0.305821  1
  H  H12  1  0.794586  0.205414  0.000000  1
  H  H13  1  0.205414  0.794586  0.000000  1
  S  S14  1  0.693073  0.306927  0.000000  1
  S  S15  1  0.306927  0.693073  0.000000  1
  S  S16  1  0.005145  0.005145  0.829263  1
  S  S17  1  0.395816  0.395816  0.706421  1
  S  S18  1  0.262409  0.995672  0.619176  1
  S  S19  1  0.995672  0.262409  0.619176  1
  S  S20  1  0.004328  0.737591  0.380824  1
  S  S21  1  0.737591  0.004328  0.380824  1
  S  S22  1  0.604184  0.604184  0.293579  1
  S  S23  1  0.994855  0.994855  0.170737  1
