# generated using pymatgen
data_Pr3SnBiRh3Pb
_symmetry_space_group_name_H-M   'P 1'
_cell_length_a   7.74353367
_cell_length_b   7.70101307
_cell_length_c   4.14506900
_cell_angle_alpha   90.00000000
_cell_angle_beta   90.00000000
_cell_angle_gamma   119.99685712
_symmetry_Int_Tables_number   1
_chemical_formula_structural   Pr3SnBiRh3Pb
_chemical_formula_sum   'Pr3 Sn1 Bi1 Rh3 Pb1'
_cell_volume   214.07364363
_cell_formula_units_Z   1
loop_
 _symmetry_equiv_pos_site_id
 _symmetry_equiv_pos_as_xyz
  1  'x, y, z'
loop_
 _atom_site_type_symbol
 _atom_site_label
 _atom_site_symmetry_multiplicity
 _atom_site_fract_x
 _atom_site_fract_y
 _atom_site_fract_z
 _atom_site_occupancy
  Pr  Pr0  1  0.596194  0.003405  0.500000  1
  Pr  Pr1  1  0.407235  0.411850  0.500000  1
  Pr  Pr2  1  0.998486  0.585718  0.500000  1
  Sn  Sn3  1  0.998893  0.255987  0.000000  1
  Bi  Bi4  1  0.255249  0.000535  0.000000  1
  Rh  Rh5  1  0.000501  0.012221  0.500000  1
  Rh  Rh6  1  0.326466  0.656187  0.000000  1
  Rh  Rh7  1  0.674439  0.330293  0.000000  1
  Pb  Pb8  1  0.742536  0.743803  0.000000  1
