# generated using pymatgen
data_NdHoTmGa8Ag3
_symmetry_space_group_name_H-M   'P 1'
_cell_length_a   4.35097714
_cell_length_b   8.39464396
_cell_length_c   8.39464517
_cell_angle_alpha   69.24630307
_cell_angle_beta   74.98024653
_cell_angle_gamma   74.98024743
_symmetry_Int_Tables_number   1
_chemical_formula_structural   NdHoTmGa8Ag3
_chemical_formula_sum   'Nd1 Ho1 Tm1 Ga8 Ag3'
_cell_volume   272.12918463
_cell_formula_units_Z   1
loop_
 _symmetry_equiv_pos_site_id
 _symmetry_equiv_pos_as_xyz
  1  'x, y, z'
loop_
 _atom_site_type_symbol
 _atom_site_label
 _atom_site_symmetry_multiplicity
 _atom_site_fract_x
 _atom_site_fract_y
 _atom_site_fract_z
 _atom_site_occupancy
  Nd  Nd0  1  0.500058  0.499942  0.499942  1
  Ho  Ho1  1  0.199788  0.800212  0.800212  1
  Tm  Tm2  1  0.800334  0.199666  0.199666  1
  Ga  Ga3  1  0.355169  0.360973  0.928690  1
  Ga  Ga4  1  0.644772  0.638759  0.071698  1
  Ga  Ga5  1  0.355169  0.928690  0.360973  1
  Ga  Ga6  1  0.644772  0.071698  0.638759  1
  Ga  Ga7  1  0.160706  0.471424  0.207165  1
  Ga  Ga8  1  0.839534  0.528208  0.792725  1
  Ga  Ga9  1  0.160706  0.207165  0.471424  1
  Ga  Ga10  1  0.839534  0.792725  0.528208  1
  Ag  Ag11  1  0.499832  0.000168  0.000168  1
  Ag  Ag12  1  0.999814  0.806274  0.194097  1
  Ag  Ag13  1  0.999814  0.194097  0.806274  1
