# generated using pymatgen
data_Dy8In2CoOs
_symmetry_space_group_name_H-M   'P 1'
_cell_length_a   9.56337775
_cell_length_b   9.60694281
_cell_length_c   9.60694359
_cell_angle_alpha   60.36868104
_cell_angle_beta   60.14989335
_cell_angle_gamma   60.14989084
_symmetry_Int_Tables_number   1
_chemical_formula_structural   Dy8In2CoOs
_chemical_formula_sum   'Dy16 In4 Co2 Os2'
_cell_volume   627.26054580
_cell_formula_units_Z   2
loop_
 _symmetry_equiv_pos_site_id
 _symmetry_equiv_pos_as_xyz
  1  'x, y, z'
loop_
 _atom_site_type_symbol
 _atom_site_label
 _atom_site_symmetry_multiplicity
 _atom_site_fract_x
 _atom_site_fract_y
 _atom_site_fract_z
 _atom_site_occupancy
  Dy  Dy0  1  0.150874  0.541295  0.156957  1
  Dy  Dy1  1  0.693347  0.309223  0.688753  1
  Dy  Dy2  1  0.689783  0.310217  0.310217  1
  Dy  Dy3  1  0.937815  0.562185  0.562185  1
  Dy  Dy4  1  0.543048  0.153774  0.153774  1
  Dy  Dy5  1  0.150874  0.156957  0.541295  1
  Dy  Dy6  1  0.945606  0.938265  0.557753  1
  Dy  Dy7  1  0.308677  0.688753  0.309223  1
  Dy  Dy8  1  0.556186  0.943814  0.943814  1
  Dy  Dy9  1  0.558377  0.938265  0.557753  1
  Dy  Dy10  1  0.693347  0.688753  0.309223  1
  Dy  Dy11  1  0.558377  0.557753  0.938265  1
  Dy  Dy12  1  0.945606  0.557753  0.938265  1
  Dy  Dy13  1  0.308092  0.691908  0.691908  1
  Dy  Dy14  1  0.149405  0.153774  0.153774  1
  Dy  Dy15  1  0.308677  0.309223  0.688753  1
  In  In16  1  0.918139  0.247208  0.916515  1
  In  In17  1  0.919207  0.916935  0.916935  1
  In  In18  1  0.918139  0.916515  0.247208  1
  In  In19  1  0.246924  0.916935  0.916935  1
  Co  Co20  1  0.918103  0.360646  0.360646  1
  Co  Co21  1  0.360606  0.360646  0.360646  1
  Os  Os22  1  0.360397  0.359801  0.919406  1
  Os  Os23  1  0.360397  0.919406  0.359801  1
