# generated using pymatgen
data_Ho5Tm5In8Pt3Rh
_symmetry_space_group_name_H-M   'P 1'
_cell_length_a   3.59982700
_cell_length_b   8.11258505
_cell_length_c   18.15734372
_cell_angle_alpha   90.00511807
_cell_angle_beta   90.00000000
_cell_angle_gamma   90.00000000
_symmetry_Int_Tables_number   1
_chemical_formula_structural   Ho5Tm5In8Pt3Rh
_chemical_formula_sum   'Ho5 Tm5 In8 Pt3 Rh1'
_cell_volume   530.26529749
_cell_formula_units_Z   1
loop_
 _symmetry_equiv_pos_site_id
 _symmetry_equiv_pos_as_xyz
  1  'x, y, z'
loop_
 _atom_site_type_symbol
 _atom_site_label
 _atom_site_symmetry_multiplicity
 _atom_site_fract_x
 _atom_site_fract_y
 _atom_site_fract_z
 _atom_site_occupancy
  Ho  Ho0  1  0.000000  0.758828  0.779440  1
  Ho  Ho1  1  0.000000  0.258238  0.720909  1
  Ho  Ho2  1  0.000000  0.749266  0.278849  1
  Ho  Ho3  1  0.000000  0.999664  0.000164  1
  Ho  Ho4  1  0.000000  0.500438  0.499533  1
  Tm  Tm5  1  0.000000  0.113946  0.412053  1
  Tm  Tm6  1  0.000000  0.883344  0.584742  1
  Tm  Tm7  1  0.000000  0.383775  0.915209  1
  Tm  Tm8  1  0.000000  0.616125  0.086370  1
  Tm  Tm9  1  0.000000  0.237762  0.222252  1
  In  In10  1  0.500000  0.421378  0.351212  1
  In  In11  1  0.500000  0.577618  0.648435  1
  In  In12  1  0.500000  0.077496  0.851764  1
  In  In13  1  0.500000  0.926989  0.149447  1
  In  In14  1  0.500000  0.292147  0.067061  1
  In  In15  1  0.500000  0.707179  0.934225  1
  In  In16  1  0.500000  0.207342  0.565770  1
  In  In17  1  0.500000  0.793381  0.431541  1
  Pt  Pt18  1  0.500000  0.975728  0.695422  1
  Pt  Pt19  1  0.500000  0.475916  0.804389  1
  Pt  Pt20  1  0.500000  0.520354  0.196436  1
  Rh  Rh21  1  0.500000  0.023083  0.304778  1
