# generated using pymatgen
data_Th3Mn(Co5B2)2
_symmetry_space_group_name_H-M   'P 1'
_cell_length_a   5.08557500
_cell_length_b   5.08557563
_cell_length_c   10.00601800
_cell_angle_alpha   90.00000000
_cell_angle_beta   90.00000000
_cell_angle_gamma   120.00001544
_symmetry_Int_Tables_number   1
_chemical_formula_structural   Th3Mn(Co5B2)2
_chemical_formula_sum   'Th3 Mn1 Co10 B4'
_cell_volume   224.11556744
_cell_formula_units_Z   1
loop_
 _symmetry_equiv_pos_site_id
 _symmetry_equiv_pos_as_xyz
  1  'x, y, z'
loop_
 _atom_site_type_symbol
 _atom_site_label
 _atom_site_symmetry_multiplicity
 _atom_site_fract_x
 _atom_site_fract_y
 _atom_site_fract_z
 _atom_site_occupancy
  Th  Th0  1  0.000000  0.000000  0.661672  1
  Th  Th1  1  0.000000  0.000000  0.338328  1
  Th  Th2  1  0.000000  0.000000  0.000000  1
  Mn  Mn3  1  0.333333  0.666667  0.000000  1
  Co  Co4  1  0.499830  0.500170  0.500000  1
  Co  Co5  1  0.000341  0.500170  0.500000  1
  Co  Co6  1  0.501395  0.002790  0.205291  1
  Co  Co7  1  0.501395  0.498605  0.205291  1
  Co  Co8  1  0.997210  0.498605  0.205291  1
  Co  Co9  1  0.501395  0.002790  0.794709  1
  Co  Co10  1  0.501395  0.498605  0.794709  1
  Co  Co11  1  0.997210  0.498605  0.794709  1
  Co  Co12  1  0.666667  0.333333  0.000000  1
  Co  Co13  1  0.499830  0.999659  0.500000  1
  B  B14  1  0.333333  0.666667  0.651498  1
  B  B15  1  0.666667  0.333333  0.650037  1
  B  B16  1  0.666667  0.333333  0.349963  1
  B  B17  1  0.333333  0.666667  0.348502  1
