# generated using pymatgen
data_Ce8Co12SbAs15
_symmetry_space_group_name_H-M   'P 1'
_cell_length_a   4.22748500
_cell_length_b   9.95361684
_cell_length_c   14.94486540
_cell_angle_alpha   89.59528647
_cell_angle_beta   90.00000000
_cell_angle_gamma   90.00000000
_symmetry_Int_Tables_number   1
_chemical_formula_structural   Ce8Co12SbAs15
_chemical_formula_sum   'Ce8 Co12 Sb1 As15'
_cell_volume   628.84580432
_cell_formula_units_Z   1
loop_
 _symmetry_equiv_pos_site_id
 _symmetry_equiv_pos_as_xyz
  1  'x, y, z'
loop_
 _atom_site_type_symbol
 _atom_site_label
 _atom_site_symmetry_multiplicity
 _atom_site_fract_x
 _atom_site_fract_y
 _atom_site_fract_z
 _atom_site_occupancy
  Ce  Ce0  1  0.250000  0.585401  0.758574  1
  Ce  Ce1  1  0.250000  0.924931  0.245336  1
  Ce  Ce2  1  0.750000  0.424047  0.252489  1
  Ce  Ce3  1  0.750000  0.077448  0.753623  1
  Ce  Ce4  1  0.250000  0.750325  0.494107  1
  Ce  Ce5  1  0.250000  0.753647  0.000629  1
  Ce  Ce6  1  0.750000  0.247324  0.498630  1
  Ce  Ce7  1  0.750000  0.247876  0.002015  1
  Co  Co8  1  0.250000  0.278582  0.818504  1
  Co  Co9  1  0.250000  0.222477  0.317366  1
  Co  Co10  1  0.750000  0.725555  0.179484  1
  Co  Co11  1  0.750000  0.782856  0.686324  1
  Co  Co12  1  0.250000  0.047515  0.588107  1
  Co  Co13  1  0.250000  0.451328  0.090593  1
  Co  Co14  1  0.750000  0.948786  0.409544  1
  Co  Co15  1  0.750000  0.549116  0.912051  1
  Co  Co16  1  0.250000  0.450447  0.553122  1
  Co  Co17  1  0.250000  0.037399  0.057857  1
  Co  Co18  1  0.750000  0.533725  0.435748  1
  Co  Co19  1  0.750000  0.967605  0.942644  1
  Sb  Sb20  1  0.750000  0.560497  0.603564  1
  As  As21  1  0.250000  0.446839  0.933972  1
  As  As22  1  0.250000  0.050106  0.430590  1
  As  As23  1  0.750000  0.552199  0.068841  1
  As  As24  1  0.750000  0.946588  0.567864  1
  As  As25  1  0.250000  0.261362  0.651755  1
  As  As26  1  0.250000  0.234555  0.152428  1
  As  As27  1  0.750000  0.734266  0.344949  1
  As  As28  1  0.750000  0.769068  0.851352  1
  As  As29  1  0.250000  0.879591  0.700119  1
  As  As30  1  0.250000  0.624803  0.198367  1
  As  As31  1  0.750000  0.122642  0.299860  1
  As  As32  1  0.750000  0.378595  0.801267  1
  As  As33  1  0.250000  0.069813  0.901380  1
  As  As34  1  0.250000  0.429034  0.399090  1
  As  As35  1  0.750000  0.933655  0.097857  1
