# generated using pymatgen
data_SmEr3CdIr
_symmetry_space_group_name_H-M   'P 1'
_cell_length_a   9.63006481
_cell_length_b   9.62172881
_cell_length_c   9.62172961
_cell_angle_alpha   60.05732583
_cell_angle_beta   59.97134451
_cell_angle_gamma   59.97134345
_symmetry_Int_Tables_number   1
_chemical_formula_structural   SmEr3CdIr
_chemical_formula_sum   'Sm4 Er12 Cd4 Ir4'
_cell_volume   630.40531413
_cell_formula_units_Z   4
loop_
 _symmetry_equiv_pos_site_id
 _symmetry_equiv_pos_as_xyz
  1  'x, y, z'
loop_
 _atom_site_type_symbol
 _atom_site_label
 _atom_site_symmetry_multiplicity
 _atom_site_fract_x
 _atom_site_fract_y
 _atom_site_fract_z
 _atom_site_occupancy
  Sm  Sm0  1  0.811708  0.188292  0.811708  1
  Sm  Sm1  1  0.188292  0.811708  0.188292  1
  Sm  Sm2  1  0.811708  0.811708  0.188292  1
  Sm  Sm3  1  0.188292  0.188292  0.811708  1
  Er  Er4  1  0.598998  0.597804  0.597804  1
  Er  Er5  1  0.597804  0.598998  0.205393  1
  Er  Er6  1  0.597804  0.205393  0.598998  1
  Er  Er7  1  0.205393  0.597804  0.597804  1
  Er  Er8  1  0.062186  0.437814  0.437814  1
  Er  Er9  1  0.437814  0.062186  0.062186  1
  Er  Er10  1  0.438842  0.061158  0.438842  1
  Er  Er11  1  0.061158  0.438842  0.061158  1
  Er  Er12  1  0.438842  0.438842  0.061158  1
  Er  Er13  1  0.061158  0.061158  0.438842  1
  Er  Er14  1  0.192434  0.807566  0.807566  1
  Er  Er15  1  0.807566  0.192434  0.192434  1
  Cd  Cd16  1  0.832313  0.829589  0.829589  1
  Cd  Cd17  1  0.829589  0.832313  0.508508  1
  Cd  Cd18  1  0.829589  0.508508  0.832313  1
  Cd  Cd19  1  0.508508  0.829589  0.829589  1
  Ir  Ir20  1  0.393869  0.390301  0.390301  1
  Ir  Ir21  1  0.390301  0.393869  0.825527  1
  Ir  Ir22  1  0.390301  0.825527  0.393869  1
  Ir  Ir23  1  0.825527  0.390301  0.390301  1
