# generated using pymatgen
data_TbHo2Tm9Co4
_symmetry_space_group_name_H-M   'P 1'
_cell_length_a   6.14145801
_cell_length_b   6.88644726
_cell_length_c   9.23260500
_cell_angle_alpha   90.00000000
_cell_angle_beta   90.00000000
_cell_angle_gamma   89.92652341
_symmetry_Int_Tables_number   1
_chemical_formula_structural   TbHo2Tm9Co4
_chemical_formula_sum   'Tb1 Ho2 Tm9 Co4'
_cell_volume   390.47264198
_cell_formula_units_Z   1
loop_
 _symmetry_equiv_pos_site_id
 _symmetry_equiv_pos_as_xyz
  1  'x, y, z'
loop_
 _atom_site_type_symbol
 _atom_site_label
 _atom_site_symmetry_multiplicity
 _atom_site_fract_x
 _atom_site_fract_y
 _atom_site_fract_z
 _atom_site_occupancy
  Tb  Tb0  1  0.363721  0.958888  0.750000  1
  Ho  Ho1  1  0.638222  0.041512  0.250000  1
  Ho  Ho2  1  0.137372  0.459168  0.750000  1
  Tm  Tm3  1  0.323344  0.675278  0.067701  1
  Tm  Tm4  1  0.175533  0.176642  0.432611  1
  Tm  Tm5  1  0.676008  0.324973  0.566613  1
  Tm  Tm6  1  0.824651  0.823219  0.933712  1
  Tm  Tm7  1  0.676008  0.324973  0.933387  1
  Tm  Tm8  1  0.824651  0.823219  0.566288  1
  Tm  Tm9  1  0.323344  0.675278  0.432299  1
  Tm  Tm10  1  0.175533  0.176642  0.067389  1
  Tm  Tm11  1  0.861145  0.541169  0.250000  1
  Co  Co12  1  0.047938  0.886470  0.250000  1
  Co  Co13  1  0.452444  0.387282  0.250000  1
  Co  Co14  1  0.950100  0.113273  0.750000  1
  Co  Co15  1  0.549985  0.612010  0.750000  1
