# generated using pymatgen
data_TbYb5Al24Os5Rh3
_symmetry_space_group_name_H-M   'P 1'
_cell_length_a   8.84191534
_cell_length_b   8.83674182
_cell_length_c   9.61014898
_cell_angle_alpha   89.82113279
_cell_angle_beta   89.89665050
_cell_angle_gamma   119.84936718
_symmetry_Int_Tables_number   1
_chemical_formula_structural   TbYb5Al24Os5Rh3
_chemical_formula_sum   'Tb1 Yb5 Al24 Os5 Rh3'
_cell_volume   651.25505374
_cell_formula_units_Z   1
loop_
 _symmetry_equiv_pos_site_id
 _symmetry_equiv_pos_as_xyz
  1  'x, y, z'
loop_
 _atom_site_type_symbol
 _atom_site_label
 _atom_site_symmetry_multiplicity
 _atom_site_fract_x
 _atom_site_fract_y
 _atom_site_fract_z
 _atom_site_occupancy
  Tb  Tb0  1  0.183588  0.375160  0.252104  1
  Yb  Yb1  1  0.809407  0.616436  0.748883  1
  Yb  Yb2  1  0.608806  0.807468  0.250129  1
  Yb  Yb3  1  0.389390  0.191008  0.749328  1
  Yb  Yb4  1  0.197857  0.803760  0.251625  1
  Yb  Yb5  1  0.801838  0.194251  0.748524  1
  Al  Al6  1  0.334741  0.666936  0.007387  1
  Al  Al7  1  0.666769  0.335570  0.998956  1
  Al  Al8  1  0.668478  0.336109  0.502135  1
  Al  Al9  1  0.334437  0.666300  0.492909  1
  Al  Al10  1  0.161692  0.324541  0.578572  1
  Al  Al11  1  0.839853  0.677012  0.423303  1
  Al  Al12  1  0.676629  0.839360  0.576537  1
  Al  Al13  1  0.837197  0.677044  0.077584  1
  Al  Al14  1  0.324538  0.161119  0.423688  1
  Al  Al15  1  0.164035  0.324889  0.920679  1
  Al  Al16  1  0.162759  0.837396  0.574034  1
  Al  Al17  1  0.323820  0.161016  0.076551  1
  Al  Al18  1  0.835970  0.161947  0.424933  1
  Al  Al19  1  0.676813  0.840020  0.923274  1
  Al  Al20  1  0.833999  0.159220  0.075963  1
  Al  Al21  1  0.165554  0.840703  0.925133  1
  Al  Al22  1  0.560691  0.124663  0.249403  1
  Al  Al23  1  0.438160  0.874157  0.750583  1
  Al  Al24  1  0.878029  0.440643  0.249582  1
  Al  Al25  1  0.122188  0.560297  0.749926  1
  Al  Al26  1  0.560578  0.440070  0.249939  1
  Al  Al27  1  0.438800  0.561663  0.750059  1
  Al  Al28  1  0.995055  0.990631  0.250043  1
  Al  Al29  1  0.000560  0.002079  0.750221  1
  Os  Os30  1  0.501303  0.002811  0.997944  1
  Os  Os31  1  0.501700  0.002228  0.501649  1
  Os  Os32  1  0.001496  0.500958  0.499147  1
  Os  Os33  1  0.001133  0.001589  0.000422  1
  Os  Os34  1  0.000985  0.001522  0.499879  1
  Rh  Rh35  1  0.000267  0.499548  0.999253  1
  Rh  Rh36  1  0.500689  0.500350  0.998979  1
  Rh  Rh37  1  0.500198  0.499526  0.500740  1
