# generated using pymatgen
data_Pr2Co12SiP6
_symmetry_space_group_name_H-M   'P 1'
_cell_length_a   9.11210900
_cell_length_b   9.11210972
_cell_length_c   3.64057500
_cell_angle_alpha   90.00000000
_cell_angle_beta   90.00000000
_cell_angle_gamma   119.99999374
_symmetry_Int_Tables_number   1
_chemical_formula_structural   Pr2Co12SiP6
_chemical_formula_sum   'Pr2 Co12 Si1 P6'
_cell_volume   261.78122060
_cell_formula_units_Z   1
loop_
 _symmetry_equiv_pos_site_id
 _symmetry_equiv_pos_as_xyz
  1  'x, y, z'
loop_
 _atom_site_type_symbol
 _atom_site_label
 _atom_site_symmetry_multiplicity
 _atom_site_fract_x
 _atom_site_fract_y
 _atom_site_fract_z
 _atom_site_occupancy
  Pr  Pr0  1  0.333333  0.666667  0.000000  1
  Pr  Pr1  1  0.666667  0.333333  0.500000  1
  Co  Co2  1  0.431460  0.057909  0.000000  1
  Co  Co3  1  0.942091  0.373550  0.000000  1
  Co  Co4  1  0.626450  0.568540  0.000000  1
  Co  Co5  1  0.382830  0.431435  0.500000  1
  Co  Co6  1  0.568565  0.951394  0.500000  1
  Co  Co7  1  0.048606  0.617170  0.500000  1
  Co  Co8  1  0.154848  0.278005  0.000000  1
  Co  Co9  1  0.721995  0.876842  0.000000  1
  Co  Co10  1  0.123158  0.845152  0.000000  1
  Co  Co11  1  0.225609  0.099928  0.500000  1
  Co  Co12  1  0.900072  0.125682  0.500000  1
  Co  Co13  1  0.874318  0.774391  0.500000  1
  Si  Si14  1  0.000000  0.000000  0.000000  1
  P  P15  1  0.104711  0.396616  0.500000  1
  P  P16  1  0.603384  0.708096  0.500000  1
  P  P17  1  0.291904  0.895289  0.500000  1
  P  P18  1  0.400898  0.294274  0.000000  1
  P  P19  1  0.705726  0.106624  0.000000  1
  P  P20  1  0.893376  0.599102  0.000000  1
