# generated using pymatgen
data_Sr2Bi2PtRh3O14
_symmetry_space_group_name_H-M   'P 1'
_cell_length_a   7.39758897
_cell_length_b   7.25228023
_cell_length_c   7.37350075
_cell_angle_alpha   60.51735398
_cell_angle_beta   60.73127177
_cell_angle_gamma   60.61358115
_symmetry_Int_Tables_number   1
_chemical_formula_structural   Sr2Bi2PtRh3O14
_chemical_formula_sum   'Sr2 Bi2 Pt1 Rh3 O14'
_cell_volume   283.63900462
_cell_formula_units_Z   1
loop_
 _symmetry_equiv_pos_site_id
 _symmetry_equiv_pos_as_xyz
  1  'x, y, z'
loop_
 _atom_site_type_symbol
 _atom_site_label
 _atom_site_symmetry_multiplicity
 _atom_site_fract_x
 _atom_site_fract_y
 _atom_site_fract_z
 _atom_site_occupancy
  Sr  Sr0  1  0.125000  0.625000  0.125000  1
  Sr  Sr1  1  0.125000  0.125000  0.125000  1
  Bi  Bi2  1  0.125000  0.125000  0.625000  1
  Bi  Bi3  1  0.625000  0.125000  0.125000  1
  Pt  Pt4  1  0.625000  0.625000  0.125000  1
  Rh  Rh5  1  0.625000  0.125000  0.625000  1
  Rh  Rh6  1  0.125000  0.625000  0.625000  1
  Rh  Rh7  1  0.625000  0.625000  0.625000  1
  O  O8  1  0.269407  0.231178  0.268175  1
  O  O9  1  0.980593  0.018822  0.981825  1
  O  O10  1  0.547056  0.953499  0.546452  1
  O  O11  1  0.298197  0.700714  0.300443  1
  O  O12  1  0.549420  0.535864  0.955344  1
  O  O13  1  0.953074  0.534909  0.554872  1
  O  O14  1  0.549631  0.959454  0.954728  1
  O  O15  1  0.952442  0.957126  0.555195  1
  O  O16  1  0.951803  0.549286  0.949557  1
  O  O17  1  0.700369  0.290546  0.295272  1
  O  O18  1  0.296926  0.715091  0.695128  1
  O  O19  1  0.702944  0.296501  0.703548  1
  O  O20  1  0.297558  0.292874  0.694805  1
  O  O21  1  0.700580  0.714136  0.294656  1
