# generated using pymatgen
data_Ho16MgCd3Pt4
_symmetry_space_group_name_H-M   'P 1'
_cell_length_a   9.66559090
_cell_length_b   9.66559144
_cell_length_c   9.66559123
_cell_angle_alpha   59.97960265
_cell_angle_beta   59.97960118
_cell_angle_gamma   59.97960289
_symmetry_Int_Tables_number   1
_chemical_formula_structural   Ho16MgCd3Pt4
_chemical_formula_sum   'Ho16 Mg1 Cd3 Pt4'
_cell_volume   638.21844280
_cell_formula_units_Z   1
loop_
 _symmetry_equiv_pos_site_id
 _symmetry_equiv_pos_as_xyz
  1  'x, y, z'
loop_
 _atom_site_type_symbol
 _atom_site_label
 _atom_site_symmetry_multiplicity
 _atom_site_fract_x
 _atom_site_fract_y
 _atom_site_fract_z
 _atom_site_occupancy
  Ho  Ho0  1  0.599904  0.599904  0.599904  1
  Ho  Ho1  1  0.603407  0.603407  0.193054  1
  Ho  Ho2  1  0.603407  0.193054  0.603407  1
  Ho  Ho3  1  0.193054  0.603407  0.603407  1
  Ho  Ho4  1  0.059554  0.441143  0.441143  1
  Ho  Ho5  1  0.438289  0.061728  0.061728  1
  Ho  Ho6  1  0.441143  0.059554  0.441143  1
  Ho  Ho7  1  0.061728  0.438289  0.061728  1
  Ho  Ho8  1  0.441143  0.441143  0.059554  1
  Ho  Ho9  1  0.061728  0.061728  0.438289  1
  Ho  Ho10  1  0.185392  0.816360  0.816360  1
  Ho  Ho11  1  0.813394  0.186493  0.186493  1
  Ho  Ho12  1  0.816360  0.185392  0.816360  1
  Ho  Ho13  1  0.186493  0.813394  0.186493  1
  Ho  Ho14  1  0.816360  0.816360  0.185392  1
  Ho  Ho15  1  0.186493  0.186493  0.813394  1
  Mg  Mg16  1  0.827179  0.827179  0.827179  1
  Cd  Cd17  1  0.831301  0.831301  0.503686  1
  Cd  Cd18  1  0.831301  0.503686  0.831301  1
  Cd  Cd19  1  0.503686  0.831301  0.831301  1
  Pt  Pt20  1  0.393897  0.393897  0.393897  1
  Pt  Pt21  1  0.391847  0.391847  0.821092  1
  Pt  Pt22  1  0.391847  0.821092  0.391847  1
  Pt  Pt23  1  0.821092  0.391847  0.391847  1
