# generated using pymatgen
data_Eu4Cu5P8Pd
_symmetry_space_group_name_H-M   'P 1'
_cell_length_a   8.08088666
_cell_length_b   8.08088730
_cell_length_c   8.08088686
_cell_angle_alpha   137.78024980
_cell_angle_beta   108.06739813
_cell_angle_gamma   87.09337472
_symmetry_Int_Tables_number   1
_chemical_formula_structural   Eu4Cu5P8Pd
_chemical_formula_sum   'Eu4 Cu5 P8 Pd1'
_cell_volume   323.61054785
_cell_formula_units_Z   1
loop_
 _symmetry_equiv_pos_site_id
 _symmetry_equiv_pos_as_xyz
  1  'x, y, z'
loop_
 _atom_site_type_symbol
 _atom_site_label
 _atom_site_symmetry_multiplicity
 _atom_site_fract_x
 _atom_site_fract_y
 _atom_site_fract_z
 _atom_site_occupancy
  Eu  Eu0  1  0.103415  0.884326  0.219160  1
  Eu  Eu1  1  0.896585  0.115745  0.780911  1
  Eu  Eu2  1  0.334835  0.615674  0.719089  1
  Eu  Eu3  1  0.665165  0.384255  0.280840  1
  Cu  Cu4  1  0.500000  0.250000  0.750000  1
  Cu  Cu5  1  0.265785  0.015785  0.750000  1
  Cu  Cu6  1  0.734215  0.484215  0.750000  1
  Cu  Cu7  1  0.265688  0.515688  0.250000  1
  Cu  Cu8  1  0.734312  0.984312  0.250000  1
  P  P9  1  0.484750  0.129832  0.366920  1
  P  P10  1  0.515250  0.882170  0.645082  1
  P  P11  1  0.237087  0.370168  0.854918  1
  P  P12  1  0.762913  0.617830  0.133080  1
  P  P13  1  0.988180  0.360245  0.625713  1
  P  P14  1  0.011820  0.637533  0.372064  1
  P  P15  1  0.734532  0.862467  0.874287  1
  P  P16  1  0.265468  0.139755  0.127936  1
  Pd  Pd17  1  0.500000  0.750000  0.250000  1
