# generated using pymatgen
data_TmNiB2Ir
_symmetry_space_group_name_H-M   'P 1'
_cell_length_a   5.01332501
_cell_length_b   5.05396896
_cell_length_c   7.27993552
_cell_angle_alpha   60.27083286
_cell_angle_beta   57.41450943
_cell_angle_gamma   61.70598437
_symmetry_Int_Tables_number   1
_chemical_formula_structural   TmNiB2Ir
_chemical_formula_sum   'Tm2 Ni2 B4 Ir2'
_cell_volume   129.45233771
_cell_formula_units_Z   2
loop_
 _symmetry_equiv_pos_site_id
 _symmetry_equiv_pos_as_xyz
  1  'x, y, z'
loop_
 _atom_site_type_symbol
 _atom_site_label
 _atom_site_symmetry_multiplicity
 _atom_site_fract_x
 _atom_site_fract_y
 _atom_site_fract_z
 _atom_site_occupancy
  Tm  Tm0  1  0.876797  0.118972  0.749167  1
  Tm  Tm1  1  0.123203  0.881028  0.250833  1
  Ni  Ni2  1  0.733156  0.521804  0.303418  1
  Ni  Ni3  1  0.266844  0.478196  0.696582  1
  B  B4  1  0.500952  0.829728  0.478294  1
  B  B5  1  0.499048  0.170272  0.521706  1
  B  B6  1  0.161763  0.502192  0.013639  1
  B  B7  1  0.838237  0.497808  0.986361  1
  Ir  Ir8  1  0.455842  0.264909  0.212880  1
  Ir  Ir9  1  0.544158  0.735091  0.787120  1
