# generated using pymatgen
data_TaTe6
_symmetry_space_group_name_H-M   'P 1'
_cell_length_a   7.84414605
_cell_length_b   7.84414597
_cell_length_c   17.93635300
_cell_angle_alpha   90.00000000
_cell_angle_beta   90.00000000
_cell_angle_gamma   151.30258230
_symmetry_Int_Tables_number   1
_chemical_formula_structural   TaTe6
_chemical_formula_sum   'Ta2 Te12'
_cell_volume   529.94784903
_cell_formula_units_Z   2
loop_
 _symmetry_equiv_pos_site_id
 _symmetry_equiv_pos_as_xyz
  1  'x, y, z'
loop_
 _atom_site_type_symbol
 _atom_site_label
 _atom_site_symmetry_multiplicity
 _atom_site_fract_x
 _atom_site_fract_y
 _atom_site_fract_z
 _atom_site_occupancy
  Ta  Ta0  1  0.492838  0.507162  0.750000  1
  Ta  Ta1  1  0.507162  0.492838  0.250000  1
  Te  Te2  1  0.133017  0.866983  0.750000  1
  Te  Te3  1  0.866983  0.133017  0.250000  1
  Te  Te4  1  0.411375  0.588625  0.109588  1
  Te  Te5  1  0.588625  0.411375  0.890412  1
  Te  Te6  1  0.886443  0.113557  0.827402  1
  Te  Te7  1  0.113557  0.886443  0.172598  1
  Te  Te8  1  0.113557  0.886443  0.327402  1
  Te  Te9  1  0.886443  0.113557  0.672598  1
  Te  Te10  1  0.411375  0.588625  0.390412  1
  Te  Te11  1  0.588625  0.411375  0.609588  1
  Te  Te12  1  0.000000  0.000000  0.000000  1
  Te  Te13  1  0.000000  0.000000  0.500000  1
