# generated using pymatgen
data_MgFe4NiBr16
_symmetry_space_group_name_H-M   'P 1'
_cell_length_a   10.37419706
_cell_length_b   10.37419705
_cell_length_c   12.54479150
_cell_angle_alpha   55.04857734
_cell_angle_beta   55.04857848
_cell_angle_gamma   49.10345115
_symmetry_Int_Tables_number   1
_chemical_formula_structural   MgFe4NiBr16
_chemical_formula_sum   'Mg1 Fe4 Ni1 Br16'
_cell_volume   792.69486043
_cell_formula_units_Z   1
loop_
 _symmetry_equiv_pos_site_id
 _symmetry_equiv_pos_as_xyz
  1  'x, y, z'
loop_
 _atom_site_type_symbol
 _atom_site_label
 _atom_site_symmetry_multiplicity
 _atom_site_fract_x
 _atom_site_fract_y
 _atom_site_fract_z
 _atom_site_occupancy
  Mg  Mg0  1  0.005514  0.994486  0.250000  1
  Fe  Fe1  1  0.155432  0.681750  0.531225  1
  Fe  Fe2  1  0.318250  0.844568  0.968775  1
  Fe  Fe3  1  0.845516  0.318338  0.474558  1
  Fe  Fe4  1  0.681662  0.154484  0.025442  1
  Ni  Ni5  1  0.989285  0.010715  0.750000  1
  Br  Br6  1  0.308120  0.382085  0.557864  1
  Br  Br7  1  0.617915  0.691880  0.942136  1
  Br  Br8  1  0.695074  0.616504  0.451901  1
  Br  Br9  1  0.383496  0.304926  0.048099  1
  Br  Br10  1  0.865503  0.831301  0.514117  1
  Br  Br11  1  0.168699  0.134497  0.985883  1
  Br  Br12  1  0.133011  0.156703  0.499096  1
  Br  Br13  1  0.843297  0.866989  0.000904  1
  Br  Br14  1  0.133815  0.713170  0.715210  1
  Br  Br15  1  0.286830  0.866185  0.784790  1
  Br  Br16  1  0.857586  0.308869  0.282698  1
  Br  Br17  1  0.691131  0.142414  0.217302  1
  Br  Br18  1  0.295632  0.841200  0.316360  1
  Br  Br19  1  0.158800  0.704368  0.183640  1
  Br  Br20  1  0.715461  0.150029  0.689860  1
  Br  Br21  1  0.849971  0.284539  0.810140  1
