# generated using pymatgen
data_LaPr14Th(MgIr)4
_symmetry_space_group_name_H-M   'P 1'
_cell_length_a   10.10890378
_cell_length_b   10.10890329
_cell_length_c   10.12807638
_cell_angle_alpha   59.93398622
_cell_angle_beta   59.93398707
_cell_angle_gamma   59.90693124
_symmetry_Int_Tables_number   1
_chemical_formula_structural   LaPr14Th(MgIr)4
_chemical_formula_sum   'La1 Pr14 Th1 Mg4 Ir4'
_cell_volume   730.60094313
_cell_formula_units_Z   1
loop_
 _symmetry_equiv_pos_site_id
 _symmetry_equiv_pos_as_xyz
  1  'x, y, z'
loop_
 _atom_site_type_symbol
 _atom_site_label
 _atom_site_symmetry_multiplicity
 _atom_site_fract_x
 _atom_site_fract_y
 _atom_site_fract_z
 _atom_site_occupancy
  La  La0  1  0.345794  0.345794  0.962521  1
  Pr  Pr1  1  0.347258  0.957782  0.348075  1
  Pr  Pr2  1  0.957782  0.347258  0.348075  1
  Pr  Pr3  1  0.811254  0.188720  0.188556  1
  Pr  Pr4  1  0.188133  0.811086  0.810329  1
  Pr  Pr5  1  0.188720  0.811254  0.188556  1
  Pr  Pr6  1  0.811086  0.188133  0.810329  1
  Pr  Pr7  1  0.188642  0.188642  0.810910  1
  Pr  Pr8  1  0.810782  0.810782  0.188118  1
  Pr  Pr9  1  0.940520  0.562039  0.562003  1
  Pr  Pr10  1  0.559840  0.938226  0.938527  1
  Pr  Pr11  1  0.562039  0.940520  0.562003  1
  Pr  Pr12  1  0.938226  0.559840  0.938527  1
  Pr  Pr13  1  0.562297  0.562297  0.940406  1
  Pr  Pr14  1  0.938614  0.938614  0.559779  1
  Th  Th15  1  0.343018  0.343018  0.343842  1
  Mg  Mg16  1  0.579320  0.579320  0.577914  1
  Mg  Mg17  1  0.577566  0.577566  0.262898  1
  Mg  Mg18  1  0.577966  0.262694  0.576866  1
  Mg  Mg19  1  0.262694  0.577966  0.576866  1
  Ir  Ir20  1  0.142827  0.142827  0.141075  1
  Ir  Ir21  1  0.147362  0.147362  0.570583  1
  Ir  Ir22  1  0.148185  0.570076  0.146623  1
  Ir  Ir23  1  0.570076  0.148185  0.146623  1
