# generated using pymatgen
data_Er20IrPt7Rh4
_symmetry_space_group_name_H-M   'P 1'
_cell_length_a   10.93317034
_cell_length_b   10.93317034
_cell_length_c   6.31120901
_cell_angle_alpha   90.00528335
_cell_angle_beta   90.00528335
_cell_angle_gamma   90.16496182
_symmetry_Int_Tables_number   1
_chemical_formula_structural   Er20IrPt7Rh4
_chemical_formula_sum   'Er20 Ir1 Pt7 Rh4'
_cell_volume   754.40227366
_cell_formula_units_Z   1
loop_
 _symmetry_equiv_pos_site_id
 _symmetry_equiv_pos_as_xyz
  1  'x, y, z'
loop_
 _atom_site_type_symbol
 _atom_site_label
 _atom_site_symmetry_multiplicity
 _atom_site_fract_x
 _atom_site_fract_y
 _atom_site_fract_z
 _atom_site_occupancy
  Er  Er0  1  0.294413  0.087229  0.376013  1
  Er  Er1  1  0.294497  0.908312  0.876045  1
  Er  Er2  1  0.705560  0.087588  0.876285  1
  Er  Er3  1  0.705484  0.911946  0.375707  1
  Er  Er4  1  0.584774  0.792568  0.875020  1
  Er  Er5  1  0.588001  0.206078  0.377007  1
  Er  Er6  1  0.410322  0.791699  0.380437  1
  Er  Er7  1  0.412068  0.205146  0.876800  1
  Er  Er8  1  0.207432  0.415226  0.624980  1
  Er  Er9  1  0.208301  0.589678  0.119563  1
  Er  Er10  1  0.793922  0.411999  0.122993  1
  Er  Er11  1  0.794854  0.587932  0.623200  1
  Er  Er12  1  0.912771  0.705587  0.123987  1
  Er  Er13  1  0.912412  0.294440  0.623715  1
  Er  Er14  1  0.091688  0.705503  0.623955  1
  Er  Er15  1  0.088054  0.294516  0.124293  1
  Er  Er16  1  0.999964  0.999874  0.500346  1
  Er  Er17  1  0.000126  0.000036  0.999654  1
  Er  Er18  1  0.498282  0.501338  0.999427  1
  Er  Er19  1  0.498662  0.501718  0.500573  1
  Ir  Ir20  1  0.345889  0.654111  0.750000  1
  Pt  Pt21  1  0.845607  0.154393  0.250000  1
  Pt  Pt22  1  0.844851  0.845640  0.750568  1
  Pt  Pt23  1  0.154360  0.155149  0.749432  1
  Pt  Pt24  1  0.153761  0.846239  0.250000  1
  Pt  Pt25  1  0.654023  0.345977  0.750000  1
  Pt  Pt26  1  0.655407  0.654927  0.250023  1
  Pt  Pt27  1  0.345073  0.344593  0.249977  1
  Rh  Rh28  1  0.500348  0.000480  0.123341  1
  Rh  Rh29  1  0.500097  0.000523  0.621954  1
  Rh  Rh30  1  0.999477  0.499903  0.878046  1
  Rh  Rh31  1  0.999520  0.499652  0.376659  1
