# generated using pymatgen
data_Hf13Ta7Ge16
_symmetry_space_group_name_H-M   'P 1'
_cell_length_a   7.06781634
_cell_length_b   7.06619033
_cell_length_c   12.95890743
_cell_angle_alpha   89.99409533
_cell_angle_beta   90.02235517
_cell_angle_gamma   89.86739436
_symmetry_Int_Tables_number   1
_chemical_formula_structural   Hf13Ta7Ge16
_chemical_formula_sum   'Hf13 Ta7 Ge16'
_cell_volume   647.19890820
_cell_formula_units_Z   1
loop_
 _symmetry_equiv_pos_site_id
 _symmetry_equiv_pos_as_xyz
  1  'x, y, z'
loop_
 _atom_site_type_symbol
 _atom_site_label
 _atom_site_symmetry_multiplicity
 _atom_site_fract_x
 _atom_site_fract_y
 _atom_site_fract_z
 _atom_site_occupancy
  Hf  Hf0  1  0.997692  0.846109  0.626092  1
  Hf  Hf1  1  0.653444  0.496118  0.877689  1
  Hf  Hf2  1  0.502205  0.346007  0.622864  1
  Hf  Hf3  1  0.500180  0.653142  0.123903  1
  Hf  Hf4  1  0.152621  0.001422  0.873121  1
  Hf  Hf5  1  0.000433  0.658709  0.028871  1
  Hf  Hf6  1  0.999284  0.338810  0.522461  1
  Hf  Hf7  1  0.662533  0.001036  0.976779  1
  Hf  Hf8  1  0.158354  0.497899  0.776999  1
  Hf  Hf9  1  0.839465  0.499160  0.276371  1
  Hf  Hf10  1  0.499364  0.163376  0.225605  1
  Hf  Hf11  1  0.500664  0.840572  0.721316  1
  Hf  Hf12  1  0.338354  0.000705  0.471485  1
  Ta  Ta13  1  0.346251  0.503447  0.375412  1
  Ta  Ta14  1  0.847327  0.996392  0.374381  1
  Ta  Ta15  1  0.007345  0.153767  0.126358  1
  Ta  Ta16  1  0.670427  0.669976  0.497471  1
  Ta  Ta17  1  0.828819  0.170153  0.749922  1
  Ta  Ta18  1  0.169229  0.832821  0.251107  1
  Ta  Ta19  1  0.329591  0.327244  0.002026  1
  Ge  Ge20  1  0.037594  0.696442  0.430933  1
  Ge  Ge21  1  0.963939  0.303285  0.933270  1
  Ge  Ge22  1  0.696252  0.036875  0.566565  1
  Ge  Ge23  1  0.197682  0.462816  0.182915  1
  Ge  Ge24  1  0.804953  0.535177  0.680746  1
  Ge  Ge25  1  0.464457  0.192989  0.819230  1
  Ge  Ge26  1  0.537818  0.803408  0.318122  1
  Ge  Ge27  1  0.304681  0.963484  0.069126  1
  Ge  Ge28  1  0.855118  0.801216  0.827225  1
  Ge  Ge29  1  0.136021  0.203503  0.326992  1
  Ge  Ge30  1  0.801633  0.865522  0.174010  1
  Ge  Ge31  1  0.300743  0.641449  0.574514  1
  Ge  Ge32  1  0.704578  0.357150  0.079343  1
  Ge  Ge33  1  0.637731  0.297818  0.420904  1
  Ge  Ge34  1  0.356791  0.697810  0.923533  1
  Ge  Ge35  1  0.196428  0.144190  0.672338  1
