# generated using pymatgen
data_Li2La5Ir3
_symmetry_space_group_name_H-M   'P 1'
_cell_length_a   8.69335213
_cell_length_b   8.69335164
_cell_length_c   8.69335200
_cell_angle_alpha   109.47122146
_cell_angle_beta   109.47122034
_cell_angle_gamma   109.47121875
_symmetry_Int_Tables_number   1
_chemical_formula_structural   Li2La5Ir3
_chemical_formula_sum   'Li4 La10 Ir6'
_cell_volume   505.75466765
_cell_formula_units_Z   2
loop_
 _symmetry_equiv_pos_site_id
 _symmetry_equiv_pos_as_xyz
  1  'x, y, z'
loop_
 _atom_site_type_symbol
 _atom_site_label
 _atom_site_symmetry_multiplicity
 _atom_site_fract_x
 _atom_site_fract_y
 _atom_site_fract_z
 _atom_site_occupancy
  Li  Li0  1  0.500001  0.000000  0.906480  1
  Li  Li1  1  0.593520  0.593520  0.593520  1
  Li  Li2  1  0.906480  0.500001  0.000000  1
  Li  Li3  1  0.000000  0.906480  0.500001  1
  La  La4  1  0.250000  0.681283  0.431284  1
  La  La5  1  0.750000  0.818717  0.068717  1
  La  La6  1  0.431284  0.250000  0.681283  1
  La  La7  1  0.681283  0.431284  0.250000  1
  La  La8  1  0.068717  0.750000  0.818717  1
  La  La9  1  0.818717  0.068717  0.750000  1
  La  La10  1  0.219955  0.219955  0.219955  1
  La  La11  1  0.500001  0.000000  0.280045  1
  La  La12  1  0.280045  0.500001  0.000000  1
  La  La13  1  0.000000  0.280045  0.500001  1
  Ir  Ir14  1  0.250001  0.135080  0.885080  1
  Ir  Ir15  1  0.750000  0.364919  0.614919  1
  Ir  Ir16  1  0.885080  0.250001  0.135080  1
  Ir  Ir17  1  0.135080  0.885080  0.250001  1
  Ir  Ir18  1  0.614919  0.750000  0.364919  1
  Ir  Ir19  1  0.364919  0.614919  0.750000  1
