# generated using pymatgen
data_Sc12Mn(Si4Ru)3
_symmetry_space_group_name_H-M   'P 1'
_cell_length_a   3.96396100
_cell_length_b   10.32756752
_cell_length_c   11.75186475
_cell_angle_alpha   89.93763376
_cell_angle_beta   90.00000000
_cell_angle_gamma   90.00000000
_symmetry_Int_Tables_number   1
_chemical_formula_structural   Sc12Mn(Si4Ru)3
_chemical_formula_sum   'Sc12 Mn1 Si12 Ru3'
_cell_volume   481.09843409
_cell_formula_units_Z   1
loop_
 _symmetry_equiv_pos_site_id
 _symmetry_equiv_pos_as_xyz
  1  'x, y, z'
loop_
 _atom_site_type_symbol
 _atom_site_label
 _atom_site_symmetry_multiplicity
 _atom_site_fract_x
 _atom_site_fract_y
 _atom_site_fract_z
 _atom_site_occupancy
  Sc  Sc0  1  0.250000  0.877369  0.018730  1
  Sc  Sc1  1  0.250000  0.621158  0.521205  1
  Sc  Sc2  1  0.750000  0.123609  0.981212  1
  Sc  Sc3  1  0.750000  0.376646  0.480489  1
  Sc  Sc4  1  0.250000  0.922210  0.604104  1
  Sc  Sc5  1  0.250000  0.578089  0.104454  1
  Sc  Sc6  1  0.750000  0.077024  0.395232  1
  Sc  Sc7  1  0.750000  0.422689  0.896854  1
  Sc  Sc8  1  0.250000  0.657533  0.798397  1
  Sc  Sc9  1  0.250000  0.839705  0.298535  1
  Sc  Sc10  1  0.750000  0.340972  0.201527  1
  Sc  Sc11  1  0.750000  0.163477  0.701164  1
  Mn  Mn12  1  0.250000  0.386416  0.675811  1
  Si  Si13  1  0.250000  0.017323  0.822194  1
  Si  Si14  1  0.250000  0.484150  0.323338  1
  Si  Si15  1  0.750000  0.983450  0.177569  1
  Si  Si16  1  0.750000  0.514626  0.677600  1
  Si  Si17  1  0.250000  0.254090  0.842352  1
  Si  Si18  1  0.250000  0.247898  0.342880  1
  Si  Si19  1  0.750000  0.748370  0.156643  1
  Si  Si20  1  0.750000  0.751713  0.657694  1
  Si  Si21  1  0.250000  0.193299  0.544530  1
  Si  Si22  1  0.250000  0.306507  0.044439  1
  Si  Si23  1  0.750000  0.804996  0.455748  1
  Si  Si24  1  0.750000  0.694853  0.955065  1
  Ru  Ru25  1  0.250000  0.110968  0.177237  1
  Ru  Ru26  1  0.750000  0.611102  0.322437  1
  Ru  Ru27  1  0.750000  0.889759  0.822559  1
