# generated using pymatgen
data_GdDy3(CCl)2
_symmetry_space_group_name_H-M   'P 1'
_cell_length_a   3.64392400
_cell_length_b   3.64392285
_cell_length_c   13.65750700
_cell_angle_alpha   90.00000000
_cell_angle_beta   90.00000000
_cell_angle_gamma   119.99999231
_symmetry_Int_Tables_number   1
_chemical_formula_structural   GdDy3(CCl)2
_chemical_formula_sum   'Gd1 Dy3 C2 Cl2'
_cell_volume   157.05095468
_cell_formula_units_Z   1
loop_
 _symmetry_equiv_pos_site_id
 _symmetry_equiv_pos_as_xyz
  1  'x, y, z'
loop_
 _atom_site_type_symbol
 _atom_site_label
 _atom_site_symmetry_multiplicity
 _atom_site_fract_x
 _atom_site_fract_y
 _atom_site_fract_z
 _atom_site_occupancy
  Gd  Gd0  1  0.333333  0.666667  0.405278  1
  Dy  Dy1  1  0.333333  0.666667  0.093870  1
  Dy  Dy2  1  0.666667  0.333333  0.595014  1
  Dy  Dy3  1  0.666667  0.333333  0.906290  1
  C  C4  1  0.000000  0.000000  0.999917  1
  C  C5  1  0.000000  0.000000  0.502526  1
  Cl  Cl6  1  0.333333  0.666667  0.750293  1
  Cl  Cl7  1  0.666667  0.333333  0.246811  1
