# generated using pymatgen
data_PSe8I3
_symmetry_space_group_name_H-M   'P 1'
_cell_length_a   9.57088650
_cell_length_b   10.41211494
_cell_length_c   12.07890639
_cell_angle_alpha   96.24272549
_cell_angle_beta   109.89565656
_cell_angle_gamma   105.66852904
_symmetry_Int_Tables_number   1
_chemical_formula_structural   PSe8I3
_chemical_formula_sum   'P2 Se16 I6'
_cell_volume   1062.69776570
_cell_formula_units_Z   2
loop_
 _symmetry_equiv_pos_site_id
 _symmetry_equiv_pos_as_xyz
  1  'x, y, z'
loop_
 _atom_site_type_symbol
 _atom_site_label
 _atom_site_symmetry_multiplicity
 _atom_site_fract_x
 _atom_site_fract_y
 _atom_site_fract_z
 _atom_site_occupancy
  P  P0  1  0.777792  0.028467  0.851807  1
  P  P1  1  0.222208  0.971533  0.148193  1
  Se  Se2  1  0.860767  0.518097  0.831920  1
  Se  Se3  1  0.139233  0.481903  0.168080  1
  Se  Se4  1  0.720204  0.427799  0.622690  1
  Se  Se5  1  0.279796  0.572201  0.377310  1
  Se  Se6  1  0.742045  0.208895  0.581347  1
  Se  Se7  1  0.257955  0.791105  0.418653  1
  Se  Se8  1  0.938058  0.230383  0.501306  1
  Se  Se9  1  0.061942  0.769617  0.498694  1
  Se  Se10  1  0.889253  0.333635  0.140787  1
  Se  Se11  1  0.110747  0.666365  0.859213  1
  Se  Se12  1  0.709640  0.455403  0.085447  1
  Se  Se13  1  0.290360  0.544597  0.914553  1
  Se  Se14  1  0.667272  0.531657  0.258522  1
  Se  Se15  1  0.332728  0.468343  0.741478  1
  Se  Se16  1  0.827608  0.762998  0.342568  1
  Se  Se17  1  0.172392  0.237002  0.657432  1
  I  I18  1  0.510369  0.050982  0.789265  1
  I  I19  1  0.489631  0.949018  0.210735  1
  I  I20  1  0.780838  0.893376  0.009938  1
  I  I21  1  0.219162  0.106624  0.990062  1
  I  I22  1  0.752574  0.858715  0.677531  1
  I  I23  1  0.247426  0.141285  0.322469  1
