# generated using pymatgen
data_Li3Y3CdSiAs
_symmetry_space_group_name_H-M   'P 1'
_cell_length_a   7.24405200
_cell_length_b   7.24405368
_cell_length_c   4.19540400
_cell_angle_alpha   90.00000000
_cell_angle_beta   90.00000000
_cell_angle_gamma   119.99999232
_symmetry_Int_Tables_number   1
_chemical_formula_structural   Li3Y3CdSiAs
_chemical_formula_sum   'Li3 Y3 Cd1 Si1 As1'
_cell_volume   190.66354885
_cell_formula_units_Z   1
loop_
 _symmetry_equiv_pos_site_id
 _symmetry_equiv_pos_as_xyz
  1  'x, y, z'
loop_
 _atom_site_type_symbol
 _atom_site_label
 _atom_site_symmetry_multiplicity
 _atom_site_fract_x
 _atom_site_fract_y
 _atom_site_fract_z
 _atom_site_occupancy
  Li  Li0  1  0.252838  0.000633  0.500000  1
  Li  Li1  1  0.747795  0.747162  0.500000  1
  Li  Li2  1  0.999367  0.252205  0.500000  1
  Y  Y3  1  0.993969  0.561067  0.000000  1
  Y  Y4  1  0.567098  0.006031  0.000000  1
  Y  Y5  1  0.438933  0.432902  0.000000  1
  Cd  Cd6  1  0.000000  0.000000  0.000000  1
  Si  Si7  1  0.666667  0.333333  0.500000  1
  As  As8  1  0.333333  0.666667  0.500000  1
