# generated using pymatgen
data_TbYb6Dy13Ir12
_symmetry_space_group_name_H-M   'P 1'
_cell_length_a   6.38013964
_cell_length_b   10.79240578
_cell_length_c   10.88911420
_cell_angle_alpha   89.98321297
_cell_angle_beta   90.20850283
_cell_angle_gamma   89.99672341
_symmetry_Int_Tables_number   1
_chemical_formula_structural   TbYb6Dy13Ir12
_chemical_formula_sum   'Tb1 Yb6 Dy13 Ir12'
_cell_volume   749.78734735
_cell_formula_units_Z   1
loop_
 _symmetry_equiv_pos_site_id
 _symmetry_equiv_pos_as_xyz
  1  'x, y, z'
loop_
 _atom_site_type_symbol
 _atom_site_label
 _atom_site_symmetry_multiplicity
 _atom_site_fract_x
 _atom_site_fract_y
 _atom_site_fract_z
 _atom_site_occupancy
  Tb  Tb0  1  0.615478  0.040610  0.162219  1
  Yb  Yb1  1  0.622061  0.460568  0.339736  1
  Yb  Yb2  1  0.121926  0.039341  0.339812  1
  Yb  Yb3  1  0.500354  0.743971  0.250305  1
  Yb  Yb4  1  0.000530  0.755471  0.250227  1
  Yb  Yb5  1  0.005007  0.247919  0.752858  1
  Yb  Yb6  1  0.505246  0.251985  0.753378  1
  Dy  Dy7  1  0.379084  0.840070  0.539193  1
  Dy  Dy8  1  0.878726  0.660335  0.538937  1
  Dy  Dy9  1  0.882263  0.838987  0.957358  1
  Dy  Dy10  1  0.381770  0.660471  0.957556  1
  Dy  Dy11  1  0.883862  0.539830  0.836343  1
  Dy  Dy12  1  0.383828  0.959995  0.836791  1
  Dy  Dy13  1  0.379471  0.540444  0.659107  1
  Dy  Dy14  1  0.879761  0.959191  0.659260  1
  Dy  Dy15  1  0.614946  0.163794  0.458683  1
  Dy  Dy16  1  0.114996  0.336395  0.458325  1
  Dy  Dy17  1  0.118882  0.158187  0.045366  1
  Dy  Dy18  1  0.618808  0.342873  0.045726  1
  Dy  Dy19  1  0.115163  0.459098  0.162552  1
  Ir  Ir20  1  0.258116  0.899557  0.084712  1
  Ir  Ir21  1  0.759104  0.600306  0.084487  1
  Ir  Ir22  1  0.738537  0.906698  0.407207  1
  Ir  Ir23  1  0.238874  0.593295  0.407449  1
  Ir  Ir24  1  0.750528  0.093608  0.909981  1
  Ir  Ir25  1  0.250304  0.406214  0.910185  1
  Ir  Ir26  1  0.255073  0.093460  0.599781  1
  Ir  Ir27  1  0.755360  0.406956  0.599806  1
  Ir  Ir28  1  0.122095  0.750387  0.747588  1
  Ir  Ir29  1  0.621574  0.749449  0.747665  1
  Ir  Ir30  1  0.874405  0.250414  0.248709  1
  Ir  Ir31  1  0.373871  0.250125  0.248700  1
