# generated using pymatgen
data_SmY7(Si4W3)4
_symmetry_space_group_name_H-M   'P 1'
_cell_length_a   6.79917429
_cell_length_b   6.96346786
_cell_length_c   12.94180549
_cell_angle_alpha   89.94419181
_cell_angle_beta   90.00353975
_cell_angle_gamma   89.99004153
_symmetry_Int_Tables_number   1
_chemical_formula_structural   SmY7(Si4W3)4
_chemical_formula_sum   'Sm1 Y7 Si16 W12'
_cell_volume   612.74024276
_cell_formula_units_Z   1
loop_
 _symmetry_equiv_pos_site_id
 _symmetry_equiv_pos_as_xyz
  1  'x, y, z'
loop_
 _atom_site_type_symbol
 _atom_site_label
 _atom_site_symmetry_multiplicity
 _atom_site_fract_x
 _atom_site_fract_y
 _atom_site_fract_z
 _atom_site_occupancy
  Sm  Sm0  1  0.996135  0.832949  0.592654  1
  Y  Y1  1  0.495721  0.667345  0.593455  1
  Y  Y2  1  0.996003  0.832519  0.906489  1
  Y  Y3  1  0.504531  0.332452  0.093696  1
  Y  Y4  1  0.004417  0.167448  0.406320  1
  Y  Y5  1  0.504195  0.332870  0.406415  1
  Y  Y6  1  0.004056  0.167882  0.093596  1
  Y  Y7  1  0.495664  0.667406  0.906754  1
  Si  Si8  1  0.659991  0.957451  0.452219  1
  Si  Si9  1  0.161277  0.542846  0.047360  1
  Si  Si10  1  0.339093  0.042977  0.952843  1
  Si  Si11  1  0.838048  0.455076  0.546979  1
  Si  Si12  1  0.340653  0.043744  0.546806  1
  Si  Si13  1  0.838942  0.457440  0.952686  1
  Si  Si14  1  0.661092  0.957030  0.047370  1
  Si  Si15  1  0.161470  0.542040  0.452176  1
  Si  Si16  1  0.463579  0.369616  0.750191  1
  Si  Si17  1  0.963666  0.131341  0.750326  1
  Si  Si18  1  0.536243  0.630495  0.249839  1
  Si  Si19  1  0.036219  0.869745  0.250131  1
  Si  Si20  1  0.695545  0.867771  0.750597  1
  Si  Si21  1  0.197480  0.630921  0.750486  1
  Si  Si22  1  0.303307  0.132540  0.250052  1
  Si  Si23  1  0.803189  0.367800  0.250155  1
  W  W24  1  0.667059  0.163835  0.626216  1
  W  W25  1  0.167825  0.336551  0.874445  1
  W  W26  1  0.331773  0.836871  0.125645  1
  W  W27  1  0.831524  0.662812  0.373916  1
  W  W28  1  0.332322  0.836429  0.373901  1
  W  W29  1  0.832385  0.663292  0.125830  1
  W  W30  1  0.668106  0.163451  0.874637  1
  W  W31  1  0.168195  0.336611  0.625615  1
  W  W32  1  0.833791  0.498300  0.750066  1
  W  W33  1  0.334302  0.001975  0.750203  1
  W  W34  1  0.166077  0.501338  0.249960  1
  W  W35  1  0.666122  0.998828  0.249969  1
