# generated using pymatgen
data_Yb6Fe2HN6
_symmetry_space_group_name_H-M   'P 1'
_cell_length_a   5.92621863
_cell_length_b   5.92621933
_cell_length_c   5.92621863
_cell_angle_alpha   96.25798600
_cell_angle_beta   96.25797582
_cell_angle_gamma   96.25798269
_symmetry_Int_Tables_number   1
_chemical_formula_structural   Yb6Fe2HN6
_chemical_formula_sum   'Yb6 Fe2 H1 N6'
_cell_volume   204.11132722
_cell_formula_units_Z   1
loop_
 _symmetry_equiv_pos_site_id
 _symmetry_equiv_pos_as_xyz
  1  'x, y, z'
loop_
 _atom_site_type_symbol
 _atom_site_label
 _atom_site_symmetry_multiplicity
 _atom_site_fract_x
 _atom_site_fract_y
 _atom_site_fract_z
 _atom_site_occupancy
  Yb  Yb0  1  0.627686  0.110385  0.784495  1
  Yb  Yb1  1  0.110385  0.784495  0.627686  1
  Yb  Yb2  1  0.784495  0.627686  0.110385  1
  Yb  Yb3  1  0.372314  0.889615  0.215505  1
  Yb  Yb4  1  0.889615  0.215505  0.372314  1
  Yb  Yb5  1  0.215505  0.372314  0.889615  1
  Fe  Fe6  1  0.622685  0.622685  0.622685  1
  Fe  Fe7  1  0.377315  0.377315  0.377315  1
  H  H8  1  0.000000  0.000000  0.000000  1
  N  N9  1  0.725830  0.851380  0.469778  1
  N  N10  1  0.851380  0.469778  0.725830  1
  N  N11  1  0.469778  0.725830  0.851380  1
  N  N12  1  0.274170  0.148620  0.530222  1
  N  N13  1  0.148620  0.530222  0.274170  1
  N  N14  1  0.530222  0.274170  0.148620  1
