# generated using pymatgen
data_Lu6TcTe2
_symmetry_space_group_name_H-M   'P 1'
_cell_length_a   4.04997500
_cell_length_b   11.30920400
_cell_length_c   20.88561900
_cell_angle_alpha   90.00000000
_cell_angle_beta   90.00000000
_cell_angle_gamma   90.00000000
_symmetry_Int_Tables_number   1
_chemical_formula_structural   Lu6TcTe2
_chemical_formula_sum   'Lu24 Tc4 Te8'
_cell_volume   956.60298505
_cell_formula_units_Z   4
loop_
 _symmetry_equiv_pos_site_id
 _symmetry_equiv_pos_as_xyz
  1  'x, y, z'
loop_
 _atom_site_type_symbol
 _atom_site_label
 _atom_site_symmetry_multiplicity
 _atom_site_fract_x
 _atom_site_fract_y
 _atom_site_fract_z
 _atom_site_occupancy
  Lu  Lu0  1  0.750000  0.940527  0.640968  1
  Lu  Lu1  1  0.250000  0.382447  0.481363  1
  Lu  Lu2  1  0.250000  0.117553  0.981363  1
  Lu  Lu3  1  0.250000  0.313224  0.108605  1
  Lu  Lu4  1  0.750000  0.226901  0.225191  1
  Lu  Lu5  1  0.250000  0.773099  0.774809  1
  Lu  Lu6  1  0.750000  0.686776  0.891395  1
  Lu  Lu7  1  0.250000  0.030368  0.148206  1
  Lu  Lu8  1  0.750000  0.116307  0.495164  1
  Lu  Lu9  1  0.250000  0.469632  0.648206  1
  Lu  Lu10  1  0.750000  0.882447  0.018637  1
  Lu  Lu11  1  0.750000  0.559473  0.140968  1
  Lu  Lu12  1  0.750000  0.813224  0.391395  1
  Lu  Lu13  1  0.750000  0.617553  0.518637  1
  Lu  Lu14  1  0.250000  0.440527  0.859032  1
  Lu  Lu15  1  0.250000  0.059473  0.359032  1
  Lu  Lu16  1  0.250000  0.186776  0.608605  1
  Lu  Lu17  1  0.250000  0.726901  0.274809  1
  Lu  Lu18  1  0.750000  0.383693  0.995164  1
  Lu  Lu19  1  0.750000  0.530368  0.351794  1
  Lu  Lu20  1  0.250000  0.616307  0.004836  1
  Lu  Lu21  1  0.750000  0.273099  0.725191  1
  Lu  Lu22  1  0.750000  0.969632  0.851794  1
  Lu  Lu23  1  0.250000  0.883693  0.504836  1
  Tc  Tc24  1  0.750000  0.154183  0.079812  1
  Tc  Tc25  1  0.250000  0.654183  0.420188  1
  Tc  Tc26  1  0.250000  0.845817  0.920188  1
  Tc  Tc27  1  0.750000  0.345817  0.579812  1
  Te  Te28  1  0.250000  0.738315  0.629945  1
  Te  Te29  1  0.750000  0.261685  0.370055  1
  Te  Te30  1  0.250000  0.047809  0.738480  1
  Te  Te31  1  0.250000  0.452191  0.238480  1
  Te  Te32  1  0.750000  0.238315  0.870055  1
  Te  Te33  1  0.750000  0.547809  0.761520  1
  Te  Te34  1  0.250000  0.761685  0.129945  1
  Te  Te35  1  0.750000  0.952191  0.261520  1
