# generated using pymatgen
data_DyLuBe2Co5
_symmetry_space_group_name_H-M   'P 1'
_cell_length_a   4.94016505
_cell_length_b   4.94016523
_cell_length_c   11.49425294
_cell_angle_alpha   77.59050508
_cell_angle_beta   77.59050274
_cell_angle_gamma   59.99999691
_symmetry_Int_Tables_number   1
_chemical_formula_structural   DyLuBe2Co5
_chemical_formula_sum   'Dy2 Lu2 Be4 Co10'
_cell_volume   235.33917333
_cell_formula_units_Z   2
loop_
 _symmetry_equiv_pos_site_id
 _symmetry_equiv_pos_as_xyz
  1  'x, y, z'
loop_
 _atom_site_type_symbol
 _atom_site_label
 _atom_site_symmetry_multiplicity
 _atom_site_fract_x
 _atom_site_fract_y
 _atom_site_fract_z
 _atom_site_occupancy
  Dy  Dy0  1  0.949307  0.949307  0.152076  1
  Dy  Dy1  1  0.050693  0.050693  0.847924  1
  Lu  Lu2  1  0.851687  0.851687  0.444939  1
  Lu  Lu3  1  0.148313  0.148313  0.555062  1
  Be  Be4  1  0.719057  0.719057  0.842830  1
  Be  Be5  1  0.280943  0.280943  0.157170  1
  Be  Be6  1  0.613908  0.613908  0.158277  1
  Be  Be7  1  0.386092  0.386092  0.841723  1
  Co  Co8  1  0.500000  0.500000  0.500000  1
  Co  Co9  1  0.000000  0.500000  0.000000  1
  Co  Co10  1  0.500000  0.000000  0.000000  1
  Co  Co11  1  0.500000  0.500000  0.000000  1
  Co  Co12  1  0.393614  0.393614  0.317959  1
  Co  Co13  1  0.894813  0.393614  0.317959  1
  Co  Co14  1  0.393614  0.894813  0.317959  1
  Co  Co15  1  0.606386  0.606386  0.682041  1
  Co  Co16  1  0.105187  0.606386  0.682041  1
  Co  Co17  1  0.606386  0.105187  0.682041  1
