# generated using pymatgen
data_LaPr4(Sn5Pd2)2
_symmetry_space_group_name_H-M   'P 1'
_cell_length_a   14.35691200
_cell_length_b   14.35691200
_cell_length_c   4.69680800
_cell_angle_alpha   90.00000000
_cell_angle_beta   90.00000000
_cell_angle_gamma   90.00000000
_symmetry_Int_Tables_number   1
_chemical_formula_structural   LaPr4(Sn5Pd2)2
_chemical_formula_sum   'La2 Pr8 Sn20 Pd8'
_cell_volume   968.11039624
_cell_formula_units_Z   2
loop_
 _symmetry_equiv_pos_site_id
 _symmetry_equiv_pos_as_xyz
  1  'x, y, z'
loop_
 _atom_site_type_symbol
 _atom_site_label
 _atom_site_symmetry_multiplicity
 _atom_site_fract_x
 _atom_site_fract_y
 _atom_site_fract_z
 _atom_site_occupancy
  La  La0  1  0.500000  0.500000  0.000000  1
  La  La1  1  0.000000  0.000000  0.000000  1
  Pr  Pr2  1  0.679696  0.179696  0.500000  1
  Pr  Pr3  1  0.320304  0.820304  0.500000  1
  Pr  Pr4  1  0.179696  0.320304  0.500000  1
  Pr  Pr5  1  0.820304  0.679696  0.500000  1
  Pr  Pr6  1  0.891985  0.391985  0.500000  1
  Pr  Pr7  1  0.108015  0.608015  0.500000  1
  Pr  Pr8  1  0.391985  0.108015  0.500000  1
  Pr  Pr9  1  0.608015  0.891985  0.500000  1
  Sn  Sn10  1  0.569233  0.069233  0.000000  1
  Sn  Sn11  1  0.430767  0.930767  0.000000  1
  Sn  Sn12  1  0.069233  0.430767  0.000000  1
  Sn  Sn13  1  0.930767  0.569233  0.000000  1
  Sn  Sn14  1  0.653169  0.700231  0.000000  1
  Sn  Sn15  1  0.346831  0.299769  0.000000  1
  Sn  Sn16  1  0.153169  0.799769  0.000000  1
  Sn  Sn17  1  0.846831  0.200231  0.000000  1
  Sn  Sn18  1  0.299769  0.653169  0.000000  1
  Sn  Sn19  1  0.700231  0.346831  0.000000  1
  Sn  Sn20  1  0.200231  0.153169  0.000000  1
  Sn  Sn21  1  0.799769  0.846831  0.000000  1
  Sn  Sn22  1  0.663008  0.500703  0.500000  1
  Sn  Sn23  1  0.336992  0.499297  0.500000  1
  Sn  Sn24  1  0.163008  0.999297  0.500000  1
  Sn  Sn25  1  0.836992  0.000703  0.500000  1
  Sn  Sn26  1  0.499297  0.663008  0.500000  1
  Sn  Sn27  1  0.500703  0.336992  0.500000  1
  Sn  Sn28  1  0.000703  0.163008  0.500000  1
  Sn  Sn29  1  0.999297  0.836992  0.500000  1
  Pd  Pd30  1  0.745594  0.530273  0.000000  1
  Pd  Pd31  1  0.254406  0.469727  0.000000  1
  Pd  Pd32  1  0.245594  0.969727  0.000000  1
  Pd  Pd33  1  0.754406  0.030273  0.000000  1
  Pd  Pd34  1  0.469727  0.745594  0.000000  1
  Pd  Pd35  1  0.530273  0.254406  0.000000  1
  Pd  Pd36  1  0.030273  0.245594  0.000000  1
  Pd  Pd37  1  0.969727  0.754406  0.000000  1
