# generated using pymatgen
data_DyHo2Rh9
_symmetry_space_group_name_H-M   'P 1'
_cell_length_a   5.25931000
_cell_length_b   5.25931031
_cell_length_c   17.57864900
_cell_angle_alpha   90.00000000
_cell_angle_beta   90.00000000
_cell_angle_gamma   119.99998548
_symmetry_Int_Tables_number   1
_chemical_formula_structural   DyHo2Rh9
_chemical_formula_sum   'Dy2 Ho4 Rh18'
_cell_volume   421.08886335
_cell_formula_units_Z   2
loop_
 _symmetry_equiv_pos_site_id
 _symmetry_equiv_pos_as_xyz
  1  'x, y, z'
loop_
 _atom_site_type_symbol
 _atom_site_label
 _atom_site_symmetry_multiplicity
 _atom_site_fract_x
 _atom_site_fract_y
 _atom_site_fract_z
 _atom_site_occupancy
  Dy  Dy0  1  0.333333  0.666667  0.750000  1
  Dy  Dy1  1  0.666667  0.333333  0.250000  1
  Ho  Ho2  1  0.333333  0.666667  0.958083  1
  Ho  Ho3  1  0.666667  0.333333  0.041917  1
  Ho  Ho4  1  0.666667  0.333333  0.458083  1
  Ho  Ho5  1  0.333333  0.666667  0.541917  1
  Rh  Rh6  1  0.167351  0.832649  0.374495  1
  Rh  Rh7  1  0.167351  0.334702  0.374495  1
  Rh  Rh8  1  0.665298  0.832649  0.374495  1
  Rh  Rh9  1  0.832649  0.167351  0.625505  1
  Rh  Rh10  1  0.832649  0.665298  0.625505  1
  Rh  Rh11  1  0.334702  0.167351  0.625505  1
  Rh  Rh12  1  0.832649  0.167351  0.874495  1
  Rh  Rh13  1  0.832649  0.665298  0.874495  1
  Rh  Rh14  1  0.334702  0.167351  0.874495  1
  Rh  Rh15  1  0.167351  0.832649  0.125505  1
  Rh  Rh16  1  0.167351  0.334702  0.125505  1
  Rh  Rh17  1  0.665298  0.832649  0.125505  1
  Rh  Rh18  1  0.333333  0.666667  0.250000  1
  Rh  Rh19  1  0.666667  0.333333  0.750000  1
  Rh  Rh20  1  0.000000  0.000000  0.250000  1
  Rh  Rh21  1  0.000000  0.000000  0.750000  1
  Rh  Rh22  1  0.000000  0.000000  0.500000  1
  Rh  Rh23  1  0.000000  0.000000  0.000000  1
