# generated using pymatgen
data_Y2BC
_symmetry_space_group_name_H-M   'P 1'
_cell_length_a   6.36940926
_cell_length_b   6.36940876
_cell_length_c   9.19918594
_cell_angle_alpha   51.99566160
_cell_angle_beta   51.99566399
_cell_angle_gamma   32.22526531
_symmetry_Int_Tables_number   1
_chemical_formula_structural   Y2BC
_chemical_formula_sum   'Y4 B2 C2'
_cell_volume   152.76655007
_cell_formula_units_Z   2
loop_
 _symmetry_equiv_pos_site_id
 _symmetry_equiv_pos_as_xyz
  1  'x, y, z'
loop_
 _atom_site_type_symbol
 _atom_site_label
 _atom_site_symmetry_multiplicity
 _atom_site_fract_x
 _atom_site_fract_y
 _atom_site_fract_z
 _atom_site_occupancy
  Y  Y0  1  0.201043  0.201043  0.887540  1
  Y  Y1  1  0.798957  0.798957  0.112460  1
  Y  Y2  1  0.562026  0.562026  0.640299  1
  Y  Y3  1  0.437974  0.437974  0.359701  1
  B  B4  1  0.919394  0.919394  0.608976  1
  B  B5  1  0.080606  0.080606  0.391024  1
  C  C6  1  0.125354  0.125354  0.195688  1
  C  C7  1  0.874646  0.874646  0.804312  1
