# generated using pymatgen
data_Sm3Y(In2Pd3)4
_symmetry_space_group_name_H-M   'P 1'
_cell_length_a   4.65099000
_cell_length_b   9.90660604
_cell_length_c   10.39606305
_cell_angle_alpha   89.98913561
_cell_angle_beta   90.00000000
_cell_angle_gamma   90.00000000
_symmetry_Int_Tables_number   1
_chemical_formula_structural   Sm3Y(In2Pd3)4
_chemical_formula_sum   'Sm3 Y1 In8 Pd12'
_cell_volume   479.00406093
_cell_formula_units_Z   1
loop_
 _symmetry_equiv_pos_site_id
 _symmetry_equiv_pos_as_xyz
  1  'x, y, z'
loop_
 _atom_site_type_symbol
 _atom_site_label
 _atom_site_symmetry_multiplicity
 _atom_site_fract_x
 _atom_site_fract_y
 _atom_site_fract_z
 _atom_site_occupancy
  Sm  Sm0  1  0.250000  0.445746  0.726194  1
  Sm  Sm1  1  0.250000  0.054329  0.225787  1
  Sm  Sm2  1  0.750000  0.554340  0.273948  1
  Y  Y3  1  0.750000  0.945366  0.775586  1
  In  In4  1  0.250000  0.885820  0.513948  1
  In  In5  1  0.250000  0.614339  0.013566  1
  In  In6  1  0.750000  0.113901  0.487143  1
  In  In7  1  0.750000  0.385760  0.986091  1
  In  In8  1  0.250000  0.161831  0.894037  1
  In  In9  1  0.250000  0.337421  0.394655  1
  In  In10  1  0.750000  0.837689  0.104897  1
  In  In11  1  0.750000  0.663222  0.605932  1
  Pd  Pd12  1  0.250000  0.142893  0.623803  1
  Pd  Pd13  1  0.250000  0.356014  0.123271  1
  Pd  Pd14  1  0.750000  0.856094  0.376698  1
  Pd  Pd15  1  0.750000  0.644790  0.876469  1
  Pd  Pd16  1  0.250000  0.745518  0.740485  1
  Pd  Pd17  1  0.250000  0.756377  0.240578  1
  Pd  Pd18  1  0.750000  0.256206  0.259334  1
  Pd  Pd19  1  0.750000  0.242217  0.759589  1
  Pd  Pd20  1  0.250000  0.895792  0.972505  1
  Pd  Pd21  1  0.250000  0.604631  0.473706  1
  Pd  Pd22  1  0.750000  0.104029  0.025350  1
  Pd  Pd23  1  0.750000  0.395675  0.526427  1
