# generated using pymatgen
data_Ti10GaSi3As2O
_symmetry_space_group_name_H-M   'P 1'
_cell_length_a   7.51174045
_cell_length_b   7.51625198
_cell_length_c   5.14694157
_cell_angle_alpha   90.12533646
_cell_angle_beta   89.74917592
_cell_angle_gamma   119.98014632
_symmetry_Int_Tables_number   1
_chemical_formula_structural   Ti10GaSi3As2O
_chemical_formula_sum   'Ti10 Ga1 Si3 As2 O1'
_cell_volume   251.71231433
_cell_formula_units_Z   1
loop_
 _symmetry_equiv_pos_site_id
 _symmetry_equiv_pos_as_xyz
  1  'x, y, z'
loop_
 _atom_site_type_symbol
 _atom_site_label
 _atom_site_symmetry_multiplicity
 _atom_site_fract_x
 _atom_site_fract_y
 _atom_site_fract_z
 _atom_site_occupancy
  Ti  Ti0  1  0.004304  0.761288  0.256055  1
  Ti  Ti1  1  0.243017  0.238712  0.256055  1
  Ti  Ti2  1  0.760626  0.000000  0.254641  1
  Ti  Ti3  1  0.003410  0.243927  0.744186  1
  Ti  Ti4  1  0.759483  0.756073  0.744186  1
  Ti  Ti5  1  0.237261  0.000000  0.747552  1
  Ti  Ti6  1  0.329776  0.662879  0.501218  1
  Ti  Ti7  1  0.666898  0.337121  0.501218  1
  Ti  Ti8  1  0.666502  0.336375  0.998917  1
  Ti  Ti9  1  0.330126  0.663625  0.998917  1
  Ga  Ga10  1  0.600396  0.000000  0.755086  1
  Si  Si11  1  0.401739  0.000000  0.243848  1
  Si  Si12  1  0.000590  0.604565  0.755856  1
  Si  Si13  1  0.396024  0.395435  0.755856  1
  As  As14  1  0.997881  0.395120  0.243439  1
  As  As15  1  0.602761  0.604880  0.243439  1
  O  O16  1  0.999205  0.000000  0.499533  1
