# generated using pymatgen
data_Dy5Y3(LuIn5)4
_symmetry_space_group_name_H-M   'P 1'
_cell_length_a   6.54573301
_cell_length_b   10.35790002
_cell_length_c   12.18929700
_cell_angle_alpha   90.00095046
_cell_angle_beta   90.00020842
_cell_angle_gamma   90.00679262
_symmetry_Int_Tables_number   1
_chemical_formula_structural   Dy5Y3(LuIn5)4
_chemical_formula_sum   'Dy5 Y3 Lu4 In20'
_cell_volume   826.43491678
_cell_formula_units_Z   1
loop_
 _symmetry_equiv_pos_site_id
 _symmetry_equiv_pos_as_xyz
  1  'x, y, z'
loop_
 _atom_site_type_symbol
 _atom_site_label
 _atom_site_symmetry_multiplicity
 _atom_site_fract_x
 _atom_site_fract_y
 _atom_site_fract_z
 _atom_site_occupancy
  Dy  Dy0  1  0.887210  0.488904  0.141973  1
  Dy  Dy1  1  0.612809  0.011115  0.641998  1
  Dy  Dy2  1  0.112805  0.988905  0.857986  1
  Dy  Dy3  1  0.387202  0.511110  0.357981  1
  Dy  Dy4  1  0.112782  0.511084  0.858047  1
  Y  Y5  1  0.387174  0.988883  0.358002  1
  Y  Y6  1  0.887159  0.011107  0.142003  1
  Y  Y7  1  0.612817  0.488895  0.641997  1
  Lu  Lu8  1  0.352666  0.749999  0.052352  1
  Lu  Lu9  1  0.147334  0.749976  0.552360  1
  Lu  Lu10  1  0.647343  0.250033  0.947632  1
  Lu  Lu11  1  0.852672  0.249970  0.447647  1
  In  In12  1  0.609968  0.750020  0.505458  1
  In  In13  1  0.890045  0.749972  0.005449  1
  In  In14  1  0.390057  0.250023  0.494536  1
  In  In15  1  0.109980  0.250011  0.994511  1
  In  In16  1  0.650302  0.749959  0.241759  1
  In  In17  1  0.849745  0.750019  0.741760  1
  In  In18  1  0.349688  0.249980  0.758254  1
  In  In19  1  0.150302  0.250039  0.258246  1
  In  In20  1  0.117470  0.749963  0.277944  1
  In  In21  1  0.382458  0.750004  0.777949  1
  In  In22  1  0.882533  0.249977  0.722066  1
  In  In23  1  0.617467  0.250041  0.222063  1
  In  In24  1  0.871538  0.543149  0.401533  1
  In  In25  1  0.628473  0.956871  0.901542  1
  In  In26  1  0.128453  0.043134  0.598471  1
  In  In27  1  0.371533  0.456847  0.098443  1
  In  In28  1  0.128450  0.456851  0.598453  1
  In  In29  1  0.371547  0.043163  0.098418  1
  In  In30  1  0.871555  0.956838  0.401592  1
  In  In31  1  0.628460  0.543158  0.901575  1
