# generated using pymatgen
data_TmNbFeB2Ru5
_symmetry_space_group_name_H-M   'P 1'
_cell_length_a   9.37910958
_cell_length_b   9.37911060
_cell_length_c   3.04386300
_cell_angle_alpha   90.00000000
_cell_angle_beta   90.00000000
_cell_angle_gamma   90.45140815
_symmetry_Int_Tables_number   1
_chemical_formula_structural   TmNbFeB2Ru5
_chemical_formula_sum   'Tm2 Nb2 Fe2 B4 Ru10'
_cell_volume   267.75333552
_cell_formula_units_Z   2
loop_
 _symmetry_equiv_pos_site_id
 _symmetry_equiv_pos_as_xyz
  1  'x, y, z'
loop_
 _atom_site_type_symbol
 _atom_site_label
 _atom_site_symmetry_multiplicity
 _atom_site_fract_x
 _atom_site_fract_y
 _atom_site_fract_z
 _atom_site_occupancy
  Tm  Tm0  1  0.823666  0.676334  0.000000  1
  Tm  Tm1  1  0.176334  0.323666  0.000000  1
  Nb  Nb2  1  0.323483  0.823483  0.000000  1
  Nb  Nb3  1  0.676517  0.176517  0.000000  1
  Fe  Fe4  1  0.500000  0.500000  0.000000  1
  Fe  Fe5  1  0.000000  0.000000  0.000000  1
  B  B6  1  0.623309  0.876691  0.000000  1
  B  B7  1  0.376691  0.123309  0.000000  1
  B  B8  1  0.123869  0.623869  0.000000  1
  B  B9  1  0.876131  0.376131  0.000000  1
  Ru  Ru10  1  0.560607  0.717509  0.500000  1
  Ru  Ru11  1  0.439393  0.282491  0.500000  1
  Ru  Ru12  1  0.079843  0.789630  0.500000  1
  Ru  Ru13  1  0.920157  0.210370  0.500000  1
  Ru  Ru14  1  0.289630  0.579843  0.500000  1
  Ru  Ru15  1  0.710370  0.420157  0.500000  1
  Ru  Ru16  1  0.217509  0.060607  0.500000  1
  Ru  Ru17  1  0.782491  0.939393  0.500000  1
  Ru  Ru18  1  0.500000  0.000000  0.500000  1
  Ru  Ru19  1  0.000000  0.500000  0.500000  1
