# generated using pymatgen
data_Tb4Er2Al24GaRu7
_symmetry_space_group_name_H-M   'P 1'
_cell_length_a   8.84240014
_cell_length_b   8.84240029
_cell_length_c   9.54138451
_cell_angle_alpha   90.20574349
_cell_angle_beta   89.79425848
_cell_angle_gamma   119.93063367
_symmetry_Int_Tables_number   1
_chemical_formula_structural   Tb4Er2Al24GaRu7
_chemical_formula_sum   'Tb4 Er2 Al24 Ga1 Ru7'
_cell_volume   646.51970798
_cell_formula_units_Z   1
loop_
 _symmetry_equiv_pos_site_id
 _symmetry_equiv_pos_as_xyz
  1  'x, y, z'
loop_
 _atom_site_type_symbol
 _atom_site_label
 _atom_site_symmetry_multiplicity
 _atom_site_fract_x
 _atom_site_fract_y
 _atom_site_fract_z
 _atom_site_occupancy
  Tb  Tb0  1  0.193116  0.385089  0.246051  1
  Tb  Tb1  1  0.806884  0.614911  0.753949  1
  Tb  Tb2  1  0.614911  0.806884  0.246051  1
  Tb  Tb3  1  0.385089  0.193116  0.753949  1
  Er  Er4  1  0.194537  0.805463  0.254549  1
  Er  Er5  1  0.805463  0.194537  0.745451  1
  Al  Al6  1  0.326527  0.673473  0.020789  1
  Al  Al7  1  0.673473  0.326527  0.979211  1
  Al  Al8  1  0.666506  0.333494  0.516705  1
  Al  Al9  1  0.333494  0.666506  0.483295  1
  Al  Al10  1  0.161489  0.324061  0.575069  1
  Al  Al11  1  0.838511  0.675939  0.424931  1
  Al  Al12  1  0.675939  0.838511  0.575069  1
  Al  Al13  1  0.853810  0.679693  0.082617  1
  Al  Al14  1  0.324061  0.161489  0.424931  1
  Al  Al15  1  0.146190  0.320307  0.917383  1
  Al  Al16  1  0.162456  0.837544  0.578218  1
  Al  Al17  1  0.320307  0.146190  0.082617  1
  Al  Al18  1  0.837544  0.162456  0.421782  1
  Al  Al19  1  0.679693  0.853810  0.917383  1
  Al  Al20  1  0.837558  0.162442  0.079041  1
  Al  Al21  1  0.162442  0.837558  0.920959  1
  Al  Al22  1  0.561065  0.120747  0.248930  1
  Al  Al23  1  0.438935  0.879253  0.751070  1
  Al  Al24  1  0.879253  0.438935  0.248930  1
  Al  Al25  1  0.120747  0.561065  0.751070  1
  Al  Al26  1  0.565795  0.434205  0.258699  1
  Al  Al27  1  0.434205  0.565795  0.741301  1
  Al  Al28  1  0.999205  0.000795  0.250672  1
  Al  Al29  1  0.000795  0.999205  0.749328  1
  Ga  Ga30  1  0.500000  0.500000  0.000000  1
  Ru  Ru31  1  0.500000  0.000000  0.000000  1
  Ru  Ru32  1  0.000000  0.500000  0.000000  1
  Ru  Ru33  1  0.500000  0.000000  0.500000  1
  Ru  Ru34  1  0.000000  0.500000  0.500000  1
  Ru  Ru35  1  0.500000  0.500000  0.500000  1
  Ru  Ru36  1  0.000000  0.000000  0.000000  1
  Ru  Ru37  1  0.000000  0.000000  0.500000  1
