# generated using pymatgen
data_Tb2FeCoO6
_symmetry_space_group_name_H-M   'P 1'
_cell_length_a   5.27603147
_cell_length_b   5.55460300
_cell_length_c   7.57097407
_cell_angle_alpha   90.00000000
_cell_angle_beta   90.44493753
_cell_angle_gamma   90.00000000
_symmetry_Int_Tables_number   1
_chemical_formula_structural   Tb2FeCoO6
_chemical_formula_sum   'Tb4 Fe2 Co2 O12'
_cell_volume   221.87024640
_cell_formula_units_Z   2
loop_
 _symmetry_equiv_pos_site_id
 _symmetry_equiv_pos_as_xyz
  1  'x, y, z'
loop_
 _atom_site_type_symbol
 _atom_site_label
 _atom_site_symmetry_multiplicity
 _atom_site_fract_x
 _atom_site_fract_y
 _atom_site_fract_z
 _atom_site_occupancy
  Tb  Tb0  1  0.517872  0.568126  0.249688  1
  Tb  Tb1  1  0.982128  0.068126  0.250312  1
  Tb  Tb2  1  0.482128  0.431874  0.750312  1
  Tb  Tb3  1  0.017872  0.931874  0.749688  1
  Fe  Fe4  1  0.000000  0.500000  0.000000  1
  Fe  Fe5  1  0.500000  0.000000  0.500000  1
  Co  Co6  1  0.000000  0.500000  0.500000  1
  Co  Co7  1  0.500000  0.000000  0.000000  1
  O  O8  1  0.398201  0.969131  0.245446  1
  O  O9  1  0.101799  0.469131  0.254554  1
  O  O10  1  0.601799  0.030869  0.754554  1
  O  O11  1  0.898201  0.530869  0.745446  1
  O  O12  1  0.799637  0.804935  0.051983  1
  O  O13  1  0.700363  0.304935  0.448017  1
  O  O14  1  0.190954  0.202530  0.552910  1
  O  O15  1  0.309046  0.702530  0.947090  1
  O  O16  1  0.200363  0.195065  0.948017  1
  O  O17  1  0.299637  0.695065  0.551983  1
  O  O18  1  0.809046  0.797470  0.447090  1
  O  O19  1  0.690954  0.297470  0.052910  1
