# generated using pymatgen
data_Sr8Si15Ag
_symmetry_space_group_name_H-M   'P 1'
_cell_length_a   8.38111100
_cell_length_b   8.38111208
_cell_length_c   9.26395500
_cell_angle_alpha   90.00000000
_cell_angle_beta   90.00000000
_cell_angle_gamma   119.99999967
_symmetry_Int_Tables_number   1
_chemical_formula_structural   Sr8Si15Ag
_chemical_formula_sum   'Sr8 Si15 Ag1'
_cell_volume   563.54721916
_cell_formula_units_Z   1
loop_
 _symmetry_equiv_pos_site_id
 _symmetry_equiv_pos_as_xyz
  1  'x, y, z'
loop_
 _atom_site_type_symbol
 _atom_site_label
 _atom_site_symmetry_multiplicity
 _atom_site_fract_x
 _atom_site_fract_y
 _atom_site_fract_z
 _atom_site_occupancy
  Sr  Sr0  1  0.497834  0.502166  0.750494  1
  Sr  Sr1  1  0.497937  0.502063  0.249487  1
  Sr  Sr2  1  0.004332  0.502166  0.750494  1
  Sr  Sr3  1  0.004126  0.502063  0.249487  1
  Sr  Sr4  1  0.497834  0.995668  0.750494  1
  Sr  Sr5  1  0.497937  0.995874  0.249487  1
  Sr  Sr6  1  0.000000  0.000000  0.749490  1
  Sr  Sr7  1  0.000000  0.000000  0.250550  1
  Si  Si8  1  0.666667  0.333333  0.999442  1
  Si  Si9  1  0.333333  0.666667  0.000632  1
  Si  Si10  1  0.333333  0.666667  0.499705  1
  Si  Si11  1  0.833859  0.166141  0.000217  1
  Si  Si12  1  0.166427  0.833573  0.999802  1
  Si  Si13  1  0.332280  0.166141  0.000217  1
  Si  Si14  1  0.163177  0.836823  0.500002  1
  Si  Si15  1  0.667147  0.833573  0.999802  1
  Si  Si16  1  0.836818  0.163182  0.500054  1
  Si  Si17  1  0.833859  0.667720  0.000217  1
  Si  Si18  1  0.673643  0.836823  0.500002  1
  Si  Si19  1  0.166427  0.332853  0.999802  1
  Si  Si20  1  0.326365  0.163182  0.500054  1
  Si  Si21  1  0.163177  0.326357  0.500002  1
  Si  Si22  1  0.836818  0.673635  0.500054  1
  Ag  Ag23  1  0.666667  0.333333  0.500018  1
