# generated using pymatgen
data_Yb3YAlRu7
_symmetry_space_group_name_H-M   'P 1'
_cell_length_a   5.29741900
_cell_length_b   5.29741888
_cell_length_c   8.72929800
_cell_angle_alpha   90.00000000
_cell_angle_beta   90.00000000
_cell_angle_gamma   120.00000700
_symmetry_Int_Tables_number   1
_chemical_formula_structural   Yb3YAlRu7
_chemical_formula_sum   'Yb3 Y1 Al1 Ru7'
_cell_volume   212.14781372
_cell_formula_units_Z   1
loop_
 _symmetry_equiv_pos_site_id
 _symmetry_equiv_pos_as_xyz
  1  'x, y, z'
loop_
 _atom_site_type_symbol
 _atom_site_label
 _atom_site_symmetry_multiplicity
 _atom_site_fract_x
 _atom_site_fract_y
 _atom_site_fract_z
 _atom_site_occupancy
  Yb  Yb0  1  0.333333  0.666667  0.434665  1
  Yb  Yb1  1  0.666667  0.333333  0.569585  1
  Yb  Yb2  1  0.666667  0.333333  0.929518  1
  Y  Y3  1  0.333333  0.666667  0.068440  1
  Al  Al4  1  0.000000  0.000000  0.498298  1
  Ru  Ru5  1  0.000000  0.000000  0.000426  1
  Ru  Ru6  1  0.827955  0.172045  0.250675  1
  Ru  Ru7  1  0.827955  0.655910  0.250675  1
  Ru  Ru8  1  0.344090  0.172045  0.250675  1
  Ru  Ru9  1  0.170994  0.829006  0.749013  1
  Ru  Ru10  1  0.170994  0.341988  0.749013  1
  Ru  Ru11  1  0.658012  0.829006  0.749013  1
