# generated using pymatgen
data_Dy5Y(GaC3)2
_symmetry_space_group_name_H-M   'P 1'
_cell_length_a   3.57292800
_cell_length_b   7.05710205
_cell_length_c   9.89784338
_cell_angle_alpha   89.94738764
_cell_angle_beta   90.00000000
_cell_angle_gamma   90.00000000
_symmetry_Int_Tables_number   1
_chemical_formula_structural   Dy5Y(GaC3)2
_chemical_formula_sum   'Dy5 Y1 Ga2 C6'
_cell_volume   249.56924008
_cell_formula_units_Z   1
loop_
 _symmetry_equiv_pos_site_id
 _symmetry_equiv_pos_as_xyz
  1  'x, y, z'
loop_
 _atom_site_type_symbol
 _atom_site_label
 _atom_site_symmetry_multiplicity
 _atom_site_fract_x
 _atom_site_fract_y
 _atom_site_fract_z
 _atom_site_occupancy
  Dy  Dy0  1  0.500000  0.510425  0.197478  1
  Dy  Dy1  1  0.500000  0.489077  0.802807  1
  Dy  Dy2  1  0.500000  0.988839  0.196741  1
  Dy  Dy3  1  0.000000  0.750046  0.458574  1
  Dy  Dy4  1  0.000000  0.250240  0.541808  1
  Y  Y5  1  0.500000  0.009858  0.803155  1
  Ga  Ga6  1  0.000000  0.748736  0.001423  1
  Ga  Ga7  1  0.000000  0.250943  0.998605  1
  C  C8  1  0.500000  0.509294  0.566814  1
  C  C9  1  0.500000  0.491080  0.433413  1
  C  C10  1  0.500000  0.991054  0.566272  1
  C  C11  1  0.500000  0.009307  0.432869  1
  C  C12  1  0.000000  0.749847  0.209340  1
  C  C13  1  0.000000  0.251253  0.790701  1
