# generated using pymatgen
data_Dy4Lu4Re3TcB24
_symmetry_space_group_name_H-M   'P 1'
_cell_length_a   3.64677700
_cell_length_b   9.10479273
_cell_length_c   11.49021702
_cell_angle_alpha   90.01921494
_cell_angle_beta   90.00000000
_cell_angle_gamma   90.00000000
_symmetry_Int_Tables_number   1
_chemical_formula_structural   Dy4Lu4Re3TcB24
_chemical_formula_sum   'Dy4 Lu4 Re3 Tc1 B24'
_cell_volume   381.51136307
_cell_formula_units_Z   1
loop_
 _symmetry_equiv_pos_site_id
 _symmetry_equiv_pos_as_xyz
  1  'x, y, z'
loop_
 _atom_site_type_symbol
 _atom_site_label
 _atom_site_symmetry_multiplicity
 _atom_site_fract_x
 _atom_site_fract_y
 _atom_site_fract_z
 _atom_site_occupancy
  Dy  Dy0  1  0.000000  0.323265  0.413848  1
  Dy  Dy1  1  0.000000  0.677147  0.585803  1
  Dy  Dy2  1  0.000000  0.822960  0.086143  1
  Dy  Dy3  1  0.000000  0.177232  0.913989  1
  Lu  Lu4  1  0.000000  0.942352  0.369951  1
  Lu  Lu5  1  0.000000  0.056469  0.629529  1
  Lu  Lu6  1  0.000000  0.444016  0.130541  1
  Lu  Lu7  1  0.000000  0.556648  0.870442  1
  Re  Re8  1  0.000000  0.360571  0.680114  1
  Re  Re9  1  0.000000  0.139389  0.180216  1
  Re  Re10  1  0.000000  0.860667  0.819939  1
  Tc  Tc11  1  0.000000  0.639644  0.319691  1
  B  B12  1  0.500000  0.553852  0.432380  1
  B  B13  1  0.500000  0.446382  0.567239  1
  B  B14  1  0.500000  0.053793  0.067369  1
  B  B15  1  0.500000  0.946417  0.932613  1
  B  B16  1  0.500000  0.750505  0.418205  1
  B  B17  1  0.500000  0.249059  0.581465  1
  B  B18  1  0.500000  0.251126  0.081675  1
  B  B19  1  0.500000  0.749145  0.918428  1
  B  B20  1  0.500000  0.792762  0.265356  1
  B  B21  1  0.500000  0.206845  0.734521  1
  B  B22  1  0.500000  0.293142  0.234787  1
  B  B23  1  0.500000  0.706881  0.765369  1
  B  B24  1  0.500000  0.630143  0.184959  1
  B  B25  1  0.500000  0.370030  0.815253  1
  B  B26  1  0.500000  0.129804  0.315317  1
  B  B27  1  0.500000  0.869926  0.684654  1
  B  B28  1  0.500000  0.981538  0.212632  1
  B  B29  1  0.500000  0.018301  0.787213  1
  B  B30  1  0.500000  0.482063  0.287504  1
  B  B31  1  0.500000  0.518321  0.712694  1
  B  B32  1  0.500000  0.598041  0.027386  1
  B  B33  1  0.500000  0.402178  0.973099  1
  B  B34  1  0.500000  0.097653  0.472579  1
  B  B35  1  0.500000  0.901735  0.527100  1
