# generated using pymatgen
data_FeNi3(OsO3)8
_symmetry_space_group_name_H-M   'P 1'
_cell_length_a   4.59723450
_cell_length_b   10.41314686
_cell_length_c   9.18304107
_cell_angle_alpha   63.83644924
_cell_angle_beta   89.94550809
_cell_angle_gamma   89.97596986
_symmetry_Int_Tables_number   1
_chemical_formula_structural   FeNi3(OsO3)8
_chemical_formula_sum   'Fe1 Ni3 Os8 O24'
_cell_volume   394.56479878
_cell_formula_units_Z   1
loop_
 _symmetry_equiv_pos_site_id
 _symmetry_equiv_pos_as_xyz
  1  'x, y, z'
loop_
 _atom_site_type_symbol
 _atom_site_label
 _atom_site_symmetry_multiplicity
 _atom_site_fract_x
 _atom_site_fract_y
 _atom_site_fract_z
 _atom_site_occupancy
  Fe  Fe0  1  0.000000  0.000000  0.000000  1
  Ni  Ni1  1  0.500000  0.500000  0.000000  1
  Ni  Ni2  1  0.000000  0.000000  0.500000  1
  Ni  Ni3  1  0.500000  0.500000  0.500000  1
  Os  Os4  1  0.000000  0.667746  0.166127  1
  Os  Os5  1  0.000000  0.670137  0.664932  1
  Os  Os6  1  0.501315  0.169624  0.165933  1
  Os  Os7  1  0.498685  0.169624  0.664443  1
  Os  Os8  1  0.498685  0.830376  0.834067  1
  Os  Os9  1  0.501315  0.830376  0.335557  1
  Os  Os10  1  0.000000  0.329863  0.335068  1
  Os  Os11  1  0.000000  0.332254  0.833873  1
  O  O12  1  0.686558  0.000000  0.157143  1
  O  O13  1  0.681500  0.000000  0.658426  1
  O  O14  1  0.816763  0.499029  0.158512  1
  O  O15  1  0.816763  0.500971  0.657541  1
  O  O16  1  0.183237  0.500971  0.841488  1
  O  O17  1  0.183237  0.499029  0.342459  1
  O  O18  1  0.318500  0.000000  0.341574  1
  O  O19  1  0.313442  0.000000  0.842857  1
  O  O20  1  0.702434  0.674810  0.811808  1
  O  O21  1  0.704031  0.676500  0.309176  1
  O  O22  1  0.295969  0.676500  0.014325  1
  O  O23  1  0.297566  0.674810  0.513383  1
  O  O24  1  0.297566  0.325190  0.188192  1
  O  O25  1  0.295969  0.323500  0.690824  1
  O  O26  1  0.202023  0.825929  0.688156  1
  O  O27  1  0.200507  0.829470  0.185540  1
  O  O28  1  0.799493  0.829470  0.984989  1
  O  O29  1  0.797977  0.825929  0.485914  1
  O  O30  1  0.797977  0.174071  0.311844  1
  O  O31  1  0.799493  0.170530  0.814460  1
  O  O32  1  0.200507  0.170530  0.015011  1
  O  O33  1  0.202023  0.174071  0.514086  1
  O  O34  1  0.704031  0.323500  0.985675  1
  O  O35  1  0.702434  0.325190  0.486617  1
