# generated using pymatgen
data_Pa2(Al3Os)3
_symmetry_space_group_name_H-M   'P 1'
_cell_length_a   7.61443361
_cell_length_b   7.61443448
_cell_length_c   9.36765300
_cell_angle_alpha   90.00000000
_cell_angle_beta   90.00000000
_cell_angle_gamma   119.34007544
_symmetry_Int_Tables_number   1
_chemical_formula_structural   Pa2(Al3Os)3
_chemical_formula_sum   'Pa4 Al18 Os6'
_cell_volume   473.46342123
_cell_formula_units_Z   2
loop_
 _symmetry_equiv_pos_site_id
 _symmetry_equiv_pos_as_xyz
  1  'x, y, z'
loop_
 _atom_site_type_symbol
 _atom_site_label
 _atom_site_symmetry_multiplicity
 _atom_site_fract_x
 _atom_site_fract_y
 _atom_site_fract_z
 _atom_site_occupancy
  Pa  Pa0  1  0.997177  0.674267  0.250000  1
  Pa  Pa1  1  0.002823  0.325733  0.750000  1
  Pa  Pa2  1  0.674267  0.997177  0.250000  1
  Pa  Pa3  1  0.325733  0.002823  0.750000  1
  Al  Al4  1  0.131846  0.131846  0.250000  1
  Al  Al5  1  0.868154  0.868154  0.750000  1
  Al  Al6  1  0.006201  0.337598  0.077696  1
  Al  Al7  1  0.993799  0.662402  0.922304  1
  Al  Al8  1  0.993799  0.662402  0.577696  1
  Al  Al9  1  0.337598  0.006201  0.422304  1
  Al  Al10  1  0.006201  0.337598  0.422304  1
  Al  Al11  1  0.662402  0.993799  0.577696  1
  Al  Al12  1  0.662402  0.993799  0.922304  1
  Al  Al13  1  0.337598  0.006201  0.077696  1
  Al  Al14  1  0.336280  0.336280  0.549782  1
  Al  Al15  1  0.663720  0.663720  0.450218  1
  Al  Al16  1  0.663720  0.663720  0.049782  1
  Al  Al17  1  0.336280  0.336280  0.950218  1
  Al  Al18  1  0.343038  0.550856  0.250000  1
  Al  Al19  1  0.656962  0.449144  0.750000  1
  Al  Al20  1  0.550856  0.343038  0.250000  1
  Al  Al21  1  0.449144  0.656962  0.750000  1
  Os  Os22  1  0.674631  0.325369  0.000000  1
  Os  Os23  1  0.325369  0.674631  0.000000  1
  Os  Os24  1  0.325369  0.674631  0.500000  1
  Os  Os25  1  0.674631  0.325369  0.500000  1
  Os  Os26  1  0.000000  0.000000  0.000000  1
  Os  Os27  1  0.000000  0.000000  0.500000  1
