# generated using pymatgen
data_Tm3LuAl18(OsRh2)2
_symmetry_space_group_name_H-M   'P 1'
_cell_length_a   7.49092935
_cell_length_b   7.49207707
_cell_length_c   9.46010500
_cell_angle_alpha   90.00000000
_cell_angle_beta   90.00000000
_cell_angle_gamma   118.45965712
_symmetry_Int_Tables_number   1
_chemical_formula_structural   Tm3LuAl18(OsRh2)2
_chemical_formula_sum   'Tm3 Lu1 Al18 Os2 Rh4'
_cell_volume   466.76500925
_cell_formula_units_Z   1
loop_
 _symmetry_equiv_pos_site_id
 _symmetry_equiv_pos_as_xyz
  1  'x, y, z'
loop_
 _atom_site_type_symbol
 _atom_site_label
 _atom_site_symmetry_multiplicity
 _atom_site_fract_x
 _atom_site_fract_y
 _atom_site_fract_z
 _atom_site_occupancy
  Tm  Tm0  1  0.993653  0.682568  0.250000  1
  Tm  Tm1  1  0.007067  0.317717  0.750000  1
  Tm  Tm2  1  0.682547  0.993631  0.250000  1
  Lu  Lu3  1  0.317430  0.007091  0.750000  1
  Al  Al4  1  0.134409  0.134330  0.250000  1
  Al  Al5  1  0.865762  0.865649  0.750000  1
  Al  Al6  1  0.002628  0.338592  0.075509  1
  Al  Al7  1  0.997558  0.661512  0.924433  1
  Al  Al8  1  0.997558  0.661512  0.575567  1
  Al  Al9  1  0.338569  0.002515  0.424820  1
  Al  Al10  1  0.002628  0.338592  0.424491  1
  Al  Al11  1  0.660994  0.997271  0.575672  1
  Al  Al12  1  0.660994  0.997271  0.924328  1
  Al  Al13  1  0.338569  0.002515  0.075180  1
  Al  Al14  1  0.331277  0.331013  0.546855  1
  Al  Al15  1  0.668723  0.668746  0.453679  1
  Al  Al16  1  0.668723  0.668746  0.046321  1
  Al  Al17  1  0.331277  0.331013  0.953145  1
  Al  Al18  1  0.341375  0.556225  0.250000  1
  Al  Al19  1  0.658290  0.443586  0.750000  1
  Al  Al20  1  0.556075  0.341274  0.250000  1
  Al  Al21  1  0.443858  0.658863  0.750000  1
  Os  Os22  1  0.000244  0.000090  0.999746  1
  Os  Os23  1  0.000244  0.000090  0.500254  1
  Rh  Rh24  1  0.671788  0.327964  0.999955  1
  Rh  Rh25  1  0.327985  0.671830  0.999963  1
  Rh  Rh26  1  0.327985  0.671830  0.500037  1
  Rh  Rh27  1  0.671788  0.327964  0.500045  1
