# generated using pymatgen
data_Ac8Er11LuSn16
_symmetry_space_group_name_H-M   'P 1'
_cell_length_a   8.24811400
_cell_length_b   8.40195168
_cell_length_c   15.86891200
_cell_angle_alpha   90.00000000
_cell_angle_beta   90.00000000
_cell_angle_gamma   90.02297436
_symmetry_Int_Tables_number   1
_chemical_formula_structural   Ac8Er11LuSn16
_chemical_formula_sum   'Ac8 Er11 Lu1 Sn16'
_cell_volume   1099.71956360
_cell_formula_units_Z   1
loop_
 _symmetry_equiv_pos_site_id
 _symmetry_equiv_pos_as_xyz
  1  'x, y, z'
loop_
 _atom_site_type_symbol
 _atom_site_label
 _atom_site_symmetry_multiplicity
 _atom_site_fract_x
 _atom_site_fract_y
 _atom_site_fract_z
 _atom_site_occupancy
  Ac  Ac0  1  0.512817  0.324335  0.904869  1
  Ac  Ac1  1  0.012777  0.175175  0.595012  1
  Ac  Ac2  1  0.487119  0.675544  0.404661  1
  Ac  Ac3  1  0.987439  0.825047  0.095325  1
  Ac  Ac4  1  0.487119  0.675544  0.095339  1
  Ac  Ac5  1  0.987439  0.825047  0.404675  1
  Ac  Ac6  1  0.512817  0.324335  0.595131  1
  Ac  Ac7  1  0.012777  0.175175  0.904988  1
  Er  Er8  1  0.354102  0.838039  0.875640  1
  Er  Er9  1  0.853954  0.661641  0.624646  1
  Er  Er10  1  0.645543  0.161678  0.375334  1
  Er  Er11  1  0.146429  0.338172  0.124778  1
  Er  Er12  1  0.645543  0.161678  0.124666  1
  Er  Er13  1  0.146429  0.338172  0.375222  1
  Er  Er14  1  0.354102  0.838039  0.624360  1
  Er  Er15  1  0.853954  0.661641  0.875354  1
  Er  Er16  1  0.189353  0.504856  0.750000  1
  Er  Er17  1  0.689377  0.995332  0.750000  1
  Er  Er18  1  0.810993  0.495317  0.250000  1
  Lu  Lu19  1  0.310699  0.005600  0.250000  1
  Sn  Sn20  1  0.314229  0.045770  0.044778  1
  Sn  Sn21  1  0.814623  0.454351  0.455553  1
  Sn  Sn22  1  0.685559  0.953955  0.544096  1
  Sn  Sn23  1  0.185555  0.545433  0.955895  1
  Sn  Sn24  1  0.685559  0.953955  0.955904  1
  Sn  Sn25  1  0.185555  0.545433  0.544105  1
  Sn  Sn26  1  0.314229  0.045770  0.455222  1
  Sn  Sn27  1  0.814623  0.454351  0.044447  1
  Sn  Sn28  1  0.551501  0.633971  0.750000  1
  Sn  Sn29  1  0.051685  0.866407  0.750000  1
  Sn  Sn30  1  0.448315  0.366070  0.250000  1
  Sn  Sn31  1  0.948968  0.133533  0.250000  1
  Sn  Sn32  1  0.320013  0.135472  0.750000  1
  Sn  Sn33  1  0.820151  0.364039  0.750000  1
  Sn  Sn34  1  0.679492  0.864515  0.250000  1
  Sn  Sn35  1  0.179167  0.636610  0.250000  1
