# generated using pymatgen
data_BaAsF7
_symmetry_space_group_name_H-M   'P 1'
_cell_length_a   4.87245821
_cell_length_b   7.64506136
_cell_length_c   7.89185275
_cell_angle_alpha   106.74544981
_cell_angle_beta   100.81478322
_cell_angle_gamma   90.62438345
_symmetry_Int_Tables_number   1
_chemical_formula_structural   BaAsF7
_chemical_formula_sum   'Ba2 As2 F14'
_cell_volume   275.84717700
_cell_formula_units_Z   2
loop_
 _symmetry_equiv_pos_site_id
 _symmetry_equiv_pos_as_xyz
  1  'x, y, z'
loop_
 _atom_site_type_symbol
 _atom_site_label
 _atom_site_symmetry_multiplicity
 _atom_site_fract_x
 _atom_site_fract_y
 _atom_site_fract_z
 _atom_site_occupancy
  Ba  Ba0  1  0.179797  0.339374  0.787824  1
  Ba  Ba1  1  0.820203  0.660626  0.212176  1
  As  As2  1  0.648073  0.811316  0.709644  1
  As  As3  1  0.351927  0.188684  0.290356  1
  F  F4  1  0.141719  0.180293  0.079485  1
  F  F5  1  0.441757  0.795043  0.492820  1
  F  F6  1  0.558243  0.204957  0.507180  1
  F  F7  1  0.503158  0.018331  0.805395  1
  F  F8  1  0.496842  0.981669  0.194605  1
  F  F9  1  0.379805  0.683936  0.753928  1
  F  F10  1  0.858281  0.819707  0.920515  1
  F  F11  1  0.281306  0.584470  0.096825  1
  F  F12  1  0.086192  0.061849  0.341514  1
  F  F13  1  0.201073  0.393752  0.394906  1
  F  F14  1  0.718694  0.415530  0.903175  1
  F  F15  1  0.798927  0.606248  0.605094  1
  F  F16  1  0.620195  0.316064  0.246072  1
  F  F17  1  0.913808  0.938151  0.658486  1
