# generated using pymatgen
data_Zr6Nb4Al12CrIr6
_symmetry_space_group_name_H-M   'P 1'
_cell_length_a   8.83049612
_cell_length_b   8.83049681
_cell_length_c   8.83049700
_cell_angle_alpha   60.00000302
_cell_angle_beta   60.00000044
_cell_angle_gamma   60.00000720
_symmetry_Int_Tables_number   1
_chemical_formula_structural   Zr6Nb4Al12CrIr6
_chemical_formula_sum   'Zr6 Nb4 Al12 Cr1 Ir6'
_cell_volume   486.90073067
_cell_formula_units_Z   1
loop_
 _symmetry_equiv_pos_site_id
 _symmetry_equiv_pos_as_xyz
  1  'x, y, z'
loop_
 _atom_site_type_symbol
 _atom_site_label
 _atom_site_symmetry_multiplicity
 _atom_site_fract_x
 _atom_site_fract_y
 _atom_site_fract_z
 _atom_site_occupancy
  Zr  Zr0  1  0.692204  0.692204  0.307796  1
  Zr  Zr1  1  0.307796  0.692204  0.307796  1
  Zr  Zr2  1  0.692204  0.307796  0.307796  1
  Zr  Zr3  1  0.307796  0.307796  0.692204  1
  Zr  Zr4  1  0.692204  0.307796  0.692204  1
  Zr  Zr5  1  0.307796  0.692204  0.692204  1
  Nb  Nb6  1  0.882045  0.882045  0.353865  1
  Nb  Nb7  1  0.882045  0.353865  0.882045  1
  Nb  Nb8  1  0.353865  0.882045  0.882045  1
  Nb  Nb9  1  0.882045  0.882045  0.882045  1
  Al  Al10  1  0.119246  0.119246  0.642261  1
  Al  Al11  1  0.119246  0.642261  0.119246  1
  Al  Al12  1  0.642261  0.119246  0.119246  1
  Al  Al13  1  0.119246  0.119246  0.119246  1
  Al  Al14  1  0.662113  0.662113  0.013661  1
  Al  Al15  1  0.662113  0.013661  0.662113  1
  Al  Al16  1  0.013661  0.662113  0.662113  1
  Al  Al17  1  0.662113  0.662113  0.662113  1
  Al  Al18  1  0.336735  0.336735  0.989797  1
  Al  Al19  1  0.336735  0.989797  0.336735  1
  Al  Al20  1  0.989797  0.336735  0.336735  1
  Al  Al21  1  0.336735  0.336735  0.336735  1
  Cr  Cr22  1  0.000000  0.000000  0.000000  1
  Ir  Ir23  1  0.999280  0.999280  0.500720  1
  Ir  Ir24  1  0.500720  0.999280  0.500720  1
  Ir  Ir25  1  0.999280  0.500720  0.500720  1
  Ir  Ir26  1  0.500720  0.500720  0.999280  1
  Ir  Ir27  1  0.999280  0.500720  0.999280  1
  Ir  Ir28  1  0.500720  0.999280  0.999280  1
