# generated using pymatgen
data_VNi6W
_symmetry_space_group_name_H-M   'P 1'
_cell_length_a   4.18186100
_cell_length_b   4.43162600
_cell_length_c   5.00634000
_cell_angle_alpha   90.00000000
_cell_angle_beta   90.00000000
_cell_angle_gamma   90.00000000
_symmetry_Int_Tables_number   1
_chemical_formula_structural   VNi6W
_chemical_formula_sum   'V1 Ni6 W1'
_cell_volume   92.77971537
_cell_formula_units_Z   1
loop_
 _symmetry_equiv_pos_site_id
 _symmetry_equiv_pos_as_xyz
  1  'x, y, z'
loop_
 _atom_site_type_symbol
 _atom_site_label
 _atom_site_symmetry_multiplicity
 _atom_site_fract_x
 _atom_site_fract_y
 _atom_site_fract_z
 _atom_site_occupancy
  V  V0  1  0.000000  0.346947  0.000000  1
  Ni  Ni1  1  0.000000  0.331425  0.500000  1
  Ni  Ni2  1  0.500000  0.663530  0.000000  1
  Ni  Ni3  1  0.500000  0.161602  0.753636  1
  Ni  Ni4  1  0.500000  0.161602  0.246364  1
  Ni  Ni5  1  0.000000  0.839620  0.752628  1
  Ni  Ni6  1  0.000000  0.839620  0.247372  1
  W  W7  1  0.500000  0.655654  0.500000  1
