# generated using pymatgen
data_TmLu3Tc8
_symmetry_space_group_name_H-M   'P 1'
_cell_length_a   5.33295300
_cell_length_b   5.33295344
_cell_length_c   8.77755600
_cell_angle_alpha   90.00000000
_cell_angle_beta   90.00000000
_cell_angle_gamma   120.00000344
_symmetry_Int_Tables_number   1
_chemical_formula_structural   TmLu3Tc8
_chemical_formula_sum   'Tm1 Lu3 Tc8'
_cell_volume   216.19207713
_cell_formula_units_Z   1
loop_
 _symmetry_equiv_pos_site_id
 _symmetry_equiv_pos_as_xyz
  1  'x, y, z'
loop_
 _atom_site_type_symbol
 _atom_site_label
 _atom_site_symmetry_multiplicity
 _atom_site_fract_x
 _atom_site_fract_y
 _atom_site_fract_z
 _atom_site_occupancy
  Tm  Tm0  1  0.333333  0.666667  0.062454  1
  Lu  Lu1  1  0.333333  0.666667  0.437499  1
  Lu  Lu2  1  0.666667  0.333333  0.562598  1
  Lu  Lu3  1  0.666667  0.333333  0.937264  1
  Tc  Tc4  1  0.000000  0.000000  0.500153  1
  Tc  Tc5  1  0.000000  0.000000  0.000013  1
  Tc  Tc6  1  0.828536  0.171464  0.250360  1
  Tc  Tc7  1  0.828536  0.657072  0.250360  1
  Tc  Tc8  1  0.342928  0.171464  0.250360  1
  Tc  Tc9  1  0.171449  0.828551  0.749646  1
  Tc  Tc10  1  0.171449  0.342898  0.749646  1
  Tc  Tc11  1  0.657102  0.828551  0.749646  1
