# generated using pymatgen
data_K3Tb(VS4)2
_symmetry_space_group_name_H-M   'P 1'
_cell_length_a   8.86049594
_cell_length_b   9.92591519
_cell_length_c   10.70523900
_cell_angle_alpha   107.19372171
_cell_angle_beta   103.04794753
_cell_angle_gamma   113.94745922
_symmetry_Int_Tables_number   1
_chemical_formula_structural   K3Tb(VS4)2
_chemical_formula_sum   'K6 Tb2 V4 S16'
_cell_volume   754.80528142
_cell_formula_units_Z   2
loop_
 _symmetry_equiv_pos_site_id
 _symmetry_equiv_pos_as_xyz
  1  'x, y, z'
loop_
 _atom_site_type_symbol
 _atom_site_label
 _atom_site_symmetry_multiplicity
 _atom_site_fract_x
 _atom_site_fract_y
 _atom_site_fract_z
 _atom_site_occupancy
  K  K0  1  0.999993  0.499993  0.000005  1
  K  K1  1  0.499999  0.499989  0.000001  1
  K  K2  1  0.755598  0.005622  0.010987  1
  K  K3  1  0.989819  0.740055  0.480281  1
  K  K4  1  0.010189  0.259955  0.519732  1
  K  K5  1  0.244411  0.994400  0.989020  1
  Tb  Tb6  1  0.491725  0.241654  0.483394  1
  Tb  Tb7  1  0.508280  0.758348  0.516604  1
  V  V8  1  0.246132  0.345935  0.252413  1
  V  V9  1  0.506339  0.906491  0.252316  1
  V  V10  1  0.493653  0.093493  0.747666  1
  V  V11  1  0.753862  0.654069  0.747594  1
  S  S12  1  0.144483  0.269969  0.028313  1
  S  S13  1  0.383941  0.758390  0.028211  1
  S  S14  1  0.154147  0.128478  0.290444  1
  S  S15  1  0.636475  0.161991  0.290572  1
  S  S16  1  0.309672  0.867575  0.344890  1
  S  S17  1  0.535368  0.477378  0.345037  1
  S  S18  1  0.151086  0.499248  0.353540  1
  S  S19  1  0.702392  0.854223  0.353483  1
  S  S20  1  0.297598  0.145785  0.646508  1
  S  S21  1  0.848911  0.500761  0.646473  1
  S  S22  1  0.464636  0.522629  0.654971  1
  S  S23  1  0.690352  0.132428  0.655096  1
  S  S24  1  0.363512  0.837981  0.709414  1
  S  S25  1  0.845851  0.871521  0.709568  1
  S  S26  1  0.616060  0.241608  0.971776  1
  S  S27  1  0.855514  0.730033  0.971690  1
