# generated using pymatgen
data_Li3Zn(GaPt)4
_symmetry_space_group_name_H-M   'P 1'
_cell_length_a   5.24973844
_cell_length_b   4.33312300
_cell_length_c   7.49333700
_cell_angle_alpha   90.00000000
_cell_angle_beta   89.57497120
_cell_angle_gamma   90.00000000
_symmetry_Int_Tables_number   1
_chemical_formula_structural   Li3Zn(GaPt)4
_chemical_formula_sum   'Li3 Zn1 Ga4 Pt4'
_cell_volume   170.45195959
_cell_formula_units_Z   1
loop_
 _symmetry_equiv_pos_site_id
 _symmetry_equiv_pos_as_xyz
  1  'x, y, z'
loop_
 _atom_site_type_symbol
 _atom_site_label
 _atom_site_symmetry_multiplicity
 _atom_site_fract_x
 _atom_site_fract_y
 _atom_site_fract_z
 _atom_site_occupancy
  Li  Li0  1  0.505119  0.749999  0.250749  1
  Li  Li1  1  0.492697  0.249999  0.749567  1
  Li  Li2  1  0.994263  0.249999  0.749429  1
  Zn  Zn3  1  0.003980  0.749999  0.250550  1
  Ga  Ga4  1  0.677478  0.249999  0.078001  1
  Ga  Ga5  1  0.322342  0.249999  0.420284  1
  Ga  Ga6  1  0.684045  0.749999  0.589291  1
  Ga  Ga7  1  0.318111  0.749999  0.912274  1
  Pt  Pt8  1  0.189282  0.249999  0.084776  1
  Pt  Pt9  1  0.810364  0.249999  0.413495  1
  Pt  Pt10  1  0.188268  0.749999  0.581331  1
  Pt  Pt11  1  0.814044  0.749999  0.920250  1
