# generated using pymatgen
data_Nd3Ho(NbRu3)2
_symmetry_space_group_name_H-M   'P 1'
_cell_length_a   5.81247204
_cell_length_b   5.81247165
_cell_length_c   8.02571906
_cell_angle_alpha   90.01255135
_cell_angle_beta   89.98744854
_cell_angle_gamma   119.99941045
_symmetry_Int_Tables_number   1
_chemical_formula_structural   Nd3Ho(NbRu3)2
_chemical_formula_sum   'Nd3 Ho1 Nb2 Ru6'
_cell_volume   234.82205043
_cell_formula_units_Z   1
loop_
 _symmetry_equiv_pos_site_id
 _symmetry_equiv_pos_as_xyz
  1  'x, y, z'
loop_
 _atom_site_type_symbol
 _atom_site_label
 _atom_site_symmetry_multiplicity
 _atom_site_fract_x
 _atom_site_fract_y
 _atom_site_fract_z
 _atom_site_occupancy
  Nd  Nd0  1  0.666662  0.333338  0.560450  1
  Nd  Nd1  1  0.333345  0.666655  0.438057  1
  Nd  Nd2  1  0.333332  0.666668  0.059687  1
  Ho  Ho3  1  0.666658  0.333342  0.941433  1
  Nb  Nb4  1  0.999998  0.000002  0.502954  1
  Nb  Nb5  1  0.999996  0.000004  0.001780  1
  Ru  Ru6  1  0.169295  0.338628  0.751023  1
  Ru  Ru7  1  0.169307  0.830693  0.750966  1
  Ru  Ru8  1  0.661372  0.830705  0.751023  1
  Ru  Ru9  1  0.830009  0.659963  0.247526  1
  Ru  Ru10  1  0.829989  0.170011  0.247576  1
  Ru  Ru11  1  0.340037  0.169991  0.247526  1
