# generated using pymatgen
data_Ta5Ti5Ge6C
_symmetry_space_group_name_H-M   'P 1'
_cell_length_a   7.63819200
_cell_length_b   7.63113385
_cell_length_c   5.18254500
_cell_angle_alpha   89.99902468
_cell_angle_beta   90.00195633
_cell_angle_gamma   120.03060068
_symmetry_Int_Tables_number   1
_chemical_formula_structural   Ta5Ti5Ge6C
_chemical_formula_sum   'Ta5 Ti5 Ge6 C1'
_cell_volume   261.52870101
_cell_formula_units_Z   1
loop_
 _symmetry_equiv_pos_site_id
 _symmetry_equiv_pos_as_xyz
  1  'x, y, z'
loop_
 _atom_site_type_symbol
 _atom_site_label
 _atom_site_symmetry_multiplicity
 _atom_site_fract_x
 _atom_site_fract_y
 _atom_site_fract_z
 _atom_site_occupancy
  Ta  Ta0  1  0.000269  0.764349  0.253197  1
  Ta  Ta1  1  0.235920  0.235651  0.253197  1
  Ta  Ta2  1  0.763863  0.000000  0.246692  1
  Ta  Ta3  1  0.999099  0.234789  0.749953  1
  Ta  Ta4  1  0.764311  0.765211  0.749953  1
  Ti  Ti5  1  0.235580  0.000000  0.747212  1
  Ti  Ti6  1  0.333946  0.666087  0.999524  1
  Ti  Ti7  1  0.667860  0.333913  0.999524  1
  Ti  Ti8  1  0.669038  0.335181  0.500146  1
  Ti  Ti9  1  0.333856  0.664819  0.500146  1
  Ge  Ge10  1  0.000260  0.403774  0.246088  1
  Ge  Ge11  1  0.596486  0.596226  0.246088  1
  Ge  Ge12  1  0.401822  0.000000  0.245418  1
  Ge  Ge13  1  0.003641  0.601641  0.754555  1
  Ge  Ge14  1  0.402000  0.398359  0.754555  1
  Ge  Ge15  1  0.592517  0.000000  0.752171  1
  C  C16  1  0.999531  0.000000  0.501581  1
