# generated using pymatgen
data_Y3Cd5Au
_symmetry_space_group_name_H-M   'P 1'
_cell_length_a   8.15226600
_cell_length_b   8.15226611
_cell_length_c   3.79412300
_cell_angle_alpha   90.00000000
_cell_angle_beta   90.00000000
_cell_angle_gamma   120.00000768
_symmetry_Int_Tables_number   1
_chemical_formula_structural   Y3Cd5Au
_chemical_formula_sum   'Y3 Cd5 Au1'
_cell_volume   218.37287574
_cell_formula_units_Z   1
loop_
 _symmetry_equiv_pos_site_id
 _symmetry_equiv_pos_as_xyz
  1  'x, y, z'
loop_
 _atom_site_type_symbol
 _atom_site_label
 _atom_site_symmetry_multiplicity
 _atom_site_fract_x
 _atom_site_fract_y
 _atom_site_fract_z
 _atom_site_occupancy
  Y  Y0  1  0.610088  0.020292  0.000000  1
  Y  Y1  1  0.979708  0.589795  0.000000  1
  Y  Y2  1  0.410205  0.389912  0.000000  1
  Cd  Cd3  1  0.271308  0.993277  0.500000  1
  Cd  Cd4  1  0.006723  0.278031  0.500000  1
  Cd  Cd5  1  0.721969  0.728692  0.500000  1
  Cd  Cd6  1  0.333333  0.666667  0.500000  1
  Cd  Cd7  1  0.000000  0.000000  0.000000  1
  Au  Au8  1  0.666667  0.333333  0.500000  1
