# generated using pymatgen
data_Tb3DyY2(AlC3)2
_symmetry_space_group_name_H-M   'P 1'
_cell_length_a   3.58923500
_cell_length_b   7.08997820
_cell_length_c   10.00850655
_cell_angle_alpha   89.88380765
_cell_angle_beta   90.00000000
_cell_angle_gamma   90.00000000
_symmetry_Int_Tables_number   1
_chemical_formula_structural   Tb3DyY2(AlC3)2
_chemical_formula_sum   'Tb3 Dy1 Y2 Al2 C6'
_cell_volume   254.69192673
_cell_formula_units_Z   1
loop_
 _symmetry_equiv_pos_site_id
 _symmetry_equiv_pos_as_xyz
  1  'x, y, z'
loop_
 _atom_site_type_symbol
 _atom_site_label
 _atom_site_symmetry_multiplicity
 _atom_site_fract_x
 _atom_site_fract_y
 _atom_site_fract_z
 _atom_site_occupancy
  Tb  Tb0  1  0.500000  0.510008  0.199425  1
  Tb  Tb1  1  0.000000  0.750045  0.458722  1
  Tb  Tb2  1  0.000000  0.250256  0.541415  1
  Dy  Dy3  1  0.500000  0.488568  0.800437  1
  Y  Y4  1  0.500000  0.990095  0.199257  1
  Y  Y5  1  0.500000  0.009860  0.800508  1
  Al  Al6  1  0.000000  0.751219  0.005820  1
  Al  Al7  1  0.000000  0.248535  0.993587  1
  C  C8  1  0.500000  0.509085  0.566530  1
  C  C9  1  0.500000  0.491336  0.434814  1
  C  C10  1  0.500000  0.991163  0.565751  1
  C  C11  1  0.500000  0.009133  0.434096  1
  C  C12  1  0.000000  0.749754  0.208215  1
  C  C13  1  0.000000  0.250943  0.791422  1
