# generated using pymatgen
data_K2SmLuB24
_symmetry_space_group_name_H-M   'P 1'
_cell_length_a   4.15702000
_cell_length_b   4.15702000
_cell_length_c   16.67507900
_cell_angle_alpha   90.00000000
_cell_angle_beta   90.00000000
_cell_angle_gamma   90.00000000
_symmetry_Int_Tables_number   1
_chemical_formula_structural   K2SmLuB24
_chemical_formula_sum   'K2 Sm1 Lu1 B24'
_cell_volume   288.15895999
_cell_formula_units_Z   1
loop_
 _symmetry_equiv_pos_site_id
 _symmetry_equiv_pos_as_xyz
  1  'x, y, z'
loop_
 _atom_site_type_symbol
 _atom_site_label
 _atom_site_symmetry_multiplicity
 _atom_site_fract_x
 _atom_site_fract_y
 _atom_site_fract_z
 _atom_site_occupancy
  K  K0  1  0.000000  0.000000  0.250512  1
  K  K1  1  0.000000  0.000000  0.749488  1
  Sm  Sm2  1  0.000000  0.000000  0.000000  1
  Lu  Lu3  1  0.000000  0.000000  0.500000  1
  B  B4  1  0.201596  0.500000  0.123010  1
  B  B5  1  0.201260  0.500000  0.378519  1
  B  B6  1  0.201260  0.500000  0.621481  1
  B  B7  1  0.201596  0.500000  0.876990  1
  B  B8  1  0.500000  0.500000  0.198737  1
  B  B9  1  0.500000  0.500000  0.451266  1
  B  B10  1  0.500000  0.500000  0.697486  1
  B  B11  1  0.500000  0.500000  0.950584  1
  B  B12  1  0.500000  0.201596  0.123010  1
  B  B13  1  0.500000  0.201260  0.378519  1
  B  B14  1  0.500000  0.201260  0.621481  1
  B  B15  1  0.500000  0.201596  0.876990  1
  B  B16  1  0.500000  0.500000  0.049416  1
  B  B17  1  0.500000  0.500000  0.302514  1
  B  B18  1  0.500000  0.500000  0.548734  1
  B  B19  1  0.500000  0.500000  0.801263  1
  B  B20  1  0.500000  0.798404  0.123010  1
  B  B21  1  0.500000  0.798740  0.378519  1
  B  B22  1  0.500000  0.798740  0.621481  1
  B  B23  1  0.500000  0.798404  0.876990  1
  B  B24  1  0.798404  0.500000  0.123010  1
  B  B25  1  0.798740  0.500000  0.378519  1
  B  B26  1  0.798740  0.500000  0.621481  1
  B  B27  1  0.798404  0.500000  0.876990  1
