# generated using pymatgen
data_Ce2HgPdPt
_symmetry_space_group_name_H-M   'P 1'
_cell_length_a   7.91773000
_cell_length_b   7.91886800
_cell_length_c   3.75149200
_cell_angle_alpha   90.00000000
_cell_angle_beta   90.00000000
_cell_angle_gamma   90.00000000
_symmetry_Int_Tables_number   1
_chemical_formula_structural   Ce2HgPdPt
_chemical_formula_sum   'Ce4 Hg2 Pd2 Pt2'
_cell_volume   235.21651783
_cell_formula_units_Z   2
loop_
 _symmetry_equiv_pos_site_id
 _symmetry_equiv_pos_as_xyz
  1  'x, y, z'
loop_
 _atom_site_type_symbol
 _atom_site_label
 _atom_site_symmetry_multiplicity
 _atom_site_fract_x
 _atom_site_fract_y
 _atom_site_fract_z
 _atom_site_occupancy
  Ce  Ce0  1  0.668278  0.174602  0.500000  1
  Ce  Ce1  1  0.179000  0.326843  0.500000  1
  Ce  Ce2  1  0.831722  0.674602  0.500000  1
  Ce  Ce3  1  0.321000  0.826843  0.500000  1
  Hg  Hg4  1  0.994765  0.004349  0.000000  1
  Hg  Hg5  1  0.505235  0.504349  0.000000  1
  Pd  Pd6  1  0.630198  0.869477  0.000000  1
  Pd  Pd7  1  0.869802  0.369477  0.000000  1
  Pt  Pt8  1  0.374874  0.124729  0.000000  1
  Pt  Pt9  1  0.125126  0.624729  0.000000  1
