# generated using pymatgen
data_Ac2Zn7Si
_symmetry_space_group_name_H-M   'P 1'
_cell_length_a   6.12782749
_cell_length_b   6.12782732
_cell_length_c   6.13944400
_cell_angle_alpha   90.00000000
_cell_angle_beta   90.00000000
_cell_angle_gamma   116.47739218
_symmetry_Int_Tables_number   1
_chemical_formula_structural   Ac2Zn7Si
_chemical_formula_sum   'Ac2 Zn7 Si1'
_cell_volume   206.35674634
_cell_formula_units_Z   1
loop_
 _symmetry_equiv_pos_site_id
 _symmetry_equiv_pos_as_xyz
  1  'x, y, z'
loop_
 _atom_site_type_symbol
 _atom_site_label
 _atom_site_symmetry_multiplicity
 _atom_site_fract_x
 _atom_site_fract_y
 _atom_site_fract_z
 _atom_site_occupancy
  Ac  Ac0  1  0.267055  0.732945  0.750000  1
  Ac  Ac1  1  0.733257  0.266743  0.250000  1
  Zn  Zn2  1  0.146719  0.853281  0.250000  1
  Zn  Zn3  1  0.608599  0.391401  0.750000  1
  Zn  Zn4  1  0.390353  0.609647  0.250000  1
  Zn  Zn5  1  0.783469  0.782797  0.998950  1
  Zn  Zn6  1  0.783469  0.782797  0.501050  1
  Zn  Zn7  1  0.217203  0.216531  0.998950  1
  Zn  Zn8  1  0.217203  0.216531  0.501050  1
  Si  Si9  1  0.852675  0.147325  0.750000  1
