# generated using pymatgen
data_HoZr5(InPt)6
_symmetry_space_group_name_H-M   'P 1'
_cell_length_a   7.55388000
_cell_length_b   7.56113262
_cell_length_c   7.24121300
_cell_angle_alpha   90.00000000
_cell_angle_beta   90.00000000
_cell_angle_gamma   120.03361152
_symmetry_Int_Tables_number   1
_chemical_formula_structural   HoZr5(InPt)6
_chemical_formula_sum   'Ho1 Zr5 In6 Pt6'
_cell_volume   358.05661292
_cell_formula_units_Z   1
loop_
 _symmetry_equiv_pos_site_id
 _symmetry_equiv_pos_as_xyz
  1  'x, y, z'
loop_
 _atom_site_type_symbol
 _atom_site_label
 _atom_site_symmetry_multiplicity
 _atom_site_fract_x
 _atom_site_fract_y
 _atom_site_fract_z
 _atom_site_occupancy
  Ho  Ho0  1  0.393257  0.408452  0.750000  1
  Zr  Zr1  1  0.016084  0.609112  0.750000  1
  Zr  Zr2  1  0.593437  0.984304  0.750000  1
  Zr  Zr3  1  0.611614  0.014078  0.250000  1
  Zr  Zr4  1  0.986909  0.597953  0.250000  1
  Zr  Zr5  1  0.400212  0.388883  0.250000  1
  In  In6  1  0.269897  0.999130  0.998463  1
  In  In7  1  0.729313  0.730524  0.006749  1
  In  In8  1  0.000702  0.270256  0.998293  1
  In  In9  1  0.729313  0.730524  0.493251  1
  In  In10  1  0.269897  0.999130  0.501537  1
  In  In11  1  0.000702  0.270256  0.501707  1
  Pt  Pt12  1  0.669727  0.332526  0.984768  1
  Pt  Pt13  1  0.991295  0.990258  0.750000  1
  Pt  Pt14  1  0.669727  0.332526  0.515232  1
  Pt  Pt15  1  0.332280  0.669228  0.462476  1
  Pt  Pt16  1  0.332280  0.669228  0.037524  1
  Pt  Pt17  1  0.003350  0.003633  0.250000  1
