# generated using pymatgen
data_Lu(AsO3)3
_symmetry_space_group_name_H-M   'P 1'
_cell_length_a   7.00161781
_cell_length_b   7.00161934
_cell_length_c   7.00161783
_cell_angle_alpha   106.94949660
_cell_angle_beta   106.94951071
_cell_angle_gamma   106.94949802
_symmetry_Int_Tables_number   1
_chemical_formula_structural   Lu(AsO3)3
_chemical_formula_sum   'Lu1 As3 O9'
_cell_volume   286.24470688
_cell_formula_units_Z   1
loop_
 _symmetry_equiv_pos_site_id
 _symmetry_equiv_pos_as_xyz
  1  'x, y, z'
loop_
 _atom_site_type_symbol
 _atom_site_label
 _atom_site_symmetry_multiplicity
 _atom_site_fract_x
 _atom_site_fract_y
 _atom_site_fract_z
 _atom_site_occupancy
  Lu  Lu0  1  0.008133  0.008133  0.008133  1
  As  As1  1  0.896973  0.485973  0.045210  1
  As  As2  1  0.485973  0.045210  0.896973  1
  As  As3  1  0.045210  0.896973  0.485973  1
  O  O4  1  0.053607  0.347735  0.077236  1
  O  O5  1  0.614246  0.305099  0.891338  1
  O  O6  1  0.077236  0.053607  0.347735  1
  O  O7  1  0.347735  0.077236  0.053607  1
  O  O8  1  0.949047  0.661731  0.930319  1
  O  O9  1  0.930319  0.949047  0.661731  1
  O  O10  1  0.891338  0.614246  0.305099  1
  O  O11  1  0.661731  0.930319  0.949047  1
  O  O12  1  0.305099  0.891338  0.614246  1
