# generated using pymatgen
data_Er2Ga2Co3Ni3B2
_symmetry_space_group_name_H-M   'P 1'
_cell_length_a   5.14707628
_cell_length_b   5.13867553
_cell_length_c   6.69056600
_cell_angle_alpha   90.00000000
_cell_angle_beta   90.00000000
_cell_angle_gamma   119.63619239
_symmetry_Int_Tables_number   1
_chemical_formula_structural   Er2Ga2Co3Ni3B2
_chemical_formula_sum   'Er2 Ga2 Co3 Ni3 B2'
_cell_volume   153.81041909
_cell_formula_units_Z   1
loop_
 _symmetry_equiv_pos_site_id
 _symmetry_equiv_pos_as_xyz
  1  'x, y, z'
loop_
 _atom_site_type_symbol
 _atom_site_label
 _atom_site_symmetry_multiplicity
 _atom_site_fract_x
 _atom_site_fract_y
 _atom_site_fract_z
 _atom_site_occupancy
  Er  Er0  1  0.000000  0.000000  0.011484  1
  Er  Er1  1  0.000000  0.000000  0.503074  1
  Ga  Ga2  1  0.669351  0.332773  0.998929  1
  Ga  Ga3  1  0.330649  0.667227  0.998929  1
  Co  Co4  1  0.000000  0.500000  0.701877  1
  Co  Co5  1  0.500000  0.000000  0.295710  1
  Co  Co6  1  0.000000  0.500000  0.295244  1
  Ni  Ni7  1  0.500000  0.500000  0.702536  1
  Ni  Ni8  1  0.500000  0.000000  0.703536  1
  Ni  Ni9  1  0.500000  0.500000  0.295123  1
  B  B10  1  0.674841  0.332313  0.496779  1
  B  B11  1  0.325159  0.667687  0.496779  1
