# generated using pymatgen
data_ReTc2SeF24
_symmetry_space_group_name_H-M   'P 1'
_cell_length_a   5.21119695
_cell_length_b   9.10637800
_cell_length_c   9.74275635
_cell_angle_alpha   90.00000000
_cell_angle_beta   89.64471521
_cell_angle_gamma   90.00000000
_symmetry_Int_Tables_number   1
_chemical_formula_structural   ReTc2SeF24
_chemical_formula_sum   'Re1 Tc2 Se1 F24'
_cell_volume   462.33487370
_cell_formula_units_Z   1
loop_
 _symmetry_equiv_pos_site_id
 _symmetry_equiv_pos_as_xyz
  1  'x, y, z'
loop_
 _atom_site_type_symbol
 _atom_site_label
 _atom_site_symmetry_multiplicity
 _atom_site_fract_x
 _atom_site_fract_y
 _atom_site_fract_z
 _atom_site_occupancy
  Re  Re0  1  0.085497  0.250000  0.370046  1
  Tc  Tc1  1  0.418601  0.250000  0.870619  1
  Tc  Tc2  1  0.581211  0.750000  0.129322  1
  Se  Se3  1  0.915171  0.750000  0.630130  1
  F  F4  1  0.181600  0.750000  0.521857  1
  F  F5  1  0.793573  0.250000  0.481536  1
  F  F6  1  0.707529  0.250000  0.983031  1
  F  F7  1  0.290081  0.750000  0.019798  1
  F  F8  1  0.647404  0.750000  0.736935  1
  F  F9  1  0.377308  0.250000  0.258613  1
  F  F10  1  0.129106  0.250000  0.757647  1
  F  F11  1  0.873329  0.750000  0.238917  1
  F  F12  1  0.773362  0.615063  0.529281  1
  F  F13  1  0.232063  0.394310  0.478448  1
  F  F14  1  0.268733  0.395059  0.980009  1
  F  F15  1  0.232063  0.105690  0.478448  1
  F  F16  1  0.726304  0.604696  0.019474  1
  F  F17  1  0.773362  0.884937  0.529281  1
  F  F18  1  0.726304  0.895304  0.019474  1
  F  F19  1  0.268733  0.104941  0.980009  1
  F  F20  1  0.056383  0.615048  0.730110  1
  F  F21  1  0.939830  0.394474  0.261653  1
  F  F22  1  0.566335  0.395148  0.760816  1
  F  F23  1  0.939830  0.105526  0.261653  1
  F  F24  1  0.436784  0.605035  0.240986  1
  F  F25  1  0.056383  0.884952  0.730110  1
  F  F26  1  0.436784  0.894965  0.240986  1
  F  F27  1  0.566335  0.104852  0.760816  1
