# generated using pymatgen
data_Th3Zn5Ga19Pd9
_symmetry_space_group_name_H-M   'P 1'
_cell_length_a   8.51365372
_cell_length_b   8.51365333
_cell_length_c   8.53479345
_cell_angle_alpha   90.20084117
_cell_angle_beta   90.20084799
_cell_angle_gamma   90.06535009
_symmetry_Int_Tables_number   1
_chemical_formula_structural   Th3Zn5Ga19Pd9
_chemical_formula_sum   'Th3 Zn5 Ga19 Pd9'
_cell_volume   618.61341520
_cell_formula_units_Z   1
loop_
 _symmetry_equiv_pos_site_id
 _symmetry_equiv_pos_as_xyz
  1  'x, y, z'
loop_
 _atom_site_type_symbol
 _atom_site_label
 _atom_site_symmetry_multiplicity
 _atom_site_fract_x
 _atom_site_fract_y
 _atom_site_fract_z
 _atom_site_occupancy
  Th  Th0  1  0.000238  0.500327  0.999378  1
  Th  Th1  1  0.499673  0.999762  0.000622  1
  Th  Th2  1  0.000094  0.999906  0.500000  1
  Zn  Zn3  1  0.735587  0.500379  0.263717  1
  Zn  Zn4  1  0.264393  0.499078  0.733061  1
  Zn  Zn5  1  0.499621  0.264413  0.736283  1
  Zn  Zn6  1  0.500922  0.735607  0.266939  1
  Zn  Zn7  1  0.266821  0.733179  0.500000  1
  Ga  Ga8  1  0.996134  0.638291  0.637959  1
  Ga  Ga9  1  0.637193  0.639953  0.997824  1
  Ga  Ga10  1  0.637301  0.991368  0.641596  1
  Ga  Ga11  1  0.008632  0.362699  0.358404  1
  Ga  Ga12  1  0.360047  0.362807  0.002176  1
  Ga  Ga13  1  0.361709  0.003866  0.362041  1
  Ga  Ga14  1  0.734161  0.265839  0.500000  1
  Ga  Ga15  1  0.837065  0.136327  0.838596  1
  Ga  Ga16  1  0.136222  0.837140  0.836869  1
  Ga  Ga17  1  0.836986  0.837123  0.137923  1
  Ga  Ga18  1  0.162860  0.863778  0.163131  1
  Ga  Ga19  1  0.863673  0.162935  0.161404  1
  Ga  Ga20  1  0.162877  0.163014  0.862077  1
  Ga  Ga21  1  0.729863  0.493150  0.734119  1
  Ga  Ga22  1  0.484173  0.727605  0.731192  1
  Ga  Ga23  1  0.730978  0.729751  0.485997  1
  Ga  Ga24  1  0.272395  0.515827  0.268808  1
  Ga  Ga25  1  0.506850  0.270137  0.265881  1
  Ga  Ga26  1  0.270249  0.269022  0.514003  1
  Pd  Pd27  1  0.829582  0.828988  0.830423  1
  Pd  Pd28  1  0.171012  0.170418  0.169577  1
  Pd  Pd29  1  0.667287  0.332713  0.000000  1
  Pd  Pd30  1  0.997495  0.331137  0.665948  1
  Pd  Pd31  1  0.331822  0.998667  0.667622  1
  Pd  Pd32  1  0.331294  0.668706  0.000000  1
  Pd  Pd33  1  0.001333  0.668178  0.332378  1
  Pd  Pd34  1  0.668863  0.002505  0.334052  1
  Pd  Pd35  1  0.504593  0.495407  0.500000  1
