# generated using pymatgen
data_LiLu7Hg8
_symmetry_space_group_name_H-M   'P 1'
_cell_length_a   7.33371705
_cell_length_b   7.33530800
_cell_length_c   7.34442400
_cell_angle_alpha   90.00000000
_cell_angle_beta   89.99313268
_cell_angle_gamma   90.00000000
_symmetry_Int_Tables_number   1
_chemical_formula_structural   LiLu7Hg8
_chemical_formula_sum   'Li1 Lu7 Hg8'
_cell_volume   395.09382507
_cell_formula_units_Z   1
loop_
 _symmetry_equiv_pos_site_id
 _symmetry_equiv_pos_as_xyz
  1  'x, y, z'
loop_
 _atom_site_type_symbol
 _atom_site_label
 _atom_site_symmetry_multiplicity
 _atom_site_fract_x
 _atom_site_fract_y
 _atom_site_fract_z
 _atom_site_occupancy
  Li  Li0  1  0.750002  0.250000  0.999249  1
  Lu  Lu1  1  0.249964  0.250000  0.000035  1
  Lu  Lu2  1  0.749995  0.750000  0.000014  1
  Lu  Lu3  1  0.749967  0.750000  0.499980  1
  Lu  Lu4  1  0.250036  0.250000  0.499972  1
  Lu  Lu5  1  0.250004  0.750000  0.000375  1
  Lu  Lu6  1  0.750005  0.250000  0.499573  1
  Lu  Lu7  1  0.249998  0.750000  0.500632  1
  Hg  Hg8  1  0.502749  0.002709  0.247463  1
  Hg  Hg9  1  0.502749  0.497291  0.247463  1
  Hg  Hg10  1  0.997607  0.497612  0.247591  1
  Hg  Hg11  1  0.997607  0.002388  0.247591  1
  Hg  Hg12  1  0.997209  0.002744  0.752514  1
  Hg  Hg13  1  0.997209  0.497256  0.752514  1
  Hg  Hg14  1  0.502449  0.497552  0.752516  1
  Hg  Hg15  1  0.502449  0.002448  0.752516  1
