# generated using pymatgen
data_Sc12Sn(RuI8)2
_symmetry_space_group_name_H-M   'P 1'
_cell_length_a   9.29747537
_cell_length_b   12.21640806
_cell_length_c   12.89185628
_cell_angle_alpha   117.06509874
_cell_angle_beta   101.15386153
_cell_angle_gamma   100.57778394
_symmetry_Int_Tables_number   1
_chemical_formula_structural   Sc12Sn(RuI8)2
_chemical_formula_sum   'Sc12 Sn1 Ru2 I16'
_cell_volume   1215.91570184
_cell_formula_units_Z   1
loop_
 _symmetry_equiv_pos_site_id
 _symmetry_equiv_pos_as_xyz
  1  'x, y, z'
loop_
 _atom_site_type_symbol
 _atom_site_label
 _atom_site_symmetry_multiplicity
 _atom_site_fract_x
 _atom_site_fract_y
 _atom_site_fract_z
 _atom_site_occupancy
  Sc  Sc0  1  0.107509  0.267239  0.357393  1
  Sc  Sc1  1  0.892491  0.732761  0.642607  1
  Sc  Sc2  1  0.760369  0.536589  0.327343  1
  Sc  Sc3  1  0.239631  0.463411  0.672657  1
  Sc  Sc4  1  0.296572  0.733213  0.642402  1
  Sc  Sc5  1  0.703428  0.266787  0.357598  1
  Sc  Sc6  1  0.164201  0.536682  0.327418  1
  Sc  Sc7  1  0.835799  0.463318  0.672582  1
  Sc  Sc8  1  0.412109  0.368834  0.289418  1
  Sc  Sc9  1  0.587891  0.631166  0.710582  1
  Sc  Sc10  1  0.461754  0.320283  0.520156  1
  Sc  Sc11  1  0.538246  0.679717  0.479844  1
  Sn  Sn12  1  0.000000  0.500000  0.500000  1
  Ru  Ru13  1  0.339271  0.500169  0.499748  1
  Ru  Ru14  1  0.660730  0.499831  0.500252  1
  I  I15  1  0.390140  0.735330  0.876817  1
  I  I16  1  0.609860  0.264670  0.123183  1
  I  I17  1  0.181633  0.949343  0.773576  1
  I  I18  1  0.818367  0.050657  0.226424  1
  I  I19  1  0.339725  0.102141  0.256091  1
  I  I20  1  0.660275  0.897859  0.743909  1
  I  I21  1  0.561136  0.437993  0.795223  1
  I  I22  1  0.438864  0.562007  0.204777  1
  I  I23  1  0.303461  0.822260  0.462996  1
  I  I24  1  0.696539  0.177740  0.537004  1
  I  I25  1  0.166073  0.177516  0.535300  1
  I  I26  1  0.833927  0.822484  0.464700  1
  I  I27  1  0.927929  0.572639  0.169133  1
  I  I28  1  0.072071  0.427361  0.830867  1
  I  I29  1  0.924225  0.734173  0.876914  1
  I  I30  1  0.075775  0.265827  0.123086  1
