# generated using pymatgen
data_Ti10Zn2Bi5Pb
_symmetry_space_group_name_H-M   'P 1'
_cell_length_a   8.41897800
_cell_length_b   8.43087321
_cell_length_c   5.64524300
_cell_angle_alpha   90.00000000
_cell_angle_beta   90.00000000
_cell_angle_gamma   119.95333841
_symmetry_Int_Tables_number   1
_chemical_formula_structural   Ti10Zn2Bi5Pb
_chemical_formula_sum   'Ti10 Zn2 Bi5 Pb1'
_cell_volume   347.17561677
_cell_formula_units_Z   1
loop_
 _symmetry_equiv_pos_site_id
 _symmetry_equiv_pos_as_xyz
  1  'x, y, z'
loop_
 _atom_site_type_symbol
 _atom_site_label
 _atom_site_symmetry_multiplicity
 _atom_site_fract_x
 _atom_site_fract_y
 _atom_site_fract_z
 _atom_site_occupancy
  Ti  Ti0  1  0.268362  0.000000  0.750000  1
  Ti  Ti1  1  0.732760  0.000000  0.250000  1
  Ti  Ti2  1  0.998378  0.267570  0.750000  1
  Ti  Ti3  1  0.000774  0.732403  0.250000  1
  Ti  Ti4  1  0.730809  0.732430  0.750000  1
  Ti  Ti5  1  0.268371  0.267597  0.250000  1
  Ti  Ti6  1  0.333255  0.666528  0.500717  1
  Ti  Ti7  1  0.666727  0.333472  0.500717  1
  Ti  Ti8  1  0.666727  0.333472  0.999283  1
  Ti  Ti9  1  0.333255  0.666528  0.999283  1
  Zn  Zn10  1  0.999431  0.000000  0.500592  1
  Zn  Zn11  1  0.999431  0.000000  0.999408  1
  Bi  Bi12  1  0.385521  0.000000  0.250000  1
  Bi  Bi13  1  0.999872  0.616921  0.750000  1
  Bi  Bi14  1  0.999709  0.382950  0.250000  1
  Bi  Bi15  1  0.382952  0.383079  0.750000  1
  Bi  Bi16  1  0.616759  0.617050  0.250000  1
  Pb  Pb17  1  0.616906  0.000000  0.750000  1
