# generated using pymatgen
data_TaMn8NbOs2
_symmetry_space_group_name_H-M   'P 1'
_cell_length_a   4.71631100
_cell_length_b   4.71631063
_cell_length_c   7.77081200
_cell_angle_alpha   90.00000000
_cell_angle_beta   90.00000000
_cell_angle_gamma   119.99999558
_symmetry_Int_Tables_number   1
_chemical_formula_structural   TaMn8NbOs2
_chemical_formula_sum   'Ta1 Mn8 Nb1 Os2'
_cell_volume   149.69313707
_cell_formula_units_Z   1
loop_
 _symmetry_equiv_pos_site_id
 _symmetry_equiv_pos_as_xyz
  1  'x, y, z'
loop_
 _atom_site_type_symbol
 _atom_site_label
 _atom_site_symmetry_multiplicity
 _atom_site_fract_x
 _atom_site_fract_y
 _atom_site_fract_z
 _atom_site_occupancy
  Ta  Ta0  1  0.333333  0.666667  0.436666  1
  Mn  Mn1  1  0.000000  0.000000  0.996753  1
  Mn  Mn2  1  0.000000  0.000000  0.497262  1
  Mn  Mn3  1  0.826913  0.653824  0.249125  1
  Mn  Mn4  1  0.173335  0.826665  0.748947  1
  Mn  Mn5  1  0.653328  0.826665  0.748947  1
  Mn  Mn6  1  0.346176  0.173087  0.249125  1
  Mn  Mn7  1  0.826913  0.173087  0.249125  1
  Mn  Mn8  1  0.173335  0.346672  0.748947  1
  Nb  Nb9  1  0.666667  0.333333  0.935781  1
  Os  Os10  1  0.333333  0.666667  0.070049  1
  Os  Os11  1  0.666667  0.333333  0.569277  1
