# generated using pymatgen
data_ErMgMn12P7
_symmetry_space_group_name_H-M   'P 1'
_cell_length_a   9.38739800
_cell_length_b   9.38739911
_cell_length_c   3.43629600
_cell_angle_alpha   90.00000000
_cell_angle_beta   90.00000000
_cell_angle_gamma   120.00000126
_symmetry_Int_Tables_number   1
_chemical_formula_structural   ErMgMn12P7
_chemical_formula_sum   'Er1 Mg1 Mn12 P7'
_cell_volume   262.24771109
_cell_formula_units_Z   1
loop_
 _symmetry_equiv_pos_site_id
 _symmetry_equiv_pos_as_xyz
  1  'x, y, z'
loop_
 _atom_site_type_symbol
 _atom_site_label
 _atom_site_symmetry_multiplicity
 _atom_site_fract_x
 _atom_site_fract_y
 _atom_site_fract_z
 _atom_site_occupancy
  Er  Er0  1  0.333333  0.666667  0.000000  1
  Mg  Mg1  1  0.000000  0.000000  0.500000  1
  Mn  Mn2  1  0.044729  0.276756  0.000000  1
  Mn  Mn3  1  0.723244  0.767973  0.000000  1
  Mn  Mn4  1  0.232027  0.955271  0.000000  1
  Mn  Mn5  1  0.551506  0.058861  0.000000  1
  Mn  Mn6  1  0.941139  0.492645  0.000000  1
  Mn  Mn7  1  0.507355  0.448494  0.000000  1
  Mn  Mn8  1  0.618647  0.900502  0.500000  1
  Mn  Mn9  1  0.099498  0.718145  0.500000  1
  Mn  Mn10  1  0.281855  0.381353  0.500000  1
  Mn  Mn11  1  0.797029  0.232869  0.500000  1
  Mn  Mn12  1  0.767131  0.564160  0.500000  1
  Mn  Mn13  1  0.435840  0.202971  0.500000  1
  P  P14  1  0.795851  0.044740  0.000000  1
  P  P15  1  0.955260  0.751111  0.000000  1
  P  P16  1  0.248889  0.204149  0.000000  1
  P  P17  1  0.375944  0.921007  0.500000  1
  P  P18  1  0.078993  0.454938  0.500000  1
  P  P19  1  0.545062  0.624056  0.500000  1
  P  P20  1  0.666667  0.333333  0.000000  1
