# generated using pymatgen
data_BaTa6FeS12
_symmetry_space_group_name_H-M   'P 1'
_cell_length_a   5.78104000
_cell_length_b   5.78103957
_cell_length_c   13.81729600
_cell_angle_alpha   90.00000000
_cell_angle_beta   90.00000000
_cell_angle_gamma   120.00000248
_symmetry_Int_Tables_number   1
_chemical_formula_structural   BaTa6FeS12
_chemical_formula_sum   'Ba1 Ta6 Fe1 S12'
_cell_volume   399.91307027
_cell_formula_units_Z   1
loop_
 _symmetry_equiv_pos_site_id
 _symmetry_equiv_pos_as_xyz
  1  'x, y, z'
loop_
 _atom_site_type_symbol
 _atom_site_label
 _atom_site_symmetry_multiplicity
 _atom_site_fract_x
 _atom_site_fract_y
 _atom_site_fract_z
 _atom_site_occupancy
  Ba  Ba0  1  0.333333  0.666667  0.250000  1
  Ta  Ta1  1  0.000000  0.000000  0.543768  1
  Ta  Ta2  1  0.000000  0.000000  0.956232  1
  Ta  Ta3  1  0.333333  0.666667  0.542682  1
  Ta  Ta4  1  0.666667  0.333333  0.539284  1
  Ta  Ta5  1  0.666667  0.333333  0.960716  1
  Ta  Ta6  1  0.333333  0.666667  0.957318  1
  Fe  Fe7  1  0.666667  0.333333  0.750000  1
  S  S8  1  0.329675  0.328880  0.072822  1
  S  S9  1  0.671120  0.000795  0.072822  1
  S  S10  1  0.999205  0.670325  0.072822  1
  S  S11  1  0.337531  0.333554  0.846183  1
  S  S12  1  0.996023  0.662469  0.846183  1
  S  S13  1  0.666446  0.003977  0.846183  1
  S  S14  1  0.666446  0.662469  0.653817  1
  S  S15  1  0.337531  0.003977  0.653817  1
  S  S16  1  0.996023  0.333554  0.653817  1
  S  S17  1  0.671120  0.670325  0.427178  1
  S  S18  1  0.999205  0.328880  0.427178  1
  S  S19  1  0.329675  0.000795  0.427178  1
