# generated using pymatgen
data_Ca20Ga8Sn3Hg
_symmetry_space_group_name_H-M   'P 1'
_cell_length_a   8.10625900
_cell_length_b   8.10625900
_cell_length_c   14.72294500
_cell_angle_alpha   90.00000000
_cell_angle_beta   90.00000000
_cell_angle_gamma   90.00000000
_symmetry_Int_Tables_number   1
_chemical_formula_structural   Ca20Ga8Sn3Hg
_chemical_formula_sum   'Ca20 Ga8 Sn3 Hg1'
_cell_volume   967.46584301
_cell_formula_units_Z   1
loop_
 _symmetry_equiv_pos_site_id
 _symmetry_equiv_pos_as_xyz
  1  'x, y, z'
loop_
 _atom_site_type_symbol
 _atom_site_label
 _atom_site_symmetry_multiplicity
 _atom_site_fract_x
 _atom_site_fract_y
 _atom_site_fract_z
 _atom_site_occupancy
  Ca  Ca0  1  0.676616  0.176480  0.108350  1
  Ca  Ca1  1  0.178407  0.677155  0.610800  1
  Ca  Ca2  1  0.323384  0.823520  0.108350  1
  Ca  Ca3  1  0.821593  0.322845  0.610800  1
  Ca  Ca4  1  0.823520  0.676616  0.108350  1
  Ca  Ca5  1  0.322845  0.178407  0.610800  1
  Ca  Ca6  1  0.176480  0.323384  0.108350  1
  Ca  Ca7  1  0.677155  0.821593  0.610800  1
  Ca  Ca8  1  0.823520  0.323384  0.891650  1
  Ca  Ca9  1  0.322845  0.821593  0.389200  1
  Ca  Ca10  1  0.176480  0.676616  0.891650  1
  Ca  Ca11  1  0.677155  0.178407  0.389200  1
  Ca  Ca12  1  0.676616  0.823520  0.891650  1
  Ca  Ca13  1  0.178407  0.322845  0.389200  1
  Ca  Ca14  1  0.323384  0.176480  0.891650  1
  Ca  Ca15  1  0.821593  0.677155  0.389200  1
  Ca  Ca16  1  0.500000  0.500000  0.754472  1
  Ca  Ca17  1  0.000000  0.000000  0.252923  1
  Ca  Ca18  1  0.000000  0.000000  0.747077  1
  Ca  Ca19  1  0.500000  0.500000  0.245528  1
  Ga  Ga20  1  0.611692  0.110933  0.751553  1
  Ga  Ga21  1  0.110933  0.611692  0.248447  1
  Ga  Ga22  1  0.889067  0.388308  0.248447  1
  Ga  Ga23  1  0.388308  0.889067  0.751553  1
  Ga  Ga24  1  0.889067  0.611692  0.751553  1
  Ga  Ga25  1  0.388308  0.110933  0.248447  1
  Ga  Ga26  1  0.110933  0.388308  0.751553  1
  Ga  Ga27  1  0.611692  0.889067  0.248447  1
  Sn  Sn28  1  0.500000  0.500000  0.500000  1
  Sn  Sn29  1  0.500000  0.500000  0.000000  1
  Sn  Sn30  1  0.000000  0.000000  0.500000  1
  Hg  Hg31  1  0.000000  0.000000  0.000000  1
