# generated using pymatgen
data_Nd2HoCo3(NiP)6
_symmetry_space_group_name_H-M   'P 1'
_cell_length_a   3.81639700
_cell_length_b   10.57178100
_cell_length_c   12.42471200
_cell_angle_alpha   90.00000000
_cell_angle_beta   90.00000000
_cell_angle_gamma   90.00000000
_symmetry_Int_Tables_number   1
_chemical_formula_structural   Nd2HoCo3(NiP)6
_chemical_formula_sum   'Nd4 Ho2 Co6 Ni12 P12'
_cell_volume   501.28883799
_cell_formula_units_Z   2
loop_
 _symmetry_equiv_pos_site_id
 _symmetry_equiv_pos_as_xyz
  1  'x, y, z'
loop_
 _atom_site_type_symbol
 _atom_site_label
 _atom_site_symmetry_multiplicity
 _atom_site_fract_x
 _atom_site_fract_y
 _atom_site_fract_z
 _atom_site_occupancy
  Nd  Nd0  1  0.000000  0.500000  0.519145  1
  Nd  Nd1  1  0.500000  0.000000  0.484077  1
  Nd  Nd2  1  0.500000  0.812339  0.204939  1
  Nd  Nd3  1  0.500000  0.187661  0.204939  1
  Ho  Ho4  1  0.000000  0.685641  0.794427  1
  Ho  Ho5  1  0.000000  0.314359  0.794427  1
  Co  Co6  1  0.000000  0.500000  0.979467  1
  Co  Co7  1  0.500000  0.000000  0.013265  1
  Co  Co8  1  0.500000  0.336195  0.992033  1
  Co  Co9  1  0.500000  0.663805  0.992033  1
  Co  Co10  1  0.000000  0.167317  0.002645  1
  Co  Co11  1  0.000000  0.832683  0.002645  1
  Ni  Ni12  1  0.500000  0.299635  0.429312  1
  Ni  Ni13  1  0.500000  0.700365  0.429312  1
  Ni  Ni14  1  0.000000  0.201993  0.574589  1
  Ni  Ni15  1  0.000000  0.798007  0.574589  1
  Ni  Ni16  1  0.500000  0.879617  0.718067  1
  Ni  Ni17  1  0.500000  0.120383  0.718067  1
  Ni  Ni18  1  0.000000  0.618237  0.285774  1
  Ni  Ni19  1  0.000000  0.381763  0.285774  1
  Ni  Ni20  1  0.500000  0.500000  0.153969  1
  Ni  Ni21  1  0.000000  0.000000  0.845877  1
  Ni  Ni22  1  0.500000  0.500000  0.704520  1
  Ni  Ni23  1  0.000000  0.000000  0.296361  1
  P  P24  1  0.500000  0.310233  0.618706  1
  P  P25  1  0.500000  0.689767  0.618706  1
  P  P26  1  0.000000  0.190842  0.386962  1
  P  P27  1  0.000000  0.809158  0.386962  1
  P  P28  1  0.500000  0.500000  0.879186  1
  P  P29  1  0.000000  0.000000  0.114214  1
  P  P30  1  0.500000  0.843982  0.898612  1
  P  P31  1  0.500000  0.156018  0.898612  1
  P  P32  1  0.000000  0.650701  0.098143  1
  P  P33  1  0.000000  0.349299  0.098143  1
  P  P34  1  0.500000  0.500000  0.337352  1
  P  P35  1  0.000000  0.000000  0.664152  1
