# generated using pymatgen
data_Tb2DySc7(Si5Ir2)4
_symmetry_space_group_name_H-M   'P 1'
_cell_length_a   12.45688233
_cell_length_b   12.45684123
_cell_length_c   4.14372200
_cell_angle_alpha   90.00000000
_cell_angle_beta   90.00000000
_cell_angle_gamma   90.06720400
_symmetry_Int_Tables_number   1
_chemical_formula_structural   Tb2DySc7(Si5Ir2)4
_chemical_formula_sum   'Tb2 Dy1 Sc7 Si20 Ir8'
_cell_volume   642.99501151
_cell_formula_units_Z   1
loop_
 _symmetry_equiv_pos_site_id
 _symmetry_equiv_pos_as_xyz
  1  'x, y, z'
loop_
 _atom_site_type_symbol
 _atom_site_label
 _atom_site_symmetry_multiplicity
 _atom_site_fract_x
 _atom_site_fract_y
 _atom_site_fract_z
 _atom_site_occupancy
  Tb  Tb0  1  0.884527  0.384465  0.500000  1
  Tb  Tb1  1  0.615132  0.884869  0.500000  1
  Dy  Dy2  1  0.115546  0.615491  0.500000  1
  Sc  Sc3  1  0.384666  0.115335  0.500000  1
  Sc  Sc4  1  0.673127  0.174220  0.500000  1
  Sc  Sc5  1  0.325746  0.826834  0.500000  1
  Sc  Sc6  1  0.175128  0.324920  0.500000  1
  Sc  Sc7  1  0.825769  0.674284  0.500000  1
  Sc  Sc8  1  0.000522  0.000053  0.000000  1
  Sc  Sc9  1  0.499908  0.499483  0.000000  1
  Si  Si10  1  0.566137  0.067834  0.000000  1
  Si  Si11  1  0.432166  0.933864  0.000000  1
  Si  Si12  1  0.068027  0.432088  0.000000  1
  Si  Si13  1  0.932437  0.567687  0.000000  1
  Si  Si14  1  0.201372  0.164991  0.000000  1
  Si  Si15  1  0.800187  0.834717  0.000000  1
  Si  Si16  1  0.165891  0.801055  0.000000  1
  Si  Si17  1  0.698847  0.334102  0.000000  1
  Si  Si18  1  0.834286  0.199884  0.000000  1
  Si  Si19  1  0.300013  0.665707  0.000000  1
  Si  Si20  1  0.665267  0.699845  0.000000  1
  Si  Si21  1  0.334996  0.298658  0.000000  1
  Si  Si22  1  0.007521  0.150402  0.500000  1
  Si  Si23  1  0.992988  0.849616  0.500000  1
  Si  Si24  1  0.152339  0.994188  0.500000  1
  Si  Si25  1  0.505803  0.347659  0.500000  1
  Si  Si26  1  0.849280  0.007841  0.500000  1
  Si  Si27  1  0.492153  0.650719  0.500000  1
  Si  Si28  1  0.650333  0.507020  0.500000  1
  Si  Si29  1  0.349548  0.492485  0.500000  1
  Ir  Ir30  1  0.021231  0.243540  0.000000  1
  Ir  Ir31  1  0.979676  0.756245  0.000000  1
  Ir  Ir32  1  0.246040  0.980825  0.000000  1
  Ir  Ir33  1  0.519151  0.253957  0.000000  1
  Ir  Ir34  1  0.755241  0.020899  0.000000  1
  Ir  Ir35  1  0.479074  0.744754  0.000000  1
  Ir  Ir36  1  0.743613  0.520508  0.000000  1
  Ir  Ir37  1  0.256316  0.478956  0.000000  1
