# generated using pymatgen
data_Nb3SeI6Cl
_symmetry_space_group_name_H-M   'P 1'
_cell_length_a   7.62948883
_cell_length_b   7.62948825
_cell_length_c   7.35738823
_cell_angle_alpha   90.25116640
_cell_angle_beta   89.74883187
_cell_angle_gamma   120.28613851
_symmetry_Int_Tables_number   1
_chemical_formula_structural   Nb3SeI6Cl
_chemical_formula_sum   'Nb3 Se1 I6 Cl1'
_cell_volume   369.81128649
_cell_formula_units_Z   1
loop_
 _symmetry_equiv_pos_site_id
 _symmetry_equiv_pos_as_xyz
  1  'x, y, z'
loop_
 _atom_site_type_symbol
 _atom_site_label
 _atom_site_symmetry_multiplicity
 _atom_site_fract_x
 _atom_site_fract_y
 _atom_site_fract_z
 _atom_site_occupancy
  Nb  Nb0  1  0.594567  0.794258  0.219172  1
  Nb  Nb1  1  0.205742  0.405433  0.219172  1
  Nb  Nb2  1  0.202776  0.797224  0.219272  1
  Se  Se3  1  0.332425  0.667575  0.475022  1
  I  I4  1  0.998269  0.495491  0.963954  1
  I  I5  1  0.504509  0.001731  0.963954  1
  I  I6  1  0.002909  0.997091  0.018751  1
  I  I7  1  0.337131  0.169218  0.433893  1
  I  I8  1  0.832013  0.167987  0.428295  1
  I  I9  1  0.830782  0.662869  0.433893  1
  Cl  Cl10  1  0.492211  0.507789  0.009525  1
