# generated using pymatgen
data_Na2PaSe3
_symmetry_space_group_name_H-M   'P 1'
_cell_length_a   7.30684281
_cell_length_b   7.30684200
_cell_length_c   7.39961036
_cell_angle_alpha   80.45777187
_cell_angle_beta   80.45776619
_cell_angle_gamma   119.72812893
_symmetry_Int_Tables_number   1
_chemical_formula_structural   Na2PaSe3
_chemical_formula_sum   'Na4 Pa2 Se6'
_cell_volume   323.82798976
_cell_formula_units_Z   2
loop_
 _symmetry_equiv_pos_site_id
 _symmetry_equiv_pos_as_xyz
  1  'x, y, z'
loop_
 _atom_site_type_symbol
 _atom_site_label
 _atom_site_symmetry_multiplicity
 _atom_site_fract_x
 _atom_site_fract_y
 _atom_site_fract_z
 _atom_site_occupancy
  Na  Na0  1  0.000000  0.000000  0.000000  1
  Na  Na1  1  0.500000  0.500000  0.500000  1
  Na  Na2  1  0.839701  0.160299  0.500000  1
  Na  Na3  1  0.160299  0.839701  0.500000  1
  Pa  Pa4  1  0.665941  0.334059  0.000000  1
  Pa  Pa5  1  0.334059  0.665941  0.000000  1
  Se  Se6  1  0.274223  0.274223  0.234192  1
  Se  Se7  1  0.432193  0.077741  0.769121  1
  Se  Se8  1  0.077741  0.432193  0.769121  1
  Se  Se9  1  0.725777  0.725777  0.765808  1
  Se  Se10  1  0.567807  0.922259  0.230879  1
  Se  Se11  1  0.922259  0.567807  0.230879  1
