# generated using pymatgen
data_LuZr7(Co4As3)4
_symmetry_space_group_name_H-M   'P 1'
_cell_length_a   12.57569423
_cell_length_b   12.57569382
_cell_length_c   3.78140000
_cell_angle_alpha   90.00000000
_cell_angle_beta   90.00000000
_cell_angle_gamma   119.97816381
_symmetry_Int_Tables_number   1
_chemical_formula_structural   LuZr7(Co4As3)4
_chemical_formula_sum   'Lu1 Zr7 Co16 As12'
_cell_volume   518.01542743
_cell_formula_units_Z   1
loop_
 _symmetry_equiv_pos_site_id
 _symmetry_equiv_pos_as_xyz
  1  'x, y, z'
loop_
 _atom_site_type_symbol
 _atom_site_label
 _atom_site_symmetry_multiplicity
 _atom_site_fract_x
 _atom_site_fract_y
 _atom_site_fract_z
 _atom_site_occupancy
  Lu  Lu0  1  0.824753  0.824753  0.500000  1
  Zr  Zr1  1  0.442561  0.442561  0.000000  1
  Zr  Zr2  1  0.000380  0.175749  0.500000  1
  Zr  Zr3  1  0.556459  0.000058  0.000000  1
  Zr  Zr4  1  0.333270  0.666104  0.000000  1
  Zr  Zr5  1  0.666104  0.333270  0.000000  1
  Zr  Zr6  1  0.000058  0.556459  0.000000  1
  Zr  Zr7  1  0.175749  0.000380  0.500000  1
  Co  Co8  1  0.625262  0.822234  0.000000  1
  Co  Co9  1  0.374327  0.195580  0.000000  1
  Co  Co10  1  0.002192  0.719003  0.500000  1
  Co  Co11  1  0.280885  0.280885  0.500000  1
  Co  Co12  1  0.876007  0.354769  0.500000  1
  Co  Co13  1  0.719003  0.002192  0.500000  1
  Co  Co14  1  0.822234  0.625262  0.000000  1
  Co  Co15  1  0.177630  0.804460  0.000000  1
  Co  Co16  1  0.354769  0.876007  0.500000  1
  Co  Co17  1  0.123081  0.477975  0.500000  1
  Co  Co18  1  0.644099  0.519934  0.500000  1
  Co  Co19  1  0.002296  0.002296  0.000000  1
  Co  Co20  1  0.519934  0.644099  0.500000  1
  Co  Co21  1  0.477975  0.123081  0.500000  1
  Co  Co22  1  0.195580  0.374327  0.000000  1
  Co  Co23  1  0.804460  0.177630  0.000000  1
  As  As24  1  0.000077  0.345063  0.000000  1
  As  As25  1  0.825580  0.514907  0.500000  1
  As  As26  1  0.688816  0.175139  0.500000  1
  As  As27  1  0.177479  0.177479  0.000000  1
  As  As28  1  0.653752  0.653752  0.000000  1
  As  As29  1  0.824707  0.000576  0.000000  1
  As  As30  1  0.514907  0.825580  0.500000  1
  As  As31  1  0.175139  0.688816  0.500000  1
  As  As32  1  0.345063  0.000077  0.000000  1
  As  As33  1  0.484793  0.310043  0.500000  1
  As  As34  1  0.000576  0.824707  0.000000  1
  As  As35  1  0.310043  0.484793  0.500000  1
