# generated using pymatgen
data_Tb2Er10Tc3Os
_symmetry_space_group_name_H-M   'P 1'
_cell_length_a   6.25346990
_cell_length_b   7.39898665
_cell_length_c   9.04641600
_cell_angle_alpha   90.00000000
_cell_angle_beta   90.00000000
_cell_angle_gamma   89.99358813
_symmetry_Int_Tables_number   1
_chemical_formula_structural   Tb2Er10Tc3Os
_chemical_formula_sum   'Tb2 Er10 Tc3 Os1'
_cell_volume   418.57169780
_cell_formula_units_Z   1
loop_
 _symmetry_equiv_pos_site_id
 _symmetry_equiv_pos_as_xyz
  1  'x, y, z'
loop_
 _atom_site_type_symbol
 _atom_site_label
 _atom_site_symmetry_multiplicity
 _atom_site_fract_x
 _atom_site_fract_y
 _atom_site_fract_z
 _atom_site_occupancy
  Tb  Tb0  1  0.875591  0.540289  0.250000  1
  Tb  Tb1  1  0.625604  0.038792  0.250000  1
  Er  Er2  1  0.338204  0.675394  0.060811  1
  Er  Er3  1  0.160011  0.175635  0.438199  1
  Er  Er4  1  0.661303  0.325471  0.563316  1
  Er  Er5  1  0.837683  0.823556  0.936338  1
  Er  Er6  1  0.661303  0.325471  0.936684  1
  Er  Er7  1  0.837683  0.823556  0.563662  1
  Er  Er8  1  0.338204  0.675394  0.439189  1
  Er  Er9  1  0.160011  0.175635  0.061801  1
  Er  Er10  1  0.128124  0.459196  0.750000  1
  Er  Er11  1  0.374429  0.960326  0.750000  1
  Tc  Tc12  1  0.042386  0.883498  0.250000  1
  Tc  Tc13  1  0.459820  0.385120  0.250000  1
  Tc  Tc14  1  0.958976  0.115786  0.750000  1
  Os  Os15  1  0.540668  0.616877  0.750000  1
