# generated using pymatgen
data_NdPaPt2Pb
_symmetry_space_group_name_H-M   'P 1'
_cell_length_a   8.01776700
_cell_length_b   8.02959900
_cell_length_c   3.70805000
_cell_angle_alpha   90.00000000
_cell_angle_beta   90.00000000
_cell_angle_gamma   90.00000000
_symmetry_Int_Tables_number   1
_chemical_formula_structural   NdPaPt2Pb
_chemical_formula_sum   'Nd2 Pa2 Pt4 Pb2'
_cell_volume   238.72223398
_cell_formula_units_Z   2
loop_
 _symmetry_equiv_pos_site_id
 _symmetry_equiv_pos_as_xyz
  1  'x, y, z'
loop_
 _atom_site_type_symbol
 _atom_site_label
 _atom_site_symmetry_multiplicity
 _atom_site_fract_x
 _atom_site_fract_y
 _atom_site_fract_z
 _atom_site_occupancy
  Nd  Nd0  1  0.174983  0.673370  0.499999  1
  Nd  Nd1  1  0.674983  0.826631  0.499999  1
  Pa  Pa2  1  0.330098  0.170353  0.499999  1
  Pa  Pa3  1  0.830098  0.329648  0.499999  1
  Pt  Pt4  1  0.627765  0.148676  0.000000  1
  Pt  Pt5  1  0.127765  0.351324  0.000000  1
  Pt  Pt6  1  0.871283  0.599208  0.000000  1
  Pt  Pt7  1  0.371283  0.900792  0.000000  1
  Pb  Pb8  1  0.995872  0.993390  0.000000  1
  Pb  Pb9  1  0.495872  0.506610  0.000000  1
