# generated using pymatgen
data_Tb3Dy2(CoTe)2
_symmetry_space_group_name_H-M   'P 1'
_cell_length_a   7.79624035
_cell_length_b   7.79623985
_cell_length_c   15.06280090
_cell_angle_alpha   89.89491333
_cell_angle_beta   90.10508668
_cell_angle_gamma   150.38954073
_symmetry_Int_Tables_number   1
_chemical_formula_structural   Tb3Dy2(CoTe)2
_chemical_formula_sum   'Tb6 Dy4 Co4 Te4'
_cell_volume   452.36680811
_cell_formula_units_Z   2
loop_
 _symmetry_equiv_pos_site_id
 _symmetry_equiv_pos_as_xyz
  1  'x, y, z'
loop_
 _atom_site_type_symbol
 _atom_site_label
 _atom_site_symmetry_multiplicity
 _atom_site_fract_x
 _atom_site_fract_y
 _atom_site_fract_z
 _atom_site_occupancy
  Tb  Tb0  1  0.960301  0.039699  0.125896  1
  Tb  Tb1  1  0.039699  0.960301  0.874104  1
  Tb  Tb2  1  0.039368  0.960632  0.625630  1
  Tb  Tb3  1  0.960632  0.039368  0.374370  1
  Tb  Tb4  1  0.742181  0.257819  0.630408  1
  Tb  Tb5  1  0.257819  0.742181  0.369592  1
  Dy  Dy6  1  0.257841  0.742159  0.130498  1
  Dy  Dy7  1  0.742159  0.257841  0.869502  1
  Dy  Dy8  1  0.605224  0.394776  0.249917  1
  Dy  Dy9  1  0.394776  0.605224  0.750083  1
  Co  Co10  1  0.410628  0.589372  0.249838  1
  Co  Co11  1  0.589372  0.410628  0.750162  1
  Co  Co12  1  0.819855  0.180145  0.249575  1
  Co  Co13  1  0.180145  0.819855  0.750425  1
  Te  Te14  1  0.617730  0.382270  0.038441  1
  Te  Te15  1  0.382270  0.617730  0.961559  1
  Te  Te16  1  0.382745  0.617255  0.538522  1
  Te  Te17  1  0.617255  0.382745  0.461478  1
