# generated using pymatgen
data_Ho16In4NiIrPt2
_symmetry_space_group_name_H-M   'P 1'
_cell_length_a   9.61689208
_cell_length_b   9.62657863
_cell_length_c   9.64608285
_cell_angle_alpha   60.06686245
_cell_angle_beta   60.03301541
_cell_angle_gamma   59.96667815
_symmetry_Int_Tables_number   1
_chemical_formula_structural   Ho16In4NiIrPt2
_chemical_formula_sum   'Ho16 In4 Ni1 Ir1 Pt2'
_cell_volume   631.77199610
_cell_formula_units_Z   1
loop_
 _symmetry_equiv_pos_site_id
 _symmetry_equiv_pos_as_xyz
  1  'x, y, z'
loop_
 _atom_site_type_symbol
 _atom_site_label
 _atom_site_symmetry_multiplicity
 _atom_site_fract_x
 _atom_site_fract_y
 _atom_site_fract_z
 _atom_site_occupancy
  Ho  Ho0  1  0.437042  0.437093  0.062897  1
  Ho  Ho1  1  0.643818  0.651651  0.052881  1
  Ho  Ho2  1  0.190477  0.810619  0.188284  1
  Ho  Ho3  1  0.059686  0.439834  0.060644  1
  Ho  Ho4  1  0.194327  0.810887  0.808699  1
  Ho  Ho5  1  0.060290  0.441549  0.436762  1
  Ho  Ho6  1  0.809520  0.187339  0.193153  1
  Ho  Ho7  1  0.648244  0.655148  0.650893  1
  Ho  Ho8  1  0.810105  0.190609  0.808677  1
  Ho  Ho9  1  0.194327  0.186087  0.808699  1
  Ho  Ho10  1  0.054454  0.650075  0.645396  1
  Ho  Ho11  1  0.437042  0.062967  0.062897  1
  Ho  Ho12  1  0.060290  0.061398  0.436762  1
  Ho  Ho13  1  0.648244  0.045718  0.650893  1
  Ho  Ho14  1  0.809520  0.809988  0.193153  1
  Ho  Ho15  1  0.438407  0.063584  0.434426  1
  In  In16  1  0.417554  0.415720  0.416447  1
  In  In17  1  0.418633  0.416378  0.748611  1
  In  In18  1  0.417554  0.750280  0.416447  1
  In  In19  1  0.747250  0.417312  0.418128  1
  Ni  Ni20  1  0.425871  0.856178  0.861772  1
  Ir  Ir21  1  0.859932  0.856788  0.426490  1
  Pt  Pt22  1  0.858707  0.854845  0.858495  1
  Pt  Pt23  1  0.858707  0.427951  0.858495  1
