# generated using pymatgen
data_Er2Tm2Tc3B8Ru
_symmetry_space_group_name_H-M   'P 1'
_cell_length_a   5.90597449
_cell_length_b   5.25953400
_cell_length_c   6.39871204
_cell_angle_alpha   90.00000000
_cell_angle_beta   90.11577108
_cell_angle_gamma   90.00000000
_symmetry_Int_Tables_number   1
_chemical_formula_structural   Er2Tm2Tc3B8Ru
_chemical_formula_sum   'Er2 Tm2 Tc3 B8 Ru1'
_cell_volume   198.76069813
_cell_formula_units_Z   1
loop_
 _symmetry_equiv_pos_site_id
 _symmetry_equiv_pos_as_xyz
  1  'x, y, z'
loop_
 _atom_site_type_symbol
 _atom_site_label
 _atom_site_symmetry_multiplicity
 _atom_site_fract_x
 _atom_site_fract_y
 _atom_site_fract_z
 _atom_site_occupancy
  Er  Er0  1  0.014693  0.250000  0.338297  1
  Er  Er1  1  0.513760  0.250000  0.162500  1
  Tm  Tm2  1  0.985504  0.750000  0.662919  1
  Tm  Tm3  1  0.484588  0.750000  0.836319  1
  Tc  Tc4  1  0.181842  0.250000  0.814811  1
  Tc  Tc5  1  0.679971  0.250000  0.684763  1
  Tc  Tc6  1  0.819533  0.750000  0.185665  1
  B  B7  1  0.369282  0.079229  0.536439  1
  B  B8  1  0.869168  0.422055  0.964099  1
  B  B9  1  0.632048  0.580448  0.465202  1
  B  B10  1  0.131306  0.919688  0.034176  1
  B  B11  1  0.632048  0.919552  0.465202  1
  B  B12  1  0.131306  0.580312  0.034176  1
  B  B13  1  0.369282  0.420771  0.536439  1
  B  B14  1  0.869168  0.077945  0.964099  1
  Ru  Ru15  1  0.316501  0.750000  0.314894  1
