# generated using pymatgen
data_Nd10SnBi5Cl2
_symmetry_space_group_name_H-M   'P 1'
_cell_length_a   9.56467739
_cell_length_b   9.56467791
_cell_length_c   6.64167800
_cell_angle_alpha   90.00000000
_cell_angle_beta   90.00000000
_cell_angle_gamma   119.80161980
_symmetry_Int_Tables_number   1
_chemical_formula_structural   Nd10SnBi5Cl2
_chemical_formula_sum   'Nd10 Sn1 Bi5 Cl2'
_cell_volume   527.24663530
_cell_formula_units_Z   1
loop_
 _symmetry_equiv_pos_site_id
 _symmetry_equiv_pos_as_xyz
  1  'x, y, z'
loop_
 _atom_site_type_symbol
 _atom_site_label
 _atom_site_symmetry_multiplicity
 _atom_site_fract_x
 _atom_site_fract_y
 _atom_site_fract_z
 _atom_site_occupancy
  Nd  Nd0  1  0.665098  0.333760  0.001015  1
  Nd  Nd1  1  0.333760  0.665098  0.498985  1
  Nd  Nd2  1  0.665098  0.333760  0.498985  1
  Nd  Nd3  1  0.333760  0.665098  0.001015  1
  Nd  Nd4  1  0.734848  0.999842  0.750000  1
  Nd  Nd5  1  0.731966  0.731966  0.250000  1
  Nd  Nd6  1  0.004399  0.266145  0.250000  1
  Nd  Nd7  1  0.999842  0.734848  0.750000  1
  Nd  Nd8  1  0.266247  0.266247  0.750000  1
  Nd  Nd9  1  0.266145  0.004399  0.250000  1
  Sn  Sn10  1  0.387562  0.387562  0.250000  1
  Bi  Bi11  1  0.612435  0.612435  0.750000  1
  Bi  Bi12  1  0.000814  0.613953  0.250000  1
  Bi  Bi13  1  0.613953  0.000814  0.250000  1
  Bi  Bi14  1  0.386725  0.999743  0.750000  1
  Bi  Bi15  1  0.999743  0.386725  0.750000  1
  Cl  Cl16  1  0.998803  0.998803  0.500612  1
  Cl  Cl17  1  0.998803  0.998803  0.999388  1
