# generated using pymatgen
data_Lu8V11Si16Tc
_symmetry_space_group_name_H-M   'P 1'
_cell_length_a   6.58673613
_cell_length_b   6.79408374
_cell_length_c   12.75794500
_cell_angle_alpha   90.00000000
_cell_angle_beta   90.00000000
_cell_angle_gamma   90.03983870
_symmetry_Int_Tables_number   1
_chemical_formula_structural   Lu8V11Si16Tc
_chemical_formula_sum   'Lu8 V11 Si16 Tc1'
_cell_volume   570.92857732
_cell_formula_units_Z   1
loop_
 _symmetry_equiv_pos_site_id
 _symmetry_equiv_pos_as_xyz
  1  'x, y, z'
loop_
 _atom_site_type_symbol
 _atom_site_label
 _atom_site_symmetry_multiplicity
 _atom_site_fract_x
 _atom_site_fract_y
 _atom_site_fract_z
 _atom_site_occupancy
  Lu  Lu0  1  0.497924  0.329885  0.094240  1
  Lu  Lu1  1  0.997996  0.169243  0.405732  1
  Lu  Lu2  1  0.500760  0.670166  0.595517  1
  Lu  Lu3  1  0.001391  0.830819  0.904342  1
  Lu  Lu4  1  0.500760  0.670166  0.904483  1
  Lu  Lu5  1  0.001391  0.830819  0.595658  1
  Lu  Lu6  1  0.497924  0.329885  0.405760  1
  Lu  Lu7  1  0.997996  0.169243  0.094268  1
  V  V8  1  0.836044  0.328866  0.626011  1
  V  V9  1  0.335887  0.171161  0.873688  1
  V  V10  1  0.166364  0.669688  0.126315  1
  V  V11  1  0.663819  0.831143  0.373855  1
  V  V12  1  0.166364  0.669688  0.373685  1
  V  V13  1  0.663819  0.831143  0.126145  1
  V  V14  1  0.836044  0.328866  0.873989  1
  V  V15  1  0.335887  0.171161  0.626312  1
  V  V16  1  0.663614  0.011877  0.750000  1
  V  V17  1  0.163353  0.487568  0.750000  1
  V  V18  1  0.336111  0.988635  0.250000  1
  Si  Si19  1  0.662104  0.042668  0.544472  1
  Si  Si20  1  0.162851  0.457457  0.955702  1
  Si  Si21  1  0.337971  0.957652  0.043707  1
  Si  Si22  1  0.837844  0.544873  0.456608  1
  Si  Si23  1  0.337971  0.957652  0.456293  1
  Si  Si24  1  0.837844  0.544873  0.043392  1
  Si  Si25  1  0.662104  0.042668  0.955528  1
  Si  Si26  1  0.162851  0.457457  0.544298  1
  Si  Si27  1  0.537120  0.368509  0.750000  1
  Si  Si28  1  0.036913  0.130509  0.750000  1
  Si  Si29  1  0.464489  0.632483  0.250000  1
  Si  Si30  1  0.962712  0.867533  0.250000  1
  Si  Si31  1  0.802700  0.622979  0.750000  1
  Si  Si32  1  0.302616  0.877513  0.750000  1
  Si  Si33  1  0.197463  0.374852  0.250000  1
  Si  Si34  1  0.695047  0.122709  0.250000  1
  Tc  Tc35  1  0.835957  0.507594  0.250000  1
