# generated using pymatgen
data_Dy3Ho13(TmPb4)4
_symmetry_space_group_name_H-M   'P 1'
_cell_length_a   8.17936654
_cell_length_b   8.25357084
_cell_length_c   15.59868629
_cell_angle_alpha   90.00238994
_cell_angle_beta   90.03658135
_cell_angle_gamma   89.97255628
_symmetry_Int_Tables_number   1
_chemical_formula_structural   Dy3Ho13(TmPb4)4
_chemical_formula_sum   'Dy3 Ho13 Tm4 Pb16'
_cell_volume   1053.05108301
_cell_formula_units_Z   1
loop_
 _symmetry_equiv_pos_site_id
 _symmetry_equiv_pos_as_xyz
  1  'x, y, z'
loop_
 _atom_site_type_symbol
 _atom_site_label
 _atom_site_symmetry_multiplicity
 _atom_site_fract_x
 _atom_site_fract_y
 _atom_site_fract_z
 _atom_site_occupancy
  Dy  Dy0  1  0.963833  0.823210  0.400309  1
  Dy  Dy1  1  0.536181  0.323299  0.599558  1
  Dy  Dy2  1  0.036388  0.176586  0.900422  1
  Ho  Ho3  1  0.376883  0.841295  0.879035  1
  Ho  Ho4  1  0.876641  0.658600  0.621137  1
  Ho  Ho5  1  0.623310  0.158458  0.378751  1
  Ho  Ho6  1  0.123278  0.341457  0.121079  1
  Ho  Ho7  1  0.623258  0.158543  0.121059  1
  Ho  Ho8  1  0.123374  0.341442  0.378849  1
  Ho  Ho9  1  0.376657  0.841413  0.621097  1
  Ho  Ho10  1  0.876931  0.658657  0.878974  1
  Ho  Ho11  1  0.536894  0.323624  0.900076  1
  Ho  Ho12  1  0.036769  0.176474  0.599964  1
  Ho  Ho13  1  0.463317  0.676438  0.400094  1
  Ho  Ho14  1  0.963144  0.823457  0.099952  1
  Ho  Ho15  1  0.463255  0.676431  0.099736  1
  Tm  Tm16  1  0.208280  0.504454  0.750063  1
  Tm  Tm17  1  0.708237  0.995516  0.750039  1
  Tm  Tm18  1  0.791666  0.495645  0.249858  1
  Tm  Tm19  1  0.291853  0.004429  0.249885  1
  Pb  Pb20  1  0.281487  0.032578  0.043377  1
  Pb  Pb21  1  0.781349  0.466889  0.456713  1
  Pb  Pb22  1  0.718713  0.966958  0.543131  1
  Pb  Pb23  1  0.219162  0.533366  0.957204  1
  Pb  Pb24  1  0.718017  0.966113  0.957297  1
  Pb  Pb25  1  0.217776  0.534107  0.542661  1
  Pb  Pb26  1  0.282301  0.034140  0.457224  1
  Pb  Pb27  1  0.781360  0.466697  0.042854  1
  Pb  Pb28  1  0.571419  0.625937  0.749973  1
  Pb  Pb29  1  0.071473  0.873986  0.750106  1
  Pb  Pb30  1  0.428599  0.374163  0.249911  1
  Pb  Pb31  1  0.928583  0.125950  0.250034  1
  Pb  Pb32  1  0.347813  0.154459  0.750286  1
  Pb  Pb33  1  0.847862  0.345568  0.749747  1
  Pb  Pb34  1  0.651634  0.845165  0.249896  1
  Pb  Pb35  1  0.152304  0.654497  0.249646  1
