# generated using pymatgen
data_TbY(CoH4)2
_symmetry_space_group_name_H-M   'P 1'
_cell_length_a   6.02838920
_cell_length_b   6.02838986
_cell_length_c   4.73181200
_cell_angle_alpha   90.00000000
_cell_angle_beta   90.00000000
_cell_angle_gamma   145.38587246
_symmetry_Int_Tables_number   1
_chemical_formula_structural   TbY(CoH4)2
_chemical_formula_sum   'Tb1 Y1 Co2 H8'
_cell_volume   97.68190691
_cell_formula_units_Z   1
loop_
 _symmetry_equiv_pos_site_id
 _symmetry_equiv_pos_as_xyz
  1  'x, y, z'
loop_
 _atom_site_type_symbol
 _atom_site_label
 _atom_site_symmetry_multiplicity
 _atom_site_fract_x
 _atom_site_fract_y
 _atom_site_fract_z
 _atom_site_occupancy
  Tb  Tb0  1  0.132036  0.867964  0.250000  1
  Y  Y1  1  0.867513  0.132487  0.750000  1
  Co  Co2  1  0.597082  0.402918  0.750000  1
  Co  Co3  1  0.402888  0.597112  0.250000  1
  H  H4  1  0.088889  0.911111  0.750000  1
  H  H5  1  0.911117  0.088883  0.250000  1
  H  H6  1  0.693030  0.306970  0.502720  1
  H  H7  1  0.307108  0.692892  0.497769  1
  H  H8  1  0.693030  0.306970  0.997280  1
  H  H9  1  0.307108  0.692892  0.002231  1
  H  H10  1  0.500099  0.499901  0.000142  1
  H  H11  1  0.500099  0.499901  0.499858  1
