# generated using pymatgen
data_Na4SrSiGeSe6
_symmetry_space_group_name_H-M   'P 1'
_cell_length_a   7.19321725
_cell_length_b   7.19527639
_cell_length_c   8.07229813
_cell_angle_alpha   81.34641610
_cell_angle_beta   81.40946891
_cell_angle_gamma   119.79710394
_symmetry_Int_Tables_number   1
_chemical_formula_structural   Na4SrSiGeSe6
_chemical_formula_sum   'Na4 Sr1 Si1 Ge1 Se6'
_cell_volume   345.98581319
_cell_formula_units_Z   1
loop_
 _symmetry_equiv_pos_site_id
 _symmetry_equiv_pos_as_xyz
  1  'x, y, z'
loop_
 _atom_site_type_symbol
 _atom_site_label
 _atom_site_symmetry_multiplicity
 _atom_site_fract_x
 _atom_site_fract_y
 _atom_site_fract_z
 _atom_site_occupancy
  Na  Na0  1  0.499127  0.499116  0.002505  1
  Na  Na1  1  0.827554  0.170845  0.002276  1
  Na  Na2  1  0.171028  0.827755  0.002310  1
  Na  Na3  1  0.666831  0.335571  0.496329  1
  Sr  Sr4  1  0.335244  0.667351  0.495834  1
  Si  Si5  1  0.946971  0.946971  0.663203  1
  Ge  Ge6  1  0.048045  0.048023  0.351583  1
  Se  Se7  1  0.769557  0.767363  0.249459  1
  Se  Se8  1  0.224070  0.222212  0.746427  1
  Se  Se9  1  0.081205  0.397764  0.248277  1
  Se  Se10  1  0.399372  0.084443  0.247996  1
  Se  Se11  1  0.917327  0.612265  0.747211  1
  Se  Se12  1  0.613670  0.920321  0.746591  1
