# generated using pymatgen
data_SiBr35
_symmetry_space_group_name_H-M   'P 1'
_cell_length_a   15.58242756
_cell_length_b   11.11527419
_cell_length_c   10.52208600
_cell_angle_alpha   88.81408432
_cell_angle_beta   66.02770569
_cell_angle_gamma   92.31545236
_symmetry_Int_Tables_number   1
_chemical_formula_structural   SiBr35
_chemical_formula_sum   'Si1 Br35'
_cell_volume   1662.52021473
_cell_formula_units_Z   1
loop_
 _symmetry_equiv_pos_site_id
 _symmetry_equiv_pos_as_xyz
  1  'x, y, z'
loop_
 _atom_site_type_symbol
 _atom_site_label
 _atom_site_symmetry_multiplicity
 _atom_site_fract_x
 _atom_site_fract_y
 _atom_site_fract_z
 _atom_site_occupancy
  Si  Si0  1  0.179845  0.437197  0.608696  1
  Br  Br1  1  0.517953  0.273995  0.546333  1
  Br  Br2  1  0.751654  0.586647  0.572407  1
  Br  Br3  1  0.467487  0.696175  0.723817  1
  Br  Br4  1  0.064245  0.899604  0.820273  1
  Br  Br5  1  0.900037  0.161721  0.037074  1
  Br  Br6  1  0.656837  0.314004  0.294542  1
  Br  Br7  1  0.610152  0.317849  0.862084  1
  Br  Br8  1  0.327764  0.787853  0.690591  1
  Br  Br9  1  0.376869  0.541483  0.118589  1
  Br  Br10  1  0.665806  0.122812  0.788682  1
  Br  Br11  1  0.916163  0.564696  0.388504  1
  Br  Br12  1  0.089374  0.948167  0.575912  1
  Br  Br13  1  0.918173  0.122132  0.271108  1
  Br  Br14  1  0.883223  0.208226  0.816858  1
  Br  Br15  1  0.644934  0.046326  0.266112  1
  Br  Br16  1  0.029306  0.837829  0.082478  1
  Br  Br17  1  0.354617  0.003194  0.736548  1
  Br  Br18  1  0.916357  0.340387  0.333980  1
  Br  Br19  1  0.905486  0.925646  0.631046  1
  Br  Br20  1  0.814591  0.652240  0.886522  1
  Br  Br21  1  0.360690  0.036746  0.144625  1
  Br  Br22  1  0.347734  0.304710  0.147186  1
  Br  Br23  1  0.594370  0.608582  0.782081  1
  Br  Br24  1  0.124431  0.423007  0.446572  1
  Br  Br25  1  0.734548  0.900494  0.704206  1
  Br  Br26  1  0.839538  0.441836  0.856905  1
  Br  Br27  1  0.502256  0.039944  0.209584  1
  Br  Br28  1  0.155857  0.261991  0.724071  1
  Br  Br29  1  0.670146  0.778358  0.286483  1
  Br  Br30  1  0.854719  0.810029  0.182384  1
  Br  Br31  1  0.390872  0.227208  0.776938  1
  Br  Br32  1  0.332293  0.487473  0.513497  1
  Br  Br33  1  0.652074  0.543073  0.266713  1
  Br  Br34  1  0.106158  0.577286  0.753578  1
  Br  Br35  1  0.343440  0.771081  0.153024  1
