# generated using pymatgen
data_NdEu7P6
_symmetry_space_group_name_H-M   'P 1'
_cell_length_a   7.76981367
_cell_length_b   7.76981358
_cell_length_c   7.70051700
_cell_angle_alpha   109.29066174
_cell_angle_beta   109.29066150
_cell_angle_gamma   109.65117493
_symmetry_Int_Tables_number   1
_chemical_formula_structural   NdEu7P6
_chemical_formula_sum   'Nd1 Eu7 P6'
_cell_volume   358.65930437
_cell_formula_units_Z   1
loop_
 _symmetry_equiv_pos_site_id
 _symmetry_equiv_pos_as_xyz
  1  'x, y, z'
loop_
 _atom_site_type_symbol
 _atom_site_label
 _atom_site_symmetry_multiplicity
 _atom_site_fract_x
 _atom_site_fract_y
 _atom_site_fract_z
 _atom_site_occupancy
  Nd  Nd0  1  0.500000  0.000000  0.368751  1
  Eu  Eu1  1  0.630755  0.630549  0.631102  1
  Eu  Eu2  1  0.005272  0.375298  0.504192  1
  Eu  Eu3  1  0.370026  0.494728  0.998920  1
  Eu  Eu4  1  0.999794  0.869245  0.500347  1
  Eu  Eu5  1  0.869451  0.500206  0.000553  1
  Eu  Eu6  1  0.500000  0.000000  0.868040  1
  Eu  Eu7  1  0.124702  0.129974  0.128894  1
  P  P8  1  0.870036  0.124704  0.744218  1
  P  P9  1  0.375296  0.245332  0.619513  1
  P  P10  1  0.129729  0.755080  0.882032  1
  P  P11  1  0.744920  0.874649  0.126952  1
  P  P12  1  0.254668  0.629964  0.374182  1
  P  P13  1  0.625351  0.370271  0.252303  1
