# generated using pymatgen
data_Yb4Er3B24Os4W
_symmetry_space_group_name_H-M   'P 1'
_cell_length_a   3.58436800
_cell_length_b   9.05544933
_cell_length_c   11.44186840
_cell_angle_alpha   90.03060548
_cell_angle_beta   90.00000000
_cell_angle_gamma   90.00000000
_symmetry_Int_Tables_number   1
_chemical_formula_structural   Yb4Er3B24Os4W
_chemical_formula_sum   'Yb4 Er3 B24 Os4 W1'
_cell_volume   371.38083011
_cell_formula_units_Z   1
loop_
 _symmetry_equiv_pos_site_id
 _symmetry_equiv_pos_as_xyz
  1  'x, y, z'
loop_
 _atom_site_type_symbol
 _atom_site_label
 _atom_site_symmetry_multiplicity
 _atom_site_fract_x
 _atom_site_fract_y
 _atom_site_fract_z
 _atom_site_occupancy
  Yb  Yb0  1  0.000000  0.322269  0.415090  1
  Yb  Yb1  1  0.000000  0.677796  0.585670  1
  Yb  Yb2  1  0.000000  0.824058  0.085849  1
  Yb  Yb3  1  0.000000  0.175853  0.912952  1
  Er  Er4  1  0.000000  0.055075  0.624670  1
  Er  Er5  1  0.000000  0.442017  0.132466  1
  Er  Er6  1  0.000000  0.556541  0.869863  1
  B  B7  1  0.500000  0.557483  0.434734  1
  B  B8  1  0.500000  0.447803  0.565955  1
  B  B9  1  0.500000  0.051750  0.067724  1
  B  B10  1  0.500000  0.946388  0.932578  1
  B  B11  1  0.500000  0.755686  0.417491  1
  B  B12  1  0.500000  0.251761  0.580941  1
  B  B13  1  0.500000  0.246280  0.085122  1
  B  B14  1  0.500000  0.751667  0.917337  1
  B  B15  1  0.500000  0.795923  0.263584  1
  B  B16  1  0.500000  0.207874  0.734378  1
  B  B17  1  0.500000  0.290256  0.238815  1
  B  B18  1  0.500000  0.708147  0.763786  1
  B  B19  1  0.500000  0.634190  0.184676  1
  B  B20  1  0.500000  0.367645  0.814115  1
  B  B21  1  0.500000  0.125113  0.317898  1
  B  B22  1  0.500000  0.869041  0.684731  1
  B  B23  1  0.500000  0.978577  0.213017  1
  B  B24  1  0.500000  0.017991  0.787171  1
  B  B25  1  0.500000  0.486356  0.290143  1
  B  B26  1  0.500000  0.516593  0.711224  1
  B  B27  1  0.500000  0.600038  0.028184  1
  B  B28  1  0.500000  0.399056  0.974456  1
  B  B29  1  0.500000  0.094651  0.466526  1
  B  B30  1  0.500000  0.899315  0.519485  1
  Os  Os31  1  0.000000  0.648181  0.322691  1
  Os  Os32  1  0.000000  0.359711  0.677249  1
  Os  Os33  1  0.000000  0.132383  0.187284  1
  Os  Os34  1  0.000000  0.862113  0.817648  1
  W  W35  1  0.000000  0.944419  0.374497  1
