# generated using pymatgen
data_YHo2Hf(Al3Rh)6
_symmetry_space_group_name_H-M   'P 1'
_cell_length_a   7.52620906
_cell_length_b   7.51025337
_cell_length_c   9.40231700
_cell_angle_alpha   90.00000000
_cell_angle_beta   90.00000000
_cell_angle_gamma   119.48013613
_symmetry_Int_Tables_number   1
_chemical_formula_structural   YHo2Hf(Al3Rh)6
_chemical_formula_sum   'Y1 Ho2 Hf1 Al18 Rh6'
_cell_volume   462.64479790
_cell_formula_units_Z   1
loop_
 _symmetry_equiv_pos_site_id
 _symmetry_equiv_pos_as_xyz
  1  'x, y, z'
loop_
 _atom_site_type_symbol
 _atom_site_label
 _atom_site_symmetry_multiplicity
 _atom_site_fract_x
 _atom_site_fract_y
 _atom_site_fract_z
 _atom_site_occupancy
  Y  Y0  1  0.327933  0.006162  0.750000  1
  Ho  Ho1  1  0.006061  0.327006  0.750000  1
  Ho  Ho2  1  0.672297  0.995921  0.250000  1
  Hf  Hf3  1  0.996380  0.672689  0.250000  1
  Al  Al4  1  0.124389  0.121881  0.250000  1
  Al  Al5  1  0.871177  0.869773  0.750000  1
  Al  Al6  1  0.999859  0.338832  0.080033  1
  Al  Al7  1  0.999425  0.664548  0.929276  1
  Al  Al8  1  0.999425  0.664548  0.570724  1
  Al  Al9  1  0.332291  0.997337  0.419768  1
  Al  Al10  1  0.999859  0.338832  0.419967  1
  Al  Al11  1  0.664501  0.998327  0.574847  1
  Al  Al12  1  0.664501  0.998327  0.925153  1
  Al  Al13  1  0.332291  0.997337  0.080232  1
  Al  Al14  1  0.333591  0.333806  0.546724  1
  Al  Al15  1  0.669860  0.667496  0.443864  1
  Al  Al16  1  0.669860  0.667496  0.056136  1
  Al  Al17  1  0.333591  0.333806  0.953276  1
  Al  Al18  1  0.335904  0.551628  0.250000  1
  Al  Al19  1  0.661129  0.450838  0.750000  1
  Al  Al20  1  0.557235  0.344907  0.250000  1
  Al  Al21  1  0.449025  0.658462  0.750000  1
  Rh  Rh22  1  0.673079  0.328411  0.001643  1
  Rh  Rh23  1  0.327565  0.672794  0.002260  1
  Rh  Rh24  1  0.327565  0.672794  0.497740  1
  Rh  Rh25  1  0.673079  0.328411  0.498357  1
  Rh  Rh26  1  0.999063  0.998817  0.001844  1
  Rh  Rh27  1  0.999063  0.998817  0.498156  1
