# generated using pymatgen
data_TaNb2(SiMo)3
_symmetry_space_group_name_H-M   'P 1'
_cell_length_a   7.71763752
_cell_length_b   7.71763535
_cell_length_c   7.71763659
_cell_angle_alpha   126.62247733
_cell_angle_beta   128.41665950
_cell_angle_gamma   77.41338213
_symmetry_Int_Tables_number   1
_chemical_formula_structural   TaNb2(SiMo)3
_chemical_formula_sum   'Ta2 Nb4 Si6 Mo6'
_cell_volume   280.40202427
_cell_formula_units_Z   2
loop_
 _symmetry_equiv_pos_site_id
 _symmetry_equiv_pos_as_xyz
  1  'x, y, z'
loop_
 _atom_site_type_symbol
 _atom_site_label
 _atom_site_symmetry_multiplicity
 _atom_site_fract_x
 _atom_site_fract_y
 _atom_site_fract_z
 _atom_site_occupancy
  Ta  Ta0  1  0.749904  0.100110  0.850205  1
  Ta  Ta1  1  0.250096  0.100301  0.350205  1
  Nb  Nb2  1  0.952185  0.907798  0.455615  1
  Nb  Nb3  1  0.047815  0.503430  0.955615  1
  Nb  Nb4  1  0.547883  0.503557  0.455673  1
  Nb  Nb5  1  0.452117  0.907790  0.955673  1
  Si  Si6  1  0.750134  0.503216  0.253081  1
  Si  Si7  1  0.249866  0.502947  0.753081  1
  Si  Si8  1  0.666838  0.169732  0.503357  1
  Si  Si9  1  0.333162  0.836518  0.502895  1
  Si  Si10  1  0.166377  0.169732  0.002895  1
  Si  Si11  1  0.833623  0.836518  0.003357  1
  Mo  Mo12  1  0.500000  0.761845  0.261845  1
  Mo  Mo13  1  0.000000  0.761845  0.761845  1
  Mo  Mo14  1  0.871035  0.244119  0.373145  1
  Mo  Mo15  1  0.128965  0.502110  0.373084  1
  Mo  Mo16  1  0.370974  0.244119  0.873084  1
  Mo  Mo17  1  0.629026  0.502110  0.873145  1
