# generated using pymatgen
data_PtRhI18
_symmetry_space_group_name_H-M   'P 1'
_cell_length_a   10.07109093
_cell_length_b   10.07108826
_cell_length_c   10.07108884
_cell_angle_alpha   93.02615735
_cell_angle_beta   93.02613877
_cell_angle_gamma   93.02614585
_symmetry_Int_Tables_number   1
_chemical_formula_structural   PtRhI18
_chemical_formula_sum   'Pt1 Rh1 I18'
_cell_volume   1017.04864489
_cell_formula_units_Z   1
loop_
 _symmetry_equiv_pos_site_id
 _symmetry_equiv_pos_as_xyz
  1  'x, y, z'
loop_
 _atom_site_type_symbol
 _atom_site_label
 _atom_site_symmetry_multiplicity
 _atom_site_fract_x
 _atom_site_fract_y
 _atom_site_fract_z
 _atom_site_occupancy
  Pt  Pt0  1  0.500000  0.500000  0.500000  1
  Rh  Rh1  1  0.000000  0.000000  0.000000  1
  I  I2  1  0.003204  0.966982  0.732759  1
  I  I3  1  0.966982  0.732759  0.003204  1
  I  I4  1  0.732759  0.003204  0.966982  1
  I  I5  1  0.996796  0.033018  0.267241  1
  I  I6  1  0.033018  0.267241  0.996796  1
  I  I7  1  0.267241  0.996796  0.033018  1
  I  I8  1  0.525060  0.772694  0.485858  1
  I  I9  1  0.772694  0.485858  0.525060  1
  I  I10  1  0.485858  0.525060  0.772694  1
  I  I11  1  0.474940  0.227306  0.514142  1
  I  I12  1  0.227306  0.514142  0.474940  1
  I  I13  1  0.514142  0.474940  0.227306  1
  I  I14  1  0.631071  0.235240  0.111075  1
  I  I15  1  0.235240  0.111075  0.631071  1
  I  I16  1  0.111075  0.631071  0.235240  1
  I  I17  1  0.368929  0.764760  0.888925  1
  I  I18  1  0.764760  0.888925  0.368929  1
  I  I19  1  0.888925  0.368929  0.764760  1
