# generated using pymatgen
data_NaVSb12Os2Pd
_symmetry_space_group_name_H-M   'P 1'
_cell_length_a   8.13964358
_cell_length_b   8.13568557
_cell_length_c   8.15794100
_cell_angle_alpha   109.49015607
_cell_angle_beta   109.48408877
_cell_angle_gamma   109.50231716
_symmetry_Int_Tables_number   1
_chemical_formula_structural   NaVSb12Os2Pd
_chemical_formula_sum   'Na1 V1 Sb12 Os2 Pd1'
_cell_volume   415.54744429
_cell_formula_units_Z   1
loop_
 _symmetry_equiv_pos_site_id
 _symmetry_equiv_pos_as_xyz
  1  'x, y, z'
loop_
 _atom_site_type_symbol
 _atom_site_label
 _atom_site_symmetry_multiplicity
 _atom_site_fract_x
 _atom_site_fract_y
 _atom_site_fract_z
 _atom_site_occupancy
  Na  Na0  1  0.000000  0.000000  0.000000  1
  V  V1  1  0.000000  0.000000  0.500000  1
  Sb  Sb2  1  0.345894  0.193608  0.847681  1
  Sb  Sb3  1  0.654106  0.806392  0.152319  1
  Sb  Sb4  1  0.663602  0.506993  0.842740  1
  Sb  Sb5  1  0.336398  0.493007  0.157260  1
  Sb  Sb6  1  0.184959  0.841441  0.337801  1
  Sb  Sb7  1  0.815041  0.158559  0.662199  1
  Sb  Sb8  1  0.502927  0.842826  0.653444  1
  Sb  Sb9  1  0.497073  0.157174  0.346556  1
  Sb  Sb10  1  0.850103  0.347061  0.188307  1
  Sb  Sb11  1  0.149897  0.652939  0.811693  1
  Sb  Sb12  1  0.841205  0.656791  0.503889  1
  Sb  Sb13  1  0.158795  0.343209  0.496111  1
  Os  Os14  1  0.000000  0.500000  0.000000  1
  Os  Os15  1  0.500000  0.500000  0.500000  1
  Pd  Pd16  1  0.500000  0.000000  0.000000  1
