# generated using pymatgen
data_Ac5Si4
_symmetry_space_group_name_H-M   'P 1'
_cell_length_a   8.29841200
_cell_length_b   8.29841200
_cell_length_c   16.36325400
_cell_angle_alpha   90.00000000
_cell_angle_beta   90.00000000
_cell_angle_gamma   90.00000000
_symmetry_Int_Tables_number   1
_chemical_formula_structural   Ac5Si4
_chemical_formula_sum   'Ac20 Si16'
_cell_volume   1126.83326086
_cell_formula_units_Z   4
loop_
 _symmetry_equiv_pos_site_id
 _symmetry_equiv_pos_as_xyz
  1  'x, y, z'
loop_
 _atom_site_type_symbol
 _atom_site_label
 _atom_site_symmetry_multiplicity
 _atom_site_fract_x
 _atom_site_fract_y
 _atom_site_fract_z
 _atom_site_occupancy
  Ac  Ac0  1  0.310926  0.310926  0.000000  1
  Ac  Ac1  1  0.189074  0.810926  0.250000  1
  Ac  Ac2  1  0.810926  0.189074  0.750000  1
  Ac  Ac3  1  0.689074  0.689074  0.500000  1
  Ac  Ac4  1  0.379363  0.015088  0.446454  1
  Ac  Ac5  1  0.484912  0.879363  0.696454  1
  Ac  Ac6  1  0.515088  0.120637  0.196454  1
  Ac  Ac7  1  0.879363  0.484912  0.303546  1
  Ac  Ac8  1  0.120637  0.515088  0.803546  1
  Ac  Ac9  1  0.620637  0.984912  0.946454  1
  Ac  Ac10  1  0.015088  0.379363  0.553546  1
  Ac  Ac11  1  0.984912  0.620637  0.053546  1
  Ac  Ac12  1  0.124373  0.974018  0.878231  1
  Ac  Ac13  1  0.525982  0.624373  0.128231  1
  Ac  Ac14  1  0.474018  0.375627  0.628231  1
  Ac  Ac15  1  0.624373  0.525982  0.871769  1
  Ac  Ac16  1  0.375627  0.474018  0.371769  1
  Ac  Ac17  1  0.875627  0.025982  0.378231  1
  Ac  Ac18  1  0.974018  0.124373  0.121769  1
  Ac  Ac19  1  0.025982  0.875627  0.621769  1
  Si  Si20  1  0.196612  0.169639  0.710765  1
  Si  Si21  1  0.330361  0.696612  0.960765  1
  Si  Si22  1  0.669639  0.303388  0.460765  1
  Si  Si23  1  0.696612  0.330361  0.039235  1
  Si  Si24  1  0.303388  0.669639  0.539235  1
  Si  Si25  1  0.803388  0.830361  0.210765  1
  Si  Si26  1  0.169639  0.196612  0.289235  1
  Si  Si27  1  0.830361  0.803388  0.789235  1
  Si  Si28  1  0.290416  0.918784  0.060369  1
  Si  Si29  1  0.581216  0.790416  0.310369  1
  Si  Si30  1  0.418784  0.209584  0.810369  1
  Si  Si31  1  0.790416  0.581216  0.689631  1
  Si  Si32  1  0.209584  0.418784  0.189631  1
  Si  Si33  1  0.709584  0.081216  0.560369  1
  Si  Si34  1  0.918784  0.290416  0.939631  1
  Si  Si35  1  0.081216  0.709584  0.439631  1
