# generated using pymatgen
data_Nd2Er8In8PdAu3
_symmetry_space_group_name_H-M   'P 1'
_cell_length_a   3.66384800
_cell_length_b   8.19239492
_cell_length_c   18.40710064
_cell_angle_alpha   89.99210151
_cell_angle_beta   90.00000000
_cell_angle_gamma   90.00000000
_symmetry_Int_Tables_number   1
_chemical_formula_structural   Nd2Er8In8PdAu3
_chemical_formula_sum   'Nd2 Er8 In8 Pd1 Au3'
_cell_volume   552.50181690
_cell_formula_units_Z   1
loop_
 _symmetry_equiv_pos_site_id
 _symmetry_equiv_pos_as_xyz
  1  'x, y, z'
loop_
 _atom_site_type_symbol
 _atom_site_label
 _atom_site_symmetry_multiplicity
 _atom_site_fract_x
 _atom_site_fract_y
 _atom_site_fract_z
 _atom_site_occupancy
  Nd  Nd0  1  0.000000  0.500870  0.499233  1
  Nd  Nd1  1  0.000000  0.000642  0.000668  1
  Er  Er2  1  0.000000  0.747365  0.283063  1
  Er  Er3  1  0.000000  0.262809  0.716864  1
  Er  Er4  1  0.000000  0.762904  0.782347  1
  Er  Er5  1  0.000000  0.231488  0.219662  1
  Er  Er6  1  0.000000  0.619723  0.081875  1
  Er  Er7  1  0.000000  0.380324  0.919710  1
  Er  Er8  1  0.000000  0.879411  0.579828  1
  Er  Er9  1  0.000000  0.115779  0.415922  1
  In  In10  1  0.500000  0.704977  0.933062  1
  In  In11  1  0.500000  0.294462  0.068725  1
  In  In12  1  0.500000  0.796542  0.431020  1
  In  In13  1  0.500000  0.203992  0.565729  1
  In  In14  1  0.500000  0.582324  0.648730  1
  In  In15  1  0.500000  0.415002  0.350131  1
  In  In16  1  0.500000  0.919953  0.150940  1
  In  In17  1  0.500000  0.082999  0.851008  1
  Pd  Pd18  1  0.500000  0.026038  0.303933  1
  Au  Au19  1  0.500000  0.526758  0.197905  1
  Au  Au20  1  0.500000  0.472769  0.803354  1
  Au  Au21  1  0.500000  0.972867  0.696290  1
