# generated using pymatgen
data_BaCoAs4F24
_symmetry_space_group_name_H-M   'P 1'
_cell_length_a   10.09434917
_cell_length_b   10.09485566
_cell_length_c   10.09470700
_cell_angle_alpha   133.54793604
_cell_angle_beta   133.54757539
_cell_angle_gamma   67.79833613
_symmetry_Int_Tables_number   1
_chemical_formula_structural   BaCoAs4F24
_chemical_formula_sum   'Ba1 Co1 As4 F24'
_cell_volume   531.13954926
_cell_formula_units_Z   1
loop_
 _symmetry_equiv_pos_site_id
 _symmetry_equiv_pos_as_xyz
  1  'x, y, z'
loop_
 _atom_site_type_symbol
 _atom_site_label
 _atom_site_symmetry_multiplicity
 _atom_site_fract_x
 _atom_site_fract_y
 _atom_site_fract_z
 _atom_site_occupancy
  Ba  Ba0  1  0.759898  0.259494  0.519887  1
  Co  Co1  1  0.972985  0.012611  0.990097  1
  As  As2  1  0.811021  0.805535  0.020695  1
  As  As3  1  0.208899  0.189350  0.995092  1
  As  As4  1  0.975504  0.484991  0.497496  1
  As  As5  1  0.509122  0.016907  0.487772  1
  F  F6  1  0.856312  0.786133  0.206062  1
  F  F7  1  0.596465  0.655182  0.774596  1
  F  F8  1  0.411107  0.789657  0.302959  1
  F  F9  1  0.353272  0.155314  0.940443  1
  F  F10  1  0.172712  0.405398  0.061796  1
  F  F11  1  0.199475  0.516200  0.610843  1
  F  F12  1  0.620692  0.246152  0.672817  1
  F  F13  1  0.749861  0.437189  0.383531  1
  F  F14  1  0.051033  0.383966  0.627133  1
  F  F15  1  0.063479  0.220792  0.061908  1
  F  F16  1  0.221181  0.973073  0.925147  1
  F  F17  1  0.561195  0.949490  0.313461  1
  F  F18  1  0.772179  0.840337  0.839952  1
  F  F19  1  0.026156  0.954712  0.243536  1
  F  F20  1  0.287444  0.064161  0.309233  1
  F  F21  1  0.923286  0.247128  0.225587  1
  F  F22  1  0.018097  0.712025  0.761828  1
  F  F23  1  0.404137  0.299372  0.300622  1
  F  F24  1  0.002715  0.085244  0.694564  1
  F  F25  1  0.740642  0.973496  0.667898  1
  F  F26  1  0.702806  0.001132  0.111648  1
  F  F27  1  0.917177  0.612307  0.918680  1
  F  F28  1  0.475448  0.100375  0.679094  1
  F  F29  1  0.885701  0.572275  0.355625  1
