# generated using pymatgen
data_Pr12Sn3GeI12
_symmetry_space_group_name_H-M   'P 1'
_cell_length_a   11.17799812
_cell_length_b   11.10370023
_cell_length_c   11.10370015
_cell_angle_alpha   109.33527712
_cell_angle_beta   109.60681956
_cell_angle_gamma   109.60682374
_symmetry_Int_Tables_number   1
_chemical_formula_structural   Pr12Sn3GeI12
_chemical_formula_sum   'Pr12 Sn3 Ge1 I12'
_cell_volume   1059.12710135
_cell_formula_units_Z   1
loop_
 _symmetry_equiv_pos_site_id
 _symmetry_equiv_pos_as_xyz
  1  'x, y, z'
loop_
 _atom_site_type_symbol
 _atom_site_label
 _atom_site_symmetry_multiplicity
 _atom_site_fract_x
 _atom_site_fract_y
 _atom_site_fract_z
 _atom_site_occupancy
  Pr  Pr0  1  0.470236  0.492965  0.229765  1
  Pr  Pr1  1  0.750000  0.239828  0.260172  1
  Pr  Pr2  1  0.750000  0.009641  0.490359  1
  Pr  Pr3  1  0.240359  0.480719  0.490359  1
  Pr  Pr4  1  0.259530  0.736800  0.229765  1
  Pr  Pr5  1  0.029764  0.270235  0.007035  1
  Pr  Pr6  1  0.010172  0.020344  0.260172  1
  Pr  Pr7  1  0.477271  0.736800  0.007035  1
  Pr  Pr8  1  0.489828  0.239828  0.479656  1
  Pr  Pr9  1  0.022729  0.492965  0.763200  1
  Pr  Pr10  1  0.259641  0.009641  0.019281  1
  Pr  Pr11  1  0.240470  0.270235  0.763200  1
  Sn  Sn12  1  0.250000  0.250457  0.249543  1
  Sn  Sn13  1  0.499543  0.999086  0.249543  1
  Sn  Sn14  1  0.000457  0.250457  0.500914  1
  Ge  Ge15  1  0.250000  0.500000  0.000000  1
  I  I16  1  0.250000  0.756228  0.743772  1
  I  I17  1  0.512068  0.506360  0.757448  1
  I  I18  1  0.987932  0.742552  0.993640  1
  I  I19  1  0.745379  0.251088  0.757448  1
  I  I20  1  0.993772  0.987544  0.743772  1
  I  I21  1  0.250000  0.994580  0.505420  1
  I  I22  1  0.755420  0.510840  0.505420  1
  I  I23  1  0.505708  0.251088  0.993640  1
  I  I24  1  0.754621  0.742552  0.248912  1
  I  I25  1  0.744580  0.994580  0.989160  1
  I  I26  1  0.994292  0.506360  0.248912  1
  I  I27  1  0.506228  0.756228  0.512456  1
