# generated using pymatgen
data_Er16In4TcNi3
_symmetry_space_group_name_H-M   'P 1'
_cell_length_a   9.49432060
_cell_length_b   9.52567322
_cell_length_c   9.49432100
_cell_angle_alpha   60.10882048
_cell_angle_beta   60.00000208
_cell_angle_gamma   60.10882179
_symmetry_Int_Tables_number   1
_chemical_formula_structural   Er16In4TcNi3
_chemical_formula_sum   'Er16 In4 Tc1 Ni3'
_cell_volume   608.16423618
_cell_formula_units_Z   1
loop_
 _symmetry_equiv_pos_site_id
 _symmetry_equiv_pos_as_xyz
  1  'x, y, z'
loop_
 _atom_site_type_symbol
 _atom_site_label
 _atom_site_symmetry_multiplicity
 _atom_site_fract_x
 _atom_site_fract_y
 _atom_site_fract_z
 _atom_site_occupancy
  Er  Er0  1  0.063189  0.062295  0.437258  1
  Er  Er1  1  0.651924  0.044228  0.651924  1
  Er  Er2  1  0.188502  0.811603  0.188502  1
  Er  Er3  1  0.437258  0.062295  0.437258  1
  Er  Er4  1  0.188820  0.188690  0.811244  1
  Er  Er5  1  0.650222  0.652648  0.650222  1
  Er  Er6  1  0.046909  0.652648  0.650222  1
  Er  Er7  1  0.437258  0.062295  0.063189  1
  Er  Er8  1  0.650222  0.652648  0.046909  1
  Er  Er9  1  0.188502  0.811603  0.811393  1
  Er  Er10  1  0.811244  0.188690  0.811244  1
  Er  Er11  1  0.811244  0.188690  0.188820  1
  Er  Er12  1  0.811393  0.811603  0.188502  1
  Er  Er13  1  0.059267  0.436061  0.445406  1
  Er  Er14  1  0.445406  0.436061  0.059267  1
  Er  Er15  1  0.059267  0.436061  0.059267  1
  In  In16  1  0.748762  0.416017  0.417611  1
  In  In17  1  0.417611  0.416017  0.748762  1
  In  In18  1  0.416216  0.751351  0.416216  1
  In  In19  1  0.417611  0.416017  0.417611  1
  Tc  Tc20  1  0.857540  0.427380  0.857540  1
  Ni  Ni21  1  0.858248  0.858365  0.858248  1
  Ni  Ni22  1  0.425139  0.858365  0.858248  1
  Ni  Ni23  1  0.858248  0.858365  0.425139  1
