# generated using pymatgen
data_Tm6CrCo17P12
_symmetry_space_group_name_H-M   'P 1'
_cell_length_a   3.65976200
_cell_length_b   10.47556300
_cell_length_c   12.11974500
_cell_angle_alpha   90.00000000
_cell_angle_beta   90.00000000
_cell_angle_gamma   90.00000000
_symmetry_Int_Tables_number   1
_chemical_formula_structural   Tm6CrCo17P12
_chemical_formula_sum   'Tm6 Cr1 Co17 P12'
_cell_volume   464.64760063
_cell_formula_units_Z   1
loop_
 _symmetry_equiv_pos_site_id
 _symmetry_equiv_pos_as_xyz
  1  'x, y, z'
loop_
 _atom_site_type_symbol
 _atom_site_label
 _atom_site_symmetry_multiplicity
 _atom_site_fract_x
 _atom_site_fract_y
 _atom_site_fract_z
 _atom_site_occupancy
  Tm  Tm0  1  0.000000  0.500000  0.523259  1
  Tm  Tm1  1  0.500000  0.000000  0.477111  1
  Tm  Tm2  1  0.500000  0.817962  0.206445  1
  Tm  Tm3  1  0.500000  0.182038  0.206445  1
  Tm  Tm4  1  0.000000  0.681839  0.795497  1
  Tm  Tm5  1  0.000000  0.318161  0.795497  1
  Cr  Cr6  1  0.500000  0.500000  0.155798  1
  Co  Co7  1  0.000000  0.000000  0.839518  1
  Co  Co8  1  0.500000  0.500000  0.702455  1
  Co  Co9  1  0.000000  0.000000  0.296954  1
  Co  Co10  1  0.000000  0.500000  0.987403  1
  Co  Co11  1  0.500000  0.000000  0.014778  1
  Co  Co12  1  0.500000  0.332593  0.992935  1
  Co  Co13  1  0.500000  0.667407  0.992935  1
  Co  Co14  1  0.000000  0.166807  0.006196  1
  Co  Co15  1  0.000000  0.833193  0.006196  1
  Co  Co16  1  0.500000  0.296858  0.430914  1
  Co  Co17  1  0.500000  0.703142  0.430914  1
  Co  Co18  1  0.000000  0.202738  0.568985  1
  Co  Co19  1  0.000000  0.797262  0.568985  1
  Co  Co20  1  0.500000  0.878419  0.708542  1
  Co  Co21  1  0.500000  0.121581  0.708542  1
  Co  Co22  1  0.000000  0.621179  0.291319  1
  Co  Co23  1  0.000000  0.378821  0.291319  1
  P  P24  1  0.500000  0.500000  0.881319  1
  P  P25  1  0.000000  0.000000  0.118218  1
  P  P26  1  0.500000  0.500000  0.347289  1
  P  P27  1  0.000000  0.000000  0.654530  1
  P  P28  1  0.500000  0.312182  0.616754  1
  P  P29  1  0.500000  0.687818  0.616754  1
  P  P30  1  0.000000  0.187608  0.383780  1
  P  P31  1  0.000000  0.812392  0.383780  1
  P  P32  1  0.500000  0.848506  0.891446  1
  P  P33  1  0.500000  0.151494  0.891446  1
  P  P34  1  0.000000  0.654299  0.107870  1
  P  P35  1  0.000000  0.345701  0.107870  1
