# generated using pymatgen
data_Yb3Gd3Tm2(B6Ru)4
_symmetry_space_group_name_H-M   'P 1'
_cell_length_a   3.66334000
_cell_length_b   9.09754588
_cell_length_c   11.49314641
_cell_angle_alpha   90.04057534
_cell_angle_beta   90.00000000
_cell_angle_gamma   90.00000000
_symmetry_Int_Tables_number   1
_chemical_formula_structural   Yb3Gd3Tm2(B6Ru)4
_chemical_formula_sum   'Yb3 Gd3 Tm2 B24 Ru4'
_cell_volume   383.03663458
_cell_formula_units_Z   1
loop_
 _symmetry_equiv_pos_site_id
 _symmetry_equiv_pos_as_xyz
  1  'x, y, z'
loop_
 _atom_site_type_symbol
 _atom_site_label
 _atom_site_symmetry_multiplicity
 _atom_site_fract_x
 _atom_site_fract_y
 _atom_site_fract_z
 _atom_site_occupancy
  Yb  Yb0  1  0.000000  0.175604  0.913229  1
  Yb  Yb1  1  0.000000  0.942209  0.367786  1
  Yb  Yb2  1  0.000000  0.058777  0.634251  1
  Gd  Gd3  1  0.000000  0.320740  0.414893  1
  Gd  Gd4  1  0.000000  0.678929  0.585979  1
  Gd  Gd5  1  0.000000  0.825317  0.085350  1
  Tm  Tm6  1  0.000000  0.441357  0.130076  1
  Tm  Tm7  1  0.000000  0.556617  0.868998  1
  B  B8  1  0.500000  0.554938  0.431764  1
  B  B9  1  0.500000  0.445423  0.567647  1
  B  B10  1  0.500000  0.055315  0.067524  1
  B  B11  1  0.500000  0.945708  0.931825  1
  B  B12  1  0.500000  0.750362  0.417096  1
  B  B13  1  0.500000  0.249936  0.583160  1
  B  B14  1  0.500000  0.249341  0.081543  1
  B  B15  1  0.500000  0.750179  0.917936  1
  B  B16  1  0.500000  0.791074  0.265015  1
  B  B17  1  0.500000  0.209128  0.735303  1
  B  B18  1  0.500000  0.290364  0.234772  1
  B  B19  1  0.500000  0.708859  0.765208  1
  B  B20  1  0.500000  0.630119  0.185029  1
  B  B21  1  0.500000  0.369316  0.814450  1
  B  B22  1  0.500000  0.129466  0.315009  1
  B  B23  1  0.500000  0.870361  0.685919  1
  B  B24  1  0.500000  0.984315  0.212037  1
  B  B25  1  0.500000  0.016426  0.788457  1
  B  B26  1  0.500000  0.483108  0.287532  1
  B  B27  1  0.500000  0.516727  0.711874  1
  B  B28  1  0.500000  0.598928  0.027192  1
  B  B29  1  0.500000  0.400730  0.972500  1
  B  B30  1  0.500000  0.095634  0.474109  1
  B  B31  1  0.500000  0.904499  0.526853  1
  Ru  Ru32  1  0.000000  0.638132  0.319672  1
  Ru  Ru33  1  0.000000  0.362794  0.679418  1
  Ru  Ru34  1  0.000000  0.140038  0.180660  1
  Ru  Ru35  1  0.000000  0.859236  0.819933  1
