# generated using pymatgen
data_LiSc7B24IrRh3
_symmetry_space_group_name_H-M   'P 1'
_cell_length_a   3.46168800
_cell_length_b   8.87411346
_cell_length_c   11.17351774
_cell_angle_alpha   89.99757546
_cell_angle_beta   90.00000000
_cell_angle_gamma   90.00000000
_symmetry_Int_Tables_number   1
_chemical_formula_structural   LiSc7B24IrRh3
_chemical_formula_sum   'Li1 Sc7 B24 Ir1 Rh3'
_cell_volume   343.24389519
_cell_formula_units_Z   1
loop_
 _symmetry_equiv_pos_site_id
 _symmetry_equiv_pos_as_xyz
  1  'x, y, z'
loop_
 _atom_site_type_symbol
 _atom_site_label
 _atom_site_symmetry_multiplicity
 _atom_site_fract_x
 _atom_site_fract_y
 _atom_site_fract_z
 _atom_site_occupancy
  Li  Li0  1  0.000000  0.944892  0.376348  1
  Sc  Sc1  1  0.000000  0.053342  0.621222  1
  Sc  Sc2  1  0.000000  0.555953  0.874066  1
  Sc  Sc3  1  0.000000  0.181925  0.914077  1
  Sc  Sc4  1  0.000000  0.818781  0.087008  1
  Sc  Sc5  1  0.000000  0.683821  0.584669  1
  Sc  Sc6  1  0.000000  0.316153  0.414454  1
  Sc  Sc7  1  0.000000  0.444379  0.126596  1
  B  B8  1  0.500000  0.368880  0.818780  1
  B  B9  1  0.500000  0.979158  0.215611  1
  B  B10  1  0.500000  0.555826  0.435517  1
  B  B11  1  0.500000  0.293711  0.237738  1
  B  B12  1  0.500000  0.203464  0.736325  1
  B  B13  1  0.500000  0.100060  0.471420  1
  B  B14  1  0.500000  0.797357  0.264995  1
  B  B15  1  0.500000  0.446041  0.562986  1
  B  B16  1  0.500000  0.246137  0.576003  1
  B  B17  1  0.500000  0.480210  0.287505  1
  B  B18  1  0.500000  0.705036  0.761608  1
  B  B19  1  0.500000  0.756355  0.421030  1
  B  B20  1  0.500000  0.520692  0.712868  1
  B  B21  1  0.500000  0.898261  0.525748  1
  B  B22  1  0.500000  0.053814  0.065127  1
  B  B23  1  0.500000  0.603510  0.028176  1
  B  B24  1  0.500000  0.747598  0.922497  1
  B  B25  1  0.500000  0.019996  0.785759  1
  B  B26  1  0.500000  0.396884  0.972265  1
  B  B27  1  0.500000  0.945952  0.936826  1
  B  B28  1  0.500000  0.631909  0.182238  1
  B  B29  1  0.500000  0.252353  0.078633  1
  B  B30  1  0.500000  0.868472  0.678510  1
  B  B31  1  0.500000  0.127435  0.320257  1
  Ir  Ir32  1  0.000000  0.137968  0.181084  1
  Rh  Rh33  1  0.000000  0.359788  0.681055  1
  Rh  Rh34  1  0.000000  0.861145  0.822293  1
  Rh  Rh35  1  0.000000  0.642743  0.318710  1
