# generated using pymatgen
data_Rb4Si2Te5
_symmetry_space_group_name_H-M   'P 1'
_cell_length_a   8.75813097
_cell_length_b   9.70101298
_cell_length_c   12.52686935
_cell_angle_alpha   72.33551770
_cell_angle_beta   69.07039002
_cell_angle_gamma   77.26053686
_symmetry_Int_Tables_number   1
_chemical_formula_structural   Rb4Si2Te5
_chemical_formula_sum   'Rb8 Si4 Te10'
_cell_volume   939.67473359
_cell_formula_units_Z   2
loop_
 _symmetry_equiv_pos_site_id
 _symmetry_equiv_pos_as_xyz
  1  'x, y, z'
loop_
 _atom_site_type_symbol
 _atom_site_label
 _atom_site_symmetry_multiplicity
 _atom_site_fract_x
 _atom_site_fract_y
 _atom_site_fract_z
 _atom_site_occupancy
  Rb  Rb0  1  0.208043  0.000695  0.587533  1
  Rb  Rb1  1  0.791957  0.999305  0.412467  1
  Rb  Rb2  1  0.919021  0.512948  0.691562  1
  Rb  Rb3  1  0.080979  0.487052  0.308438  1
  Rb  Rb4  1  0.500000  0.500000  0.500000  1
  Rb  Rb5  1  0.000000  0.000000  0.000000  1
  Rb  Rb6  1  0.274727  0.510173  0.906329  1
  Rb  Rb7  1  0.725273  0.489827  0.093671  1
  Si  Si8  1  0.430218  0.865921  0.215055  1
  Si  Si9  1  0.569782  0.134079  0.784945  1
  Si  Si10  1  0.382398  0.127072  0.163517  1
  Si  Si11  1  0.617602  0.872928  0.836483  1
  Te  Te12  1  0.092918  0.220033  0.158343  1
  Te  Te13  1  0.907082  0.779967  0.841657  1
  Te  Te14  1  0.603846  0.211316  0.958262  1
  Te  Te15  1  0.396154  0.788684  0.041738  1
  Te  Te16  1  0.806094  0.229698  0.608008  1
  Te  Te17  1  0.193906  0.770302  0.391992  1
  Te  Te18  1  0.545861  0.773658  0.699279  1
  Te  Te19  1  0.454139  0.226342  0.300721  1
  Te  Te20  1  0.294012  0.229707  0.754172  1
  Te  Te21  1  0.705988  0.770293  0.245828  1
