# generated using pymatgen
data_Lu2Ni5P4Rh
_symmetry_space_group_name_H-M   'P 1'
_cell_length_a   3.72678800
_cell_length_b   10.54770400
_cell_length_c   12.34275800
_cell_angle_alpha   90.00000000
_cell_angle_beta   90.00000000
_cell_angle_gamma   90.00000000
_symmetry_Int_Tables_number   1
_chemical_formula_structural   Lu2Ni5P4Rh
_chemical_formula_sum   'Lu6 Ni15 P12 Rh3'
_cell_volume   485.18217399
_cell_formula_units_Z   3
loop_
 _symmetry_equiv_pos_site_id
 _symmetry_equiv_pos_as_xyz
  1  'x, y, z'
loop_
 _atom_site_type_symbol
 _atom_site_label
 _atom_site_symmetry_multiplicity
 _atom_site_fract_x
 _atom_site_fract_y
 _atom_site_fract_z
 _atom_site_occupancy
  Lu  Lu0  1  0.000000  0.500000  0.521603  1
  Lu  Lu1  1  0.500000  0.000000  0.473570  1
  Lu  Lu2  1  0.500000  0.819313  0.206963  1
  Lu  Lu3  1  0.500000  0.180687  0.206963  1
  Lu  Lu4  1  0.000000  0.685902  0.794208  1
  Lu  Lu5  1  0.000000  0.314098  0.794208  1
  Ni  Ni6  1  0.000000  0.000000  0.297913  1
  Ni  Ni7  1  0.000000  0.500000  0.988100  1
  Ni  Ni8  1  0.500000  0.000000  0.015283  1
  Ni  Ni9  1  0.500000  0.329707  0.994656  1
  Ni  Ni10  1  0.500000  0.670293  0.994656  1
  Ni  Ni11  1  0.000000  0.167754  0.008653  1
  Ni  Ni12  1  0.000000  0.832246  0.008653  1
  Ni  Ni13  1  0.500000  0.299457  0.428338  1
  Ni  Ni14  1  0.500000  0.700543  0.428338  1
  Ni  Ni15  1  0.000000  0.195928  0.567776  1
  Ni  Ni16  1  0.000000  0.804072  0.567776  1
  Ni  Ni17  1  0.500000  0.878872  0.707873  1
  Ni  Ni18  1  0.500000  0.121128  0.707873  1
  Ni  Ni19  1  0.000000  0.624516  0.291259  1
  Ni  Ni20  1  0.000000  0.375484  0.291259  1
  P  P21  1  0.500000  0.500000  0.884506  1
  P  P22  1  0.000000  0.000000  0.123416  1
  P  P23  1  0.500000  0.500000  0.353153  1
  P  P24  1  0.000000  0.000000  0.646316  1
  P  P25  1  0.500000  0.307224  0.612428  1
  P  P26  1  0.500000  0.692776  0.612428  1
  P  P27  1  0.000000  0.183356  0.383017  1
  P  P28  1  0.000000  0.816644  0.383017  1
  P  P29  1  0.500000  0.846187  0.891491  1
  P  P30  1  0.500000  0.153813  0.891491  1
  P  P31  1  0.000000  0.656036  0.110386  1
  P  P32  1  0.000000  0.343964  0.110386  1
  Rh  Rh33  1  0.500000  0.500000  0.161520  1
  Rh  Rh34  1  0.000000  0.000000  0.839341  1
  Rh  Rh35  1  0.500000  0.500000  0.701181  1
