# generated using pymatgen
data_Ca4La2YbNi4Sn13
_symmetry_space_group_name_H-M   'P 1'
_cell_length_a   11.26937100
_cell_length_b   11.26937100
_cell_length_c   4.62124400
_cell_angle_alpha   90.00000000
_cell_angle_beta   90.00000000
_cell_angle_gamma   90.00000000
_symmetry_Int_Tables_number   1
_chemical_formula_structural   Ca4La2YbNi4Sn13
_chemical_formula_sum   'Ca4 La2 Yb1 Ni4 Sn13'
_cell_volume   586.89208545
_cell_formula_units_Z   1
loop_
 _symmetry_equiv_pos_site_id
 _symmetry_equiv_pos_as_xyz
  1  'x, y, z'
loop_
 _atom_site_type_symbol
 _atom_site_label
 _atom_site_symmetry_multiplicity
 _atom_site_fract_x
 _atom_site_fract_y
 _atom_site_fract_z
 _atom_site_occupancy
  Ca  Ca0  1  0.337157  0.671587  0.500000  1
  Ca  Ca1  1  0.662843  0.328413  0.500000  1
  Ca  Ca2  1  0.328413  0.337157  0.500000  1
  Ca  Ca3  1  0.671587  0.662843  0.500000  1
  La  La4  1  0.500000  0.000000  0.500000  1
  La  La5  1  0.000000  0.500000  0.500000  1
  Yb  Yb6  1  0.000000  0.000000  0.000000  1
  Ni  Ni7  1  0.117934  0.723529  0.000000  1
  Ni  Ni8  1  0.882066  0.276471  0.000000  1
  Ni  Ni9  1  0.276471  0.117934  0.000000  1
  Ni  Ni10  1  0.723529  0.882066  0.000000  1
  Sn  Sn11  1  0.283194  0.887661  0.000000  1
  Sn  Sn12  1  0.716806  0.112339  0.000000  1
  Sn  Sn13  1  0.112339  0.283194  0.000000  1
  Sn  Sn14  1  0.887661  0.716806  0.000000  1
  Sn  Sn15  1  0.072335  0.809589  0.500000  1
  Sn  Sn16  1  0.927665  0.190411  0.500000  1
  Sn  Sn17  1  0.190411  0.072335  0.500000  1
  Sn  Sn18  1  0.809589  0.927665  0.500000  1
  Sn  Sn19  1  0.518656  0.783315  0.000000  1
  Sn  Sn20  1  0.481344  0.216685  0.000000  1
  Sn  Sn21  1  0.216685  0.518656  0.000000  1
  Sn  Sn22  1  0.783315  0.481344  0.000000  1
  Sn  Sn23  1  0.500000  0.500000  0.000000  1
