# generated using pymatgen
data_Sm6ScCo16ReP12
_symmetry_space_group_name_H-M   'P 1'
_cell_length_a   3.76215100
_cell_length_b   10.69155200
_cell_length_c   12.42617300
_cell_angle_alpha   90.00000000
_cell_angle_beta   90.00000000
_cell_angle_gamma   90.00000000
_symmetry_Int_Tables_number   1
_chemical_formula_structural   Sm6ScCo16ReP12
_chemical_formula_sum   'Sm6 Sc1 Co16 Re1 P12'
_cell_volume   499.82085248
_cell_formula_units_Z   1
loop_
 _symmetry_equiv_pos_site_id
 _symmetry_equiv_pos_as_xyz
  1  'x, y, z'
loop_
 _atom_site_type_symbol
 _atom_site_label
 _atom_site_symmetry_multiplicity
 _atom_site_fract_x
 _atom_site_fract_y
 _atom_site_fract_z
 _atom_site_occupancy
  Sm  Sm0  1  0.000000  0.500000  0.526430  1
  Sm  Sm1  1  0.500000  0.000000  0.476200  1
  Sm  Sm2  1  0.500000  0.820413  0.206378  1
  Sm  Sm3  1  0.500000  0.179587  0.206378  1
  Sm  Sm4  1  0.000000  0.681643  0.794928  1
  Sm  Sm5  1  0.000000  0.318357  0.794928  1
  Sc  Sc6  1  0.500000  0.500000  0.151929  1
  Co  Co7  1  0.500000  0.500000  0.704349  1
  Co  Co8  1  0.000000  0.000000  0.296017  1
  Co  Co9  1  0.000000  0.500000  0.984695  1
  Co  Co10  1  0.500000  0.000000  0.008882  1
  Co  Co11  1  0.500000  0.326620  0.990666  1
  Co  Co12  1  0.500000  0.673380  0.990666  1
  Co  Co13  1  0.000000  0.162973  0.004754  1
  Co  Co14  1  0.000000  0.837027  0.004754  1
  Co  Co15  1  0.500000  0.294223  0.434181  1
  Co  Co16  1  0.500000  0.705777  0.434181  1
  Co  Co17  1  0.000000  0.202457  0.570882  1
  Co  Co18  1  0.000000  0.797543  0.570882  1
  Co  Co19  1  0.500000  0.881537  0.708200  1
  Co  Co20  1  0.500000  0.118463  0.708200  1
  Co  Co21  1  0.000000  0.621636  0.296614  1
  Co  Co22  1  0.000000  0.378364  0.296614  1
  Re  Re23  1  0.000000  0.000000  0.841970  1
  P  P24  1  0.500000  0.500000  0.885455  1
  P  P25  1  0.000000  0.000000  0.115711  1
  P  P26  1  0.500000  0.500000  0.355165  1
  P  P27  1  0.000000  0.000000  0.652509  1
  P  P28  1  0.500000  0.307607  0.616250  1
  P  P29  1  0.500000  0.692393  0.616250  1
  P  P30  1  0.000000  0.191276  0.386748  1
  P  P31  1  0.000000  0.808724  0.386748  1
  P  P32  1  0.500000  0.848307  0.890237  1
  P  P33  1  0.500000  0.151693  0.890237  1
  P  P34  1  0.000000  0.660819  0.100505  1
  P  P35  1  0.000000  0.339181  0.100505  1
