# generated using pymatgen
data_DyHo3Si4(NiRu)2
_symmetry_space_group_name_H-M   'P 1'
_cell_length_a   4.23307600
_cell_length_b   6.89785982
_cell_length_c   7.15141889
_cell_angle_alpha   91.40823603
_cell_angle_beta   90.00000000
_cell_angle_gamma   90.00000000
_symmetry_Int_Tables_number   1
_chemical_formula_structural   DyHo3Si4(NiRu)2
_chemical_formula_sum   'Dy1 Ho3 Si4 Ni2 Ru2'
_cell_volume   208.75239025
_cell_formula_units_Z   1
loop_
 _symmetry_equiv_pos_site_id
 _symmetry_equiv_pos_as_xyz
  1  'x, y, z'
loop_
 _atom_site_type_symbol
 _atom_site_label
 _atom_site_symmetry_multiplicity
 _atom_site_fract_x
 _atom_site_fract_y
 _atom_site_fract_z
 _atom_site_occupancy
  Dy  Dy0  1  0.250000  0.990333  0.799722  1
  Ho  Ho1  1  0.750000  0.009794  0.200781  1
  Ho  Ho2  1  0.250000  0.488735  0.682913  1
  Ho  Ho3  1  0.750000  0.511347  0.316837  1
  Si  Si4  1  0.250000  0.300025  0.099111  1
  Si  Si5  1  0.750000  0.699536  0.901525  1
  Si  Si6  1  0.250000  0.804115  0.397773  1
  Si  Si7  1  0.750000  0.196264  0.601269  1
  Ni  Ni8  1  0.750000  0.836301  0.575023  1
  Ni  Ni9  1  0.250000  0.164043  0.424604  1
  Ru  Ru10  1  0.750000  0.344146  0.930697  1
  Ru  Ru11  1  0.250000  0.655360  0.069744  1
