# generated using pymatgen
data_Ba6NaCa(USe6)2
_symmetry_space_group_name_H-M   'P 1'
_cell_length_a   8.92851350
_cell_length_b   8.92851370
_cell_length_c   8.92851354
_cell_angle_alpha   91.52939876
_cell_angle_beta   91.52939877
_cell_angle_gamma   91.52940488
_symmetry_Int_Tables_number   1
_chemical_formula_structural   Ba6NaCa(USe6)2
_chemical_formula_sum   'Ba6 Na1 Ca1 U2 Se12'
_cell_volume   710.99191758
_cell_formula_units_Z   1
loop_
 _symmetry_equiv_pos_site_id
 _symmetry_equiv_pos_as_xyz
  1  'x, y, z'
loop_
 _atom_site_type_symbol
 _atom_site_label
 _atom_site_symmetry_multiplicity
 _atom_site_fract_x
 _atom_site_fract_y
 _atom_site_fract_z
 _atom_site_occupancy
  Ba  Ba0  1  0.874634  0.625366  0.250000  1
  Ba  Ba1  1  0.250000  0.874634  0.625366  1
  Ba  Ba2  1  0.625366  0.250000  0.874634  1
  Ba  Ba3  1  0.750000  0.123794  0.376206  1
  Ba  Ba4  1  0.376206  0.750000  0.123794  1
  Ba  Ba5  1  0.123794  0.376206  0.750000  1
  Na  Na6  1  0.750000  0.750000  0.750000  1
  Ca  Ca7  1  0.250000  0.250000  0.250000  1
  U  U8  1  0.502713  0.502713  0.502713  1
  U  U9  1  0.997287  0.997287  0.997287  1
  Se  Se10  1  0.201934  0.546857  0.413419  1
  Se  Se11  1  0.413419  0.201934  0.546857  1
  Se  Se12  1  0.546857  0.413419  0.201934  1
  Se  Se13  1  0.918993  0.054545  0.702659  1
  Se  Se14  1  0.702659  0.918993  0.054545  1
  Se  Se15  1  0.054545  0.702659  0.918993  1
  Se  Se16  1  0.797341  0.445455  0.581007  1
  Se  Se17  1  0.581007  0.797341  0.445455  1
  Se  Se18  1  0.445455  0.581007  0.797341  1
  Se  Se19  1  0.086581  0.953143  0.298066  1
  Se  Se20  1  0.298066  0.086581  0.953143  1
  Se  Se21  1  0.953143  0.298066  0.086581  1
