# generated using pymatgen
data_Yb(NbS2)5
_symmetry_space_group_name_H-M   'P 1'
_cell_length_a   5.84445528
_cell_length_b   8.06599658
_cell_length_c   8.77396704
_cell_angle_alpha   116.03033242
_cell_angle_beta   96.59073544
_cell_angle_gamma   103.90143389
_symmetry_Int_Tables_number   1
_chemical_formula_structural   Yb(NbS2)5
_chemical_formula_sum   'Yb1 Nb5 S10'
_cell_volume   349.08756562
_cell_formula_units_Z   1
loop_
 _symmetry_equiv_pos_site_id
 _symmetry_equiv_pos_as_xyz
  1  'x, y, z'
loop_
 _atom_site_type_symbol
 _atom_site_label
 _atom_site_symmetry_multiplicity
 _atom_site_fract_x
 _atom_site_fract_y
 _atom_site_fract_z
 _atom_site_occupancy
  Yb  Yb0  1  0.668405  0.504920  0.997123  1
  Nb  Nb1  1  0.002845  0.999338  0.999983  1
  Nb  Nb2  1  0.598769  0.200154  0.202435  1
  Nb  Nb3  1  0.199205  0.399234  0.400355  1
  Nb  Nb4  1  0.800732  0.599574  0.599947  1
  Nb  Nb5  1  0.398483  0.797823  0.797097  1
  S  S6  1  0.236557  0.067633  0.287885  1
  S  S7  1  0.042130  0.665337  0.888819  1
  S  S8  1  0.836746  0.267315  0.487441  1
  S  S9  1  0.637479  0.869672  0.090649  1
  S  S10  1  0.434295  0.462705  0.685859  1
  S  S11  1  0.896426  0.534610  0.312726  1
  S  S12  1  0.696008  0.131957  0.912470  1
  S  S13  1  0.494966  0.731298  0.513361  1
  S  S14  1  0.294734  0.334287  0.111948  1
  S  S15  1  0.095021  0.931745  0.713504  1
