# generated using pymatgen
data_Pr8Si15Pd
_symmetry_space_group_name_H-M   'P 1'
_cell_length_a   8.26070800
_cell_length_b   8.26070938
_cell_length_c   8.53815100
_cell_angle_alpha   90.00000000
_cell_angle_beta   90.00000000
_cell_angle_gamma   120.00000247
_symmetry_Int_Tables_number   1
_chemical_formula_structural   Pr8Si15Pd
_chemical_formula_sum   'Pr8 Si15 Pd1'
_cell_volume   504.57887793
_cell_formula_units_Z   1
loop_
 _symmetry_equiv_pos_site_id
 _symmetry_equiv_pos_as_xyz
  1  'x, y, z'
loop_
 _atom_site_type_symbol
 _atom_site_label
 _atom_site_symmetry_multiplicity
 _atom_site_fract_x
 _atom_site_fract_y
 _atom_site_fract_z
 _atom_site_occupancy
  Pr  Pr0  1  0.497782  0.502218  0.754869  1
  Pr  Pr1  1  0.498370  0.501630  0.245048  1
  Pr  Pr2  1  0.004435  0.502218  0.754869  1
  Pr  Pr3  1  0.003260  0.501630  0.245048  1
  Pr  Pr4  1  0.497782  0.995565  0.754869  1
  Pr  Pr5  1  0.498370  0.996740  0.245048  1
  Pr  Pr6  1  0.000000  0.000000  0.750957  1
  Pr  Pr7  1  0.000000  0.000000  0.248995  1
  Si  Si8  1  0.833712  0.166288  0.000017  1
  Si  Si9  1  0.166819  0.833181  0.999720  1
  Si  Si10  1  0.332574  0.166288  0.000017  1
  Si  Si11  1  0.164451  0.835549  0.501023  1
  Si  Si12  1  0.666362  0.833181  0.999720  1
  Si  Si13  1  0.832022  0.167978  0.499191  1
  Si  Si14  1  0.833712  0.667426  0.000017  1
  Si  Si15  1  0.671098  0.835549  0.501023  1
  Si  Si16  1  0.166819  0.333638  0.999720  1
  Si  Si17  1  0.335956  0.167978  0.499191  1
  Si  Si18  1  0.164451  0.328902  0.501023  1
  Si  Si19  1  0.832022  0.664044  0.499191  1
  Si  Si20  1  0.666667  0.333333  0.999224  1
  Si  Si21  1  0.333333  0.666667  0.001231  1
  Si  Si22  1  0.333333  0.666667  0.497793  1
  Pd  Pd23  1  0.666667  0.333333  0.502197  1
