# generated using pymatgen
data_Zr12Al4CuPd7N4
_symmetry_space_group_name_H-M   'P 1'
_cell_length_a   8.63077948
_cell_length_b   8.63800341
_cell_length_c   8.63800400
_cell_angle_alpha   59.99999775
_cell_angle_beta   59.97230627
_cell_angle_gamma   59.97230389
_symmetry_Int_Tables_number   1
_chemical_formula_structural   Zr12Al4CuPd7N4
_chemical_formula_sum   'Zr12 Al4 Cu1 Pd7 N4'
_cell_volume   455.17653028
_cell_formula_units_Z   1
loop_
 _symmetry_equiv_pos_site_id
 _symmetry_equiv_pos_as_xyz
  1  'x, y, z'
loop_
 _atom_site_type_symbol
 _atom_site_label
 _atom_site_symmetry_multiplicity
 _atom_site_fract_x
 _atom_site_fract_y
 _atom_site_fract_z
 _atom_site_occupancy
  Zr  Zr0  1  0.812600  0.812413  0.187493  1
  Zr  Zr1  1  0.188540  0.188205  0.811628  1
  Zr  Zr2  1  0.812600  0.187493  0.812413  1
  Zr  Zr3  1  0.188540  0.811628  0.188205  1
  Zr  Zr4  1  0.188540  0.811628  0.811628  1
  Zr  Zr5  1  0.812600  0.187493  0.187493  1
  Zr  Zr6  1  0.437382  0.437650  0.062484  1
  Zr  Zr7  1  0.060386  0.064448  0.437583  1
  Zr  Zr8  1  0.437382  0.062484  0.437650  1
  Zr  Zr9  1  0.060386  0.437583  0.064448  1
  Zr  Zr10  1  0.060386  0.437583  0.437583  1
  Zr  Zr11  1  0.437382  0.062484  0.062484  1
  Al  Al12  1  0.125291  0.624903  0.624903  1
  Al  Al13  1  0.627048  0.125621  0.623665  1
  Al  Al14  1  0.627048  0.623665  0.125621  1
  Al  Al15  1  0.627048  0.623665  0.623665  1
  Cu  Cu16  1  0.752488  0.415838  0.415838  1
  Pd  Pd17  1  0.415697  0.756695  0.413804  1
  Pd  Pd18  1  0.415697  0.413804  0.756695  1
  Pd  Pd19  1  0.415697  0.413804  0.413804  1
  Pd  Pd20  1  0.491451  0.836183  0.836183  1
  Pd  Pd21  1  0.835806  0.491329  0.836432  1
  Pd  Pd22  1  0.835806  0.836432  0.491329  1
  Pd  Pd23  1  0.835806  0.836432  0.836432  1
  N  N24  1  0.624695  0.125102  0.125102  1
  N  N25  1  0.124565  0.625578  0.124928  1
  N  N26  1  0.124565  0.124928  0.625578  1
  N  N27  1  0.124565  0.124928  0.124928  1
