# generated using pymatgen
data_K2Th(PdSe2)3
_symmetry_space_group_name_H-M   'P 1'
_cell_length_a   11.66300727
_cell_length_b   10.26415770
_cell_length_c   9.15048141
_cell_angle_alpha   73.59289087
_cell_angle_beta   57.58888387
_cell_angle_gamma   48.81822214
_symmetry_Int_Tables_number   1
_chemical_formula_structural   K2Th(PdSe2)3
_chemical_formula_sum   'K4 Th2 Pd6 Se12'
_cell_volume   691.71412363
_cell_formula_units_Z   2
loop_
 _symmetry_equiv_pos_site_id
 _symmetry_equiv_pos_as_xyz
  1  'x, y, z'
loop_
 _atom_site_type_symbol
 _atom_site_label
 _atom_site_symmetry_multiplicity
 _atom_site_fract_x
 _atom_site_fract_y
 _atom_site_fract_z
 _atom_site_occupancy
  K  K0  1  0.250000  0.249999  0.250000  1
  K  K1  1  0.750000  0.750000  0.750000  1
  K  K2  1  0.313200  0.686800  0.313201  1
  K  K3  1  0.686800  0.313201  0.686800  1
  Th  Th4  1  0.169465  0.169466  0.830535  1
  Th  Th5  1  0.830534  0.830535  0.169466  1
  Pd  Pd6  1  0.824740  0.175260  0.175260  1
  Pd  Pd7  1  0.175261  0.824740  0.824739  1
  Pd  Pd8  1  0.816963  0.496102  0.183037  1
  Pd  Pd9  1  0.496102  0.816963  0.503898  1
  Pd  Pd10  1  0.503898  0.183037  0.496102  1
  Pd  Pd11  1  0.183038  0.503898  0.816962  1
  Se  Se12  1  0.018527  0.180377  0.211661  1
  Se  Se13  1  0.180378  0.018526  0.589435  1
  Se  Se14  1  0.589435  0.211661  0.180378  1
  Se  Se15  1  0.211661  0.589434  0.018526  1
  Se  Se16  1  0.981473  0.819622  0.788339  1
  Se  Se17  1  0.819622  0.981474  0.410565  1
  Se  Se18  1  0.410565  0.788339  0.819622  1
  Se  Se19  1  0.788339  0.410565  0.981474  1
  Se  Se20  1  0.419921  0.188798  0.811202  1
  Se  Se21  1  0.188798  0.419921  0.580079  1
  Se  Se22  1  0.580079  0.811203  0.188798  1
  Se  Se23  1  0.811202  0.580080  0.419921  1
