# generated using pymatgen
data_Hf12Zr6FeCoRe8
_symmetry_space_group_name_H-M   'P 1'
_cell_length_a   8.62998800
_cell_length_b   8.62998677
_cell_length_c   8.47331400
_cell_angle_alpha   90.00000000
_cell_angle_beta   90.00000000
_cell_angle_gamma   119.99999705
_symmetry_Int_Tables_number   1
_chemical_formula_structural   Hf12Zr6FeCoRe8
_chemical_formula_sum   'Hf12 Zr6 Fe1 Co1 Re8'
_cell_volume   546.51774409
_cell_formula_units_Z   1
loop_
 _symmetry_equiv_pos_site_id
 _symmetry_equiv_pos_as_xyz
  1  'x, y, z'
loop_
 _atom_site_type_symbol
 _atom_site_label
 _atom_site_symmetry_multiplicity
 _atom_site_fract_x
 _atom_site_fract_y
 _atom_site_fract_z
 _atom_site_occupancy
  Hf  Hf0  1  0.199660  0.800340  0.440427  1
  Hf  Hf1  1  0.199660  0.399322  0.440427  1
  Hf  Hf2  1  0.600678  0.800340  0.440427  1
  Hf  Hf3  1  0.801273  0.198727  0.559518  1
  Hf  Hf4  1  0.801273  0.602546  0.559518  1
  Hf  Hf5  1  0.397454  0.198727  0.559518  1
  Hf  Hf6  1  0.801273  0.198727  0.940482  1
  Hf  Hf7  1  0.801273  0.602546  0.940482  1
  Hf  Hf8  1  0.397454  0.198727  0.940482  1
  Hf  Hf9  1  0.199660  0.800340  0.059573  1
  Hf  Hf10  1  0.199660  0.399322  0.059573  1
  Hf  Hf11  1  0.600678  0.800340  0.059573  1
  Zr  Zr12  1  0.540728  0.459272  0.250000  1
  Zr  Zr13  1  0.540728  0.081455  0.250000  1
  Zr  Zr14  1  0.918545  0.459272  0.250000  1
  Zr  Zr15  1  0.458898  0.541102  0.750000  1
  Zr  Zr16  1  0.458898  0.917797  0.750000  1
  Zr  Zr17  1  0.082203  0.541102  0.750000  1
  Fe  Fe18  1  0.333333  0.666667  0.250000  1
  Co  Co19  1  0.666667  0.333333  0.750000  1
  Re  Re20  1  0.890349  0.109651  0.250000  1
  Re  Re21  1  0.890349  0.780699  0.250000  1
  Re  Re22  1  0.219301  0.109651  0.250000  1
  Re  Re23  1  0.109672  0.890328  0.750000  1
  Re  Re24  1  0.109672  0.219342  0.750000  1
  Re  Re25  1  0.780658  0.890328  0.750000  1
  Re  Re26  1  0.000000  0.000000  0.499697  1
  Re  Re27  1  0.000000  0.000000  0.000303  1
