# generated using pymatgen
data_Nd5Se6
_symmetry_space_group_name_H-M   'P 1'
_cell_length_a   7.33710201
_cell_length_b   9.43618824
_cell_length_c   9.45248300
_cell_angle_alpha   83.64036611
_cell_angle_beta   130.55489712
_cell_angle_gamma   130.51202047
_symmetry_Int_Tables_number   1
_chemical_formula_structural   Nd5Se6
_chemical_formula_sum   'Nd5 Se6'
_cell_volume   318.31391973
_cell_formula_units_Z   1
loop_
 _symmetry_equiv_pos_site_id
 _symmetry_equiv_pos_as_xyz
  1  'x, y, z'
loop_
 _atom_site_type_symbol
 _atom_site_label
 _atom_site_symmetry_multiplicity
 _atom_site_fract_x
 _atom_site_fract_y
 _atom_site_fract_z
 _atom_site_occupancy
  Nd  Nd0  1  0.913983  0.633048  0.452359  1
  Nd  Nd1  1  0.415586  0.798260  0.287582  1
  Nd  Nd2  1  0.414808  0.462218  0.624928  1
  Nd  Nd3  1  0.913342  0.962382  0.121809  1
  Nd  Nd4  1  0.413050  0.133750  0.949537  1
  Se  Se5  1  0.161469  0.711569  0.870655  1
  Se  Se6  1  0.666634  0.884473  0.703807  1
  Se  Se7  1  0.655801  0.545994  0.035769  1
  Se  Se8  1  0.162901  0.381412  0.203384  1
  Se  Se9  1  0.175613  0.050964  0.539511  1
  Se  Se10  1  0.664827  0.213973  0.371150  1
