# generated using pymatgen
data_Y3TmCdIr
_symmetry_space_group_name_H-M   'P 1'
_cell_length_a   9.62314832
_cell_length_b   9.62314830
_cell_length_c   9.62314900
_cell_angle_alpha   60.00000103
_cell_angle_beta   60.00000109
_cell_angle_gamma   60.00000464
_symmetry_Int_Tables_number   1
_chemical_formula_structural   Y3TmCdIr
_chemical_formula_sum   'Y12 Tm4 Cd4 Ir4'
_cell_volume   630.13933858
_cell_formula_units_Z   4
loop_
 _symmetry_equiv_pos_site_id
 _symmetry_equiv_pos_as_xyz
  1  'x, y, z'
loop_
 _atom_site_type_symbol
 _atom_site_label
 _atom_site_symmetry_multiplicity
 _atom_site_fract_x
 _atom_site_fract_y
 _atom_site_fract_z
 _atom_site_occupancy
  Y  Y0  1  0.809732  0.190268  0.190268  1
  Y  Y1  1  0.190268  0.809732  0.809732  1
  Y  Y2  1  0.190268  0.809732  0.190268  1
  Y  Y3  1  0.809732  0.190268  0.809732  1
  Y  Y4  1  0.190268  0.190268  0.809732  1
  Y  Y5  1  0.809732  0.809732  0.190268  1
  Y  Y6  1  0.938700  0.561300  0.561300  1
  Y  Y7  1  0.561300  0.938700  0.938700  1
  Y  Y8  1  0.561300  0.938700  0.561300  1
  Y  Y9  1  0.938700  0.561300  0.938700  1
  Y  Y10  1  0.561300  0.561300  0.938700  1
  Y  Y11  1  0.938700  0.938700  0.561300  1
  Tm  Tm12  1  0.348153  0.348153  0.348153  1
  Tm  Tm13  1  0.348153  0.348153  0.955540  1
  Tm  Tm14  1  0.348153  0.955540  0.348153  1
  Tm  Tm15  1  0.955540  0.348153  0.348153  1
  Cd  Cd16  1  0.580652  0.580652  0.580652  1
  Cd  Cd17  1  0.580652  0.580652  0.258045  1
  Cd  Cd18  1  0.580652  0.258045  0.580652  1
  Cd  Cd19  1  0.258045  0.580652  0.580652  1
  Ir  Ir20  1  0.143016  0.143016  0.143016  1
  Ir  Ir21  1  0.143016  0.143016  0.570952  1
  Ir  Ir22  1  0.143016  0.570952  0.143016  1
  Ir  Ir23  1  0.570952  0.143016  0.143016  1
