# generated using pymatgen
data_K3Re2(O2F3)2
_symmetry_space_group_name_H-M   'P 1'
_cell_length_a   8.33546230
_cell_length_b   8.33546226
_cell_length_c   8.25435792
_cell_angle_alpha   73.53979196
_cell_angle_beta   73.53978749
_cell_angle_gamma   90.33308519
_symmetry_Int_Tables_number   1
_chemical_formula_structural   K3Re2(O2F3)2
_chemical_formula_sum   'K6 Re4 O8 F12'
_cell_volume   525.15025299
_cell_formula_units_Z   2
loop_
 _symmetry_equiv_pos_site_id
 _symmetry_equiv_pos_as_xyz
  1  'x, y, z'
loop_
 _atom_site_type_symbol
 _atom_site_label
 _atom_site_symmetry_multiplicity
 _atom_site_fract_x
 _atom_site_fract_y
 _atom_site_fract_z
 _atom_site_occupancy
  K  K0  1  0.958439  0.749335  0.000596  1
  K  K1  1  0.250665  0.041561  0.499404  1
  K  K2  1  0.041561  0.250665  0.999404  1
  K  K3  1  0.749335  0.958439  0.500596  1
  K  K4  1  0.500000  0.500000  0.000000  1
  K  K5  1  0.500000  0.500000  0.500000  1
  Re  Re6  1  0.020559  0.432825  0.380936  1
  Re  Re7  1  0.567175  0.979441  0.119064  1
  Re  Re8  1  0.979441  0.567175  0.619064  1
  Re  Re9  1  0.432825  0.020559  0.880936  1
  O  O10  1  0.944390  0.327172  0.630428  1
  O  O11  1  0.672828  0.055610  0.869572  1
  O  O12  1  0.055610  0.672828  0.369572  1
  O  O13  1  0.327172  0.944390  0.130428  1
  O  O14  1  0.832182  0.456643  0.326336  1
  O  O15  1  0.543357  0.167818  0.173664  1
  O  O16  1  0.167818  0.543357  0.673664  1
  O  O17  1  0.456643  0.832182  0.826336  1
  F  F18  1  0.148041  0.502533  0.117943  1
  F  F19  1  0.497467  0.851959  0.382057  1
  F  F20  1  0.851959  0.497467  0.882057  1
  F  F21  1  0.502533  0.148041  0.617943  1
  F  F22  1  0.020074  0.196846  0.355151  1
  F  F23  1  0.803154  0.979926  0.144849  1
  F  F24  1  0.979926  0.803154  0.644849  1
  F  F25  1  0.196846  0.020074  0.855151  1
  F  F26  1  0.738677  0.605108  0.618549  1
  F  F27  1  0.394892  0.261323  0.881451  1
  F  F28  1  0.261323  0.394892  0.381451  1
  F  F29  1  0.605108  0.738677  0.118549  1
