# generated using pymatgen
data_YbTh7(Si4Mo3)4
_symmetry_space_group_name_H-M   'P 1'
_cell_length_a   7.01828048
_cell_length_b   7.07121567
_cell_length_c   13.11615134
_cell_angle_alpha   90.02746814
_cell_angle_beta   89.89887015
_cell_angle_gamma   89.76381956
_symmetry_Int_Tables_number   1
_chemical_formula_structural   YbTh7(Si4Mo3)4
_chemical_formula_sum   'Yb1 Th7 Si16 Mo12'
_cell_volume   650.91878528
_cell_formula_units_Z   1
loop_
 _symmetry_equiv_pos_site_id
 _symmetry_equiv_pos_as_xyz
  1  'x, y, z'
loop_
 _atom_site_type_symbol
 _atom_site_label
 _atom_site_symmetry_multiplicity
 _atom_site_fract_x
 _atom_site_fract_y
 _atom_site_fract_z
 _atom_site_occupancy
  Yb  Yb0  1  0.992731  0.164326  0.092971  1
  Th  Th1  1  0.493551  0.337663  0.097067  1
  Th  Th2  1  0.993118  0.162339  0.404609  1
  Th  Th3  1  0.509438  0.662099  0.594839  1
  Th  Th4  1  0.008853  0.839215  0.908111  1
  Th  Th5  1  0.508597  0.662706  0.906359  1
  Th  Th6  1  0.008984  0.837758  0.594925  1
  Th  Th7  1  0.488859  0.336069  0.403009  1
  Si  Si8  1  0.655909  0.049875  0.549389  1
  Si  Si9  1  0.152684  0.447743  0.950923  1
  Si  Si10  1  0.341862  0.954040  0.050455  1
  Si  Si11  1  0.841790  0.547233  0.452131  1
  Si  Si12  1  0.349573  0.946705  0.448589  1
  Si  Si13  1  0.846989  0.541591  0.050498  1
  Si  Si14  1  0.654174  0.049636  0.953326  1
  Si  Si15  1  0.155836  0.449450  0.548588  1
  Si  Si16  1  0.537876  0.349776  0.749389  1
  Si  Si17  1  0.037858  0.149392  0.751225  1
  Si  Si18  1  0.460182  0.653419  0.254076  1
  Si  Si19  1  0.963638  0.858411  0.245426  1
  Si  Si20  1  0.817185  0.618071  0.751242  1
  Si  Si21  1  0.314852  0.882650  0.750464  1
  Si  Si22  1  0.178797  0.380525  0.246301  1
  Si  Si23  1  0.692026  0.117257  0.246514  1
  Mo  Mo24  1  0.830416  0.340481  0.626724  1
  Mo  Mo25  1  0.332205  0.161565  0.874010  1
  Mo  Mo26  1  0.165759  0.663491  0.124625  1
  Mo  Mo27  1  0.681909  0.838828  0.374375  1
  Mo  Mo28  1  0.159594  0.660180  0.371840  1
  Mo  Mo29  1  0.663974  0.833259  0.125683  1
  Mo  Mo30  1  0.827295  0.339210  0.873517  1
  Mo  Mo31  1  0.331142  0.159690  0.624946  1
  Mo  Mo32  1  0.670961  0.997458  0.751514  1
  Mo  Mo33  1  0.172029  0.501950  0.750778  1
  Mo  Mo34  1  0.331500  0.003453  0.250514  1
  Mo  Mo35  1  0.827853  0.502485  0.251048  1
