# generated using pymatgen
data_TbHo3(ScSb5)4
_symmetry_space_group_name_H-M   'P 1'
_cell_length_a   4.20514300
_cell_length_b   13.05768206
_cell_length_c   14.23728401
_cell_angle_alpha   78.76812645
_cell_angle_beta   90.00000000
_cell_angle_gamma   90.00000000
_symmetry_Int_Tables_number   1
_chemical_formula_structural   TbHo3(ScSb5)4
_chemical_formula_sum   'Tb1 Ho3 Sc4 Sb20'
_cell_volume   766.78790510
_cell_formula_units_Z   1
loop_
 _symmetry_equiv_pos_site_id
 _symmetry_equiv_pos_as_xyz
  1  'x, y, z'
loop_
 _atom_site_type_symbol
 _atom_site_label
 _atom_site_symmetry_multiplicity
 _atom_site_fract_x
 _atom_site_fract_y
 _atom_site_fract_z
 _atom_site_occupancy
  Tb  Tb0  1  0.250000  0.669365  0.575979  1
  Ho  Ho1  1  0.750000  0.330360  0.423851  1
  Ho  Ho2  1  0.250000  0.953534  0.355116  1
  Ho  Ho3  1  0.750000  0.046643  0.644971  1
  Sc  Sc4  1  0.250000  0.396861  0.772429  1
  Sc  Sc5  1  0.750000  0.603031  0.227394  1
  Sc  Sc6  1  0.250000  0.657496  0.858782  1
  Sc  Sc7  1  0.750000  0.342589  0.141570  1
  Sb  Sb8  1  0.250000  0.147648  0.780096  1
  Sb  Sb9  1  0.750000  0.852330  0.219980  1
  Sb  Sb10  1  0.250000  0.142937  0.483307  1
  Sb  Sb11  1  0.750000  0.858201  0.516433  1
  Sb  Sb12  1  0.250000  0.162686  0.161181  1
  Sb  Sb13  1  0.750000  0.837332  0.838807  1
  Sb  Sb14  1  0.250000  0.422113  0.974833  1
  Sb  Sb15  1  0.750000  0.577951  0.025119  1
  Sb  Sb16  1  0.750000  0.028422  0.913473  1
  Sb  Sb17  1  0.250000  0.971539  0.086466  1
  Sb  Sb18  1  0.750000  0.142521  0.315974  1
  Sb  Sb19  1  0.250000  0.858157  0.684333  1
  Sb  Sb20  1  0.750000  0.280070  0.936310  1
  Sb  Sb21  1  0.250000  0.719922  0.063640  1
  Sb  Sb22  1  0.750000  0.289025  0.658778  1
  Sb  Sb23  1  0.250000  0.710857  0.340875  1
  Sb  Sb24  1  0.750000  0.572934  0.742072  1
  Sb  Sb25  1  0.250000  0.426504  0.258925  1
  Sb  Sb26  1  0.750000  0.569791  0.443377  1
  Sb  Sb27  1  0.250000  0.429184  0.555927  1
