# generated using pymatgen
data_Rb4Er3Bi9S20
_symmetry_space_group_name_H-M   'P 1'
_cell_length_a   3.98548900
_cell_length_b   11.87110464
_cell_length_c   22.08967400
_cell_angle_alpha   90.03818720
_cell_angle_beta   90.00000000
_cell_angle_gamma   90.00000000
_symmetry_Int_Tables_number   1
_chemical_formula_structural   Rb4Er3Bi9S20
_chemical_formula_sum   'Rb4 Er3 Bi9 S20'
_cell_volume   1045.10989108
_cell_formula_units_Z   1
loop_
 _symmetry_equiv_pos_site_id
 _symmetry_equiv_pos_as_xyz
  1  'x, y, z'
loop_
 _atom_site_type_symbol
 _atom_site_label
 _atom_site_symmetry_multiplicity
 _atom_site_fract_x
 _atom_site_fract_y
 _atom_site_fract_z
 _atom_site_occupancy
  Rb  Rb0  1  0.250000  0.486833  0.211725  1
  Rb  Rb1  1  0.750000  0.511719  0.788798  1
  Rb  Rb2  1  0.750000  0.986917  0.286754  1
  Rb  Rb3  1  0.250000  0.011379  0.712276  1
  Er  Er4  1  0.250000  0.364774  0.023402  1
  Er  Er5  1  0.750000  0.635175  0.976355  1
  Er  Er6  1  0.750000  0.863161  0.475833  1
  Bi  Bi7  1  0.250000  0.133759  0.524695  1
  Bi  Bi8  1  0.250000  0.799412  0.121487  1
  Bi  Bi9  1  0.750000  0.200217  0.878065  1
  Bi  Bi10  1  0.750000  0.301095  0.377744  1
  Bi  Bi11  1  0.250000  0.698288  0.623173  1
  Bi  Bi12  1  0.250000  0.594517  0.424579  1
  Bi  Bi13  1  0.750000  0.408106  0.574842  1
  Bi  Bi14  1  0.750000  0.095346  0.075027  1
  Bi  Bi15  1  0.250000  0.904562  0.924543  1
  S  S16  1  0.250000  0.812860  0.395601  1
  S  S17  1  0.750000  0.193818  0.610745  1
  S  S18  1  0.750000  0.312112  0.104151  1
  S  S19  1  0.250000  0.687747  0.895569  1
  S  S20  1  0.250000  0.246536  0.302711  1
  S  S21  1  0.750000  0.751983  0.698214  1
  S  S22  1  0.750000  0.746000  0.196636  1
  S  S23  1  0.250000  0.253234  0.802819  1
  S  S24  1  0.250000  0.362154  0.481131  1
  S  S25  1  0.750000  0.646781  0.517678  1
  S  S26  1  0.750000  0.852284  0.017431  1
  S  S27  1  0.250000  0.147725  0.982115  1
  S  S28  1  0.250000  0.025453  0.154079  1
  S  S29  1  0.750000  0.974326  0.845399  1
  S  S30  1  0.750000  0.526010  0.344987  1
  S  S31  1  0.250000  0.474644  0.655183  1
  S  S32  1  0.250000  0.582456  0.056286  1
  S  S33  1  0.750000  0.417465  0.943452  1
  S  S34  1  0.750000  0.078688  0.438942  1
  S  S35  1  0.250000  0.912464  0.557572  1
