# generated using pymatgen
data_La5(MoO6)2
_symmetry_space_group_name_H-M   'P 1'
_cell_length_a   7.20618846
_cell_length_b   7.20618852
_cell_length_c   7.77938743
_cell_angle_alpha   74.45196855
_cell_angle_beta   74.45196806
_cell_angle_gamma   51.39569840
_symmetry_Int_Tables_number   1
_chemical_formula_structural   La5(MoO6)2
_chemical_formula_sum   'La5 Mo2 O12'
_cell_volume   301.40634983
_cell_formula_units_Z   1
loop_
 _symmetry_equiv_pos_site_id
 _symmetry_equiv_pos_as_xyz
  1  'x, y, z'
loop_
 _atom_site_type_symbol
 _atom_site_label
 _atom_site_symmetry_multiplicity
 _atom_site_fract_x
 _atom_site_fract_y
 _atom_site_fract_z
 _atom_site_occupancy
  La  La0  1  0.305770  0.305770  0.359057  1
  La  La1  1  0.694230  0.694230  0.640943  1
  La  La2  1  0.307337  0.307337  0.831410  1
  La  La3  1  0.692663  0.692663  0.168590  1
  La  La4  1  0.000000  0.000000  0.500000  1
  Mo  Mo5  1  0.756346  0.243654  0.000000  1
  Mo  Mo6  1  0.243654  0.756346  0.000000  1
  O  O7  1  0.893736  0.425561  0.921084  1
  O  O8  1  0.425561  0.893736  0.921084  1
  O  O9  1  0.106264  0.574439  0.078916  1
  O  O10  1  0.574439  0.106264  0.078916  1
  O  O11  1  0.093776  0.596822  0.577583  1
  O  O12  1  0.596822  0.093776  0.577583  1
  O  O13  1  0.906224  0.403178  0.422417  1
  O  O14  1  0.403178  0.906224  0.422417  1
  O  O15  1  0.001228  0.001228  0.824914  1
  O  O16  1  0.998772  0.998772  0.175086  1
  O  O17  1  0.499018  0.499018  0.823839  1
  O  O18  1  0.500982  0.500982  0.176161  1
