# generated using pymatgen
data_Ba4FeMo3P4(O2F)8
_symmetry_space_group_name_H-M   'P 1'
_cell_length_a   13.30203200
_cell_length_b   5.42130597
_cell_length_c   8.26037500
_cell_angle_alpha   62.11931977
_cell_angle_beta   90.00000000
_cell_angle_gamma   90.00000000
_symmetry_Int_Tables_number   1
_chemical_formula_structural   Ba4FeMo3P4(O2F)8
_chemical_formula_sum   'Ba4 Fe1 Mo3 P4 O16 F8'
_cell_volume   526.54595793
_cell_formula_units_Z   1
loop_
 _symmetry_equiv_pos_site_id
 _symmetry_equiv_pos_as_xyz
  1  'x, y, z'
loop_
 _atom_site_type_symbol
 _atom_site_label
 _atom_site_symmetry_multiplicity
 _atom_site_fract_x
 _atom_site_fract_y
 _atom_site_fract_z
 _atom_site_occupancy
  Ba  Ba0  1  0.707354  0.357575  0.189698  1
  Ba  Ba1  1  0.292646  0.642425  0.810302  1
  Ba  Ba2  1  0.212045  0.645481  0.306252  1
  Ba  Ba3  1  0.787955  0.354519  0.693748  1
  Fe  Fe4  1  0.500000  0.000000  0.000000  1
  Mo  Mo5  1  0.000000  0.500000  0.000000  1
  Mo  Mo6  1  0.500000  0.500000  0.500000  1
  Mo  Mo7  1  0.000000  0.000000  0.500000  1
  P  P8  1  0.883942  0.872866  0.194904  1
  P  P9  1  0.116058  0.127134  0.805096  1
  P  P10  1  0.385560  0.124632  0.299050  1
  P  P11  1  0.614440  0.875368  0.700950  1
  O  O12  1  0.894381  0.723194  0.075013  1
  O  O13  1  0.105619  0.276806  0.924987  1
  O  O14  1  0.399369  0.276036  0.416886  1
  O  O15  1  0.600631  0.723964  0.583114  1
  O  O16  1  0.379525  0.800297  0.437588  1
  O  O17  1  0.620475  0.199703  0.562412  1
  O  O18  1  0.879050  0.198990  0.059802  1
  O  O19  1  0.120950  0.801010  0.940198  1
  O  O20  1  0.977257  0.816826  0.321647  1
  O  O21  1  0.022743  0.183174  0.678353  1
  O  O22  1  0.476048  0.172251  0.166643  1
  O  O23  1  0.523952  0.827749  0.833357  1
  O  O24  1  0.784819  0.784338  0.302339  1
  O  O25  1  0.215181  0.215662  0.697661  1
  O  O26  1  0.285799  0.217632  0.194287  1
  O  O27  1  0.714201  0.782368  0.805713  1
  F  F28  1  0.366410  0.830104  0.045167  1
  F  F29  1  0.633590  0.169896  0.954833  1
  F  F30  1  0.856130  0.179974  0.454517  1
  F  F31  1  0.143870  0.820026  0.545483  1
  F  F32  1  0.557173  0.670841  0.225601  1
  F  F33  1  0.442827  0.329159  0.774399  1
  F  F34  1  0.063006  0.337648  0.267018  1
  F  F35  1  0.936994  0.662352  0.732982  1
