# generated using pymatgen
data_Dy2Ho14MgAg(HgIr2)2
_symmetry_space_group_name_H-M   'P 1'
_cell_length_a   9.61628553
_cell_length_b   9.56097748
_cell_length_c   9.57133900
_cell_angle_alpha   59.96415441
_cell_angle_beta   60.15450495
_cell_angle_gamma   60.06982417
_symmetry_Int_Tables_number   1
_chemical_formula_structural   Dy2Ho14MgAg(HgIr2)2
_chemical_formula_sum   'Dy2 Ho14 Mg1 Ag1 Hg2 Ir4'
_cell_volume   623.13607773
_cell_formula_units_Z   1
loop_
 _symmetry_equiv_pos_site_id
 _symmetry_equiv_pos_as_xyz
  1  'x, y, z'
loop_
 _atom_site_type_symbol
 _atom_site_label
 _atom_site_symmetry_multiplicity
 _atom_site_fract_x
 _atom_site_fract_y
 _atom_site_fract_z
 _atom_site_occupancy
  Dy  Dy0  1  0.562202  0.563659  0.936184  1
  Dy  Dy1  1  0.936570  0.938680  0.562168  1
  Ho  Ho2  1  0.350229  0.348101  0.346886  1
  Ho  Ho3  1  0.349914  0.348072  0.955022  1
  Ho  Ho4  1  0.350561  0.954586  0.347250  1
  Ho  Ho5  1  0.942346  0.352606  0.352310  1
  Ho  Ho6  1  0.808554  0.190182  0.191669  1
  Ho  Ho7  1  0.186245  0.812102  0.812781  1
  Ho  Ho8  1  0.186385  0.811982  0.189384  1
  Ho  Ho9  1  0.808501  0.190161  0.809965  1
  Ho  Ho10  1  0.187569  0.188505  0.812087  1
  Ho  Ho11  1  0.808207  0.809361  0.191531  1
  Ho  Ho12  1  0.936724  0.561481  0.561903  1
  Ho  Ho13  1  0.561266  0.938139  0.936922  1
  Ho  Ho14  1  0.561273  0.937378  0.563252  1
  Ho  Ho15  1  0.937276  0.561415  0.939140  1
  Mg  Mg16  1  0.285553  0.571120  0.572036  1
  Ag  Ag17  1  0.582422  0.586486  0.586030  1
  Hg  Hg18  1  0.582582  0.586858  0.245149  1
  Hg  Hg19  1  0.582326  0.244385  0.587244  1
  Ir  Ir20  1  0.139412  0.144244  0.142518  1
  Ir  Ir21  1  0.139278  0.144135  0.574089  1
  Ir  Ir22  1  0.138874  0.574311  0.143341  1
  Ir  Ir23  1  0.575729  0.142051  0.141135  1
