# generated using pymatgen
data_Hf4IrPt
_symmetry_space_group_name_H-M   'P 1'
_cell_length_a   6.57918600
_cell_length_b   4.51164500
_cell_length_c   8.19557900
_cell_angle_alpha   90.00000000
_cell_angle_beta   90.00000000
_cell_angle_gamma   90.00000000
_symmetry_Int_Tables_number   1
_chemical_formula_structural   Hf4IrPt
_chemical_formula_sum   'Hf8 Ir2 Pt2'
_cell_volume   243.26897496
_cell_formula_units_Z   2
loop_
 _symmetry_equiv_pos_site_id
 _symmetry_equiv_pos_as_xyz
  1  'x, y, z'
loop_
 _atom_site_type_symbol
 _atom_site_label
 _atom_site_symmetry_multiplicity
 _atom_site_fract_x
 _atom_site_fract_y
 _atom_site_fract_z
 _atom_site_occupancy
  Hf  Hf0  1  0.156459  0.749999  0.080129  1
  Hf  Hf1  1  0.487173  0.250000  0.176934  1
  Hf  Hf2  1  0.987172  0.250000  0.323066  1
  Hf  Hf3  1  0.656458  0.749999  0.419871  1
  Hf  Hf4  1  0.346235  0.250000  0.583578  1
  Hf  Hf5  1  0.004595  0.749999  0.676050  1
  Hf  Hf6  1  0.504594  0.749999  0.823951  1
  Hf  Hf7  1  0.846234  0.250000  0.916422  1
  Ir  Ir8  1  0.756758  0.250000  0.588421  1
  Ir  Ir9  1  0.256758  0.250000  0.911580  1
  Pt  Pt10  1  0.748781  0.749999  0.095028  1
  Pt  Pt11  1  0.248780  0.749999  0.404972  1
