# generated using pymatgen
data_Zr6Zn18AsIr5
_symmetry_space_group_name_H-M   'P 1'
_cell_length_a   8.76941220
_cell_length_b   8.76941087
_cell_length_c   8.76941195
_cell_angle_alpha   60.01337685
_cell_angle_beta   60.01337360
_cell_angle_gamma   60.01337759
_symmetry_Int_Tables_number   1
_chemical_formula_structural   Zr6Zn18AsIr5
_chemical_formula_sum   'Zr6 Zn18 As1 Ir5'
_cell_volume   477.01062570
_cell_formula_units_Z   1
loop_
 _symmetry_equiv_pos_site_id
 _symmetry_equiv_pos_as_xyz
  1  'x, y, z'
loop_
 _atom_site_type_symbol
 _atom_site_label
 _atom_site_symmetry_multiplicity
 _atom_site_fract_x
 _atom_site_fract_y
 _atom_site_fract_z
 _atom_site_occupancy
  Zr  Zr0  1  0.713594  0.282288  0.282288  1
  Zr  Zr1  1  0.286406  0.717712  0.717712  1
  Zr  Zr2  1  0.282288  0.713594  0.282288  1
  Zr  Zr3  1  0.717712  0.286406  0.717712  1
  Zr  Zr4  1  0.282288  0.282288  0.713594  1
  Zr  Zr5  1  0.717712  0.717712  0.286406  1
  Zn  Zn6  1  0.122272  0.122272  0.629488  1
  Zn  Zn7  1  0.122272  0.629488  0.122272  1
  Zn  Zn8  1  0.877728  0.877728  0.370512  1
  Zn  Zn9  1  0.877728  0.370512  0.877728  1
  Zn  Zn10  1  0.629488  0.122272  0.122272  1
  Zn  Zn11  1  0.370512  0.877728  0.877728  1
  Zn  Zn12  1  0.500000  0.000000  0.000000  1
  Zn  Zn13  1  0.000000  0.500000  0.000000  1
  Zn  Zn14  1  0.000000  0.000000  0.500000  1
  Zn  Zn15  1  0.337232  0.337232  0.337232  1
  Zn  Zn16  1  0.662768  0.662768  0.662768  1
  Zn  Zn17  1  0.332662  0.332662  0.992239  1
  Zn  Zn18  1  0.332662  0.992239  0.332662  1
  Zn  Zn19  1  0.667338  0.667338  0.007761  1
  Zn  Zn20  1  0.667338  0.007761  0.667338  1
  Zn  Zn21  1  0.992239  0.332662  0.332662  1
  Zn  Zn22  1  0.007761  0.667338  0.667338  1
  Zn  Zn23  1  0.000000  0.000000  0.000000  1
  As  As24  1  0.500000  0.500000  0.500000  1
  Ir  Ir25  1  0.118858  0.118858  0.118858  1
  Ir  Ir26  1  0.881142  0.881142  0.881142  1
  Ir  Ir27  1  0.000000  0.500000  0.500000  1
  Ir  Ir28  1  0.500000  0.000000  0.500000  1
  Ir  Ir29  1  0.500000  0.500000  0.000000  1
