# generated using pymatgen
data_Dy5Y3P12(IrRh)8
_symmetry_space_group_name_H-M   'P 1'
_cell_length_a   12.97947000
_cell_length_b   12.97383154
_cell_length_c   3.97219000
_cell_angle_alpha   90.00000000
_cell_angle_beta   90.00000000
_cell_angle_gamma   119.95387712
_symmetry_Int_Tables_number   1
_chemical_formula_structural   Dy5Y3P12(IrRh)8
_chemical_formula_sum   'Dy5 Y3 P12 Ir8 Rh8'
_cell_volume   579.54547079
_cell_formula_units_Z   1
loop_
 _symmetry_equiv_pos_site_id
 _symmetry_equiv_pos_as_xyz
  1  'x, y, z'
loop_
 _atom_site_type_symbol
 _atom_site_label
 _atom_site_symmetry_multiplicity
 _atom_site_fract_x
 _atom_site_fract_y
 _atom_site_fract_z
 _atom_site_occupancy
  Dy  Dy0  1  0.333486  0.666694  0.500000  1
  Dy  Dy1  1  0.666619  0.333258  0.500000  1
  Dy  Dy2  1  0.000076  0.813279  0.000000  1
  Dy  Dy3  1  0.186623  0.186495  0.000000  1
  Dy  Dy4  1  0.812760  0.999547  0.000000  1
  Y  Y5  1  0.000109  0.446187  0.500000  1
  Y  Y6  1  0.554224  0.555003  0.500000  1
  Y  Y7  1  0.444920  0.998922  0.500000  1
  P  P8  1  0.999843  0.652954  0.500000  1
  P  P9  1  0.347440  0.347400  0.500000  1
  P  P10  1  0.652612  0.000268  0.500000  1
  P  P11  1  0.517299  0.690593  0.000000  1
  P  P12  1  0.309463  0.826473  0.000000  1
  P  P13  1  0.173532  0.482593  0.000000  1
  P  P14  1  0.482458  0.173532  0.000000  1
  P  P15  1  0.691041  0.517592  0.000000  1
  P  P16  1  0.826225  0.308887  0.000000  1
  P  P17  1  0.000021  0.176115  0.500000  1
  P  P18  1  0.823857  0.823563  0.500000  1
  P  P19  1  0.176457  0.000397  0.500000  1
  Ir  Ir20  1  0.999938  0.272741  0.000000  1
  Ir  Ir21  1  0.726789  0.727196  0.000000  1
  Ir  Ir22  1  0.272756  0.999506  0.000000  1
  Ir  Ir23  1  0.179288  0.371338  0.500000  1
  Ir  Ir24  1  0.371447  0.179466  0.500000  1
  Ir  Ir25  1  0.807621  0.628310  0.500000  1
  Ir  Ir26  1  0.820607  0.192285  0.500000  1
  Ir  Ir27  1  0.999870  0.999945  0.500000  1
  Rh  Rh28  1  0.513821  0.868966  0.000000  1
  Rh  Rh29  1  0.131438  0.644197  0.000000  1
  Rh  Rh30  1  0.355789  0.487636  0.000000  1
  Rh  Rh31  1  0.488653  0.356663  0.000000  1
  Rh  Rh32  1  0.868268  0.511933  0.000000  1
  Rh  Rh33  1  0.643571  0.131492  0.000000  1
  Rh  Rh34  1  0.628746  0.807876  0.500000  1
  Rh  Rh35  1  0.192330  0.820699  0.500000  1
