# generated using pymatgen
data_Sc12Rh2PbI16
_symmetry_space_group_name_H-M   'P 1'
_cell_length_a   9.27121753
_cell_length_b   11.89235800
_cell_length_c   12.63813400
_cell_angle_alpha   116.61070482
_cell_angle_beta   101.31367389
_cell_angle_gamma   100.87750991
_symmetry_Int_Tables_number   1
_chemical_formula_structural   Sc12Rh2PbI16
_chemical_formula_sum   'Sc12 Rh2 Pb1 I16'
_cell_volume   1159.23551443
_cell_formula_units_Z   1
loop_
 _symmetry_equiv_pos_site_id
 _symmetry_equiv_pos_as_xyz
  1  'x, y, z'
loop_
 _atom_site_type_symbol
 _atom_site_label
 _atom_site_symmetry_multiplicity
 _atom_site_fract_x
 _atom_site_fract_y
 _atom_site_fract_z
 _atom_site_occupancy
  Sc  Sc0  1  0.102331  0.262601  0.354799  1
  Sc  Sc1  1  0.897669  0.737399  0.645201  1
  Sc  Sc2  1  0.763661  0.537771  0.325012  1
  Sc  Sc3  1  0.236339  0.462229  0.674988  1
  Sc  Sc4  1  0.294896  0.737710  0.644470  1
  Sc  Sc5  1  0.705104  0.262290  0.355530  1
  Sc  Sc6  1  0.161232  0.537995  0.324538  1
  Sc  Sc7  1  0.838768  0.462005  0.675462  1
  Sc  Sc8  1  0.408547  0.363327  0.280692  1
  Sc  Sc9  1  0.591453  0.636673  0.719308  1
  Sc  Sc10  1  0.459712  0.312264  0.520732  1
  Sc  Sc11  1  0.540288  0.687736  0.479268  1
  Rh  Rh12  1  0.344511  0.500185  0.499753  1
  Rh  Rh13  1  0.655490  0.499815  0.500247  1
  Pb  Pb14  1  0.000000  0.500000  0.500000  1
  I  I15  1  0.398298  0.739632  0.884352  1
  I  I16  1  0.601702  0.260368  0.115648  1
  I  I17  1  0.184981  0.958100  0.777489  1
  I  I18  1  0.815019  0.041900  0.222511  1
  I  I19  1  0.335221  0.092588  0.251561  1
  I  I20  1  0.664779  0.907412  0.748439  1
  I  I21  1  0.563369  0.434686  0.800407  1
  I  I22  1  0.436631  0.565314  0.199593  1
  I  I23  1  0.311023  0.830660  0.462509  1
  I  I24  1  0.688977  0.169340  0.537491  1
  I  I25  1  0.169743  0.170002  0.536575  1
  I  I26  1  0.830257  0.829998  0.463425  1
  I  I27  1  0.928119  0.576472  0.164805  1
  I  I28  1  0.071881  0.423528  0.835195  1
  I  I29  1  0.922227  0.739216  0.884885  1
  I  I30  1  0.077773  0.260784  0.115115  1
