# generated using pymatgen
data_CeAsRh2Au
_symmetry_space_group_name_H-M   'P 1'
_cell_length_a   4.01253100
_cell_length_b   4.01253100
_cell_length_c   11.68356200
_cell_angle_alpha   90.00000000
_cell_angle_beta   90.00000000
_cell_angle_gamma   90.00000000
_symmetry_Int_Tables_number   1
_chemical_formula_structural   CeAsRh2Au
_chemical_formula_sum   'Ce2 As2 Rh4 Au2'
_cell_volume   188.11008035
_cell_formula_units_Z   2
loop_
 _symmetry_equiv_pos_site_id
 _symmetry_equiv_pos_as_xyz
  1  'x, y, z'
loop_
 _atom_site_type_symbol
 _atom_site_label
 _atom_site_symmetry_multiplicity
 _atom_site_fract_x
 _atom_site_fract_y
 _atom_site_fract_z
 _atom_site_occupancy
  Ce  Ce0  1  0.000000  0.500000  0.257316  1
  Ce  Ce1  1  0.500000  0.000000  0.742684  1
  As  As2  1  0.000000  0.500000  0.877209  1
  As  As3  1  0.500000  0.000000  0.122791  1
  Rh  Rh4  1  0.000000  0.000000  0.000000  1
  Rh  Rh5  1  0.500000  0.500000  0.000000  1
  Rh  Rh6  1  0.000000  0.500000  0.673522  1
  Rh  Rh7  1  0.500000  0.000000  0.326478  1
  Au  Au8  1  0.000000  0.000000  0.500000  1
  Au  Au9  1  0.500000  0.500000  0.500000  1
