# generated using pymatgen
data_Sc2Co3Si7Ir9
_symmetry_space_group_name_H-M   'P 1'
_cell_length_a   9.49024100
_cell_length_b   9.49024006
_cell_length_c   3.79764700
_cell_angle_alpha   90.00000000
_cell_angle_beta   90.00000000
_cell_angle_gamma   119.99999978
_symmetry_Int_Tables_number   1
_chemical_formula_structural   Sc2Co3Si7Ir9
_chemical_formula_sum   'Sc2 Co3 Si7 Ir9'
_cell_volume   296.20996571
_cell_formula_units_Z   1
loop_
 _symmetry_equiv_pos_site_id
 _symmetry_equiv_pos_as_xyz
  1  'x, y, z'
loop_
 _atom_site_type_symbol
 _atom_site_label
 _atom_site_symmetry_multiplicity
 _atom_site_fract_x
 _atom_site_fract_y
 _atom_site_fract_z
 _atom_site_occupancy
  Sc  Sc0  1  0.666667  0.333333  0.000000  1
  Sc  Sc1  1  0.000000  0.000000  0.500000  1
  Co  Co2  1  0.487964  0.545620  0.000000  1
  Co  Co3  1  0.454380  0.942344  0.000000  1
  Co  Co4  1  0.057656  0.512036  0.000000  1
  Si  Si5  1  0.736014  0.778335  0.000000  1
  Si  Si6  1  0.221665  0.957679  0.000000  1
  Si  Si7  1  0.042321  0.263986  0.000000  1
  Si  Si8  1  0.451241  0.380249  0.500000  1
  Si  Si9  1  0.619751  0.070992  0.500000  1
  Si  Si10  1  0.929008  0.548759  0.500000  1
  Si  Si11  1  0.333333  0.666667  0.000000  1
  Ir  Ir12  1  0.768261  0.037926  0.000000  1
  Ir  Ir13  1  0.962074  0.730335  0.000000  1
  Ir  Ir14  1  0.269665  0.231739  0.000000  1
  Ir  Ir15  1  0.714238  0.609147  0.500000  1
  Ir  Ir16  1  0.390853  0.105090  0.500000  1
  Ir  Ir17  1  0.894910  0.285762  0.500000  1
  Ir  Ir18  1  0.550977  0.789486  0.500000  1
  Ir  Ir19  1  0.210514  0.761493  0.500000  1
  Ir  Ir20  1  0.238507  0.449023  0.500000  1
