# generated using pymatgen
data_NdGd3(RuO6)2
_symmetry_space_group_name_H-M   'P 1'
_cell_length_a   10.04958839
_cell_length_b   10.04958692
_cell_length_c   5.51642292
_cell_angle_alpha   74.72702452
_cell_angle_beta   74.72702436
_cell_angle_gamma   69.15447141
_symmetry_Int_Tables_number   1
_chemical_formula_structural   NdGd3(RuO6)2
_chemical_formula_sum   'Nd2 Gd6 Ru4 O24'
_cell_volume   493.29385028
_cell_formula_units_Z   2
loop_
 _symmetry_equiv_pos_site_id
 _symmetry_equiv_pos_as_xyz
  1  'x, y, z'
loop_
 _atom_site_type_symbol
 _atom_site_label
 _atom_site_symmetry_multiplicity
 _atom_site_fract_x
 _atom_site_fract_y
 _atom_site_fract_z
 _atom_site_occupancy
  Nd  Nd0  1  0.632878  0.367122  0.750000  1
  Nd  Nd1  1  0.367122  0.632878  0.250000  1
  Gd  Gd2  1  0.106657  0.893343  0.750000  1
  Gd  Gd3  1  0.893343  0.106657  0.250000  1
  Gd  Gd4  1  0.066787  0.283100  0.631237  1
  Gd  Gd5  1  0.716900  0.933213  0.868763  1
  Gd  Gd6  1  0.933213  0.716900  0.368763  1
  Gd  Gd7  1  0.283100  0.066787  0.131237  1
  Ru  Ru8  1  0.503575  0.802841  0.547880  1
  Ru  Ru9  1  0.197159  0.496425  0.952120  1
  Ru  Ru10  1  0.496425  0.197159  0.452120  1
  Ru  Ru11  1  0.802841  0.503575  0.047880  1
  O  O12  1  0.613941  0.174603  0.143407  1
  O  O13  1  0.825397  0.386059  0.356593  1
  O  O14  1  0.386059  0.825397  0.856593  1
  O  O15  1  0.174603  0.613941  0.643407  1
  O  O16  1  0.472650  0.066092  0.745449  1
  O  O17  1  0.933908  0.527350  0.754551  1
  O  O18  1  0.527350  0.933908  0.254551  1
  O  O19  1  0.066092  0.472650  0.245449  1
  O  O20  1  0.319095  0.213376  0.373127  1
  O  O21  1  0.786624  0.680905  0.126873  1
  O  O22  1  0.680905  0.786624  0.626873  1
  O  O23  1  0.213376  0.319095  0.873127  1
  O  O24  1  0.887110  0.927397  0.070480  1
  O  O25  1  0.072603  0.112890  0.429520  1
  O  O26  1  0.112890  0.072603  0.929520  1
  O  O27  1  0.927397  0.887110  0.570480  1
  O  O28  1  0.156063  0.693813  0.084463  1
  O  O29  1  0.306187  0.843937  0.415537  1
  O  O30  1  0.843937  0.306187  0.915537  1
  O  O31  1  0.693813  0.156063  0.584463  1
  O  O32  1  0.383209  0.460172  0.980170  1
  O  O33  1  0.539828  0.616791  0.519830  1
  O  O34  1  0.616791  0.539828  0.019830  1
  O  O35  1  0.460172  0.383209  0.480170  1
