# generated using pymatgen
data_MnV9S16
_symmetry_space_group_name_H-M   'P 1'
_cell_length_a   6.40526000
_cell_length_b   6.40525924
_cell_length_c   11.99232400
_cell_angle_alpha   90.00000000
_cell_angle_beta   90.00000000
_cell_angle_gamma   120.00000393
_symmetry_Int_Tables_number   1
_chemical_formula_structural   MnV9S16
_chemical_formula_sum   'Mn1 V9 S16'
_cell_volume   426.09598577
_cell_formula_units_Z   1
loop_
 _symmetry_equiv_pos_site_id
 _symmetry_equiv_pos_as_xyz
  1  'x, y, z'
loop_
 _atom_site_type_symbol
 _atom_site_label
 _atom_site_symmetry_multiplicity
 _atom_site_fract_x
 _atom_site_fract_y
 _atom_site_fract_z
 _atom_site_occupancy
  Mn  Mn0  1  0.000000  0.000000  0.000000  1
  V  V1  1  0.507264  0.492736  0.749562  1
  V  V2  1  0.014526  0.507264  0.250438  1
  V  V3  1  0.492736  0.985474  0.250438  1
  V  V4  1  0.507264  0.014526  0.749562  1
  V  V5  1  0.985474  0.492736  0.749562  1
  V  V6  1  0.492736  0.507264  0.250438  1
  V  V7  1  0.000000  0.000000  0.749762  1
  V  V8  1  0.000000  0.000000  0.250238  1
  V  V9  1  0.000000  0.000000  0.500000  1
  S  S10  1  0.833728  0.166272  0.371596  1
  S  S11  1  0.833728  0.667457  0.371596  1
  S  S12  1  0.332543  0.166272  0.371596  1
  S  S13  1  0.663740  0.831870  0.871184  1
  S  S14  1  0.166272  0.332543  0.628404  1
  S  S15  1  0.168130  0.831870  0.871184  1
  S  S16  1  0.168130  0.336260  0.871184  1
  S  S17  1  0.831870  0.168130  0.128816  1
  S  S18  1  0.336260  0.168130  0.128816  1
  S  S19  1  0.667457  0.833728  0.628404  1
  S  S20  1  0.333333  0.666667  0.124943  1
  S  S21  1  0.666667  0.333333  0.623257  1
  S  S22  1  0.666667  0.333333  0.875057  1
  S  S23  1  0.333333  0.666667  0.376743  1
  S  S24  1  0.831870  0.663740  0.128816  1
  S  S25  1  0.166272  0.833728  0.628404  1
