# generated using pymatgen
data_TbPr2Ag(Ir2O7)2
_symmetry_space_group_name_H-M   'P 1'
_cell_length_a   7.43679182
_cell_length_b   7.43679179
_cell_length_c   7.25391691
_cell_angle_alpha   59.08131388
_cell_angle_beta   59.08131704
_cell_angle_gamma   60.12497251
_symmetry_Int_Tables_number   1
_chemical_formula_structural   TbPr2Ag(Ir2O7)2
_chemical_formula_sum   'Tb1 Pr2 Ag1 Ir4 O14'
_cell_volume   279.93242977
_cell_formula_units_Z   1
loop_
 _symmetry_equiv_pos_site_id
 _symmetry_equiv_pos_as_xyz
  1  'x, y, z'
loop_
 _atom_site_type_symbol
 _atom_site_label
 _atom_site_symmetry_multiplicity
 _atom_site_fract_x
 _atom_site_fract_y
 _atom_site_fract_z
 _atom_site_occupancy
  Tb  Tb0  1  0.125000  0.125000  0.125000  1
  Pr  Pr1  1  0.625000  0.125000  0.125000  1
  Pr  Pr2  1  0.125000  0.625000  0.125000  1
  Ag  Ag3  1  0.125000  0.125000  0.625000  1
  Ir  Ir4  1  0.625000  0.625000  0.625000  1
  Ir  Ir5  1  0.125000  0.625000  0.625000  1
  Ir  Ir6  1  0.625000  0.125000  0.625000  1
  Ir  Ir7  1  0.625000  0.625000  0.125000  1
  O  O8  1  0.947264  0.555720  0.551115  1
  O  O9  1  0.301442  0.301442  0.707500  1
  O  O10  1  0.956895  0.535048  0.961797  1
  O  O11  1  0.714952  0.293105  0.288203  1
  O  O12  1  0.541261  0.541261  0.961978  1
  O  O13  1  0.555720  0.947264  0.551115  1
  O  O14  1  0.535048  0.956895  0.961797  1
  O  O15  1  0.241476  0.241476  0.257898  1
  O  O16  1  0.302736  0.694280  0.698885  1
  O  O17  1  0.694280  0.302736  0.698885  1
  O  O18  1  0.008524  0.008524  0.992102  1
  O  O19  1  0.948558  0.948558  0.542500  1
  O  O20  1  0.293105  0.714952  0.288203  1
  O  O21  1  0.708739  0.708739  0.288022  1
