# generated using pymatgen
data_NbCo4Re(B2W)2
_symmetry_space_group_name_H-M   'P 1'
_cell_length_a   3.26806400
_cell_length_b   5.75834470
_cell_length_c   6.66117108
_cell_angle_alpha   90.64708300
_cell_angle_beta   90.00000000
_cell_angle_gamma   90.00000000
_symmetry_Int_Tables_number   1
_chemical_formula_structural   NbCo4Re(B2W)2
_chemical_formula_sum   'Nb1 Co4 Re1 B4 W2'
_cell_volume   125.34617979
_cell_formula_units_Z   1
loop_
 _symmetry_equiv_pos_site_id
 _symmetry_equiv_pos_as_xyz
  1  'x, y, z'
loop_
 _atom_site_type_symbol
 _atom_site_label
 _atom_site_symmetry_multiplicity
 _atom_site_fract_x
 _atom_site_fract_y
 _atom_site_fract_z
 _atom_site_occupancy
  Nb  Nb0  1  0.250000  0.027481  0.822006  1
  Co  Co1  1  0.250000  0.146038  0.441579  1
  Co  Co2  1  0.250000  0.640145  0.059365  1
  Co  Co3  1  0.750000  0.856424  0.554331  1
  Co  Co4  1  0.750000  0.356875  0.944379  1
  Re  Re5  1  0.250000  0.527991  0.674212  1
  B  B6  1  0.250000  0.269572  0.129360  1
  B  B7  1  0.250000  0.771709  0.377664  1
  B  B8  1  0.750000  0.721089  0.874510  1
  B  B9  1  0.750000  0.237347  0.620964  1
  W  W10  1  0.750000  0.972537  0.176618  1
  W  W11  1  0.750000  0.472792  0.325013  1
