# generated using pymatgen
data_Nd5Ho3(Er3Pt4)4
_symmetry_space_group_name_H-M   'P 1'
_cell_length_a   7.52617152
_cell_length_b   7.59900747
_cell_length_c   14.69320657
_cell_angle_alpha   90.03601098
_cell_angle_beta   90.03863139
_cell_angle_gamma   90.01834332
_symmetry_Int_Tables_number   1
_chemical_formula_structural   Nd5Ho3(Er3Pt4)4
_chemical_formula_sum   'Nd5 Ho3 Er12 Pt16'
_cell_volume   840.32514802
_cell_formula_units_Z   1
loop_
 _symmetry_equiv_pos_site_id
 _symmetry_equiv_pos_as_xyz
  1  'x, y, z'
loop_
 _atom_site_type_symbol
 _atom_site_label
 _atom_site_symmetry_multiplicity
 _atom_site_fract_x
 _atom_site_fract_y
 _atom_site_fract_z
 _atom_site_occupancy
  Nd  Nd0  1  0.500432  0.677461  0.594139  1
  Nd  Nd1  1  0.000493  0.824773  0.907763  1
  Nd  Nd2  1  0.498986  0.324567  0.092138  1
  Nd  Nd3  1  0.999022  0.173766  0.407079  1
  Nd  Nd4  1  0.499156  0.324236  0.404771  1
  Ho  Ho5  1  0.997011  0.178901  0.096053  1
  Ho  Ho6  1  0.503553  0.678293  0.902874  1
  Ho  Ho7  1  0.002809  0.820476  0.596123  1
  Er  Er8  1  0.658435  0.167550  0.622705  1
  Er  Er9  1  0.157136  0.331427  0.878689  1
  Er  Er10  1  0.342834  0.831729  0.120399  1
  Er  Er11  1  0.845250  0.670053  0.377583  1
  Er  Er12  1  0.342286  0.833691  0.376204  1
  Er  Er13  1  0.841715  0.666483  0.122568  1
  Er  Er14  1  0.658582  0.166718  0.876861  1
  Er  Er15  1  0.157918  0.333103  0.623837  1
  Er  Er16  1  0.820925  0.509222  0.751046  1
  Er  Er17  1  0.320207  0.990852  0.750195  1
  Er  Er18  1  0.178892  0.490424  0.249072  1
  Er  Er19  1  0.679459  0.009347  0.247909  1
  Pt  Pt20  1  0.678245  0.962025  0.459021  1
  Pt  Pt21  1  0.174961  0.531039  0.043755  1
  Pt  Pt22  1  0.325954  0.031541  0.956008  1
  Pt  Pt23  1  0.825184  0.470088  0.545366  1
  Pt  Pt24  1  0.314193  0.031313  0.544316  1
  Pt  Pt25  1  0.815735  0.465582  0.957017  1
  Pt  Pt26  1  0.686015  0.966054  0.042945  1
  Pt  Pt27  1  0.178096  0.539425  0.458374  1
  Pt  Pt28  1  0.453309  0.380153  0.751835  1
  Pt  Pt29  1  0.953337  0.119494  0.748995  1
  Pt  Pt30  1  0.547423  0.623888  0.249868  1
  Pt  Pt31  1  0.045458  0.878298  0.247896  1
  Pt  Pt32  1  0.685532  0.859598  0.751639  1
  Pt  Pt33  1  0.184798  0.640512  0.749705  1
  Pt  Pt34  1  0.310797  0.137936  0.247741  1
  Pt  Pt35  1  0.815861  0.359982  0.247510  1
