# generated using pymatgen
data_Ba2Ga6ReRu
_symmetry_space_group_name_H-M   'P 1'
_cell_length_a   6.95739300
_cell_length_b   6.95739416
_cell_length_c   6.95739300
_cell_angle_alpha   120.00000873
_cell_angle_beta   89.99998353
_cell_angle_gamma   120.00000873
_symmetry_Int_Tables_number   1
_chemical_formula_structural   Ba2Ga6ReRu
_chemical_formula_sum   'Ba2 Ga6 Re1 Ru1'
_cell_volume   238.13576737
_cell_formula_units_Z   1
loop_
 _symmetry_equiv_pos_site_id
 _symmetry_equiv_pos_as_xyz
  1  'x, y, z'
loop_
 _atom_site_type_symbol
 _atom_site_label
 _atom_site_symmetry_multiplicity
 _atom_site_fract_x
 _atom_site_fract_y
 _atom_site_fract_z
 _atom_site_occupancy
  Ba  Ba0  1  0.749997  0.499998  0.249999  1
  Ba  Ba1  1  0.249999  0.499998  0.750000  1
  Ga  Ga2  1  0.251898  0.000000  0.251898  1
  Ga  Ga3  1  0.251898  0.503797  0.251898  1
  Ga  Ga4  1  0.748102  0.000000  0.251898  1
  Ga  Ga5  1  0.748102  0.496203  0.748102  1
  Ga  Ga6  1  0.251898  0.000000  0.748102  1
  Ga  Ga7  1  0.748102  0.000000  0.748102  1
  Re  Re8  1  0.000000  0.000000  0.000000  1
  Ru  Ru9  1  0.500000  0.000000  0.500000  1
