# generated using pymatgen
data_Dy3TmGa7Ag5
_symmetry_space_group_name_H-M   'P 1'
_cell_length_a   4.35715100
_cell_length_b   7.02152025
_cell_length_c   10.33102315
_cell_angle_alpha   89.97554398
_cell_angle_beta   90.00000000
_cell_angle_gamma   90.00000000
_symmetry_Int_Tables_number   1
_chemical_formula_structural   Dy3TmGa7Ag5
_chemical_formula_sum   'Dy3 Tm1 Ga7 Ag5'
_cell_volume   316.06547524
_cell_formula_units_Z   1
loop_
 _symmetry_equiv_pos_site_id
 _symmetry_equiv_pos_as_xyz
  1  'x, y, z'
loop_
 _atom_site_type_symbol
 _atom_site_label
 _atom_site_symmetry_multiplicity
 _atom_site_fract_x
 _atom_site_fract_y
 _atom_site_fract_z
 _atom_site_occupancy
  Dy  Dy0  1  0.500000  0.781090  0.172872  1
  Dy  Dy1  1  0.500000  0.277767  0.327916  1
  Dy  Dy2  1  0.000000  0.216302  0.829131  1
  Tm  Tm3  1  0.000000  0.723037  0.669886  1
  Ga  Ga4  1  0.500000  0.923289  0.845810  1
  Ga  Ga5  1  0.500000  0.427162  0.655504  1
  Ga  Ga6  1  0.000000  0.077066  0.153394  1
  Ga  Ga7  1  0.000000  0.574492  0.344366  1
  Ga  Ga8  1  0.500000  0.202123  0.035807  1
  Ga  Ga9  1  0.000000  0.300343  0.535598  1
  Ga  Ga10  1  0.000000  0.795674  0.963475  1
  Ag  Ag11  1  0.500000  0.541571  0.903570  1
  Ag  Ag12  1  0.500000  0.046260  0.600911  1
  Ag  Ag13  1  0.000000  0.457135  0.096873  1
  Ag  Ag14  1  0.000000  0.960431  0.401743  1
  Ag  Ag15  1  0.500000  0.696260  0.463146  1
