# generated using pymatgen
data_Pa2Ni2Hg
_symmetry_space_group_name_H-M   'P 1'
_cell_length_a   7.47245800
_cell_length_b   7.47245800
_cell_length_c   3.53730900
_cell_angle_alpha   90.00000000
_cell_angle_beta   90.00000000
_cell_angle_gamma   90.00000000
_symmetry_Int_Tables_number   1
_chemical_formula_structural   Pa2Ni2Hg
_chemical_formula_sum   'Pa4 Ni4 Hg2'
_cell_volume   197.51494605
_cell_formula_units_Z   2
loop_
 _symmetry_equiv_pos_site_id
 _symmetry_equiv_pos_as_xyz
  1  'x, y, z'
loop_
 _atom_site_type_symbol
 _atom_site_label
 _atom_site_symmetry_multiplicity
 _atom_site_fract_x
 _atom_site_fract_y
 _atom_site_fract_z
 _atom_site_occupancy
  Pa  Pa0  1  0.672403  0.172403  0.499999  1
  Pa  Pa1  1  0.172403  0.327597  0.499999  1
  Pa  Pa2  1  0.827597  0.672403  0.499999  1
  Pa  Pa3  1  0.327597  0.827597  0.499999  1
  Ni  Ni4  1  0.375552  0.124448  0.000000  1
  Ni  Ni5  1  0.875552  0.375552  0.000000  1
  Ni  Ni6  1  0.124448  0.624448  0.000000  1
  Ni  Ni7  1  0.624448  0.875552  0.000000  1
  Hg  Hg8  1  0.000000  0.000000  0.000000  1
  Hg  Hg9  1  0.500000  0.500000  0.000000  1
