# generated using pymatgen
data_TbTmSi2Tc
_symmetry_space_group_name_H-M   'P 1'
_cell_length_a   5.77276193
_cell_length_b   5.77276185
_cell_length_c   10.03333540
_cell_angle_alpha   63.86784443
_cell_angle_beta   63.86784614
_cell_angle_gamma   42.49695964
_symmetry_Int_Tables_number   1
_chemical_formula_structural   TbTmSi2Tc
_chemical_formula_sum   'Tb2 Tm2 Si4 Tc2'
_cell_volume   199.06335684
_cell_formula_units_Z   2
loop_
 _symmetry_equiv_pos_site_id
 _symmetry_equiv_pos_as_xyz
  1  'x, y, z'
loop_
 _atom_site_type_symbol
 _atom_site_label
 _atom_site_symmetry_multiplicity
 _atom_site_fract_x
 _atom_site_fract_y
 _atom_site_fract_z
 _atom_site_occupancy
  Tb  Tb0  1  0.810837  0.810837  0.109549  1
  Tb  Tb1  1  0.189163  0.189163  0.890451  1
  Tm  Tm2  1  0.003923  0.003923  0.324367  1
  Tm  Tm3  1  0.996077  0.996077  0.675633  1
  Si  Si4  1  0.640794  0.640794  0.440480  1
  Si  Si5  1  0.359206  0.359206  0.559520  1
  Si  Si6  1  0.500962  0.500962  0.123478  1
  Si  Si7  1  0.499038  0.499038  0.876522  1
  Tc  Tc8  1  0.728793  0.728793  0.628945  1
  Tc  Tc9  1  0.271207  0.271207  0.371055  1
