# generated using pymatgen
data_Li2Tb3ZnPd2Rh
_symmetry_space_group_name_H-M   'P 1'
_cell_length_a   7.19182027
_cell_length_b   7.22801108
_cell_length_c   3.98235900
_cell_angle_alpha   90.00000000
_cell_angle_beta   90.00000000
_cell_angle_gamma   120.29384716
_symmetry_Int_Tables_number   1
_chemical_formula_structural   Li2Tb3ZnPd2Rh
_chemical_formula_sum   'Li2 Tb3 Zn1 Pd2 Rh1'
_cell_volume   178.74549259
_cell_formula_units_Z   1
loop_
 _symmetry_equiv_pos_site_id
 _symmetry_equiv_pos_as_xyz
  1  'x, y, z'
loop_
 _atom_site_type_symbol
 _atom_site_label
 _atom_site_symmetry_multiplicity
 _atom_site_fract_x
 _atom_site_fract_y
 _atom_site_fract_z
 _atom_site_occupancy
  Li  Li0  1  0.000828  0.765074  0.500000  1
  Li  Li1  1  0.236603  0.234185  0.500000  1
  Tb  Tb2  1  0.003482  0.410442  0.000000  1
  Tb  Tb3  1  0.582329  0.596113  0.000000  1
  Tb  Tb4  1  0.415971  0.991678  0.000000  1
  Zn  Zn5  1  0.758362  0.998100  0.500000  1
  Pd  Pd6  1  0.999224  0.000979  0.000000  1
  Pd  Pd7  1  0.668247  0.335369  0.500000  1
  Rh  Rh8  1  0.334954  0.668059  0.500000  1
