# generated using pymatgen
data_Be8VTcOs2
_symmetry_space_group_name_H-M   'P 1'
_cell_length_a   4.33338500
_cell_length_b   4.33338569
_cell_length_c   7.09132700
_cell_angle_alpha   90.00000000
_cell_angle_beta   90.00000000
_cell_angle_gamma   120.00000238
_symmetry_Int_Tables_number   1
_chemical_formula_structural   Be8VTcOs2
_chemical_formula_sum   'Be8 V1 Tc1 Os2'
_cell_volume   115.32215620
_cell_formula_units_Z   1
loop_
 _symmetry_equiv_pos_site_id
 _symmetry_equiv_pos_as_xyz
  1  'x, y, z'
loop_
 _atom_site_type_symbol
 _atom_site_label
 _atom_site_symmetry_multiplicity
 _atom_site_fract_x
 _atom_site_fract_y
 _atom_site_fract_z
 _atom_site_occupancy
  Be  Be0  1  0.000000  0.000000  0.999767  1
  Be  Be1  1  0.000000  0.000000  0.499749  1
  Be  Be2  1  0.830784  0.661570  0.250024  1
  Be  Be3  1  0.168706  0.831294  0.749759  1
  Be  Be4  1  0.662589  0.831294  0.749759  1
  Be  Be5  1  0.338430  0.169216  0.250024  1
  Be  Be6  1  0.830784  0.169216  0.250024  1
  Be  Be7  1  0.168706  0.337411  0.749759  1
  V  V8  1  0.333333  0.666667  0.436525  1
  Tc  Tc9  1  0.666667  0.333333  0.938971  1
  Os  Os10  1  0.333333  0.666667  0.069448  1
  Os  Os11  1  0.666667  0.333333  0.556188  1
