# generated using pymatgen
data_Tb4TmLu3Ga3Co
_symmetry_space_group_name_H-M   'P 1'
_cell_length_a   9.88015762
_cell_length_b   9.88015790
_cell_length_c   6.99641854
_cell_angle_alpha   89.96080415
_cell_angle_beta   90.03919242
_cell_angle_gamma   119.98996219
_symmetry_Int_Tables_number   1
_chemical_formula_structural   Tb4TmLu3Ga3Co
_chemical_formula_sum   'Tb8 Tm2 Lu6 Ga6 Co2'
_cell_volume   591.53160778
_cell_formula_units_Z   2
loop_
 _symmetry_equiv_pos_site_id
 _symmetry_equiv_pos_as_xyz
  1  'x, y, z'
loop_
 _atom_site_type_symbol
 _atom_site_label
 _atom_site_symmetry_multiplicity
 _atom_site_fract_x
 _atom_site_fract_y
 _atom_site_fract_z
 _atom_site_occupancy
  Tb  Tb0  1  0.536262  0.071719  0.791680  1
  Tb  Tb1  1  0.928281  0.463738  0.791680  1
  Tb  Tb2  1  0.535843  0.464157  0.792087  1
  Tb  Tb3  1  0.464300  0.927999  0.290954  1
  Tb  Tb4  1  0.072001  0.535700  0.290954  1
  Tb  Tb5  1  0.463767  0.536233  0.290771  1
  Tb  Tb6  1  0.999777  0.000223  0.770193  1
  Tb  Tb7  1  0.999903  0.000097  0.267863  1
  Tm  Tm8  1  0.826238  0.652495  0.486390  1
  Tm  Tm9  1  0.347505  0.173762  0.486390  1
  Lu  Lu10  1  0.825889  0.174111  0.486554  1
  Lu  Lu11  1  0.174015  0.348038  0.986282  1
  Lu  Lu12  1  0.651962  0.825985  0.986282  1
  Lu  Lu13  1  0.174077  0.825923  0.986381  1
  Lu  Lu14  1  0.666921  0.333079  0.174846  1
  Lu  Lu15  1  0.333322  0.666678  0.675841  1
  Ga  Ga16  1  0.836345  0.672658  0.043543  1
  Ga  Ga17  1  0.327342  0.163655  0.043543  1
  Ga  Ga18  1  0.836417  0.163583  0.044536  1
  Ga  Ga19  1  0.163242  0.328178  0.545086  1
  Ga  Ga20  1  0.671822  0.836758  0.545086  1
  Ga  Ga21  1  0.164402  0.835598  0.545266  1
  Co  Co22  1  0.667021  0.332979  0.551995  1
  Co  Co23  1  0.333348  0.666652  0.051870  1
