# generated using pymatgen
data_Tb2NdCo8ReP6
_symmetry_space_group_name_H-M   'P 1'
_cell_length_a   3.75597100
_cell_length_b   10.59821400
_cell_length_c   12.32568000
_cell_angle_alpha   90.00000000
_cell_angle_beta   90.00000000
_cell_angle_gamma   90.00000000
_symmetry_Int_Tables_number   1
_chemical_formula_structural   Tb2NdCo8ReP6
_chemical_formula_sum   'Tb4 Nd2 Co16 Re2 P12'
_cell_volume   490.64322165
_cell_formula_units_Z   2
loop_
 _symmetry_equiv_pos_site_id
 _symmetry_equiv_pos_as_xyz
  1  'x, y, z'
loop_
 _atom_site_type_symbol
 _atom_site_label
 _atom_site_symmetry_multiplicity
 _atom_site_fract_x
 _atom_site_fract_y
 _atom_site_fract_z
 _atom_site_occupancy
  Tb  Tb0  1  0.500000  0.817876  0.204685  1
  Tb  Tb1  1  0.500000  0.182124  0.204685  1
  Tb  Tb2  1  0.000000  0.682124  0.795315  1
  Tb  Tb3  1  0.000000  0.317876  0.795315  1
  Nd  Nd4  1  0.000000  0.500000  0.523889  1
  Nd  Nd5  1  0.500000  0.000000  0.476111  1
  Co  Co6  1  0.500000  0.500000  0.705191  1
  Co  Co7  1  0.000000  0.000000  0.294809  1
  Co  Co8  1  0.000000  0.500000  0.988175  1
  Co  Co9  1  0.500000  0.000000  0.011825  1
  Co  Co10  1  0.500000  0.332311  0.990356  1
  Co  Co11  1  0.500000  0.667689  0.990356  1
  Co  Co12  1  0.000000  0.167689  0.009644  1
  Co  Co13  1  0.000000  0.832311  0.009644  1
  Co  Co14  1  0.500000  0.295943  0.429634  1
  Co  Co15  1  0.500000  0.704057  0.429634  1
  Co  Co16  1  0.000000  0.204057  0.570366  1
  Co  Co17  1  0.000000  0.795943  0.570366  1
  Co  Co18  1  0.500000  0.879839  0.711173  1
  Co  Co19  1  0.500000  0.120161  0.711173  1
  Co  Co20  1  0.000000  0.620161  0.288827  1
  Co  Co21  1  0.000000  0.379839  0.288827  1
  Re  Re22  1  0.500000  0.500000  0.154403  1
  Re  Re23  1  0.000000  0.000000  0.845597  1
  P  P24  1  0.500000  0.500000  0.882118  1
  P  P25  1  0.000000  0.000000  0.117882  1
  P  P26  1  0.500000  0.500000  0.344952  1
  P  P27  1  0.000000  0.000000  0.655048  1
  P  P28  1  0.500000  0.308208  0.617098  1
  P  P29  1  0.500000  0.691792  0.617098  1
  P  P30  1  0.000000  0.191792  0.382902  1
  P  P31  1  0.000000  0.808208  0.382902  1
  P  P32  1  0.500000  0.845864  0.893683  1
  P  P33  1  0.500000  0.154136  0.893683  1
  P  P34  1  0.000000  0.654136  0.106317  1
  P  P35  1  0.000000  0.345864  0.106317  1
