# generated using pymatgen
data_Pr4Sm2Tl3In3O18
_symmetry_space_group_name_H-M   'P 1'
_cell_length_a   6.64259032
_cell_length_b   6.64274277
_cell_length_c   12.55537657
_cell_angle_alpha   89.77729503
_cell_angle_beta   90.16853813
_cell_angle_gamma   120.05428504
_symmetry_Int_Tables_number   1
_chemical_formula_structural   Pr4Sm2Tl3In3O18
_chemical_formula_sum   'Pr4 Sm2 Tl3 In3 O18'
_cell_volume   479.51686513
_cell_formula_units_Z   1
loop_
 _symmetry_equiv_pos_site_id
 _symmetry_equiv_pos_as_xyz
  1  'x, y, z'
loop_
 _atom_site_type_symbol
 _atom_site_label
 _atom_site_symmetry_multiplicity
 _atom_site_fract_x
 _atom_site_fract_y
 _atom_site_fract_z
 _atom_site_occupancy
  Pr  Pr0  1  0.671763  0.332072  0.458814  1
  Pr  Pr1  1  0.329144  0.671888  0.961577  1
  Pr  Pr2  1  0.994953  0.994027  0.998614  1
  Pr  Pr3  1  0.003427  0.997950  0.495857  1
  Sm  Sm4  1  0.663313  0.327731  0.960406  1
  Sm  Sm5  1  0.337466  0.676561  0.457818  1
  Tl  Tl6  1  0.663412  0.664093  0.726056  1
  Tl  Tl7  1  0.000347  0.334561  0.725738  1
  Tl  Tl8  1  0.335232  0.336334  0.225858  1
  In  In9  1  0.999554  0.664573  0.226442  1
  In  In10  1  0.334555  0.000944  0.726518  1
  In  In11  1  0.666374  0.000478  0.226255  1
  O  O12  1  0.687997  0.683170  0.899020  1
  O  O13  1  0.992675  0.306348  0.898572  1
  O  O14  1  0.311728  0.317751  0.395368  1
  O  O15  1  0.006838  0.694070  0.396584  1
  O  O16  1  0.307353  0.005893  0.898634  1
  O  O17  1  0.691253  0.995042  0.396254  1
  O  O18  1  0.635263  0.639606  0.554814  1
  O  O19  1  0.009847  0.366802  0.554441  1
  O  O20  1  0.361841  0.357847  0.057617  1
  O  O21  1  0.992098  0.631397  0.058334  1
  O  O22  1  0.365856  0.996897  0.556517  1
  O  O23  1  0.637653  0.005032  0.058066  1
  O  O24  1  0.014543  0.999124  0.693750  1
  O  O25  1  0.981545  0.980893  0.197564  1
  O  O26  1  0.653569  0.319207  0.757820  1
  O  O27  1  0.333782  0.685128  0.254054  1
  O  O28  1  0.683846  0.332693  0.255566  1
  O  O29  1  0.332774  0.681890  0.758855  1
