# generated using pymatgen
data_La7Y13Tl16
_symmetry_space_group_name_H-M   'P 1'
_cell_length_a   8.13805860
_cell_length_b   8.39662281
_cell_length_c   16.19549373
_cell_angle_alpha   89.99424264
_cell_angle_beta   90.18926019
_cell_angle_gamma   89.99644727
_symmetry_Int_Tables_number   1
_chemical_formula_structural   La7Y13Tl16
_chemical_formula_sum   'La7 Y13 Tl16'
_cell_volume   1106.66780860
_cell_formula_units_Z   1
loop_
 _symmetry_equiv_pos_site_id
 _symmetry_equiv_pos_as_xyz
  1  'x, y, z'
loop_
 _atom_site_type_symbol
 _atom_site_label
 _atom_site_symmetry_multiplicity
 _atom_site_fract_x
 _atom_site_fract_y
 _atom_site_fract_z
 _atom_site_occupancy
  La  La0  1  0.006554  0.182276  0.597116  1
  La  La1  1  0.493253  0.682162  0.404174  1
  La  La2  1  0.993840  0.817682  0.094932  1
  La  La3  1  0.493747  0.678996  0.094425  1
  La  La4  1  0.994162  0.817894  0.404251  1
  La  La5  1  0.504892  0.318555  0.595298  1
  La  La6  1  0.007437  0.183422  0.903606  1
  Y  Y7  1  0.351032  0.837722  0.875519  1
  Y  Y8  1  0.846520  0.663801  0.625379  1
  Y  Y9  1  0.653749  0.162904  0.375958  1
  Y  Y10  1  0.149319  0.336500  0.124147  1
  Y  Y11  1  0.650095  0.164288  0.123546  1
  Y  Y12  1  0.151763  0.336065  0.375996  1
  Y  Y13  1  0.347684  0.837146  0.625913  1
  Y  Y14  1  0.844940  0.663423  0.876804  1
  Y  Y15  1  0.510385  0.313560  0.900266  1
  Y  Y16  1  0.185204  0.500545  0.750671  1
  Y  Y17  1  0.685388  0.000744  0.750554  1
  Y  Y18  1  0.813634  0.498646  0.249912  1
  Y  Y19  1  0.315420  0.001461  0.250123  1
  Tl  Tl20  1  0.315803  0.040565  0.038077  1
  Tl  Tl21  1  0.816109  0.461521  0.461260  1
  Tl  Tl22  1  0.684298  0.961598  0.539915  1
  Tl  Tl23  1  0.191987  0.533757  0.958941  1
  Tl  Tl24  1  0.683675  0.968066  0.959525  1
  Tl  Tl25  1  0.182673  0.539993  0.539765  1
  Tl  Tl26  1  0.316670  0.038241  0.461069  1
  Tl  Tl27  1  0.811522  0.459528  0.037742  1
  Tl  Tl28  1  0.545918  0.621115  0.751175  1
  Tl  Tl29  1  0.047106  0.877819  0.751938  1
  Tl  Tl30  1  0.452306  0.376296  0.250241  1
  Tl  Tl31  1  0.953197  0.121823  0.249841  1
  Tl  Tl32  1  0.312965  0.140170  0.751571  1
  Tl  Tl33  1  0.808003  0.362266  0.751602  1
  Tl  Tl34  1  0.689472  0.861864  0.249584  1
  Tl  Tl35  1  0.189280  0.637586  0.249163  1
