# generated using pymatgen
data_ErTm3GaSi3
_symmetry_space_group_name_H-M   'P 1'
_cell_length_a   3.86679600
_cell_length_b   5.66490494
_cell_length_c   7.79885108
_cell_angle_alpha   90.07590486
_cell_angle_beta   90.00000000
_cell_angle_gamma   90.00000000
_symmetry_Int_Tables_number   1
_chemical_formula_structural   ErTm3GaSi3
_chemical_formula_sum   'Er1 Tm3 Ga1 Si3'
_cell_volume   170.83393084
_cell_formula_units_Z   1
loop_
 _symmetry_equiv_pos_site_id
 _symmetry_equiv_pos_as_xyz
  1  'x, y, z'
loop_
 _atom_site_type_symbol
 _atom_site_label
 _atom_site_symmetry_multiplicity
 _atom_site_fract_x
 _atom_site_fract_y
 _atom_site_fract_z
 _atom_site_occupancy
  Er  Er0  1  0.250000  0.116053  0.177989  1
  Tm  Tm1  1  0.250000  0.384140  0.680228  1
  Tm  Tm2  1  0.750000  0.612604  0.317818  1
  Tm  Tm3  1  0.750000  0.885588  0.824963  1
  Ga  Ga4  1  0.250000  0.866990  0.537726  1
  Si  Si5  1  0.250000  0.630881  0.037137  1
  Si  Si6  1  0.750000  0.132741  0.461596  1
  Si  Si7  1  0.750000  0.371003  0.962545  1
