# generated using pymatgen
data_BeV2ReIr4
_symmetry_space_group_name_H-M   'P 1'
_cell_length_a   6.61490801
_cell_length_b   6.61490851
_cell_length_c   2.77838200
_cell_angle_alpha   90.00000000
_cell_angle_beta   90.00000000
_cell_angle_gamma   118.75611428
_symmetry_Int_Tables_number   1
_chemical_formula_structural   BeV2ReIr4
_chemical_formula_sum   'Be1 V2 Re1 Ir4'
_cell_volume   106.58066821
_cell_formula_units_Z   1
loop_
 _symmetry_equiv_pos_site_id
 _symmetry_equiv_pos_as_xyz
  1  'x, y, z'
loop_
 _atom_site_type_symbol
 _atom_site_label
 _atom_site_symmetry_multiplicity
 _atom_site_fract_x
 _atom_site_fract_y
 _atom_site_fract_z
 _atom_site_occupancy
  Be  Be0  1  0.500000  0.500000  0.500000  1
  V  V1  1  0.224203  0.775797  0.500000  1
  V  V2  1  0.775797  0.224203  0.500000  1
  Re  Re3  1  0.000000  0.000000  0.500000  1
  Ir  Ir4  1  0.835806  0.592203  0.000000  1
  Ir  Ir5  1  0.407797  0.164194  0.000000  1
  Ir  Ir6  1  0.164194  0.407797  0.000000  1
  Ir  Ir7  1  0.592203  0.835806  0.000000  1
