# generated using pymatgen
data_NaPuS2
_symmetry_space_group_name_H-M   'P 1'
_cell_length_a   7.00079601
_cell_length_b   7.00079586
_cell_length_c   7.00079584
_cell_angle_alpha   33.69430982
_cell_angle_beta   33.69431119
_cell_angle_gamma   33.69431994
_symmetry_Int_Tables_number   1
_chemical_formula_structural   NaPuS2
_chemical_formula_sum   'Na1 Pu1 S2'
_cell_volume   94.07980274
_cell_formula_units_Z   1
loop_
 _symmetry_equiv_pos_site_id
 _symmetry_equiv_pos_as_xyz
  1  'x, y, z'
loop_
 _atom_site_type_symbol
 _atom_site_label
 _atom_site_symmetry_multiplicity
 _atom_site_fract_x
 _atom_site_fract_y
 _atom_site_fract_z
 _atom_site_occupancy
  Na  Na0  1  0.500000  0.500000  0.500000  1
  Pu  Pu1  1  0.000000  0.000000  0.000000  1
  S  S2  1  0.741826  0.741826  0.741826  1
  S  S3  1  0.258174  0.258174  0.258174  1
