# generated using pymatgen
data_Zr5V(SiOs)6
_symmetry_space_group_name_H-M   'P 1'
_cell_length_a   7.59674549
_cell_length_b   7.59891428
_cell_length_c   7.59674615
_cell_angle_alpha   127.88655097
_cell_angle_beta   121.67324164
_cell_angle_gamma   81.99208974
_symmetry_Int_Tables_number   1
_chemical_formula_structural   Zr5V(SiOs)6
_chemical_formula_sum   'Zr5 V1 Si6 Os6'
_cell_volume   283.39547734
_cell_formula_units_Z   1
loop_
 _symmetry_equiv_pos_site_id
 _symmetry_equiv_pos_as_xyz
  1  'x, y, z'
loop_
 _atom_site_type_symbol
 _atom_site_label
 _atom_site_symmetry_multiplicity
 _atom_site_fract_x
 _atom_site_fract_y
 _atom_site_fract_z
 _atom_site_occupancy
  Zr  Zr0  1  0.448716  0.413612  0.464895  1
  Zr  Zr1  1  0.548094  0.995960  0.947865  1
  Zr  Zr2  1  0.031233  0.013160  0.481928  1
  Zr  Zr3  1  0.967014  0.435480  0.968464  1
  Zr  Zr4  1  0.246342  0.579094  0.832752  1
  V  V5  1  0.751217  0.583219  0.332002  1
  Si  Si6  1  0.232651  0.004997  0.272346  1
  Si  Si7  1  0.776399  0.989507  0.713107  1
  Si  Si8  1  0.157451  0.669315  0.503457  1
  Si  Si9  1  0.820948  0.343383  0.490223  1
  Si  Si10  1  0.665856  0.669315  0.011864  1
  Si  Si11  1  0.353162  0.343383  0.022435  1
  Os  Os12  1  0.969242  0.250623  0.219680  1
  Os  Os13  1  0.530943  0.250623  0.781381  1
  Os  Os14  1  0.393083  0.756396  0.396565  1
  Os  Os15  1  0.594859  0.001769  0.348811  1
  Os  Os16  1  0.859831  0.756396  0.863312  1
  Os  Os17  1  0.152958  0.001769  0.906911  1
