# generated using pymatgen
data_Tm4LuIrRh2
_symmetry_space_group_name_H-M   'P 1'
_cell_length_a   10.71997900
_cell_length_b   10.71997900
_cell_length_c   6.29204700
_cell_angle_alpha   90.00000000
_cell_angle_beta   90.00000000
_cell_angle_gamma   90.00000000
_symmetry_Int_Tables_number   1
_chemical_formula_structural   Tm4LuIrRh2
_chemical_formula_sum   'Tm16 Lu4 Ir4 Rh8'
_cell_volume   723.06914104
_cell_formula_units_Z   4
loop_
 _symmetry_equiv_pos_site_id
 _symmetry_equiv_pos_as_xyz
  1  'x, y, z'
loop_
 _atom_site_type_symbol
 _atom_site_label
 _atom_site_symmetry_multiplicity
 _atom_site_fract_x
 _atom_site_fract_y
 _atom_site_fract_z
 _atom_site_occupancy
  Tm  Tm0  1  0.291015  0.088718  0.377095  1
  Tm  Tm1  1  0.291015  0.911282  0.877095  1
  Tm  Tm2  1  0.708985  0.088718  0.877095  1
  Tm  Tm3  1  0.708985  0.911282  0.377095  1
  Tm  Tm4  1  0.586997  0.789999  0.877843  1
  Tm  Tm5  1  0.586997  0.210001  0.377843  1
  Tm  Tm6  1  0.413003  0.789999  0.377843  1
  Tm  Tm7  1  0.413003  0.210001  0.877843  1
  Tm  Tm8  1  0.210001  0.413003  0.622157  1
  Tm  Tm9  1  0.210001  0.586997  0.122157  1
  Tm  Tm10  1  0.789999  0.413003  0.122157  1
  Tm  Tm11  1  0.789999  0.586997  0.622157  1
  Tm  Tm12  1  0.911282  0.708985  0.122905  1
  Tm  Tm13  1  0.911282  0.291015  0.622905  1
  Tm  Tm14  1  0.088718  0.708985  0.622905  1
  Tm  Tm15  1  0.088718  0.291015  0.122905  1
  Lu  Lu16  1  0.000000  0.000000  0.500000  1
  Lu  Lu17  1  0.000000  0.000000  0.000000  1
  Lu  Lu18  1  0.500000  0.500000  0.000000  1
  Lu  Lu19  1  0.500000  0.500000  0.500000  1
  Ir  Ir20  1  0.653634  0.346366  0.750000  1
  Ir  Ir21  1  0.653634  0.653634  0.250000  1
  Ir  Ir22  1  0.346366  0.346366  0.250000  1
  Ir  Ir23  1  0.346366  0.653634  0.750000  1
  Rh  Rh24  1  0.847457  0.152543  0.250000  1
  Rh  Rh25  1  0.847457  0.847457  0.750000  1
  Rh  Rh26  1  0.152543  0.152543  0.750000  1
  Rh  Rh27  1  0.152543  0.847457  0.250000  1
  Rh  Rh28  1  0.500000  0.000000  0.123006  1
  Rh  Rh29  1  0.500000  0.000000  0.623006  1
  Rh  Rh30  1  0.000000  0.500000  0.876994  1
  Rh  Rh31  1  0.000000  0.500000  0.376994  1
