# generated using pymatgen
data_Hf4AlAs
_symmetry_space_group_name_H-M   'P 1'
_cell_length_a   5.41367921
_cell_length_b   5.41367897
_cell_length_c   5.41367918
_cell_angle_alpha   103.70264045
_cell_angle_beta   103.70262976
_cell_angle_gamma   121.75136929
_symmetry_Int_Tables_number   1
_chemical_formula_structural   Hf4AlAs
_chemical_formula_sum   'Hf4 Al1 As1'
_cell_volume   117.85976967
_cell_formula_units_Z   1
loop_
 _symmetry_equiv_pos_site_id
 _symmetry_equiv_pos_as_xyz
  1  'x, y, z'
loop_
 _atom_site_type_symbol
 _atom_site_label
 _atom_site_symmetry_multiplicity
 _atom_site_fract_x
 _atom_site_fract_y
 _atom_site_fract_z
 _atom_site_occupancy
  Hf  Hf0  1  0.653470  0.846530  0.500000  1
  Hf  Hf1  1  0.846530  0.346530  0.193060  1
  Hf  Hf2  1  0.346530  0.153470  0.500000  1
  Hf  Hf3  1  0.153470  0.653470  0.806940  1
  Al  Al4  1  0.250000  0.250000  0.000000  1
  As  As5  1  0.750000  0.750000  0.000000  1
