# generated using pymatgen
data_CsPaBr6
_symmetry_space_group_name_H-M   'P 1'
_cell_length_a   7.69642574
_cell_length_b   7.69642575
_cell_length_c   13.76799513
_cell_angle_alpha   79.50208280
_cell_angle_beta   79.50208116
_cell_angle_gamma   55.91331664
_symmetry_Int_Tables_number   1
_chemical_formula_structural   CsPaBr6
_chemical_formula_sum   'Cs2 Pa2 Br12'
_cell_volume   660.90301315
_cell_formula_units_Z   2
loop_
 _symmetry_equiv_pos_site_id
 _symmetry_equiv_pos_as_xyz
  1  'x, y, z'
loop_
 _atom_site_type_symbol
 _atom_site_label
 _atom_site_symmetry_multiplicity
 _atom_site_fract_x
 _atom_site_fract_y
 _atom_site_fract_z
 _atom_site_occupancy
  Cs  Cs0  1  0.885334  0.114666  0.750000  1
  Cs  Cs1  1  0.114666  0.885334  0.250000  1
  Pa  Pa2  1  0.500000  0.000000  0.500000  1
  Pa  Pa3  1  0.000000  0.500000  0.000000  1
  Br  Br4  1  0.458103  0.690988  0.610110  1
  Br  Br5  1  0.541897  0.309012  0.389890  1
  Br  Br6  1  0.309012  0.541897  0.889890  1
  Br  Br7  1  0.690988  0.458103  0.110110  1
  Br  Br8  1  0.368885  0.204625  0.665811  1
  Br  Br9  1  0.631115  0.795375  0.334189  1
  Br  Br10  1  0.795375  0.631115  0.834189  1
  Br  Br11  1  0.204625  0.368885  0.165811  1
  Br  Br12  1  0.796979  0.908362  0.039335  1
  Br  Br13  1  0.203021  0.091638  0.960665  1
  Br  Br14  1  0.091638  0.203021  0.460665  1
  Br  Br15  1  0.908362  0.796979  0.539335  1
