# generated using pymatgen
data_U4SiAs5Ru7
_symmetry_space_group_name_H-M   'P 1'
_cell_length_a   7.22205101
_cell_length_b   7.22205049
_cell_length_c   7.22205021
_cell_angle_alpha   109.50446853
_cell_angle_beta   109.40475836
_cell_angle_gamma   109.50445778
_symmetry_Int_Tables_number   1
_chemical_formula_structural   U4SiAs5Ru7
_chemical_formula_sum   'U4 Si1 As5 Ru7'
_cell_volume   289.97411637
_cell_formula_units_Z   1
loop_
 _symmetry_equiv_pos_site_id
 _symmetry_equiv_pos_as_xyz
  1  'x, y, z'
loop_
 _atom_site_type_symbol
 _atom_site_label
 _atom_site_symmetry_multiplicity
 _atom_site_fract_x
 _atom_site_fract_y
 _atom_site_fract_z
 _atom_site_occupancy
  U  U0  1  0.999829  0.000000  0.498692  1
  U  U1  1  0.498692  0.000000  0.999829  1
  U  U2  1  0.999829  0.501137  0.999829  1
  U  U3  1  0.498692  0.498863  0.498692  1
  Si  Si4  1  0.317243  0.000000  0.317243  1
  As  As5  1  0.001318  0.308764  0.310082  1
  As  As6  1  0.001318  0.691236  0.692555  1
  As  As7  1  0.310082  0.308764  0.001318  1
  As  As8  1  0.692555  0.691236  0.001318  1
  As  As9  1  0.690423  0.000000  0.690423  1
  Ru  Ru10  1  0.748583  0.500000  0.248583  1
  Ru  Ru11  1  0.493699  0.751659  0.245359  1
  Ru  Ru12  1  0.493699  0.248341  0.742040  1
  Ru  Ru13  1  0.742040  0.248341  0.493699  1
  Ru  Ru14  1  0.245359  0.751659  0.493699  1
  Ru  Ru15  1  0.248583  0.500000  0.748583  1
  Ru  Ru16  1  0.018056  0.000000  0.018056  1
