# generated using pymatgen
data_TbZrMn2Co10P7
_symmetry_space_group_name_H-M   'P 1'
_cell_length_a   8.99152211
_cell_length_b   9.01503905
_cell_length_c   3.59293300
_cell_angle_alpha   90.00000000
_cell_angle_beta   90.00000000
_cell_angle_gamma   120.06974809
_symmetry_Int_Tables_number   1
_chemical_formula_structural   TbZrMn2Co10P7
_chemical_formula_sum   'Tb1 Zr1 Mn2 Co10 P7'
_cell_volume   252.04315992
_cell_formula_units_Z   1
loop_
 _symmetry_equiv_pos_site_id
 _symmetry_equiv_pos_as_xyz
  1  'x, y, z'
loop_
 _atom_site_type_symbol
 _atom_site_label
 _atom_site_symmetry_multiplicity
 _atom_site_fract_x
 _atom_site_fract_y
 _atom_site_fract_z
 _atom_site_occupancy
  Tb  Tb0  1  0.668241  0.333490  0.000000  1
  Zr  Zr1  1  0.334291  0.667163  0.500000  1
  Mn  Mn2  1  0.779470  0.900376  0.500000  1
  Mn  Mn3  1  0.121625  0.220737  0.500000  1
  Co  Co4  1  0.065448  0.633812  0.000000  1
  Co  Co5  1  0.565411  0.933617  0.000000  1
  Co  Co6  1  0.367590  0.433326  0.000000  1
  Co  Co7  1  0.275274  0.116135  0.000000  1
  Co  Co8  1  0.843117  0.724730  0.000000  1
  Co  Co9  1  0.883977  0.160118  0.000000  1
  Co  Co10  1  0.433334  0.044882  0.500000  1
  Co  Co11  1  0.611830  0.564651  0.500000  1
  Co  Co12  1  0.954214  0.390506  0.500000  1
  Co  Co13  1  0.093633  0.873949  0.500000  1
  P  P14  1  0.298436  0.885376  0.000000  1
  P  P15  1  0.585780  0.700428  0.000000  1
  P  P16  1  0.115386  0.416317  0.000000  1
  P  P17  1  0.405908  0.288842  0.500000  1
  P  P18  1  0.885989  0.598623  0.500000  1
  P  P19  1  0.711290  0.113655  0.500000  1
  P  P20  1  0.999755  0.999266  0.000000  1
