# generated using pymatgen
data_Mn5Hg(MoO4)6
_symmetry_space_group_name_H-M   'P 1'
_cell_length_a   7.23651609
_cell_length_b   8.87631037
_cell_length_c   10.02771068
_cell_angle_alpha   96.89694510
_cell_angle_beta   106.10069469
_cell_angle_gamma   102.06627340
_symmetry_Int_Tables_number   1
_chemical_formula_structural   Mn5Hg(MoO4)6
_chemical_formula_sum   'Mn5 Hg1 Mo6 O24'
_cell_volume   594.21111136
_cell_formula_units_Z   1
loop_
 _symmetry_equiv_pos_site_id
 _symmetry_equiv_pos_as_xyz
  1  'x, y, z'
loop_
 _atom_site_type_symbol
 _atom_site_label
 _atom_site_symmetry_multiplicity
 _atom_site_fract_x
 _atom_site_fract_y
 _atom_site_fract_z
 _atom_site_occupancy
  Mn  Mn0  1  0.253527  0.695135  0.910163  1
  Mn  Mn1  1  0.741657  0.308606  0.085435  1
  Mn  Mn2  1  0.532147  0.694269  0.486774  1
  Mn  Mn3  1  0.474336  0.308211  0.515874  1
  Mn  Mn4  1  0.969536  0.893964  0.713356  1
  Hg  Hg5  1  0.023481  0.093096  0.280678  1
  Mo  Mo6  1  0.505611  0.991787  0.753921  1
  Mo  Mo7  1  0.489592  0.003393  0.242751  1
  Mo  Mo8  1  0.702146  0.608305  0.839262  1
  Mo  Mo9  1  0.301002  0.404330  0.160409  1
  Mo  Mo10  1  0.975531  0.689305  0.375673  1
  Mo  Mo11  1  0.026219  0.300230  0.632354  1
  O  O12  1  0.270895  0.874890  0.765323  1
  O  O13  1  0.714621  0.127695  0.224834  1
  O  O14  1  0.559286  0.711390  0.916746  1
  O  O15  1  0.438415  0.300341  0.078386  1
  O  O16  1  0.566786  0.531412  0.652273  1
  O  O17  1  0.437050  0.470736  0.349208  1
  O  O18  1  0.552320  0.866580  0.351079  1
  O  O19  1  0.450114  0.126872  0.642228  1
  O  O20  1  0.655474  0.101462  0.921833  1
  O  O21  1  0.331569  0.900539  0.074974  1
  O  O22  1  0.648224  0.870991  0.681688  1
  O  O23  1  0.361945  0.129450  0.323604  1
  O  O24  1  0.023222  0.131020  0.715073  1
  O  O25  1  0.964525  0.835509  0.266378  1
  O  O26  1  0.051172  0.282307  0.134857  1
  O  O27  1  0.947349  0.733424  0.855158  1
  O  O28  1  0.145810  0.476696  0.760535  1
  O  O29  1  0.851806  0.504097  0.262817  1
  O  O30  1  0.158012  0.283649  0.501375  1
  O  O31  1  0.858445  0.732232  0.512880  1
  O  O32  1  0.271183  0.568840  0.081249  1
  O  O33  1  0.741146  0.450632  0.926826  1
  O  O34  1  0.230145  0.698050  0.459980  1
  O  O35  1  0.775705  0.300556  0.544046  1
