# generated using pymatgen
data_Pr9Lu10Si16Ag
_symmetry_space_group_name_H-M   'P 1'
_cell_length_a   7.49291600
_cell_length_b   7.82161056
_cell_length_c   14.91706500
_cell_angle_alpha   90.00000000
_cell_angle_beta   90.00000000
_cell_angle_gamma   90.04633996
_symmetry_Int_Tables_number   1
_chemical_formula_structural   Pr9Lu10Si16Ag
_chemical_formula_sum   'Pr9 Lu10 Si16 Ag1'
_cell_volume   874.23923327
_cell_formula_units_Z   1
loop_
 _symmetry_equiv_pos_site_id
 _symmetry_equiv_pos_as_xyz
  1  'x, y, z'
loop_
 _atom_site_type_symbol
 _atom_site_label
 _atom_site_symmetry_multiplicity
 _atom_site_fract_x
 _atom_site_fract_y
 _atom_site_fract_z
 _atom_site_occupancy
  Pr  Pr0  1  0.018862  0.174841  0.400331  1
  Pr  Pr1  1  0.517883  0.325630  0.400765  1
  Pr  Pr2  1  0.481923  0.689649  0.897350  1
  Pr  Pr3  1  0.481923  0.689649  0.602650  1
  Pr  Pr4  1  0.969333  0.825020  0.603371  1
  Pr  Pr5  1  0.969333  0.825020  0.896629  1
  Pr  Pr6  1  0.517883  0.325630  0.099235  1
  Pr  Pr7  1  0.018862  0.174841  0.099669  1
  Pr  Pr8  1  0.153533  0.505534  0.750000  1
  Lu  Lu9  1  0.334232  0.172960  0.624175  1
  Lu  Lu10  1  0.678387  0.820528  0.374308  1
  Lu  Lu11  1  0.178793  0.676253  0.376150  1
  Lu  Lu12  1  0.820758  0.312905  0.876002  1
  Lu  Lu13  1  0.820758  0.312905  0.623998  1
  Lu  Lu14  1  0.845409  0.493864  0.250000  1
  Lu  Lu15  1  0.344789  0.005334  0.250000  1
  Lu  Lu16  1  0.334232  0.172960  0.875825  1
  Lu  Lu17  1  0.178793  0.676253  0.123850  1
  Lu  Lu18  1  0.678387  0.820528  0.125692  1
  Si  Si19  1  0.269050  0.887772  0.750000  1
  Si  Si20  1  0.473778  0.617981  0.250000  1
  Si  Si21  1  0.036046  0.113291  0.750000  1
  Si  Si22  1  0.534755  0.388865  0.750000  1
  Si  Si23  1  0.149169  0.466425  0.537357  1
  Si  Si24  1  0.973693  0.876661  0.250000  1
  Si  Si25  1  0.718602  0.122946  0.250000  1
  Si  Si26  1  0.853524  0.530986  0.039020  1
  Si  Si27  1  0.354484  0.967930  0.041244  1
  Si  Si28  1  0.149169  0.466425  0.962643  1
  Si  Si29  1  0.651391  0.037472  0.530217  1
  Si  Si30  1  0.354484  0.967930  0.458756  1
  Si  Si31  1  0.853524  0.530986  0.460980  1
  Si  Si32  1  0.769063  0.607395  0.750000  1
  Si  Si33  1  0.219790  0.377040  0.250000  1
  Si  Si34  1  0.651391  0.037472  0.969783  1
  Ag  Ag35  1  0.644008  0.002115  0.750000  1
