# generated using pymatgen
data_La4HgPb11
_symmetry_space_group_name_H-M   'P 1'
_cell_length_a   9.99866000
_cell_length_b   6.96493449
_cell_length_c   6.96519943
_cell_angle_alpha   89.75364601
_cell_angle_beta   90.00000000
_cell_angle_gamma   90.00000000
_symmetry_Int_Tables_number   1
_chemical_formula_structural   La4HgPb11
_chemical_formula_sum   'La4 Hg1 Pb11'
_cell_volume   485.05208766
_cell_formula_units_Z   1
loop_
 _symmetry_equiv_pos_site_id
 _symmetry_equiv_pos_as_xyz
  1  'x, y, z'
loop_
 _atom_site_type_symbol
 _atom_site_label
 _atom_site_symmetry_multiplicity
 _atom_site_fract_x
 _atom_site_fract_y
 _atom_site_fract_z
 _atom_site_occupancy
  La  La0  1  0.250000  0.002088  0.001176  1
  La  La1  1  0.250000  0.498301  0.502198  1
  La  La2  1  0.750000  0.997953  0.998006  1
  La  La3  1  0.750000  0.501153  0.498736  1
  Hg  Hg4  1  0.750000  0.497345  0.998328  1
  Pb  Pb5  1  0.996797  0.249987  0.749948  1
  Pb  Pb6  1  0.503440  0.252477  0.247691  1
  Pb  Pb7  1  0.502799  0.750526  0.250402  1
  Pb  Pb8  1  0.997094  0.747930  0.752165  1
  Pb  Pb9  1  0.997201  0.750526  0.250402  1
  Pb  Pb10  1  0.502906  0.747930  0.752165  1
  Pb  Pb11  1  0.503203  0.249987  0.749948  1
  Pb  Pb12  1  0.996560  0.252477  0.247691  1
  Pb  Pb13  1  0.250000  0.998874  0.500705  1
  Pb  Pb14  1  0.250000  0.501694  0.001901  1
  Pb  Pb15  1  0.750000  0.000752  0.498536  1
