# generated using pymatgen
data_HfZr9Sn3Sb4
_symmetry_space_group_name_H-M   'P 1'
_cell_length_a   5.90592900
_cell_length_b   8.68190752
_cell_length_c   8.68191800
_cell_angle_alpha   120.00001936
_cell_angle_beta   90.00006183
_cell_angle_gamma   89.99996895
_symmetry_Int_Tables_number   1
_chemical_formula_structural   HfZr9Sn3Sb4
_chemical_formula_sum   'Hf1 Zr9 Sn3 Sb4'
_cell_volume   385.52238836
_cell_formula_units_Z   1
loop_
 _symmetry_equiv_pos_site_id
 _symmetry_equiv_pos_as_xyz
  1  'x, y, z'
loop_
 _atom_site_type_symbol
 _atom_site_label
 _atom_site_symmetry_multiplicity
 _atom_site_fract_x
 _atom_site_fract_y
 _atom_site_fract_z
 _atom_site_occupancy
  Hf  Hf0  1  0.499291  0.333333  0.666668  1
  Zr  Zr1  1  0.499784  0.666664  0.333332  1
  Zr  Zr2  1  0.002117  0.666664  0.333330  1
  Zr  Zr3  1  0.002048  0.333335  0.666670  1
  Zr  Zr4  1  0.769925  0.267252  0.999779  1
  Zr  Zr5  1  0.769909  0.732530  0.732755  1
  Zr  Zr6  1  0.769911  0.000218  0.267466  1
  Zr  Zr7  1  0.229436  0.731194  0.999893  1
  Zr  Zr8  1  0.229438  0.268704  0.268806  1
  Zr  Zr9  1  0.229440  0.000109  0.731301  1
  Sn  Sn10  1  0.255412  0.385459  0.999632  1
  Sn  Sn11  1  0.255403  0.614177  0.614546  1
  Sn  Sn12  1  0.255398  0.000363  0.385822  1
  Sb  Sb13  1  0.745027  0.611687  0.999622  1
  Sb  Sb14  1  0.745033  0.387933  0.388310  1
  Sb  Sb15  1  0.745033  0.000377  0.612067  1
  Sb  Sb16  1  0.497396  0.000004  0.000000  1
