# generated using pymatgen
data_ErLuB24
_symmetry_space_group_name_H-M   'P 1'
_cell_length_a   5.27964500
_cell_length_b   5.27964536
_cell_length_c   9.14467304
_cell_angle_alpha   73.22145709
_cell_angle_beta   90.00000000
_cell_angle_gamma   120.00000401
_symmetry_Int_Tables_number   1
_chemical_formula_structural   ErLuB24
_chemical_formula_sum   'Er1 Lu1 B24'
_cell_volume   208.12888521
_cell_formula_units_Z   1
loop_
 _symmetry_equiv_pos_site_id
 _symmetry_equiv_pos_as_xyz
  1  'x, y, z'
loop_
 _atom_site_type_symbol
 _atom_site_label
 _atom_site_symmetry_multiplicity
 _atom_site_fract_x
 _atom_site_fract_y
 _atom_site_fract_z
 _atom_site_occupancy
  Er  Er0  1  0.500000  0.000000  0.500000  1
  Lu  Lu1  1  0.000000  0.000000  0.000000  1
  B  B2  1  0.911972  0.500457  0.249599  1
  B  B3  1  0.411514  0.499543  0.750401  1
  B  B4  1  0.080989  0.500209  0.418802  1
  B  B5  1  0.580891  0.499906  0.919203  1
  B  B6  1  0.249944  0.838429  0.249599  1
  B  B7  1  0.750056  0.838084  0.750401  1
  B  B8  1  0.080989  0.161977  0.418802  1
  B  B9  1  0.580891  0.161782  0.919203  1
  B  B10  1  0.911972  0.161916  0.249599  1
  B  B11  1  0.411514  0.161571  0.750401  1
  B  B12  1  0.249944  0.161916  0.249599  1
  B  B13  1  0.750056  0.161571  0.750401  1
  B  B14  1  0.419109  0.838218  0.080797  1
  B  B15  1  0.919011  0.838023  0.581198  1
  B  B16  1  0.419109  0.500094  0.080797  1
  B  B17  1  0.919011  0.499791  0.581198  1
  B  B18  1  0.080985  0.500094  0.080797  1
  B  B19  1  0.580780  0.499791  0.581198  1
  B  B20  1  0.588486  0.500457  0.249599  1
  B  B21  1  0.088028  0.499543  0.750401  1
  B  B22  1  0.588486  0.838429  0.249599  1
  B  B23  1  0.088028  0.838084  0.750401  1
  B  B24  1  0.419220  0.500209  0.418802  1
  B  B25  1  0.919015  0.499906  0.919203  1
