# generated using pymatgen
data_Y16Cd4Co3Os
_symmetry_space_group_name_H-M   'P 1'
_cell_length_a   9.61162116
_cell_length_b   9.61176920
_cell_length_c   9.61163298
_cell_angle_alpha   59.48925548
_cell_angle_beta   59.48864059
_cell_angle_gamma   59.48860718
_symmetry_Int_Tables_number   1
_chemical_formula_structural   Y16Cd4Co3Os
_chemical_formula_sum   'Y16 Cd4 Co3 Os1'
_cell_volume   620.58810081
_cell_formula_units_Z   1
loop_
 _symmetry_equiv_pos_site_id
 _symmetry_equiv_pos_as_xyz
  1  'x, y, z'
loop_
 _atom_site_type_symbol
 _atom_site_label
 _atom_site_symmetry_multiplicity
 _atom_site_fract_x
 _atom_site_fract_y
 _atom_site_fract_z
 _atom_site_occupancy
  Y  Y0  1  0.438030  0.438025  0.057266  1
  Y  Y1  1  0.596261  0.596236  0.596273  1
  Y  Y2  1  0.188188  0.812496  0.812495  1
  Y  Y3  1  0.060762  0.060788  0.436247  1
  Y  Y4  1  0.436245  0.060798  0.060760  1
  Y  Y5  1  0.812493  0.188189  0.812499  1
  Y  Y6  1  0.438035  0.057279  0.438030  1
  Y  Y7  1  0.600516  0.209710  0.600527  1
  Y  Y8  1  0.812492  0.812498  0.188189  1
  Y  Y9  1  0.209704  0.600501  0.600541  1
  Y  Y10  1  0.806252  0.190112  0.190110  1
  Y  Y11  1  0.057269  0.438032  0.438032  1
  Y  Y12  1  0.190112  0.806254  0.190114  1
  Y  Y13  1  0.600534  0.600510  0.209693  1
  Y  Y14  1  0.190109  0.190114  0.806254  1
  Y  Y15  1  0.060784  0.436249  0.060768  1
  Cd  Cd16  1  0.829722  0.829724  0.508123  1
  Cd  Cd17  1  0.829745  0.829748  0.829748  1
  Cd  Cd18  1  0.508125  0.829722  0.829723  1
  Cd  Cd19  1  0.829721  0.508127  0.829724  1
  Co  Co20  1  0.829160  0.392240  0.392239  1
  Co  Co21  1  0.392244  0.829157  0.392235  1
  Co  Co22  1  0.392234  0.392227  0.829147  1
  Os  Os23  1  0.391264  0.391262  0.391263  1
