# generated using pymatgen
data_Er16In4NiRu2Rh
_symmetry_space_group_name_H-M   'P 1'
_cell_length_a   9.56486395
_cell_length_b   9.57624286
_cell_length_c   9.56486414
_cell_angle_alpha   59.91106430
_cell_angle_beta   59.97540091
_cell_angle_gamma   59.91106593
_symmetry_Int_Tables_number   1
_chemical_formula_structural   Er16In4NiRu2Rh
_chemical_formula_sum   'Er16 In4 Ni1 Ru2 Rh1'
_cell_volume   618.54608161
_cell_formula_units_Z   1
loop_
 _symmetry_equiv_pos_site_id
 _symmetry_equiv_pos_as_xyz
  1  'x, y, z'
loop_
 _atom_site_type_symbol
 _atom_site_label
 _atom_site_symmetry_multiplicity
 _atom_site_fract_x
 _atom_site_fract_y
 _atom_site_fract_z
 _atom_site_occupancy
  Er  Er0  1  0.190927  0.189395  0.811610  1
  Er  Er1  1  0.438820  0.058940  0.058333  1
  Er  Er2  1  0.440805  0.058964  0.440805  1
  Er  Er3  1  0.062551  0.438840  0.062551  1
  Er  Er4  1  0.648563  0.049911  0.648563  1
  Er  Er5  1  0.193139  0.810220  0.809337  1
  Er  Er6  1  0.058333  0.058940  0.438820  1
  Er  Er7  1  0.811610  0.189395  0.190927  1
  Er  Er8  1  0.809337  0.810220  0.193139  1
  Er  Er9  1  0.651556  0.647499  0.044998  1
  Er  Er10  1  0.653845  0.650041  0.653845  1
  Er  Er11  1  0.061278  0.441116  0.434451  1
  Er  Er12  1  0.044998  0.647499  0.651556  1
  Er  Er13  1  0.810850  0.192283  0.810850  1
  Er  Er14  1  0.434451  0.441116  0.061278  1
  Er  Er15  1  0.190634  0.811197  0.190634  1
  In  In16  1  0.416307  0.749531  0.416307  1
  In  In17  1  0.417141  0.419007  0.747727  1
  In  In18  1  0.747727  0.419007  0.417141  1
  In  In19  1  0.416266  0.418300  0.416266  1
  Ni  Ni20  1  0.859915  0.421048  0.859915  1
  Ru  Ru21  1  0.856684  0.859736  0.425005  1
  Ru  Ru22  1  0.425005  0.859736  0.856684  1
  Rh  Rh23  1  0.859258  0.858054  0.859258  1
