# generated using pymatgen
data_Th2Cd2In3Pb
_symmetry_space_group_name_H-M   'P 1'
_cell_length_a   4.72669000
_cell_length_b   4.74271700
_cell_length_c   9.60043300
_cell_angle_alpha   90.00000000
_cell_angle_beta   90.00000000
_cell_angle_gamma   90.00000000
_symmetry_Int_Tables_number   1
_chemical_formula_structural   Th2Cd2In3Pb
_chemical_formula_sum   'Th2 Cd2 In3 Pb1'
_cell_volume   215.21629567
_cell_formula_units_Z   1
loop_
 _symmetry_equiv_pos_site_id
 _symmetry_equiv_pos_as_xyz
  1  'x, y, z'
loop_
 _atom_site_type_symbol
 _atom_site_label
 _atom_site_symmetry_multiplicity
 _atom_site_fract_x
 _atom_site_fract_y
 _atom_site_fract_z
 _atom_site_occupancy
  Th  Th0  1  0.000000  0.000000  0.249845  1
  Th  Th1  1  0.000000  0.000000  0.750155  1
  Cd  Cd2  1  0.000000  0.500000  0.000000  1
  Cd  Cd3  1  0.500000  0.000000  0.500000  1
  In  In4  1  0.500000  0.500000  0.257483  1
  In  In5  1  0.500000  0.500000  0.742517  1
  In  In6  1  0.000000  0.500000  0.500000  1
  Pb  Pb7  1  0.500000  0.000000  0.000000  1
