# generated using pymatgen
data_Tm10TlIn4Hg3Pd4
_symmetry_space_group_name_H-M   'P 1'
_cell_length_a   3.61029100
_cell_length_b   7.96231641
_cell_length_c   18.13270005
_cell_angle_alpha   89.97723717
_cell_angle_beta   90.00000000
_cell_angle_gamma   90.00000000
_symmetry_Int_Tables_number   1
_chemical_formula_structural   Tm10TlIn4Hg3Pd4
_chemical_formula_sum   'Tm10 Tl1 In4 Hg3 Pd4'
_cell_volume   521.24761848
_cell_formula_units_Z   1
loop_
 _symmetry_equiv_pos_site_id
 _symmetry_equiv_pos_as_xyz
  1  'x, y, z'
loop_
 _atom_site_type_symbol
 _atom_site_label
 _atom_site_symmetry_multiplicity
 _atom_site_fract_x
 _atom_site_fract_y
 _atom_site_fract_z
 _atom_site_occupancy
  Tm  Tm0  1  0.000000  0.504078  0.497396  1
  Tm  Tm1  1  0.000000  0.000010  0.000262  1
  Tm  Tm2  1  0.000000  0.743972  0.284011  1
  Tm  Tm3  1  0.000000  0.255440  0.720019  1
  Tm  Tm4  1  0.000000  0.756559  0.783676  1
  Tm  Tm5  1  0.000000  0.244453  0.215537  1
  Tm  Tm6  1  0.000000  0.611662  0.084752  1
  Tm  Tm7  1  0.000000  0.390121  0.916556  1
  Tm  Tm8  1  0.000000  0.882785  0.584697  1
  Tm  Tm9  1  0.000000  0.109183  0.414053  1
  Tl  Tl10  1  0.500000  0.210443  0.565914  1
  In  In11  1  0.500000  0.579445  0.649263  1
  In  In12  1  0.500000  0.418289  0.350325  1
  In  In13  1  0.500000  0.919337  0.148649  1
  In  In14  1  0.500000  0.081077  0.852055  1
  Hg  Hg15  1  0.500000  0.713815  0.933930  1
  Hg  Hg16  1  0.500000  0.288405  0.065595  1
  Hg  Hg17  1  0.500000  0.789189  0.433416  1
  Pd  Pd18  1  0.500000  0.531833  0.197569  1
  Pd  Pd19  1  0.500000  0.469738  0.803027  1
  Pd  Pd20  1  0.500000  0.967875  0.697710  1
  Pd  Pd21  1  0.500000  0.032285  0.301589  1
