# generated using pymatgen
data_Pr3Dy3(CoSn6)2
_symmetry_space_group_name_H-M   'P 1'
_cell_length_a   8.52317404
_cell_length_b   8.52317378
_cell_length_c   13.32217762
_cell_angle_alpha   89.96306728
_cell_angle_beta   90.03693342
_cell_angle_gamma   148.59240048
_symmetry_Int_Tables_number   1
_chemical_formula_structural   Pr3Dy3(CoSn6)2
_chemical_formula_sum   'Pr3 Dy3 Co2 Sn12'
_cell_volume   504.33363129
_cell_formula_units_Z   1
loop_
 _symmetry_equiv_pos_site_id
 _symmetry_equiv_pos_as_xyz
  1  'x, y, z'
loop_
 _atom_site_type_symbol
 _atom_site_label
 _atom_site_symmetry_multiplicity
 _atom_site_fract_x
 _atom_site_fract_y
 _atom_site_fract_z
 _atom_site_occupancy
  Pr  Pr0  1  0.099156  0.900844  0.592131  1
  Pr  Pr1  1  0.098980  0.901020  0.908787  1
  Pr  Pr2  1  0.901037  0.098963  0.406249  1
  Dy  Dy3  1  0.899081  0.100919  0.093060  1
  Dy  Dy4  1  0.899015  0.100985  0.752054  1
  Dy  Dy5  1  0.100933  0.899067  0.248035  1
  Co  Co6  1  0.297968  0.702032  0.248918  1
  Co  Co7  1  0.703103  0.296897  0.751200  1
  Sn  Sn8  1  0.754873  0.245127  0.572101  1
  Sn  Sn9  1  0.427421  0.572579  0.580726  1
  Sn  Sn10  1  0.572104  0.427896  0.418317  1
  Sn  Sn11  1  0.734442  0.265558  0.248652  1
  Sn  Sn12  1  0.266478  0.733522  0.750284  1
  Sn  Sn13  1  0.246775  0.753225  0.071495  1
  Sn  Sn14  1  0.245202  0.754798  0.427258  1
  Sn  Sn15  1  0.571448  0.428552  0.079225  1
  Sn  Sn16  1  0.452984  0.547016  0.246180  1
  Sn  Sn17  1  0.546251  0.453749  0.751090  1
  Sn  Sn18  1  0.756339  0.243661  0.929686  1
  Sn  Sn19  1  0.426407  0.573593  0.924553  1
