# generated using pymatgen
data_HgMoF6
_symmetry_space_group_name_H-M   'P 1'
_cell_length_a   6.09476334
_cell_length_b   6.03182208
_cell_length_c   5.95163194
_cell_angle_alpha   55.66050806
_cell_angle_beta   53.96060802
_cell_angle_gamma   54.59612523
_symmetry_Int_Tables_number   1
_chemical_formula_structural   HgMoF6
_chemical_formula_sum   'Hg1 Mo1 F6'
_cell_volume   135.68263016
_cell_formula_units_Z   1
loop_
 _symmetry_equiv_pos_site_id
 _symmetry_equiv_pos_as_xyz
  1  'x, y, z'
loop_
 _atom_site_type_symbol
 _atom_site_label
 _atom_site_symmetry_multiplicity
 _atom_site_fract_x
 _atom_site_fract_y
 _atom_site_fract_z
 _atom_site_occupancy
  Hg  Hg0  1  0.000000  0.000000  0.000000  1
  Mo  Mo1  1  0.500000  0.500000  0.500000  1
  F  F2  1  0.262366  0.871749  0.602688  1
  F  F3  1  0.586878  0.281694  0.857711  1
  F  F4  1  0.144947  0.408140  0.725697  1
  F  F5  1  0.413122  0.718306  0.142289  1
  F  F6  1  0.737634  0.128251  0.397312  1
  F  F7  1  0.855053  0.591860  0.274303  1
