# generated using pymatgen
data_Hf4ZrTa(SiRu)6
_symmetry_space_group_name_H-M   'P 1'
_cell_length_a   7.57468548
_cell_length_b   7.57509029
_cell_length_c   7.57468499
_cell_angle_alpha   127.72348568
_cell_angle_beta   121.50829501
_cell_angle_gamma   82.27035779
_symmetry_Int_Tables_number   1
_chemical_formula_structural   Hf4ZrTa(SiRu)6
_chemical_formula_sum   'Hf4 Zr1 Ta1 Si6 Ru6'
_cell_volume   281.81511577
_cell_formula_units_Z   1
loop_
 _symmetry_equiv_pos_site_id
 _symmetry_equiv_pos_as_xyz
  1  'x, y, z'
loop_
 _atom_site_type_symbol
 _atom_site_label
 _atom_site_symmetry_multiplicity
 _atom_site_fract_x
 _atom_site_fract_y
 _atom_site_fract_z
 _atom_site_occupancy
  Hf  Hf0  1  0.947645  0.907001  0.459356  1
  Hf  Hf1  1  0.050842  0.502526  0.951684  1
  Hf  Hf2  1  0.529214  0.510584  0.481369  1
  Hf  Hf3  1  0.469780  0.946717  0.976937  1
  Zr  Zr4  1  0.746411  0.077891  0.831480  1
  Ta  Ta5  1  0.251420  0.084405  0.332985  1
  Si  Si6  1  0.729082  0.488886  0.259803  1
  Si  Si7  1  0.278749  0.506226  0.727477  1
  Si  Si8  1  0.667170  0.171542  0.507991  1
  Si  Si9  1  0.322717  0.838356  0.495095  1
  Si  Si10  1  0.163550  0.171542  0.004372  1
  Si  Si11  1  0.843261  0.838356  0.015639  1
  Ru  Ru12  1  0.477466  0.748283  0.226125  1
  Ru  Ru13  1  0.022157  0.748283  0.770816  1
  Ru  Ru14  1  0.899419  0.256331  0.403416  1
  Ru  Ru15  1  0.095823  0.502271  0.349893  1
  Ru  Ru16  1  0.352915  0.256331  0.856911  1
  Ru  Ru17  1  0.652377  0.502271  0.906449  1
