# generated using pymatgen
data_Nd2HgRhPb
_symmetry_space_group_name_H-M   'P 1'
_cell_length_a   8.26646858
_cell_length_b   8.26646788
_cell_length_c   3.84875900
_cell_angle_alpha   90.00000000
_cell_angle_beta   90.00000000
_cell_angle_gamma   88.66630944
_symmetry_Int_Tables_number   1
_chemical_formula_structural   Nd2HgRhPb
_chemical_formula_sum   'Nd4 Hg2 Rh2 Pb2'
_cell_volume   262.93176200
_cell_formula_units_Z   2
loop_
 _symmetry_equiv_pos_site_id
 _symmetry_equiv_pos_as_xyz
  1  'x, y, z'
loop_
 _atom_site_type_symbol
 _atom_site_label
 _atom_site_symmetry_multiplicity
 _atom_site_fract_x
 _atom_site_fract_y
 _atom_site_fract_z
 _atom_site_occupancy
  Nd  Nd0  1  0.656708  0.156708  0.500000  1
  Nd  Nd1  1  0.343292  0.843292  0.500000  1
  Nd  Nd2  1  0.196197  0.303803  0.500000  1
  Nd  Nd3  1  0.803803  0.696197  0.500000  1
  Hg  Hg4  1  0.125573  0.625573  0.000000  1
  Hg  Hg5  1  0.874427  0.374427  0.000000  1
  Rh  Rh6  1  0.624397  0.875603  0.000000  1
  Rh  Rh7  1  0.375603  0.124397  0.000000  1
  Pb  Pb8  1  0.000000  0.000000  0.000000  1
  Pb  Pb9  1  0.500000  0.500000  0.000000  1
