# generated using pymatgen
data_Na2PuO3
_symmetry_space_group_name_H-M   'P 1'
_cell_length_a   11.38468560
_cell_length_b   10.83846642
_cell_length_c   5.94440253
_cell_angle_alpha   79.62887547
_cell_angle_beta   69.46656663
_cell_angle_gamma   30.90456602
_symmetry_Int_Tables_number   1
_chemical_formula_structural   Na2PuO3
_chemical_formula_sum   'Na8 Pu4 O12'
_cell_volume   341.46224803
_cell_formula_units_Z   4
loop_
 _symmetry_equiv_pos_site_id
 _symmetry_equiv_pos_as_xyz
  1  'x, y, z'
loop_
 _atom_site_type_symbol
 _atom_site_label
 _atom_site_symmetry_multiplicity
 _atom_site_fract_x
 _atom_site_fract_y
 _atom_site_fract_z
 _atom_site_occupancy
  Na  Na0  1  0.996287  0.996287  0.503713  1
  Na  Na1  1  0.421282  0.421282  0.578718  1
  Na  Na2  1  0.828718  0.828718  0.671282  1
  Na  Na3  1  0.253713  0.253713  0.746287  1
  Na  Na4  1  0.746287  0.746287  0.253713  1
  Na  Na5  1  0.671282  0.671282  0.828718  1
  Na  Na6  1  0.578718  0.578718  0.421282  1
  Na  Na7  1  0.503713  0.503713  0.996287  1
  Pu  Pu8  1  0.916247  0.916247  0.083753  1
  Pu  Pu9  1  0.333753  0.333753  0.166247  1
  Pu  Pu10  1  0.166247  0.166247  0.333753  1
  Pu  Pu11  1  0.083753  0.083753  0.916247  1
  O  O12  1  0.151239  0.666036  0.306141  1
  O  O13  1  0.666036  0.151239  0.876584  1
  O  O14  1  0.098761  0.583964  0.943859  1
  O  O15  1  0.583964  0.098761  0.373416  1
  O  O16  1  0.035577  0.464423  0.464423  1
  O  O17  1  0.464423  0.035577  0.035577  1
  O  O18  1  0.373416  0.943859  0.583964  1
  O  O19  1  0.943859  0.373416  0.098761  1
  O  O20  1  0.876584  0.306141  0.666036  1
  O  O21  1  0.306141  0.876584  0.151239  1
  O  O22  1  0.214423  0.785577  0.785577  1
  O  O23  1  0.785577  0.214423  0.214423  1
