# generated using pymatgen
data_Tm3MgAs6Ru7
_symmetry_space_group_name_H-M   'P 1'
_cell_length_a   7.11572289
_cell_length_b   7.24577695
_cell_length_c   7.11572263
_cell_angle_alpha   109.84188930
_cell_angle_beta   109.09803313
_cell_angle_gamma   109.84188850
_symmetry_Int_Tables_number   1
_chemical_formula_structural   Tm3MgAs6Ru7
_chemical_formula_sum   'Tm3 Mg1 As6 Ru7'
_cell_volume   281.12137689
_cell_formula_units_Z   1
loop_
 _symmetry_equiv_pos_site_id
 _symmetry_equiv_pos_as_xyz
  1  'x, y, z'
loop_
 _atom_site_type_symbol
 _atom_site_label
 _atom_site_symmetry_multiplicity
 _atom_site_fract_x
 _atom_site_fract_y
 _atom_site_fract_z
 _atom_site_occupancy
  Tm  Tm0  1  0.000000  0.000000  0.500000  1
  Tm  Tm1  1  0.500000  0.000000  0.000000  1
  Tm  Tm2  1  0.500000  0.500000  0.500000  1
  Mg  Mg3  1  0.000000  0.500000  0.000000  1
  As  As4  1  0.310039  0.994951  0.310039  1
  As  As5  1  0.000000  0.315088  0.310039  1
  As  As6  1  0.000000  0.684912  0.689961  1
  As  As7  1  0.310039  0.315088  0.000000  1
  As  As8  1  0.689961  0.684912  0.000000  1
  As  As9  1  0.689961  0.005049  0.689961  1
  Ru  Ru10  1  0.754597  0.500000  0.245403  1
  Ru  Ru11  1  0.490806  0.745403  0.245403  1
  Ru  Ru12  1  0.509194  0.254597  0.754597  1
  Ru  Ru13  1  0.754597  0.254597  0.509194  1
  Ru  Ru14  1  0.245403  0.745403  0.490806  1
  Ru  Ru15  1  0.245403  0.500000  0.754597  1
  Ru  Ru16  1  0.000000  0.000000  0.000000  1
