# generated using pymatgen
data_SmEr3(HfPt)4
_symmetry_space_group_name_H-M   'P 1'
_cell_length_a   4.65219900
_cell_length_b   7.04997320
_cell_length_c   8.21389300
_cell_angle_alpha   90.03346737
_cell_angle_beta   90.00000000
_cell_angle_gamma   90.00000000
_symmetry_Int_Tables_number   1
_chemical_formula_structural   SmEr3(HfPt)4
_chemical_formula_sum   'Sm1 Er3 Hf4 Pt4'
_cell_volume   269.39821689
_cell_formula_units_Z   1
loop_
 _symmetry_equiv_pos_site_id
 _symmetry_equiv_pos_as_xyz
  1  'x, y, z'
loop_
 _atom_site_type_symbol
 _atom_site_label
 _atom_site_symmetry_multiplicity
 _atom_site_fract_x
 _atom_site_fract_y
 _atom_site_fract_z
 _atom_site_occupancy
  Sm  Sm0  1  0.750000  0.515851  0.821059  1
  Er  Er1  1  0.250000  0.982657  0.321500  1
  Er  Er2  1  0.250000  0.482675  0.179377  1
  Er  Er3  1  0.750000  0.017179  0.677219  1
  Hf  Hf4  1  0.250000  0.353227  0.575054  1
  Hf  Hf5  1  0.250000  0.854590  0.923438  1
  Hf  Hf6  1  0.750000  0.646736  0.421564  1
  Hf  Hf7  1  0.750000  0.145161  0.078291  1
  Pt  Pt8  1  0.250000  0.227492  0.905561  1
  Pt  Pt9  1  0.250000  0.732316  0.593305  1
  Pt  Pt10  1  0.750000  0.772036  0.099709  1
  Pt  Pt11  1  0.750000  0.270081  0.403923  1
