# generated using pymatgen
data_LiCa2AcCd2Sn3
_symmetry_space_group_name_H-M   'P 1'
_cell_length_a   7.67121425
_cell_length_b   7.79867364
_cell_length_c   4.82366400
_cell_angle_alpha   90.00000000
_cell_angle_beta   90.00000000
_cell_angle_gamma   119.38733011
_symmetry_Int_Tables_number   1
_chemical_formula_structural   LiCa2AcCd2Sn3
_chemical_formula_sum   'Li1 Ca2 Ac1 Cd2 Sn3'
_cell_volume   251.44369991
_cell_formula_units_Z   1
loop_
 _symmetry_equiv_pos_site_id
 _symmetry_equiv_pos_as_xyz
  1  'x, y, z'
loop_
 _atom_site_type_symbol
 _atom_site_label
 _atom_site_symmetry_multiplicity
 _atom_site_fract_x
 _atom_site_fract_y
 _atom_site_fract_z
 _atom_site_occupancy
  Li  Li0  1  0.998072  0.762118  0.000000  1
  Ca  Ca1  1  0.002379  0.428299  0.500000  1
  Ca  Ca2  1  0.568891  0.568711  0.500000  1
  Ac  Ac3  1  0.434748  0.001961  0.500000  1
  Cd  Cd4  1  0.246954  0.245956  0.000000  1
  Cd  Cd5  1  0.758319  0.997841  0.000000  1
  Sn  Sn6  1  0.319678  0.656235  0.000000  1
  Sn  Sn7  1  0.681874  0.350669  0.000000  1
  Sn  Sn8  1  0.989084  0.988209  0.500000  1
