# generated using pymatgen
data_La4Y3Ho(SiO5)4
_symmetry_space_group_name_H-M   'P 1'
_cell_length_a   8.16114265
_cell_length_b   8.16427969
_cell_length_c   10.92113468
_cell_angle_alpha   61.17058520
_cell_angle_beta   61.12090608
_cell_angle_gamma   50.31910284
_symmetry_Int_Tables_number   1
_chemical_formula_structural   La4Y3Ho(SiO5)4
_chemical_formula_sum   'La4 Y3 Ho1 Si4 O20'
_cell_volume   473.78824478
_cell_formula_units_Z   1
loop_
 _symmetry_equiv_pos_site_id
 _symmetry_equiv_pos_as_xyz
  1  'x, y, z'
loop_
 _atom_site_type_symbol
 _atom_site_label
 _atom_site_symmetry_multiplicity
 _atom_site_fract_x
 _atom_site_fract_y
 _atom_site_fract_z
 _atom_site_occupancy
  La  La0  1  0.783865  0.293110  0.033964  1
  La  La1  1  0.707525  0.215552  0.465742  1
  La  La2  1  0.215056  0.707787  0.966569  1
  La  La3  1  0.292334  0.783532  0.534102  1
  Y  Y4  1  0.520771  0.764356  0.163939  1
  Y  Y5  1  0.764760  0.522535  0.662484  1
  Y  Y6  1  0.478442  0.235861  0.836646  1
  Ho  Ho7  1  0.237615  0.476025  0.336990  1
  Si  Si8  1  0.729452  0.901968  0.307834  1
  Si  Si9  1  0.097650  0.271329  0.192380  1
  Si  Si10  1  0.271270  0.097921  0.691265  1
  Si  Si11  1  0.902021  0.729243  0.808358  1
  O  O12  1  0.420367  0.610008  0.111566  1
  O  O13  1  0.388308  0.576910  0.390347  1
  O  O14  1  0.577850  0.390183  0.889832  1
  O  O15  1  0.611280  0.421844  0.609616  1
  O  O16  1  0.869239  0.722946  0.432061  1
  O  O17  1  0.276276  0.134910  0.066227  1
  O  O18  1  0.135486  0.277265  0.564891  1
  O  O19  1  0.723198  0.865677  0.934449  1
  O  O20  1  0.571415  0.837961  0.315303  1
  O  O21  1  0.160388  0.429087  0.186942  1
  O  O22  1  0.429442  0.160232  0.685610  1
  O  O23  1  0.839411  0.570991  0.814529  1
  O  O24  1  0.156901  0.584638  0.825107  1
  O  O25  1  0.416267  0.843461  0.673834  1
  O  O26  1  0.842740  0.415813  0.175608  1
  O  O27  1  0.583031  0.156866  0.325517  1
  O  O28  1  0.905953  0.910721  0.650309  1
  O  O29  1  0.089346  0.093749  0.849294  1
  O  O30  1  0.094045  0.088924  0.350046  1
  O  O31  1  0.908297  0.908594  0.148642  1
