# generated using pymatgen
data_Er3Sc2(GaTe)2
_symmetry_space_group_name_H-M   'P 1'
_cell_length_a   8.42924002
_cell_length_b   8.42924001
_cell_length_c   7.67662400
_cell_angle_alpha   89.89930526
_cell_angle_beta   89.89930526
_cell_angle_gamma   125.96493292
_symmetry_Int_Tables_number   1
_chemical_formula_structural   Er3Sc2(GaTe)2
_chemical_formula_sum   'Er6 Sc4 Ga4 Te4'
_cell_volume   441.46319032
_cell_formula_units_Z   2
loop_
 _symmetry_equiv_pos_site_id
 _symmetry_equiv_pos_as_xyz
  1  'x, y, z'
loop_
 _atom_site_type_symbol
 _atom_site_label
 _atom_site_symmetry_multiplicity
 _atom_site_fract_x
 _atom_site_fract_y
 _atom_site_fract_z
 _atom_site_occupancy
  Er  Er0  1  0.960083  0.704841  0.667457  1
  Er  Er1  1  0.295159  0.039917  0.332543  1
  Er  Er2  1  0.207060  0.458135  0.833451  1
  Er  Er3  1  0.541865  0.792940  0.166549  1
  Er  Er4  1  0.039694  0.291900  0.331281  1
  Er  Er5  1  0.708100  0.960306  0.668719  1
  Sc  Sc6  1  0.000001  0.999999  0.000000  1
  Sc  Sc7  1  0.501819  0.498181  0.500000  1
  Sc  Sc8  1  0.786307  0.542242  0.165097  1
  Sc  Sc9  1  0.457758  0.213693  0.834903  1
  Ga  Ga10  1  0.867646  0.862771  0.366631  1
  Ga  Ga11  1  0.137229  0.132354  0.633369  1
  Ga  Ga12  1  0.632444  0.628021  0.871051  1
  Ga  Ga13  1  0.371979  0.367556  0.128949  1
  Te  Te14  1  0.202712  0.797288  0.000000  1
  Te  Te15  1  0.702659  0.297341  0.500000  1
  Te  Te16  1  0.789971  0.210029  0.000000  1
  Te  Te17  1  0.297513  0.702487  0.500000  1
