# generated using pymatgen
data_Be8AlTc2Os
_symmetry_space_group_name_H-M   'P 1'
_cell_length_a   4.38077900
_cell_length_b   4.38077797
_cell_length_c   7.15833000
_cell_angle_alpha   90.00000000
_cell_angle_beta   90.00000000
_cell_angle_gamma   120.00000024
_symmetry_Int_Tables_number   1
_chemical_formula_structural   Be8AlTc2Os
_chemical_formula_sum   'Be8 Al1 Tc2 Os1'
_cell_volume   118.97204676
_cell_formula_units_Z   1
loop_
 _symmetry_equiv_pos_site_id
 _symmetry_equiv_pos_as_xyz
  1  'x, y, z'
loop_
 _atom_site_type_symbol
 _atom_site_label
 _atom_site_symmetry_multiplicity
 _atom_site_fract_x
 _atom_site_fract_y
 _atom_site_fract_z
 _atom_site_occupancy
  Be  Be0  1  0.000000  0.000000  0.496678  1
  Be  Be1  1  0.000000  0.000000  0.998758  1
  Be  Be2  1  0.829746  0.170254  0.249770  1
  Be  Be3  1  0.829746  0.659490  0.249770  1
  Be  Be4  1  0.340510  0.170254  0.249770  1
  Be  Be5  1  0.167779  0.832221  0.750016  1
  Be  Be6  1  0.167779  0.335558  0.750016  1
  Be  Be7  1  0.664442  0.832221  0.750016  1
  Al  Al8  1  0.333333  0.666667  0.064790  1
  Tc  Tc9  1  0.333333  0.666667  0.442661  1
  Tc  Tc10  1  0.666667  0.333333  0.562245  1
  Os  Os11  1  0.666667  0.333333  0.935510  1
