# generated using pymatgen
data_TbY3(B4Os)4
_symmetry_space_group_name_H-M   'P 1'
_cell_length_a   3.57261500
_cell_length_b   5.97928503
_cell_length_c   11.56953306
_cell_angle_alpha   90.01130913
_cell_angle_beta   90.00000000
_cell_angle_gamma   90.00000000
_symmetry_Int_Tables_number   1
_chemical_formula_structural   TbY3(B4Os)4
_chemical_formula_sum   'Tb1 Y3 B16 Os4'
_cell_volume   247.14469724
_cell_formula_units_Z   1
loop_
 _symmetry_equiv_pos_site_id
 _symmetry_equiv_pos_as_xyz
  1  'x, y, z'
loop_
 _atom_site_type_symbol
 _atom_site_label
 _atom_site_symmetry_multiplicity
 _atom_site_fract_x
 _atom_site_fract_y
 _atom_site_fract_z
 _atom_site_occupancy
  Tb  Tb0  1  0.000000  0.627857  0.650126  1
  Y  Y1  1  0.000000  0.372081  0.349881  1
  Y  Y2  1  0.000000  0.127885  0.849946  1
  Y  Y3  1  0.000000  0.872104  0.150089  1
  B  B4  1  0.500000  0.975076  0.691334  1
  B  B5  1  0.500000  0.024947  0.308580  1
  B  B6  1  0.500000  0.475076  0.808708  1
  B  B7  1  0.500000  0.524941  0.191407  1
  B  B8  1  0.500000  0.788390  0.814156  1
  B  B9  1  0.500000  0.211516  0.185883  1
  B  B10  1  0.500000  0.288343  0.685861  1
  B  B11  1  0.500000  0.711531  0.314088  1
  B  B12  1  0.500000  0.863556  0.969835  1
  B  B13  1  0.500000  0.136469  0.030190  1
  B  B14  1  0.500000  0.363518  0.530190  1
  B  B15  1  0.500000  0.636575  0.469744  1
  B  B16  1  0.500000  0.887867  0.546516  1
  B  B17  1  0.500000  0.112383  0.453314  1
  B  B18  1  0.500000  0.387618  0.953431  1
  B  B19  1  0.500000  0.612328  0.046649  1
  Os  Os20  1  0.000000  0.640897  0.906898  1
  Os  Os21  1  0.000000  0.359107  0.093276  1
  Os  Os22  1  0.000000  0.140774  0.593220  1
  Os  Os23  1  0.000000  0.859162  0.406679  1
