# generated using pymatgen
data_Cs(Zr3Te4)2
_symmetry_space_group_name_H-M   'P 1'
_cell_length_a   3.96840401
_cell_length_b   11.26219947
_cell_length_c   11.26163233
_cell_angle_alpha   60.00167688
_cell_angle_beta   90.00077165
_cell_angle_gamma   90.00029299
_symmetry_Int_Tables_number   1
_chemical_formula_structural   Cs(Zr3Te4)2
_chemical_formula_sum   'Cs1 Zr6 Te8'
_cell_volume   435.89150874
_cell_formula_units_Z   1
loop_
 _symmetry_equiv_pos_site_id
 _symmetry_equiv_pos_as_xyz
  1  'x, y, z'
loop_
 _atom_site_type_symbol
 _atom_site_label
 _atom_site_symmetry_multiplicity
 _atom_site_fract_x
 _atom_site_fract_y
 _atom_site_fract_z
 _atom_site_occupancy
  Cs  Cs0  1  0.500000  0.000000  0.000000  1
  Zr  Zr1  1  0.748421  0.367124  0.506602  1
  Zr  Zr2  1  0.748427  0.126279  0.367120  1
  Zr  Zr3  1  0.748424  0.506594  0.126270  1
  Zr  Zr4  1  0.251579  0.632876  0.493398  1
  Zr  Zr5  1  0.251573  0.873721  0.632880  1
  Zr  Zr6  1  0.251576  0.493406  0.873731  1
  Te  Te7  1  0.753273  0.056424  0.651606  1
  Te  Te8  1  0.753280  0.291988  0.056432  1
  Te  Te9  1  0.753282  0.651582  0.291969  1
  Te  Te10  1  0.246727  0.943576  0.348394  1
  Te  Te11  1  0.246720  0.708012  0.943568  1
  Te  Te12  1  0.246718  0.348418  0.708031  1
  Te  Te13  1  0.751413  0.666668  0.666666  1
  Te  Te14  1  0.248587  0.333332  0.333334  1
