# generated using pymatgen
data_YbDy2Ga8Ag3
_symmetry_space_group_name_H-M   'P 1'
_cell_length_a   4.37124603
_cell_length_b   8.32601932
_cell_length_c   8.32601843
_cell_angle_alpha   70.48318015
_cell_angle_beta   74.78122758
_cell_angle_gamma   74.78123338
_symmetry_Int_Tables_number   1
_chemical_formula_structural   YbDy2Ga8Ag3
_chemical_formula_sum   'Yb1 Dy2 Ga8 Ag3'
_cell_volume   270.46040218
_cell_formula_units_Z   1
loop_
 _symmetry_equiv_pos_site_id
 _symmetry_equiv_pos_as_xyz
  1  'x, y, z'
loop_
 _atom_site_type_symbol
 _atom_site_label
 _atom_site_symmetry_multiplicity
 _atom_site_fract_x
 _atom_site_fract_y
 _atom_site_fract_z
 _atom_site_occupancy
  Yb  Yb0  1  0.800718  0.199282  0.199282  1
  Dy  Dy1  1  0.499667  0.500333  0.500333  1
  Dy  Dy2  1  0.202003  0.797997  0.797997  1
  Ga  Ga3  1  0.641029  0.077372  0.640571  1
  Ga  Ga4  1  0.356401  0.925197  0.362000  1
  Ga  Ga5  1  0.641029  0.640571  0.077372  1
  Ga  Ga6  1  0.356401  0.362000  0.925197  1
  Ga  Ga7  1  0.841826  0.787935  0.528412  1
  Ga  Ga8  1  0.160575  0.208091  0.470758  1
  Ga  Ga9  1  0.841826  0.528412  0.787935  1
  Ga  Ga10  1  0.160575  0.470758  0.208091  1
  Ag  Ag11  1  0.499564  0.000436  0.000436  1
  Ag  Ag12  1  0.999192  0.807216  0.194399  1
  Ag  Ag13  1  0.999192  0.194399  0.807216  1
