# generated using pymatgen
data_La3CoI3
_symmetry_space_group_name_H-M   'P 1'
_cell_length_a   4.52898600
_cell_length_b   9.46666132
_cell_length_c   12.19750218
_cell_angle_alpha   86.21653966
_cell_angle_beta   90.00000000
_cell_angle_gamma   90.00000000
_symmetry_Int_Tables_number   1
_chemical_formula_structural   La3CoI3
_chemical_formula_sum   'La6 Co2 I6'
_cell_volume   521.82054041
_cell_formula_units_Z   2
loop_
 _symmetry_equiv_pos_site_id
 _symmetry_equiv_pos_as_xyz
  1  'x, y, z'
loop_
 _atom_site_type_symbol
 _atom_site_label
 _atom_site_symmetry_multiplicity
 _atom_site_fract_x
 _atom_site_fract_y
 _atom_site_fract_z
 _atom_site_occupancy
  La  La0  1  0.250000  0.313137  0.881888  1
  La  La1  1  0.750000  0.686863  0.118112  1
  La  La2  1  0.750000  0.113145  0.676816  1
  La  La3  1  0.250000  0.886855  0.323184  1
  La  La4  1  0.750000  0.093960  0.093116  1
  La  La5  1  0.250000  0.906040  0.906884  1
  Co  Co6  1  0.750000  0.114859  0.873201  1
  Co  Co7  1  0.250000  0.885141  0.126799  1
  I  I8  1  0.750000  0.128415  0.377781  1
  I  I9  1  0.250000  0.871585  0.622219  1
  I  I10  1  0.250000  0.362110  0.616589  1
  I  I11  1  0.750000  0.637890  0.383411  1
  I  I12  1  0.750000  0.607636  0.859292  1
  I  I13  1  0.250000  0.392364  0.140708  1
