# generated using pymatgen
data_YbDyFeIr3
_symmetry_space_group_name_H-M   'P 1'
_cell_length_a   5.12967202
_cell_length_b   5.12967129
_cell_length_c   5.12967128
_cell_angle_alpha   64.25687387
_cell_angle_beta   64.25688024
_cell_angle_gamma   64.25688037
_symmetry_Int_Tables_number   1
_chemical_formula_structural   YbDyFeIr3
_chemical_formula_sum   'Yb1 Dy1 Fe1 Ir3'
_cell_volume   104.37419639
_cell_formula_units_Z   1
loop_
 _symmetry_equiv_pos_site_id
 _symmetry_equiv_pos_as_xyz
  1  'x, y, z'
loop_
 _atom_site_type_symbol
 _atom_site_label
 _atom_site_symmetry_multiplicity
 _atom_site_fract_x
 _atom_site_fract_y
 _atom_site_fract_z
 _atom_site_occupancy
  Yb  Yb0  1  0.998916  0.998916  0.998916  1
  Dy  Dy1  1  0.250354  0.250354  0.250354  1
  Fe  Fe2  1  0.625048  0.625048  0.625048  1
  Ir  Ir3  1  0.625740  0.625740  0.124202  1
  Ir  Ir4  1  0.625740  0.124202  0.625740  1
  Ir  Ir5  1  0.124202  0.625740  0.625740  1
