# generated using pymatgen
data_Ta8Cr2Ge6B
_symmetry_space_group_name_H-M   'P 1'
_cell_length_a   7.60109100
_cell_length_b   7.60109220
_cell_length_c   5.20944900
_cell_angle_alpha   90.00000000
_cell_angle_beta   90.00000000
_cell_angle_gamma   119.99999913
_symmetry_Int_Tables_number   1
_chemical_formula_structural   Ta8Cr2Ge6B
_chemical_formula_sum   'Ta8 Cr2 Ge6 B1'
_cell_volume   260.65998062
_cell_formula_units_Z   1
loop_
 _symmetry_equiv_pos_site_id
 _symmetry_equiv_pos_as_xyz
  1  'x, y, z'
loop_
 _atom_site_type_symbol
 _atom_site_label
 _atom_site_symmetry_multiplicity
 _atom_site_fract_x
 _atom_site_fract_y
 _atom_site_fract_z
 _atom_site_occupancy
  Ta  Ta0  1  0.000000  0.758103  0.254012  1
  Ta  Ta1  1  0.241897  0.241897  0.254012  1
  Ta  Ta2  1  0.758103  0.000000  0.254012  1
  Ta  Ta3  1  0.000000  0.241897  0.745988  1
  Ta  Ta4  1  0.758103  0.758103  0.745988  1
  Ta  Ta5  1  0.241897  0.000000  0.745988  1
  Ta  Ta6  1  0.333333  0.666667  0.500000  1
  Ta  Ta7  1  0.666667  0.333333  0.500000  1
  Cr  Cr8  1  0.666667  0.333333  0.000000  1
  Cr  Cr9  1  0.333333  0.666667  0.000000  1
  Ge  Ge10  1  0.000000  0.401357  0.229551  1
  Ge  Ge11  1  0.598643  0.598643  0.229551  1
  Ge  Ge12  1  0.401357  0.000000  0.229551  1
  Ge  Ge13  1  0.000000  0.598643  0.770449  1
  Ge  Ge14  1  0.401357  0.401357  0.770449  1
  Ge  Ge15  1  0.598643  0.000000  0.770449  1
  B  B16  1  0.000000  0.000000  0.500000  1
