# generated using pymatgen
data_Cs6Li4VInAs6
_symmetry_space_group_name_H-M   'P 1'
_cell_length_a   10.38965661
_cell_length_b   10.38965758
_cell_length_c   17.45373600
_cell_angle_alpha   90.00000000
_cell_angle_beta   90.00000000
_cell_angle_gamma   143.04365989
_symmetry_Int_Tables_number   1
_chemical_formula_structural   Cs6Li4VInAs6
_chemical_formula_sum   'Cs12 Li8 V2 In2 As12'
_cell_volume   1132.69853874
_cell_formula_units_Z   2
loop_
 _symmetry_equiv_pos_site_id
 _symmetry_equiv_pos_as_xyz
  1  'x, y, z'
loop_
 _atom_site_type_symbol
 _atom_site_label
 _atom_site_symmetry_multiplicity
 _atom_site_fract_x
 _atom_site_fract_y
 _atom_site_fract_z
 _atom_site_occupancy
  Cs  Cs0  1  0.952053  0.607943  0.832389  1
  Cs  Cs1  1  0.547947  0.892057  0.332389  1
  Cs  Cs2  1  0.392057  0.047947  0.167611  1
  Cs  Cs3  1  0.066187  0.405122  0.167512  1
  Cs  Cs4  1  0.905122  0.566187  0.332488  1
  Cs  Cs5  1  0.433813  0.094878  0.667512  1
  Cs  Cs6  1  0.594878  0.933813  0.832488  1
  Cs  Cs7  1  0.281443  0.275193  0.324862  1
  Cs  Cs8  1  0.775193  0.781443  0.175138  1
  Cs  Cs9  1  0.218557  0.224807  0.824862  1
  Cs  Cs10  1  0.724807  0.718557  0.675138  1
  Cs  Cs11  1  0.107943  0.452053  0.667611  1
  Li  Li12  1  0.912721  0.087279  0.000000  1
  Li  Li13  1  0.587279  0.412721  0.500000  1
  Li  Li14  1  0.080232  0.919768  0.000000  1
  Li  Li15  1  0.419768  0.580232  0.500000  1
  Li  Li16  1  0.750426  0.249574  0.000000  1
  Li  Li17  1  0.749574  0.250426  0.500000  1
  Li  Li18  1  0.253460  0.746540  0.000000  1
  Li  Li19  1  0.246540  0.753460  0.500000  1
  V  V20  1  0.583318  0.416682  0.000000  1
  V  V21  1  0.916682  0.083318  0.500000  1
  In  In22  1  0.413875  0.586125  0.000000  1
  In  In23  1  0.086125  0.913875  0.500000  1
  As  As24  1  0.871202  0.560732  0.073632  1
  As  As25  1  0.439268  0.128798  0.926368  1
  As  As26  1  0.628798  0.939268  0.573632  1
  As  As27  1  0.920162  0.591109  0.586243  1
  As  As28  1  0.091109  0.420162  0.913757  1
  As  As29  1  0.579838  0.908891  0.086243  1
  As  As30  1  0.408891  0.079838  0.413757  1
  As  As31  1  0.206925  0.227367  0.580505  1
  As  As32  1  0.727367  0.706925  0.919495  1
  As  As33  1  0.293075  0.272633  0.080505  1
  As  As34  1  0.060732  0.371202  0.426368  1
  As  As35  1  0.772633  0.793075  0.419495  1
