# generated using pymatgen
data_LiYbSm3Ga17Pd6
_symmetry_space_group_name_H-M   'P 1'
_cell_length_a   7.68516262
_cell_length_b   7.66856517
_cell_length_c   9.57859000
_cell_angle_alpha   90.00000000
_cell_angle_beta   90.00000000
_cell_angle_gamma   119.30546304
_symmetry_Int_Tables_number   1
_chemical_formula_structural   LiYbSm3Ga17Pd6
_chemical_formula_sum   'Li1 Yb1 Sm3 Ga17 Pd6'
_cell_volume   492.26221600
_cell_formula_units_Z   1
loop_
 _symmetry_equiv_pos_site_id
 _symmetry_equiv_pos_as_xyz
  1  'x, y, z'
loop_
 _atom_site_type_symbol
 _atom_site_label
 _atom_site_symmetry_multiplicity
 _atom_site_fract_x
 _atom_site_fract_y
 _atom_site_fract_z
 _atom_site_occupancy
  Li  Li0  1  0.131687  0.134023  0.250000  1
  Yb  Yb1  1  0.004749  0.326422  0.750000  1
  Sm  Sm2  1  0.996067  0.659922  0.250000  1
  Sm  Sm3  1  0.663531  0.998894  0.250000  1
  Sm  Sm4  1  0.327727  0.003242  0.750000  1
  Ga  Ga5  1  0.863802  0.863291  0.750000  1
  Ga  Ga6  1  0.003535  0.327028  0.081875  1
  Ga  Ga7  1  0.000090  0.659941  0.918493  1
  Ga  Ga8  1  0.000090  0.659941  0.581507  1
  Ga  Ga9  1  0.326094  0.003152  0.413421  1
  Ga  Ga10  1  0.003535  0.327028  0.418125  1
  Ga  Ga11  1  0.667006  0.003239  0.581411  1
  Ga  Ga12  1  0.667006  0.003239  0.918589  1
  Ga  Ga13  1  0.326094  0.003152  0.086579  1
  Ga  Ga14  1  0.333416  0.335512  0.553733  1
  Ga  Ga15  1  0.674340  0.674445  0.432417  1
  Ga  Ga16  1  0.674340  0.674445  0.067583  1
  Ga  Ga17  1  0.333416  0.335512  0.946267  1
  Ga  Ga18  1  0.340861  0.538617  0.250000  1
  Ga  Ga19  1  0.654872  0.450713  0.750000  1
  Ga  Ga20  1  0.536696  0.343724  0.250000  1
  Ga  Ga21  1  0.451117  0.655027  0.750000  1
  Pd  Pd22  1  0.674851  0.331568  0.001207  1
  Pd  Pd23  1  0.333538  0.678069  0.000604  1
  Pd  Pd24  1  0.333538  0.678069  0.499396  1
  Pd  Pd25  1  0.674851  0.331568  0.498793  1
  Pd  Pd26  1  0.001576  0.000110  0.993919  1
  Pd  Pd27  1  0.001576  0.000110  0.506081  1
