# generated using pymatgen
data_Sc6Al10ZnGa3(Si5Os3)2
_symmetry_space_group_name_H-M   'P 1'
_cell_length_a   8.49182752
_cell_length_b   8.49182872
_cell_length_c   9.06529400
_cell_angle_alpha   90.04410623
_cell_angle_beta   89.95589376
_cell_angle_gamma   120.31973872
_symmetry_Int_Tables_number   1
_chemical_formula_structural   Sc6Al10ZnGa3(Si5Os3)2
_chemical_formula_sum   'Sc6 Al10 Zn1 Ga3 Si10 Os6'
_cell_volume   564.29532902
_cell_formula_units_Z   1
loop_
 _symmetry_equiv_pos_site_id
 _symmetry_equiv_pos_as_xyz
  1  'x, y, z'
loop_
 _atom_site_type_symbol
 _atom_site_label
 _atom_site_symmetry_multiplicity
 _atom_site_fract_x
 _atom_site_fract_y
 _atom_site_fract_z
 _atom_site_occupancy
  Sc  Sc0  1  0.199519  0.801409  0.246764  1
  Sc  Sc1  1  0.197866  0.396939  0.246187  1
  Sc  Sc2  1  0.604547  0.803508  0.247921  1
  Sc  Sc3  1  0.803549  0.199363  0.752023  1
  Sc  Sc4  1  0.808745  0.605944  0.752756  1
  Sc  Sc5  1  0.394107  0.193417  0.753678  1
  Al  Al6  1  0.687375  0.843841  0.918371  1
  Al  Al7  1  0.844305  0.160009  0.080939  1
  Al  Al8  1  0.841471  0.682215  0.084645  1
  Al  Al9  1  0.318116  0.160772  0.083820  1
  Al  Al10  1  0.842068  0.157986  0.421633  1
  Al  Al11  1  0.842156  0.684349  0.419388  1
  Al  Al12  1  0.316081  0.158593  0.420116  1
  Al  Al13  1  0.160210  0.839984  0.580636  1
  Al  Al14  1  0.160804  0.322655  0.579765  1
  Al  Al15  1  0.676250  0.839122  0.580934  1
  Zn  Zn16  1  0.146804  0.293268  0.914992  1
  Ga  Ga17  1  0.146713  0.853803  0.920376  1
  Ga  Ga18  1  0.000296  0.999827  0.257868  1
  Ga  Ga19  1  0.995863  0.001100  0.719094  1
  Si  Si20  1  0.565947  0.434570  0.251271  1
  Si  Si21  1  0.567318  0.133314  0.250912  1
  Si  Si22  1  0.867788  0.433368  0.251364  1
  Si  Si23  1  0.433809  0.562562  0.753029  1
  Si  Si24  1  0.433803  0.865859  0.752402  1
  Si  Si25  1  0.135346  0.564855  0.754295  1
  Si  Si26  1  0.333292  0.666603  0.448898  1
  Si  Si27  1  0.666213  0.333756  0.551056  1
  Si  Si28  1  0.667907  0.334112  0.954174  1
  Si  Si29  1  0.334199  0.665696  0.042106  1
  Os  Os30  1  0.500921  0.500442  0.501644  1
  Os  Os31  1  0.498893  0.000367  0.500848  1
  Os  Os32  1  0.999880  0.500899  0.501566  1
  Os  Os33  1  0.504339  0.502464  0.000963  1
  Os  Os34  1  0.502560  0.001087  0.001183  1
  Os  Os35  1  0.000939  0.501941  0.002381  1
