# generated using pymatgen
data_Ho3Er13(CoHg)4
_symmetry_space_group_name_H-M   'P 1'
_cell_length_a   9.39756990
_cell_length_b   9.39827515
_cell_length_c   9.39827400
_cell_angle_alpha   60.00000405
_cell_angle_beta   59.99752153
_cell_angle_gamma   59.99752824
_symmetry_Int_Tables_number   1
_chemical_formula_structural   Ho3Er13(CoHg)4
_chemical_formula_sum   'Ho3 Er13 Co4 Hg4'
_cell_volume   586.92227161
_cell_formula_units_Z   1
loop_
 _symmetry_equiv_pos_site_id
 _symmetry_equiv_pos_as_xyz
  1  'x, y, z'
loop_
 _atom_site_type_symbol
 _atom_site_label
 _atom_site_symmetry_multiplicity
 _atom_site_fract_x
 _atom_site_fract_y
 _atom_site_fract_z
 _atom_site_occupancy
  Ho  Ho0  1  0.597626  0.597854  0.597854  1
  Ho  Ho1  1  0.597626  0.597854  0.206668  1
  Ho  Ho2  1  0.597626  0.206668  0.597854  1
  Er  Er3  1  0.206553  0.597816  0.597816  1
  Er  Er4  1  0.061757  0.438497  0.438497  1
  Er  Er5  1  0.438385  0.061607  0.061607  1
  Er  Er6  1  0.438385  0.061607  0.438401  1
  Er  Er7  1  0.061757  0.438497  0.061249  1
  Er  Er8  1  0.438385  0.438401  0.061607  1
  Er  Er9  1  0.061757  0.061249  0.438497  1
  Er  Er10  1  0.188416  0.811553  0.811553  1
  Er  Er11  1  0.811726  0.188303  0.188303  1
  Er  Er12  1  0.811726  0.188303  0.811668  1
  Er  Er13  1  0.188416  0.811553  0.188478  1
  Er  Er14  1  0.811726  0.811668  0.188303  1
  Er  Er15  1  0.188416  0.188478  0.811553  1
  Co  Co16  1  0.390841  0.391285  0.391285  1
  Co  Co17  1  0.390841  0.391285  0.826590  1
  Co  Co18  1  0.390841  0.826590  0.391285  1
  Co  Co19  1  0.826798  0.391068  0.391068  1
  Hg  Hg20  1  0.834169  0.833946  0.833946  1
  Hg  Hg21  1  0.834169  0.833946  0.497940  1
  Hg  Hg22  1  0.834169  0.497940  0.833946  1
  Hg  Hg23  1  0.497891  0.834036  0.834036  1
