# generated using pymatgen
data_Ca2Dy2GaSiIr4
_symmetry_space_group_name_H-M   'P 1'
_cell_length_a   5.70704673
_cell_length_b   5.70704687
_cell_length_c   7.62964324
_cell_angle_alpha   79.02594990
_cell_angle_beta   79.02595209
_cell_angle_gamma   58.79057103
_symmetry_Int_Tables_number   1
_chemical_formula_structural   Ca2Dy2GaSiIr4
_chemical_formula_sum   'Ca2 Dy2 Ga1 Si1 Ir4'
_cell_volume   207.40188527
_cell_formula_units_Z   1
loop_
 _symmetry_equiv_pos_site_id
 _symmetry_equiv_pos_as_xyz
  1  'x, y, z'
loop_
 _atom_site_type_symbol
 _atom_site_label
 _atom_site_symmetry_multiplicity
 _atom_site_fract_x
 _atom_site_fract_y
 _atom_site_fract_z
 _atom_site_occupancy
  Ca  Ca0  1  0.009841  0.284120  0.853999  1
  Ca  Ca1  1  0.715880  0.990159  0.646001  1
  Dy  Dy2  1  0.995064  0.713668  0.143879  1
  Dy  Dy3  1  0.286332  0.004936  0.356121  1
  Ga  Ga4  1  0.401218  0.598782  0.750000  1
  Si  Si5  1  0.591157  0.408843  0.250000  1
  Ir  Ir6  1  0.488242  0.776054  0.007306  1
  Ir  Ir7  1  0.223946  0.511758  0.492694  1
  Ir  Ir8  1  0.508842  0.220519  0.027784  1
  Ir  Ir9  1  0.779481  0.491158  0.472216  1
