# generated using pymatgen
data_ZrSc4Si12Ir19
_symmetry_space_group_name_H-M   'P 1'
_cell_length_a   12.73821800
_cell_length_b   12.73821903
_cell_length_c   3.92891500
_cell_angle_alpha   90.00000000
_cell_angle_beta   90.00000000
_cell_angle_gamma   120.00000252
_symmetry_Int_Tables_number   1
_chemical_formula_structural   ZrSc4Si12Ir19
_chemical_formula_sum   'Zr1 Sc4 Si12 Ir19'
_cell_volume   552.10368158
_cell_formula_units_Z   1
loop_
 _symmetry_equiv_pos_site_id
 _symmetry_equiv_pos_as_xyz
  1  'x, y, z'
loop_
 _atom_site_type_symbol
 _atom_site_label
 _atom_site_symmetry_multiplicity
 _atom_site_fract_x
 _atom_site_fract_y
 _atom_site_fract_z
 _atom_site_occupancy
  Zr  Zr0  1  0.333333  0.666667  0.000000  1
  Sc  Sc1  1  0.666667  0.333333  0.000000  1
  Sc  Sc2  1  0.815022  0.999574  0.500000  1
  Sc  Sc3  1  0.000426  0.815448  0.500000  1
  Sc  Sc4  1  0.184552  0.184978  0.500000  1
  Si  Si5  1  0.178770  0.999982  0.000000  1
  Si  Si6  1  0.000018  0.178788  0.000000  1
  Si  Si7  1  0.821212  0.821230  0.000000  1
  Si  Si8  1  0.169550  0.481331  0.500000  1
  Si  Si9  1  0.518669  0.688219  0.500000  1
  Si  Si10  1  0.311781  0.830450  0.500000  1
  Si  Si11  1  0.687821  0.517030  0.500000  1
  Si  Si12  1  0.829208  0.312179  0.500000  1
  Si  Si13  1  0.482970  0.170792  0.500000  1
  Si  Si14  1  0.635267  0.000426  0.000000  1
  Si  Si15  1  0.999574  0.634841  0.000000  1
  Si  Si16  1  0.365159  0.364733  0.000000  1
  Ir  Ir17  1  0.447586  0.999776  0.000000  1
  Ir  Ir18  1  0.000224  0.447810  0.000000  1
  Ir  Ir19  1  0.552190  0.552414  0.000000  1
  Ir  Ir20  1  0.361626  0.490250  0.500000  1
  Ir  Ir21  1  0.509750  0.871376  0.500000  1
  Ir  Ir22  1  0.128624  0.638374  0.500000  1
  Ir  Ir23  1  0.873325  0.511992  0.500000  1
  Ir  Ir24  1  0.638667  0.126675  0.500000  1
  Ir  Ir25  1  0.488008  0.361333  0.500000  1
  Ir  Ir26  1  0.182733  0.375947  0.000000  1
  Ir  Ir27  1  0.624053  0.806786  0.000000  1
  Ir  Ir28  1  0.193214  0.817267  0.000000  1
  Ir  Ir29  1  0.807066  0.624935  0.000000  1
  Ir  Ir30  1  0.817869  0.192934  0.000000  1
  Ir  Ir31  1  0.375065  0.182131  0.000000  1
  Ir  Ir32  1  0.281345  0.000167  0.500000  1
  Ir  Ir33  1  0.999833  0.281178  0.500000  1
  Ir  Ir34  1  0.718822  0.718655  0.500000  1
  Ir  Ir35  1  0.000000  0.000000  0.000000  1
