# generated using pymatgen
data_Cr3Sb8WSe4
_symmetry_space_group_name_H-M   'P 1'
_cell_length_a   6.42813800
_cell_length_b   6.42609093
_cell_length_c   18.60702242
_cell_angle_alpha   84.76840751
_cell_angle_beta   90.00000000
_cell_angle_gamma   90.00000000
_symmetry_Int_Tables_number   1
_chemical_formula_structural   Cr3Sb8WSe4
_chemical_formula_sum   'Cr6 Sb16 W2 Se8'
_cell_volume   765.41330708
_cell_formula_units_Z   2
loop_
 _symmetry_equiv_pos_site_id
 _symmetry_equiv_pos_as_xyz
  1  'x, y, z'
loop_
 _atom_site_type_symbol
 _atom_site_label
 _atom_site_symmetry_multiplicity
 _atom_site_fract_x
 _atom_site_fract_y
 _atom_site_fract_z
 _atom_site_occupancy
  Cr  Cr0  1  0.875731  0.673765  0.493833  1
  Cr  Cr1  1  0.375731  0.326235  0.006167  1
  Cr  Cr2  1  0.123852  0.326929  0.505087  1
  Cr  Cr3  1  0.623852  0.673071  0.994913  1
  Cr  Cr4  1  0.626044  0.325678  0.505068  1
  Cr  Cr5  1  0.126044  0.674322  0.994932  1
  Sb  Sb6  1  0.393836  0.218906  0.272076  1
  Sb  Sb7  1  0.893836  0.781094  0.227924  1
  Sb  Sb8  1  0.606075  0.786450  0.727402  1
  Sb  Sb9  1  0.106075  0.213550  0.772598  1
  Sb  Sb10  1  0.856888  0.210986  0.272076  1
  Sb  Sb11  1  0.356888  0.789014  0.227924  1
  Sb  Sb12  1  0.143770  0.786567  0.727745  1
  Sb  Sb13  1  0.643770  0.213433  0.772255  1
  Sb  Sb14  1  0.374405  0.087086  0.426741  1
  Sb  Sb15  1  0.874405  0.912914  0.073259  1
  Sb  Sb16  1  0.630937  0.922069  0.573221  1
  Sb  Sb17  1  0.130937  0.077931  0.926779  1
  Sb  Sb18  1  0.875207  0.081924  0.427477  1
  Sb  Sb19  1  0.375207  0.918076  0.072523  1
  Sb  Sb20  1  0.119121  0.922463  0.573510  1
  Sb  Sb21  1  0.619121  0.077537  0.926490  1
  W  W22  1  0.374342  0.669267  0.494177  1
  W  W23  1  0.874342  0.330733  0.005823  1
  Se  Se24  1  0.875029  0.410815  0.592883  1
  Se  Se25  1  0.375029  0.589185  0.907117  1
  Se  Se26  1  0.115987  0.585589  0.402645  1
  Se  Se27  1  0.615987  0.414411  0.097355  1
  Se  Se28  1  0.633833  0.586149  0.402826  1
  Se  Se29  1  0.133833  0.413851  0.097174  1
  Se  Se30  1  0.374943  0.392565  0.596781  1
  Se  Se31  1  0.874943  0.607435  0.903219  1
