# generated using pymatgen
data_HoPuReB6
_symmetry_space_group_name_H-M   'P 1'
_cell_length_a   3.67337900
_cell_length_b   9.17303100
_cell_length_c   11.51814500
_cell_angle_alpha   90.00000000
_cell_angle_beta   90.00000000
_cell_angle_gamma   90.00000000
_symmetry_Int_Tables_number   1
_chemical_formula_structural   HoPuReB6
_chemical_formula_sum   'Ho4 Pu4 Re4 B24'
_cell_volume   388.11563785
_cell_formula_units_Z   4
loop_
 _symmetry_equiv_pos_site_id
 _symmetry_equiv_pos_as_xyz
  1  'x, y, z'
loop_
 _atom_site_type_symbol
 _atom_site_label
 _atom_site_symmetry_multiplicity
 _atom_site_fract_x
 _atom_site_fract_y
 _atom_site_fract_z
 _atom_site_occupancy
  Ho  Ho0  1  0.000000  0.944397  0.373642  1
  Ho  Ho1  1  0.000000  0.055603  0.626358  1
  Ho  Ho2  1  0.000000  0.444397  0.126358  1
  Ho  Ho3  1  0.000000  0.555603  0.873642  1
  Pu  Pu4  1  0.000000  0.323119  0.413904  1
  Pu  Pu5  1  0.000000  0.676881  0.586096  1
  Pu  Pu6  1  0.000000  0.823119  0.086096  1
  Pu  Pu7  1  0.000000  0.176881  0.913904  1
  Re  Re8  1  0.000000  0.637727  0.321928  1
  Re  Re9  1  0.000000  0.362273  0.678072  1
  Re  Re10  1  0.000000  0.137727  0.178072  1
  Re  Re11  1  0.000000  0.862273  0.821928  1
  B  B12  1  0.500000  0.552628  0.433407  1
  B  B13  1  0.500000  0.447372  0.566593  1
  B  B14  1  0.500000  0.052628  0.066593  1
  B  B15  1  0.500000  0.947372  0.933407  1
  B  B16  1  0.500000  0.748012  0.420213  1
  B  B17  1  0.500000  0.251988  0.579787  1
  B  B18  1  0.500000  0.248012  0.079787  1
  B  B19  1  0.500000  0.751988  0.920213  1
  B  B20  1  0.500000  0.792909  0.265839  1
  B  B21  1  0.500000  0.207091  0.734161  1
  B  B22  1  0.500000  0.292909  0.234161  1
  B  B23  1  0.500000  0.707091  0.765839  1
  B  B24  1  0.500000  0.632857  0.185381  1
  B  B25  1  0.500000  0.367143  0.814619  1
  B  B26  1  0.500000  0.132857  0.314619  1
  B  B27  1  0.500000  0.867143  0.685381  1
  B  B28  1  0.500000  0.981718  0.212727  1
  B  B29  1  0.500000  0.018282  0.787273  1
  B  B30  1  0.500000  0.481718  0.287273  1
  B  B31  1  0.500000  0.518282  0.712727  1
  B  B32  1  0.500000  0.610699  0.030884  1
  B  B33  1  0.500000  0.389301  0.969116  1
  B  B34  1  0.500000  0.110699  0.469116  1
  B  B35  1  0.500000  0.889301  0.530884  1
