# generated using pymatgen
data_Pr2Nd8Tl5InBr2
_symmetry_space_group_name_H-M   'P 1'
_cell_length_a   9.62960600
_cell_length_b   9.61930783
_cell_length_c   6.86624600
_cell_angle_alpha   90.00000000
_cell_angle_beta   90.00000000
_cell_angle_gamma   120.03542059
_symmetry_Int_Tables_number   1
_chemical_formula_structural   Pr2Nd8Tl5InBr2
_chemical_formula_sum   'Pr2 Nd8 Tl5 In1 Br2'
_cell_volume   550.61395247
_cell_formula_units_Z   1
loop_
 _symmetry_equiv_pos_site_id
 _symmetry_equiv_pos_as_xyz
  1  'x, y, z'
loop_
 _atom_site_type_symbol
 _atom_site_label
 _atom_site_symmetry_multiplicity
 _atom_site_fract_x
 _atom_site_fract_y
 _atom_site_fract_z
 _atom_site_occupancy
  Pr  Pr0  1  0.000811  0.734699  0.250000  1
  Pr  Pr1  1  0.266113  0.265301  0.250000  1
  Nd  Nd2  1  0.265745  0.000000  0.750000  1
  Nd  Nd3  1  0.734993  0.000000  0.250000  1
  Nd  Nd4  1  0.998263  0.264590  0.750000  1
  Nd  Nd5  1  0.733672  0.735410  0.750000  1
  Nd  Nd6  1  0.334116  0.667402  0.501121  1
  Nd  Nd7  1  0.666716  0.332598  0.501121  1
  Nd  Nd8  1  0.666716  0.332598  0.998879  1
  Nd  Nd9  1  0.334116  0.667402  0.998879  1
  Tl  Tl10  1  0.392051  0.000000  0.250000  1
  Tl  Tl11  1  0.999456  0.609513  0.750000  1
  Tl  Tl12  1  0.999145  0.389708  0.250000  1
  Tl  Tl13  1  0.389943  0.390487  0.750000  1
  Tl  Tl14  1  0.609437  0.610292  0.250000  1
  In  In15  1  0.609055  0.000000  0.750000  1
  Br  Br16  1  0.999825  0.000000  0.501259  1
  Br  Br17  1  0.999825  0.000000  0.998741  1
