# generated using pymatgen
data_HoEr3(Si4Tc3)2
_symmetry_space_group_name_H-M   'P 1'
_cell_length_a   6.76336510
_cell_length_b   6.73596727
_cell_length_c   6.75760610
_cell_angle_alpha   69.83574803
_cell_angle_beta   90.01775498
_cell_angle_gamma   89.99824710
_symmetry_Int_Tables_number   1
_chemical_formula_structural   HoEr3(Si4Tc3)2
_chemical_formula_sum   'Ho1 Er3 Si8 Tc6'
_cell_volume   288.99231671
_cell_formula_units_Z   1
loop_
 _symmetry_equiv_pos_site_id
 _symmetry_equiv_pos_as_xyz
  1  'x, y, z'
loop_
 _atom_site_type_symbol
 _atom_site_label
 _atom_site_symmetry_multiplicity
 _atom_site_fract_x
 _atom_site_fract_y
 _atom_site_fract_z
 _atom_site_occupancy
  Ho  Ho0  1  0.667706  0.441968  0.191586  1
  Er  Er1  1  0.167933  0.058004  0.808101  1
  Er  Er2  1  0.332052  0.558011  0.808041  1
  Er  Er3  1  0.832044  0.941978  0.191846  1
  Si  Si4  1  0.449262  0.122692  0.102035  1
  Si  Si5  1  0.949539  0.377047  0.897734  1
  Si  Si6  1  0.550542  0.877282  0.897764  1
  Si  Si7  1  0.050952  0.623062  0.102055  1
  Si  Si8  1  0.859005  0.131331  0.512541  1
  Si  Si9  1  0.358561  0.368418  0.487869  1
  Si  Si10  1  0.141170  0.868390  0.487744  1
  Si  Si11  1  0.641193  0.631707  0.512599  1
  Tc  Tc12  1  0.499888  0.999733  0.500173  1
  Tc  Tc13  1  0.000165  0.500031  0.500128  1
  Tc  Tc14  1  0.150378  0.242784  0.238589  1
  Tc  Tc15  1  0.650379  0.257090  0.761247  1
  Tc  Tc16  1  0.849804  0.757302  0.761300  1
  Tc  Tc17  1  0.349425  0.743170  0.238649  1
