# generated using pymatgen
data_Dy2Ho8Cd3In5(PtAu)2
_symmetry_space_group_name_H-M   'P 1'
_cell_length_a   3.64528500
_cell_length_b   8.16379284
_cell_length_c   18.32162200
_cell_angle_alpha   90.06239953
_cell_angle_beta   90.00000000
_cell_angle_gamma   90.00000000
_symmetry_Int_Tables_number   1
_chemical_formula_structural   Dy2Ho8Cd3In5(PtAu)2
_chemical_formula_sum   'Dy2 Ho8 Cd3 In5 Pt2 Au2'
_cell_volume   545.23926741
_cell_formula_units_Z   1
loop_
 _symmetry_equiv_pos_site_id
 _symmetry_equiv_pos_as_xyz
  1  'x, y, z'
loop_
 _atom_site_type_symbol
 _atom_site_label
 _atom_site_symmetry_multiplicity
 _atom_site_fract_x
 _atom_site_fract_y
 _atom_site_fract_z
 _atom_site_occupancy
  Dy  Dy0  1  0.000000  0.000100  0.999922  1
  Dy  Dy1  1  0.000000  0.500014  0.499898  1
  Ho  Ho2  1  0.000000  0.119054  0.418708  1
  Ho  Ho3  1  0.000000  0.881323  0.581725  1
  Ho  Ho4  1  0.000000  0.383613  0.915171  1
  Ho  Ho5  1  0.000000  0.615477  0.084683  1
  Ho  Ho6  1  0.000000  0.256013  0.217184  1
  Ho  Ho7  1  0.000000  0.745374  0.782839  1
  Ho  Ho8  1  0.000000  0.269717  0.720618  1
  Ho  Ho9  1  0.000000  0.728947  0.279865  1
  Cd  Cd10  1  0.500000  0.422422  0.352605  1
  Cd  Cd11  1  0.500000  0.577423  0.647414  1
  Cd  Cd12  1  0.500000  0.077694  0.852708  1
  In  In13  1  0.500000  0.921612  0.147577  1
  In  In14  1  0.500000  0.291588  0.065094  1
  In  In15  1  0.500000  0.709702  0.934095  1
  In  In16  1  0.500000  0.211265  0.566890  1
  In  In17  1  0.500000  0.789161  0.432864  1
  Pt  Pt18  1  0.500000  0.472269  0.804359  1
  Pt  Pt19  1  0.500000  0.527442  0.195675  1
  Au  Au20  1  0.500000  0.028044  0.301703  1
  Au  Au21  1  0.500000  0.971747  0.698403  1
