# generated using pymatgen
data_Ca2YbSi(Ni3B)2
_symmetry_space_group_name_H-M   'P 1'
_cell_length_a   5.19960800
_cell_length_b   5.19960797
_cell_length_c   13.69860700
_cell_angle_alpha   90.00000000
_cell_angle_beta   90.00000000
_cell_angle_gamma   120.00001295
_symmetry_Int_Tables_number   1
_chemical_formula_structural   Ca2YbSi(Ni3B)2
_chemical_formula_sum   'Ca4 Yb2 Si2 Ni12 B4'
_cell_volume   320.73635180
_cell_formula_units_Z   2
loop_
 _symmetry_equiv_pos_site_id
 _symmetry_equiv_pos_as_xyz
  1  'x, y, z'
loop_
 _atom_site_type_symbol
 _atom_site_label
 _atom_site_symmetry_multiplicity
 _atom_site_fract_x
 _atom_site_fract_y
 _atom_site_fract_z
 _atom_site_occupancy
  Ca  Ca0  1  0.666667  0.333333  0.533520  1
  Ca  Ca1  1  0.333333  0.666667  0.466480  1
  Ca  Ca2  1  0.333333  0.666667  0.033520  1
  Ca  Ca3  1  0.666667  0.333333  0.966480  1
  Yb  Yb4  1  0.666667  0.333333  0.750000  1
  Yb  Yb5  1  0.333333  0.666667  0.250000  1
  Si  Si6  1  0.000000  0.000000  0.000000  1
  Si  Si7  1  0.000000  0.000000  0.500000  1
  Ni  Ni8  1  0.164628  0.329257  0.651598  1
  Ni  Ni9  1  0.329257  0.164628  0.348402  1
  Ni  Ni10  1  0.329257  0.164628  0.151598  1
  Ni  Ni11  1  0.164628  0.835372  0.848402  1
  Ni  Ni12  1  0.835372  0.670743  0.348402  1
  Ni  Ni13  1  0.835372  0.164628  0.151598  1
  Ni  Ni14  1  0.670743  0.835372  0.651598  1
  Ni  Ni15  1  0.670743  0.835372  0.848402  1
  Ni  Ni16  1  0.164628  0.835372  0.651598  1
  Ni  Ni17  1  0.835372  0.670743  0.151598  1
  Ni  Ni18  1  0.164628  0.329257  0.848402  1
  Ni  Ni19  1  0.835372  0.164628  0.348402  1
  B  B20  1  0.666667  0.333333  0.250000  1
  B  B21  1  0.000000  0.000000  0.750000  1
  B  B22  1  0.333333  0.666667  0.750000  1
  B  B23  1  0.000000  0.000000  0.250000  1
