# generated using pymatgen
data_Sm7Ho(Si3Rh)4
_symmetry_space_group_name_H-M   'P 1'
_cell_length_a   8.23786458
_cell_length_b   8.23876741
_cell_length_c   8.12800000
_cell_angle_alpha   90.00000000
_cell_angle_beta   90.00000000
_cell_angle_gamma   120.00361902
_symmetry_Int_Tables_number   1
_chemical_formula_structural   Sm7Ho(Si3Rh)4
_chemical_formula_sum   'Sm7 Ho1 Si12 Rh4'
_cell_volume   477.72215052
_cell_formula_units_Z   1
loop_
 _symmetry_equiv_pos_site_id
 _symmetry_equiv_pos_as_xyz
  1  'x, y, z'
loop_
 _atom_site_type_symbol
 _atom_site_label
 _atom_site_symmetry_multiplicity
 _atom_site_fract_x
 _atom_site_fract_y
 _atom_site_fract_z
 _atom_site_occupancy
  Sm  Sm0  1  0.999739  0.999869  0.250000  1
  Sm  Sm1  1  0.000336  0.000169  0.750000  1
  Sm  Sm2  1  0.507473  0.492650  0.250000  1
  Sm  Sm3  1  0.507473  0.014823  0.250000  1
  Sm  Sm4  1  0.985560  0.492780  0.250000  1
  Sm  Sm5  1  0.492026  0.507539  0.750000  1
  Sm  Sm6  1  0.492026  0.984487  0.750000  1
  Ho  Ho7  1  0.013860  0.506931  0.750000  1
  Si  Si8  1  0.166305  0.832274  0.502178  1
  Si  Si9  1  0.166305  0.334032  0.502178  1
  Si  Si10  1  0.666684  0.833343  0.500511  1
  Si  Si11  1  0.833435  0.167514  0.500540  1
  Si  Si12  1  0.833435  0.665920  0.500540  1
  Si  Si13  1  0.333867  0.166933  0.499937  1
  Si  Si14  1  0.833435  0.167514  0.999460  1
  Si  Si15  1  0.833435  0.665920  0.999460  1
  Si  Si16  1  0.333867  0.166933  0.000063  1
  Si  Si17  1  0.166305  0.832274  0.997822  1
  Si  Si18  1  0.166305  0.334032  0.997822  1
  Si  Si19  1  0.666684  0.833343  0.999489  1
  Rh  Rh20  1  0.332563  0.666282  0.472192  1
  Rh  Rh21  1  0.668159  0.334079  0.532466  1
  Rh  Rh22  1  0.668159  0.334079  0.967534  1
  Rh  Rh23  1  0.332563  0.666282  0.027808  1
