# generated using pymatgen
data_Pa6Ni20P13
_symmetry_space_group_name_H-M   'P 1'
_cell_length_a   12.67261700
_cell_length_b   12.67261740
_cell_length_c   3.78762600
_cell_angle_alpha   90.00000000
_cell_angle_beta   90.00000000
_cell_angle_gamma   119.99999636
_symmetry_Int_Tables_number   1
_chemical_formula_structural   Pa6Ni20P13
_chemical_formula_sum   'Pa6 Ni20 P13'
_cell_volume   526.78132383
_cell_formula_units_Z   1
loop_
 _symmetry_equiv_pos_site_id
 _symmetry_equiv_pos_as_xyz
  1  'x, y, z'
loop_
 _atom_site_type_symbol
 _atom_site_label
 _atom_site_symmetry_multiplicity
 _atom_site_fract_x
 _atom_site_fract_y
 _atom_site_fract_z
 _atom_site_occupancy
  Pa  Pa0  1  0.469846  0.187190  0.000000  1
  Pa  Pa1  1  0.717344  0.530154  0.000000  1
  Pa  Pa2  1  0.812810  0.282656  0.000000  1
  Pa  Pa3  1  0.533289  0.813197  0.500000  1
  Pa  Pa4  1  0.279910  0.466711  0.500000  1
  Pa  Pa5  1  0.186803  0.720090  0.500000  1
  Ni  Ni6  1  0.333333  0.666667  0.000000  1
  Ni  Ni7  1  0.666667  0.333333  0.500000  1
  Ni  Ni8  1  0.196343  0.087787  0.000000  1
  Ni  Ni9  1  0.891444  0.803657  0.000000  1
  Ni  Ni10  1  0.912213  0.108556  0.000000  1
  Ni  Ni11  1  0.848834  0.930390  0.500000  1
  Ni  Ni12  1  0.081556  0.151166  0.500000  1
  Ni  Ni13  1  0.069610  0.918444  0.500000  1
  Ni  Ni14  1  0.436971  0.414374  0.000000  1
  Ni  Ni15  1  0.977403  0.563029  0.000000  1
  Ni  Ni16  1  0.585626  0.022597  0.000000  1
  Ni  Ni17  1  0.564585  0.587751  0.500000  1
  Ni  Ni18  1  0.023166  0.435415  0.500000  1
  Ni  Ni19  1  0.412249  0.976834  0.500000  1
  Ni  Ni20  1  0.079820  0.323640  0.000000  1
  Ni  Ni21  1  0.243819  0.920180  0.000000  1
  Ni  Ni22  1  0.676360  0.756181  0.000000  1
  Ni  Ni23  1  0.928169  0.680673  0.500000  1
  Ni  Ni24  1  0.752504  0.071831  0.500000  1
  Ni  Ni25  1  0.319327  0.247496  0.500000  1
  P  P26  1  0.231101  0.276421  0.000000  1
  P  P27  1  0.045320  0.768899  0.000000  1
  P  P28  1  0.723579  0.954680  0.000000  1
  P  P29  1  0.769402  0.725767  0.500000  1
  P  P30  1  0.956365  0.230598  0.500000  1
  P  P31  1  0.274233  0.043635  0.500000  1
  P  P32  1  0.476321  0.611781  0.000000  1
  P  P33  1  0.135460  0.523679  0.000000  1
  P  P34  1  0.388219  0.864540  0.000000  1
  P  P35  1  0.521793  0.386150  0.500000  1
  P  P36  1  0.864358  0.478207  0.500000  1
  P  P37  1  0.613850  0.135642  0.500000  1
  P  P38  1  0.000000  0.000000  0.000000  1
