# generated using pymatgen
data_Nd8Hg3Ru
_symmetry_space_group_name_H-M   'P 1'
_cell_length_a   10.59607300
_cell_length_b   10.59607377
_cell_length_c   7.37866800
_cell_angle_alpha   90.00000000
_cell_angle_beta   90.00000000
_cell_angle_gamma   120.00000071
_symmetry_Int_Tables_number   1
_chemical_formula_structural   Nd8Hg3Ru
_chemical_formula_sum   'Nd16 Hg6 Ru2'
_cell_volume   717.46135490
_cell_formula_units_Z   2
loop_
 _symmetry_equiv_pos_site_id
 _symmetry_equiv_pos_as_xyz
  1  'x, y, z'
loop_
 _atom_site_type_symbol
 _atom_site_label
 _atom_site_symmetry_multiplicity
 _atom_site_fract_x
 _atom_site_fract_y
 _atom_site_fract_z
 _atom_site_occupancy
  Nd  Nd0  1  0.829133  0.658265  0.481134  1
  Nd  Nd1  1  0.341735  0.170867  0.481134  1
  Nd  Nd2  1  0.829133  0.170867  0.481134  1
  Nd  Nd3  1  0.170867  0.341735  0.981134  1
  Nd  Nd4  1  0.658265  0.829133  0.981134  1
  Nd  Nd5  1  0.170867  0.829133  0.981134  1
  Nd  Nd6  1  0.666667  0.333333  0.182345  1
  Nd  Nd7  1  0.333333  0.666667  0.682345  1
  Nd  Nd8  1  0.539128  0.078255  0.792247  1
  Nd  Nd9  1  0.921745  0.460872  0.792247  1
  Nd  Nd10  1  0.539128  0.460872  0.792247  1
  Nd  Nd11  1  0.460872  0.921745  0.292247  1
  Nd  Nd12  1  0.078255  0.539128  0.292247  1
  Nd  Nd13  1  0.460872  0.539128  0.292247  1
  Nd  Nd14  1  0.000000  0.000000  0.784360  1
  Nd  Nd15  1  0.000000  0.000000  0.284360  1
  Hg  Hg16  1  0.832105  0.664210  0.041413  1
  Hg  Hg17  1  0.335790  0.167895  0.041413  1
  Hg  Hg18  1  0.832105  0.167895  0.041413  1
  Hg  Hg19  1  0.167895  0.335790  0.541413  1
  Hg  Hg20  1  0.664210  0.832105  0.541413  1
  Hg  Hg21  1  0.167895  0.832105  0.541413  1
  Ru  Ru22  1  0.666667  0.333333  0.552033  1
  Ru  Ru23  1  0.333333  0.666667  0.052033  1
