# generated using pymatgen
data_HoU4Re3C8
_symmetry_space_group_name_H-M   'P 1'
_cell_length_a   11.36693700
_cell_length_b   11.36693700
_cell_length_c   3.26771800
_cell_angle_alpha   90.00000000
_cell_angle_beta   90.00000000
_cell_angle_gamma   90.00000000
_symmetry_Int_Tables_number   1
_chemical_formula_structural   HoU4Re3C8
_chemical_formula_sum   'Ho2 U8 Re6 C16'
_cell_volume   422.21287865
_cell_formula_units_Z   2
loop_
 _symmetry_equiv_pos_site_id
 _symmetry_equiv_pos_as_xyz
  1  'x, y, z'
loop_
 _atom_site_type_symbol
 _atom_site_label
 _atom_site_symmetry_multiplicity
 _atom_site_fract_x
 _atom_site_fract_y
 _atom_site_fract_z
 _atom_site_occupancy
  Ho  Ho0  1  0.000000  0.500000  0.000000  1
  Ho  Ho1  1  0.500000  0.000000  0.000000  1
  U  U2  1  0.270806  0.542007  0.500000  1
  U  U3  1  0.729194  0.457993  0.500000  1
  U  U4  1  0.542007  0.729194  0.500000  1
  U  U5  1  0.770806  0.957993  0.500000  1
  U  U6  1  0.229194  0.042007  0.500000  1
  U  U7  1  0.957993  0.229194  0.500000  1
  U  U8  1  0.457993  0.270806  0.500000  1
  U  U9  1  0.042007  0.770806  0.500000  1
  Re  Re10  1  0.203401  0.296599  0.000000  1
  Re  Re11  1  0.703401  0.203401  0.000000  1
  Re  Re12  1  0.296599  0.796599  0.000000  1
  Re  Re13  1  0.500000  0.500000  0.000000  1
  Re  Re14  1  0.796599  0.703401  0.000000  1
  Re  Re15  1  0.000000  0.000000  0.000000  1
  C  C16  1  0.347470  0.402438  0.000000  1
  C  C17  1  0.618806  0.118806  0.500000  1
  C  C18  1  0.902438  0.847470  0.000000  1
  C  C19  1  0.654894  0.845106  0.000000  1
  C  C20  1  0.345106  0.154894  0.000000  1
  C  C21  1  0.118806  0.381194  0.500000  1
  C  C22  1  0.152530  0.902438  0.000000  1
  C  C23  1  0.845106  0.345106  0.000000  1
  C  C24  1  0.652530  0.597562  0.000000  1
  C  C25  1  0.597562  0.347470  0.000000  1
  C  C26  1  0.881194  0.618806  0.500000  1
  C  C27  1  0.847470  0.097562  0.000000  1
  C  C28  1  0.381194  0.881194  0.500000  1
  C  C29  1  0.154894  0.654894  0.000000  1
  C  C30  1  0.097562  0.152530  0.000000  1
  C  C31  1  0.402438  0.652530  0.000000  1
