# generated using pymatgen
data_Ce3Ho7(Si2Ru3)2
_symmetry_space_group_name_H-M   'P 1'
_cell_length_a   8.30735879
_cell_length_b   8.30735798
_cell_length_c   8.30735853
_cell_angle_alpha   110.11388922
_cell_angle_beta   110.11389279
_cell_angle_gamma   110.11389591
_symmetry_Int_Tables_number   1
_chemical_formula_structural   Ce3Ho7(Si2Ru3)2
_chemical_formula_sum   'Ce3 Ho7 Si4 Ru6'
_cell_volume   430.51245256
_cell_formula_units_Z   1
loop_
 _symmetry_equiv_pos_site_id
 _symmetry_equiv_pos_as_xyz
  1  'x, y, z'
loop_
 _atom_site_type_symbol
 _atom_site_label
 _atom_site_symmetry_multiplicity
 _atom_site_fract_x
 _atom_site_fract_y
 _atom_site_fract_z
 _atom_site_occupancy
  Ce  Ce0  1  0.253292  0.208657  0.956417  1
  Ce  Ce1  1  0.956417  0.253292  0.208657  1
  Ce  Ce2  1  0.208657  0.956417  0.253292  1
  Ho  Ho3  1  0.767106  0.767106  0.767106  1
  Ho  Ho4  1  0.304798  0.558565  0.751030  1
  Ho  Ho5  1  0.751030  0.304798  0.558565  1
  Ho  Ho6  1  0.558565  0.751030  0.304798  1
  Ho  Ho7  1  0.731801  0.503473  0.995745  1
  Ho  Ho8  1  0.995745  0.731801  0.503473  1
  Ho  Ho9  1  0.503473  0.995745  0.731801  1
  Si  Si10  1  0.402180  0.402180  0.402180  1
  Si  Si11  1  0.099134  0.500301  0.999971  1
  Si  Si12  1  0.999971  0.099134  0.500301  1
  Si  Si13  1  0.500301  0.999971  0.099134  1
  Ru  Ru14  1  0.902371  0.126689  0.751892  1
  Ru  Ru15  1  0.751892  0.902371  0.126689  1
  Ru  Ru16  1  0.126689  0.751892  0.902371  1
  Ru  Ru17  1  0.228174  0.599128  0.359277  1
  Ru  Ru18  1  0.359277  0.228174  0.599128  1
  Ru  Ru19  1  0.599128  0.359277  0.228174  1
