# generated using pymatgen
data_Ti4VTcIr2
_symmetry_space_group_name_H-M   'P 1'
_cell_length_a   6.20377400
_cell_length_b   4.39570700
_cell_length_c   8.77872700
_cell_angle_alpha   90.00000000
_cell_angle_beta   90.00001576
_cell_angle_gamma   90.00000000
_symmetry_Int_Tables_number   1
_chemical_formula_structural   Ti4VTcIr2
_chemical_formula_sum   'Ti8 V2 Tc2 Ir4'
_cell_volume   239.39564649
_cell_formula_units_Z   2
loop_
 _symmetry_equiv_pos_site_id
 _symmetry_equiv_pos_as_xyz
  1  'x, y, z'
loop_
 _atom_site_type_symbol
 _atom_site_label
 _atom_site_symmetry_multiplicity
 _atom_site_fract_x
 _atom_site_fract_y
 _atom_site_fract_z
 _atom_site_occupancy
  Ti  Ti0  1  0.000570  0.749999  0.124019  1
  Ti  Ti1  1  0.499474  0.749999  0.124022  1
  Ti  Ti2  1  0.999945  0.249999  0.376177  1
  Ti  Ti3  1  0.500108  0.249999  0.376179  1
  Ti  Ti4  1  0.501239  0.749999  0.626184  1
  Ti  Ti5  1  0.998706  0.749999  0.626187  1
  Ti  Ti6  1  0.498645  0.249999  0.873577  1
  Ti  Ti7  1  0.001311  0.249999  0.873580  1
  V  V8  1  0.750025  0.249999  0.124544  1
  V  V9  1  0.250019  0.749999  0.375531  1
  Tc  Tc10  1  0.749984  0.249999  0.625758  1
  Tc  Tc11  1  0.249978  0.749999  0.874194  1
  Ir  Ir12  1  0.250022  0.249999  0.127989  1
  Ir  Ir13  1  0.750021  0.749999  0.372000  1
  Ir  Ir14  1  0.249977  0.249999  0.622546  1
  Ir  Ir15  1  0.749977  0.749999  0.877514  1
