# generated using pymatgen
data_Tm4MoOs6W
_symmetry_space_group_name_H-M   'P 1'
_cell_length_a   5.52347635
_cell_length_b   5.23558436
_cell_length_c   8.90983100
_cell_angle_alpha   90.00000000
_cell_angle_beta   90.00000000
_cell_angle_gamma   121.87021900
_symmetry_Int_Tables_number   1
_chemical_formula_structural   Tm4MoOs6W
_chemical_formula_sum   'Tm4 Mo1 Os6 W1'
_cell_volume   218.81684954
_cell_formula_units_Z   1
loop_
 _symmetry_equiv_pos_site_id
 _symmetry_equiv_pos_as_xyz
  1  'x, y, z'
loop_
 _atom_site_type_symbol
 _atom_site_label
 _atom_site_symmetry_multiplicity
 _atom_site_fract_x
 _atom_site_fract_y
 _atom_site_fract_z
 _atom_site_occupancy
  Tm  Tm0  1  0.670142  0.340239  0.564449  1
  Tm  Tm1  1  0.330787  0.661222  0.434709  1
  Tm  Tm2  1  0.330787  0.661222  0.065291  1
  Tm  Tm3  1  0.670142  0.340239  0.935551  1
  Mo  Mo4  1  0.831180  0.666842  0.250000  1
  Os  Os5  1  0.004178  0.002213  0.500129  1
  Os  Os6  1  0.004178  0.002213  0.999871  1
  Os  Os7  1  0.172491  0.823860  0.750000  1
  Os  Os8  1  0.650368  0.823935  0.750000  1
  Os  Os9  1  0.825742  0.173990  0.250000  1
  Os  Os10  1  0.346713  0.173512  0.250000  1
  W  W11  1  0.163292  0.330514  0.750000  1
