# generated using pymatgen
data_Tm2MnOs3
_symmetry_space_group_name_H-M   'P 1'
_cell_length_a   5.31221901
_cell_length_b   5.31221916
_cell_length_c   8.56628500
_cell_angle_alpha   90.00000000
_cell_angle_beta   90.00000000
_cell_angle_gamma   119.99654235
_symmetry_Int_Tables_number   1
_chemical_formula_structural   Tm2MnOs3
_chemical_formula_sum   'Tm4 Mn2 Os6'
_cell_volume   209.35832594
_cell_formula_units_Z   2
loop_
 _symmetry_equiv_pos_site_id
 _symmetry_equiv_pos_as_xyz
  1  'x, y, z'
loop_
 _atom_site_type_symbol
 _atom_site_label
 _atom_site_symmetry_multiplicity
 _atom_site_fract_x
 _atom_site_fract_y
 _atom_site_fract_z
 _atom_site_occupancy
  Tm  Tm0  1  0.666673  0.333327  0.566073  1
  Tm  Tm1  1  0.333327  0.666673  0.433927  1
  Tm  Tm2  1  0.333327  0.666673  0.066073  1
  Tm  Tm3  1  0.666673  0.333327  0.933927  1
  Mn  Mn4  1  0.000000  0.000000  0.500000  1
  Mn  Mn5  1  0.000000  0.000000  0.000000  1
  Os  Os6  1  0.169615  0.339226  0.750000  1
  Os  Os7  1  0.169596  0.830404  0.750000  1
  Os  Os8  1  0.660774  0.830385  0.750000  1
  Os  Os9  1  0.830385  0.660774  0.250000  1
  Os  Os10  1  0.830404  0.169596  0.250000  1
  Os  Os11  1  0.339226  0.169615  0.250000  1
