# generated using pymatgen
data_La8Gd2Ir3Os
_symmetry_space_group_name_H-M   'P 1'
_cell_length_a   6.68844065
_cell_length_b   7.30845476
_cell_length_c   9.09362600
_cell_angle_alpha   95.42198354
_cell_angle_beta   111.41052863
_cell_angle_gamma   90.11382985
_symmetry_Int_Tables_number   1
_chemical_formula_structural   La8Gd2Ir3Os
_chemical_formula_sum   'La8 Gd2 Ir3 Os1'
_cell_volume   411.66865411
_cell_formula_units_Z   1
loop_
 _symmetry_equiv_pos_site_id
 _symmetry_equiv_pos_as_xyz
  1  'x, y, z'
loop_
 _atom_site_type_symbol
 _atom_site_label
 _atom_site_symmetry_multiplicity
 _atom_site_fract_x
 _atom_site_fract_y
 _atom_site_fract_z
 _atom_site_occupancy
  La  La0  1  0.796091  0.085582  0.816379  1
  La  La1  1  0.979987  0.416039  0.179449  1
  La  La2  1  0.201038  0.917681  0.182158  1
  La  La3  1  0.014742  0.582615  0.817616  1
  La  La4  1  0.219504  0.185393  0.573674  1
  La  La5  1  0.642090  0.315568  0.428855  1
  La  La6  1  0.784227  0.815186  0.427344  1
  La  La7  1  0.358531  0.682619  0.575619  1
  Gd  Gd8  1  0.434030  0.251447  0.999317  1
  Gd  Gd9  1  0.565359  0.748038  0.998784  1
  Ir  Ir10  1  0.811001  0.072746  0.214172  1
  Ir  Ir11  1  0.401175  0.574937  0.213159  1
  Ir  Ir12  1  0.189184  0.925954  0.787075  1
  Os  Os13  1  0.603039  0.426194  0.786398  1
