# generated using pymatgen
data_Ta12Mn4Al8CN3
_symmetry_space_group_name_H-M   'P 1'
_cell_length_a   8.19364871
_cell_length_b   8.18278864
_cell_length_c   8.18278900
_cell_angle_alpha   60.00000257
_cell_angle_beta   60.04383764
_cell_angle_gamma   60.04383356
_symmetry_Int_Tables_number   1
_chemical_formula_structural   Ta12Mn4Al8CN3
_chemical_formula_sum   'Ta12 Mn4 Al8 C1 N3'
_cell_volume   388.19726575
_cell_formula_units_Z   1
loop_
 _symmetry_equiv_pos_site_id
 _symmetry_equiv_pos_as_xyz
  1  'x, y, z'
loop_
 _atom_site_type_symbol
 _atom_site_label
 _atom_site_symmetry_multiplicity
 _atom_site_fract_x
 _atom_site_fract_y
 _atom_site_fract_z
 _atom_site_occupancy
  Ta  Ta0  1  0.554403  0.946141  0.553315  1
  Ta  Ta1  1  0.303323  0.697042  0.697042  1
  Ta  Ta2  1  0.695597  0.303859  0.303859  1
  Ta  Ta3  1  0.303323  0.697042  0.302594  1
  Ta  Ta4  1  0.695597  0.696685  0.303859  1
  Ta  Ta5  1  0.303323  0.302594  0.697042  1
  Ta  Ta6  1  0.554403  0.553315  0.946141  1
  Ta  Ta7  1  0.946677  0.552958  0.552958  1
  Ta  Ta8  1  0.554403  0.946141  0.946141  1
  Ta  Ta9  1  0.946677  0.947406  0.552958  1
  Ta  Ta10  1  0.695597  0.303859  0.696685  1
  Ta  Ta11  1  0.946677  0.552958  0.947406  1
  Mn  Mn12  1  0.125000  0.125000  0.125000  1
  Mn  Mn13  1  0.625000  0.125000  0.125000  1
  Mn  Mn14  1  0.125000  0.625000  0.125000  1
  Mn  Mn15  1  0.125000  0.125000  0.625000  1
  Al  Al16  1  0.918081  0.917291  0.917291  1
  Al  Al17  1  0.002996  0.332334  0.332334  1
  Al  Al18  1  0.331919  0.002662  0.332709  1
  Al  Al19  1  0.331919  0.332709  0.002662  1
  Al  Al20  1  0.918081  0.247338  0.917291  1
  Al  Al21  1  0.918081  0.917291  0.247338  1
  Al  Al22  1  0.247004  0.917666  0.917666  1
  Al  Al23  1  0.331919  0.332709  0.332709  1
  C  C24  1  0.125000  0.625000  0.625000  1
  N  N25  1  0.625000  0.625000  0.625000  1
  N  N26  1  0.625000  0.125000  0.625000  1
  N  N27  1  0.625000  0.625000  0.125000  1
