# generated using pymatgen
data_Pr2SnAs2PdRh4
_symmetry_space_group_name_H-M   'P 1'
_cell_length_a   4.08453400
_cell_length_b   4.08453400
_cell_length_c   11.55388900
_cell_angle_alpha   90.00000000
_cell_angle_beta   90.00000000
_cell_angle_gamma   90.00000000
_symmetry_Int_Tables_number   1
_chemical_formula_structural   Pr2SnAs2PdRh4
_chemical_formula_sum   'Pr2 Sn1 As2 Pd1 Rh4'
_cell_volume   192.75835968
_cell_formula_units_Z   1
loop_
 _symmetry_equiv_pos_site_id
 _symmetry_equiv_pos_as_xyz
  1  'x, y, z'
loop_
 _atom_site_type_symbol
 _atom_site_label
 _atom_site_symmetry_multiplicity
 _atom_site_fract_x
 _atom_site_fract_y
 _atom_site_fract_z
 _atom_site_occupancy
  Pr  Pr0  1  0.000000  0.500000  0.249195  1
  Pr  Pr1  1  0.500000  0.000000  0.750805  1
  Sn  Sn2  1  0.000000  0.000000  0.500000  1
  As  As3  1  0.000000  0.500000  0.875664  1
  As  As4  1  0.500000  0.000000  0.124336  1
  Pd  Pd5  1  0.500000  0.500000  0.500000  1
  Rh  Rh6  1  0.000000  0.000000  0.000000  1
  Rh  Rh7  1  0.500000  0.500000  0.000000  1
  Rh  Rh8  1  0.000000  0.500000  0.667010  1
  Rh  Rh9  1  0.500000  0.000000  0.332990  1
