# generated using pymatgen
data_Tb4Er4Ti3Si16Mo9
_symmetry_space_group_name_H-M   'P 1'
_cell_length_a   6.91382453
_cell_length_b   6.91394080
_cell_length_c   12.80673526
_cell_angle_alpha   90.01348914
_cell_angle_beta   90.01619814
_cell_angle_gamma   89.81341736
_symmetry_Int_Tables_number   1
_chemical_formula_structural   Tb4Er4Ti3Si16Mo9
_chemical_formula_sum   'Tb4 Er4 Ti3 Si16 Mo9'
_cell_volume   612.18137058
_cell_formula_units_Z   1
loop_
 _symmetry_equiv_pos_site_id
 _symmetry_equiv_pos_as_xyz
  1  'x, y, z'
loop_
 _atom_site_type_symbol
 _atom_site_label
 _atom_site_symmetry_multiplicity
 _atom_site_fract_x
 _atom_site_fract_y
 _atom_site_fract_z
 _atom_site_occupancy
  Tb  Tb0  1  0.338846  0.002328  0.468613  1
  Tb  Tb1  1  0.496586  0.838526  0.719358  1
  Tb  Tb2  1  0.499865  0.162099  0.217153  1
  Tb  Tb3  1  0.838746  0.496715  0.280798  1
  Er  Er4  1  0.161279  0.498831  0.782826  1
  Er  Er5  1  0.659412  0.000188  0.968647  1
  Er  Er6  1  0.001293  0.339921  0.531775  1
  Er  Er7  1  0.000391  0.659455  0.030838  1
  Ti  Ti8  1  0.169990  0.831395  0.248267  1
  Ti  Ti9  1  0.831544  0.170275  0.751751  1
  Ti  Ti10  1  0.668875  0.668740  0.500255  1
  Si  Si11  1  0.199831  0.130380  0.684020  1
  Si  Si12  1  0.373342  0.696855  0.934222  1
  Si  Si13  1  0.628864  0.299367  0.434699  1
  Si  Si14  1  0.697843  0.374381  0.064795  1
  Si  Si15  1  0.298239  0.626580  0.566340  1
  Si  Si16  1  0.797502  0.872038  0.183445  1
  Si  Si17  1  0.127642  0.201144  0.316149  1
  Si  Si18  1  0.872871  0.796526  0.816556  1
  Si  Si19  1  0.287624  0.962923  0.061009  1
  Si  Si20  1  0.539470  0.789920  0.313209  1
  Si  Si21  1  0.458103  0.212045  0.815445  1
  Si  Si22  1  0.792200  0.538850  0.686671  1
  Si  Si23  1  0.211206  0.459078  0.184381  1
  Si  Si24  1  0.711825  0.041653  0.563785  1
  Si  Si25  1  0.963652  0.288356  0.938316  1
  Si  Si26  1  0.040851  0.709684  0.436747  1
  Mo  Mo27  1  0.331023  0.331913  0.999351  1
  Mo  Mo28  1  0.155122  0.002479  0.873467  1
  Mo  Mo29  1  0.496202  0.666984  0.123781  1
  Mo  Mo30  1  0.506334  0.340592  0.625369  1
  Mo  Mo31  1  0.667288  0.496466  0.875452  1
  Mo  Mo32  1  0.339276  0.505542  0.375698  1
  Mo  Mo33  1  0.840912  0.992377  0.374531  1
  Mo  Mo34  1  0.002601  0.155362  0.125960  1
  Mo  Mo35  1  0.993353  0.840035  0.626321  1
