# generated using pymatgen
data_Ce2YZnHg2Pd3
_symmetry_space_group_name_H-M   'P 1'
_cell_length_a   7.58957350
_cell_length_b   7.60733796
_cell_length_c   3.94292800
_cell_angle_alpha   90.00000000
_cell_angle_beta   90.00000000
_cell_angle_gamma   119.82940467
_symmetry_Int_Tables_number   1
_chemical_formula_structural   Ce2YZnHg2Pd3
_chemical_formula_sum   'Ce2 Y1 Zn1 Hg2 Pd3'
_cell_volume   197.48929635
_cell_formula_units_Z   1
loop_
 _symmetry_equiv_pos_site_id
 _symmetry_equiv_pos_as_xyz
  1  'x, y, z'
loop_
 _atom_site_type_symbol
 _atom_site_label
 _atom_site_symmetry_multiplicity
 _atom_site_fract_x
 _atom_site_fract_y
 _atom_site_fract_z
 _atom_site_occupancy
  Ce  Ce0  1  0.597663  0.600284  0.000000  1
  Ce  Ce1  1  0.413549  0.001064  0.000000  1
  Y  Y2  1  0.997118  0.397933  0.000000  1
  Zn  Zn3  1  0.745854  0.007185  0.500000  1
  Hg  Hg4  1  0.003745  0.738863  0.500000  1
  Hg  Hg5  1  0.253177  0.255466  0.500000  1
  Pd  Pd6  1  0.968140  0.995247  0.000000  1
  Pd  Pd7  1  0.666100  0.322907  0.500000  1
  Pd  Pd8  1  0.354656  0.681051  0.500000  1
