# generated using pymatgen
data_Pr3Dy7(TlSb)4
_symmetry_space_group_name_H-M   'P 1'
_cell_length_a   9.08113876
_cell_length_b   8.53747975
_cell_length_c   8.14954400
_cell_angle_alpha   89.55744631
_cell_angle_beta   89.90393430
_cell_angle_gamma   125.25438138
_symmetry_Int_Tables_number   1
_chemical_formula_structural   Pr3Dy7(TlSb)4
_chemical_formula_sum   'Pr3 Dy7 Tl4 Sb4'
_cell_volume   515.92443534
_cell_formula_units_Z   1
loop_
 _symmetry_equiv_pos_site_id
 _symmetry_equiv_pos_as_xyz
  1  'x, y, z'
loop_
 _atom_site_type_symbol
 _atom_site_label
 _atom_site_symmetry_multiplicity
 _atom_site_fract_x
 _atom_site_fract_y
 _atom_site_fract_z
 _atom_site_occupancy
  Pr  Pr0  1  0.051081  0.354486  0.320872  1
  Pr  Pr1  1  0.950872  0.651641  0.679257  1
  Pr  Pr2  1  0.447863  0.148322  0.823254  1
  Dy  Dy3  1  0.779374  0.515395  0.160360  1
  Dy  Dy4  1  0.549058  0.840114  0.174903  1
  Dy  Dy5  1  0.217897  0.482833  0.837235  1
  Dy  Dy6  1  0.721022  0.986678  0.660447  1
  Dy  Dy7  1  0.282100  0.018012  0.338086  1
  Dy  Dy8  1  0.000020  0.999703  0.000699  1
  Dy  Dy9  1  0.501428  0.501818  0.499467  1
  Tl  Tl10  1  0.368148  0.372110  0.130736  1
  Tl  Tl11  1  0.630865  0.630979  0.869014  1
  Tl  Tl12  1  0.130511  0.128952  0.629833  1
  Tl  Tl13  1  0.866907  0.873705  0.365801  1
  Sb  Sb14  1  0.814681  0.222599  0.974490  1
  Sb  Sb15  1  0.182769  0.765307  0.037044  1
  Sb  Sb16  1  0.678981  0.273129  0.471771  1
  Sb  Sb17  1  0.326424  0.734218  0.526730  1
