# generated using pymatgen
data_Ho4MgNi2Hg
_symmetry_space_group_name_H-M   'P 1'
_cell_length_a   8.52129417
_cell_length_b   8.52129445
_cell_length_c   8.52129418
_cell_angle_alpha   128.40019913
_cell_angle_beta   128.40020355
_cell_angle_gamma   75.97761239
_symmetry_Int_Tables_number   1
_chemical_formula_structural   Ho4MgNi2Hg
_chemical_formula_sum   'Ho8 Mg2 Ni4 Hg2'
_cell_volume   369.49773876
_cell_formula_units_Z   2
loop_
 _symmetry_equiv_pos_site_id
 _symmetry_equiv_pos_as_xyz
  1  'x, y, z'
loop_
 _atom_site_type_symbol
 _atom_site_label
 _atom_site_symmetry_multiplicity
 _atom_site_fract_x
 _atom_site_fract_y
 _atom_site_fract_z
 _atom_site_occupancy
  Ho  Ho0  1  0.042630  0.542630  0.842995  1
  Ho  Ho1  1  0.699635  0.199635  0.157005  1
  Ho  Ho2  1  0.542630  0.699635  0.500000  1
  Ho  Ho3  1  0.199635  0.042630  0.500000  1
  Ho  Ho4  1  0.957370  0.457370  0.157005  1
  Ho  Ho5  1  0.300365  0.800365  0.842995  1
  Ho  Ho6  1  0.457370  0.300365  0.500000  1
  Ho  Ho7  1  0.800365  0.957370  0.500000  1
  Mg  Mg8  1  0.000000  0.000000  0.000000  1
  Mg  Mg9  1  0.500000  0.500000  0.000000  1
  Ni  Ni10  1  0.373914  0.873914  0.247826  1
  Ni  Ni11  1  0.626086  0.126086  0.752174  1
  Ni  Ni12  1  0.873914  0.626086  0.500000  1
  Ni  Ni13  1  0.126086  0.373914  0.500000  1
  Hg  Hg14  1  0.750000  0.750000  0.000000  1
  Hg  Hg15  1  0.250000  0.250000  0.000000  1
