# generated using pymatgen
data_Pr3Zr4BiF28
_symmetry_space_group_name_H-M   'P 1'
_cell_length_a   5.91825549
_cell_length_b   9.43610001
_cell_length_c   12.61557070
_cell_angle_alpha   61.84530275
_cell_angle_beta   90.05020588
_cell_angle_gamma   89.92610364
_symmetry_Int_Tables_number   1
_chemical_formula_structural   Pr3Zr4BiF28
_chemical_formula_sum   'Pr3 Zr4 Bi1 F28'
_cell_volume   621.15729478
_cell_formula_units_Z   1
loop_
 _symmetry_equiv_pos_site_id
 _symmetry_equiv_pos_as_xyz
  1  'x, y, z'
loop_
 _atom_site_type_symbol
 _atom_site_label
 _atom_site_symmetry_multiplicity
 _atom_site_fract_x
 _atom_site_fract_y
 _atom_site_fract_z
 _atom_site_occupancy
  Pr  Pr0  1  0.743683  0.812623  0.266227  1
  Pr  Pr1  1  0.242956  0.187199  0.233180  1
  Pr  Pr2  1  0.255823  0.188162  0.733878  1
  Zr  Zr3  1  0.745194  0.273427  0.455725  1
  Zr  Zr4  1  0.245194  0.725833  0.043183  1
  Zr  Zr5  1  0.256190  0.726516  0.545933  1
  Zr  Zr6  1  0.754839  0.275723  0.954915  1
  Bi  Bi7  1  0.759274  0.817411  0.764497  1
  F  F8  1  0.461451  0.712125  0.923501  1
  F  F9  1  0.961435  0.286810  0.576755  1
  F  F10  1  0.538220  0.287737  0.075970  1
  F  F11  1  0.038506  0.712949  0.425289  1
  F  F12  1  0.463622  0.281604  0.547893  1
  F  F13  1  0.961465  0.718564  0.951339  1
  F  F14  1  0.536332  0.716735  0.453628  1
  F  F15  1  0.037745  0.283137  0.046310  1
  F  F16  1  0.765364  0.518082  0.860107  1
  F  F17  1  0.265467  0.481160  0.640323  1
  F  F18  1  0.233447  0.481302  0.138919  1
  F  F19  1  0.734470  0.517347  0.361612  1
  F  F20  1  0.760823  0.031037  0.056403  1
  F  F21  1  0.260806  0.970281  0.443942  1
  F  F22  1  0.239912  0.970408  0.942421  1
  F  F23  1  0.740511  0.027987  0.557993  1
  F  F24  1  0.991223  0.734443  0.646549  1
  F  F25  1  0.490799  0.265498  0.853802  1
  F  F26  1  0.010879  0.265879  0.355890  1
  F  F27  1  0.509493  0.733082  0.144773  1
  F  F28  1  0.038305  0.744605  0.167187  1
  F  F29  1  0.539831  0.254035  0.332263  1
  F  F30  1  0.960483  0.255346  0.831023  1
  F  F31  1  0.462396  0.746819  0.668782  1
  F  F32  1  0.422457  0.970308  0.233691  1
  F  F33  1  0.922439  0.029614  0.266194  1
  F  F34  1  0.579578  0.025481  0.765898  1
  F  F35  1  0.069387  0.970733  0.733999  1
