# generated using pymatgen
data_TbCe3(SiTc)4
_symmetry_space_group_name_H-M   'P 1'
_cell_length_a   4.52440100
_cell_length_b   7.21793003
_cell_length_c   6.84019066
_cell_angle_alpha   88.50318540
_cell_angle_beta   90.00000000
_cell_angle_gamma   90.00000000
_symmetry_Int_Tables_number   1
_chemical_formula_structural   TbCe3(SiTc)4
_chemical_formula_sum   'Tb1 Ce3 Si4 Tc4'
_cell_volume   223.30258434
_cell_formula_units_Z   1
loop_
 _symmetry_equiv_pos_site_id
 _symmetry_equiv_pos_as_xyz
  1  'x, y, z'
loop_
 _atom_site_type_symbol
 _atom_site_label
 _atom_site_symmetry_multiplicity
 _atom_site_fract_x
 _atom_site_fract_y
 _atom_site_fract_z
 _atom_site_occupancy
  Tb  Tb0  1  0.750000  0.524044  0.320042  1
  Ce  Ce1  1  0.250000  0.973294  0.822133  1
  Ce  Ce2  1  0.750000  0.030022  0.177392  1
  Ce  Ce3  1  0.250000  0.471574  0.688614  1
  Si  Si4  1  0.250000  0.312138  0.116611  1
  Si  Si5  1  0.750000  0.692476  0.888592  1
  Si  Si6  1  0.250000  0.805657  0.388523  1
  Si  Si7  1  0.750000  0.191464  0.609039  1
  Tc  Tc8  1  0.750000  0.855629  0.554848  1
  Tc  Tc9  1  0.250000  0.148565  0.444102  1
  Tc  Tc10  1  0.750000  0.344925  0.938112  1
  Tc  Tc11  1  0.250000  0.650211  0.051990  1
