# generated using pymatgen
data_Li4TbHo3Si8
_symmetry_space_group_name_H-M   'P 1'
_cell_length_a   3.79107100
_cell_length_b   7.57808999
_cell_length_c   10.15222529
_cell_angle_alpha   90.00487369
_cell_angle_beta   90.00000000
_cell_angle_gamma   90.00000000
_symmetry_Int_Tables_number   1
_chemical_formula_structural   Li4TbHo3Si8
_chemical_formula_sum   'Li4 Tb1 Ho3 Si8'
_cell_volume   291.66406321
_cell_formula_units_Z   1
loop_
 _symmetry_equiv_pos_site_id
 _symmetry_equiv_pos_as_xyz
  1  'x, y, z'
loop_
 _atom_site_type_symbol
 _atom_site_label
 _atom_site_symmetry_multiplicity
 _atom_site_fract_x
 _atom_site_fract_y
 _atom_site_fract_z
 _atom_site_occupancy
  Li  Li0  1  0.250000  0.992187  0.392205  1
  Li  Li1  1  0.750000  0.011375  0.608677  1
  Li  Li2  1  0.250000  0.488681  0.108220  1
  Li  Li3  1  0.750000  0.509750  0.893133  1
  Tb  Tb4  1  0.750000  0.361385  0.363504  1
  Ho  Ho5  1  0.250000  0.136439  0.863267  1
  Ho  Ho6  1  0.750000  0.861055  0.135805  1
  Ho  Ho7  1  0.250000  0.638684  0.636092  1
  Si  Si8  1  0.750000  0.265322  0.066165  1
  Si  Si9  1  0.250000  0.731712  0.932385  1
  Si  Si10  1  0.750000  0.769775  0.432262  1
  Si  Si11  1  0.250000  0.233678  0.568748  1
  Si  Si12  1  0.750000  0.841943  0.819379  1
  Si  Si13  1  0.250000  0.155411  0.179025  1
  Si  Si14  1  0.750000  0.344032  0.681286  1
  Si  Si15  1  0.250000  0.658572  0.319847  1
