# generated using pymatgen
data_Cs6TbDy(TaS4)4
_symmetry_space_group_name_H-M   'P 1'
_cell_length_a   9.81989573
_cell_length_b   10.84332851
_cell_length_c   11.55974949
_cell_angle_alpha   107.48380227
_cell_angle_beta   103.79446898
_cell_angle_gamma   113.39808333
_symmetry_Int_Tables_number   1
_chemical_formula_structural   Cs6TbDy(TaS4)4
_chemical_formula_sum   'Cs6 Tb1 Dy1 Ta4 S16'
_cell_volume   983.39016899
_cell_formula_units_Z   1
loop_
 _symmetry_equiv_pos_site_id
 _symmetry_equiv_pos_as_xyz
  1  'x, y, z'
loop_
 _atom_site_type_symbol
 _atom_site_label
 _atom_site_symmetry_multiplicity
 _atom_site_fract_x
 _atom_site_fract_y
 _atom_site_fract_z
 _atom_site_occupancy
  Cs  Cs0  1  0.999999  0.499999  0.999996  1
  Cs  Cs1  1  0.499999  0.500000  0.000000  1
  Cs  Cs2  1  0.265605  0.015623  0.031157  1
  Cs  Cs3  1  0.483174  0.733169  0.466275  1
  Cs  Cs4  1  0.516832  0.266837  0.533737  1
  Cs  Cs5  1  0.734392  0.984376  0.968835  1
  Tb  Tb6  1  0.998917  0.248893  0.497867  1
  Dy  Dy7  1  0.001004  0.751027  0.501975  1
  Ta  Ta8  1  0.766547  0.356794  0.266540  1
  Ta  Ta9  1  0.999967  0.909717  0.266488  1
  Ta  Ta10  1  0.000049  0.090097  0.733533  1
  Ta  Ta11  1  0.233459  0.643412  0.733488  1
  S  S12  1  0.657241  0.275504  0.044082  1
  S  S13  1  0.886799  0.768533  0.044030  1
  S  S14  1  0.112408  0.159391  0.309747  1
  S  S15  1  0.697362  0.150360  0.309770  1
  S  S16  1  0.040779  0.503047  0.354398  1
  S  S17  1  0.813614  0.851396  0.354388  1
  S  S18  1  0.188128  0.858215  0.365964  1
  S  S19  1  0.677864  0.507819  0.366004  1
  S  S20  1  0.322774  0.492796  0.634355  1
  S  S21  1  0.811580  0.141516  0.634388  1
  S  S22  1  0.186576  0.148551  0.645848  1
  S  S23  1  0.959263  0.497240  0.645840  1
  S  S24  1  0.301747  0.849455  0.689684  1
  S  S25  1  0.887945  0.840250  0.689706  1
  S  S26  1  0.113192  0.231451  0.955974  1
  S  S27  1  0.342780  0.724526  0.955928  1
