# generated using pymatgen
data_Nd2Y6Be3Si12Pd
_symmetry_space_group_name_H-M   'P 1'
_cell_length_a   7.96021600
_cell_length_b   7.96021699
_cell_length_c   8.26252900
_cell_angle_alpha   90.00000000
_cell_angle_beta   90.00000000
_cell_angle_gamma   119.99998756
_symmetry_Int_Tables_number   1
_chemical_formula_structural   Nd2Y6Be3Si12Pd
_chemical_formula_sum   'Nd2 Y6 Be3 Si12 Pd1'
_cell_volume   453.41245107
_cell_formula_units_Z   1
loop_
 _symmetry_equiv_pos_site_id
 _symmetry_equiv_pos_as_xyz
  1  'x, y, z'
loop_
 _atom_site_type_symbol
 _atom_site_label
 _atom_site_symmetry_multiplicity
 _atom_site_fract_x
 _atom_site_fract_y
 _atom_site_fract_z
 _atom_site_occupancy
  Nd  Nd0  1  0.000000  0.000000  0.750802  1
  Nd  Nd1  1  0.000000  0.000000  0.249278  1
  Y  Y2  1  0.498410  0.501590  0.752603  1
  Y  Y3  1  0.498529  0.501471  0.247445  1
  Y  Y4  1  0.003180  0.501590  0.752603  1
  Y  Y5  1  0.002942  0.501471  0.247445  1
  Y  Y6  1  0.498410  0.996820  0.752603  1
  Y  Y7  1  0.498529  0.997058  0.247445  1
  Be  Be8  1  0.666667  0.333333  0.998932  1
  Be  Be9  1  0.333333  0.666667  0.000978  1
  Be  Be10  1  0.333333  0.666667  0.499360  1
  Si  Si11  1  0.826372  0.173628  0.000027  1
  Si  Si12  1  0.173878  0.826122  0.000060  1
  Si  Si13  1  0.347257  0.173628  0.000027  1
  Si  Si14  1  0.172340  0.827660  0.499797  1
  Si  Si15  1  0.652244  0.826122  0.000060  1
  Si  Si16  1  0.832935  0.167065  0.500196  1
  Si  Si17  1  0.826372  0.652743  0.000027  1
  Si  Si18  1  0.655320  0.827660  0.499797  1
  Si  Si19  1  0.173878  0.347756  0.000060  1
  Si  Si20  1  0.334129  0.167065  0.500196  1
  Si  Si21  1  0.172340  0.344680  0.499797  1
  Si  Si22  1  0.832935  0.665871  0.500196  1
  Pd  Pd23  1  0.666667  0.333333  0.500271  1
