# generated using pymatgen
data_Nb4(NiPt3)3
_symmetry_space_group_name_H-M   'P 1'
_cell_length_a   5.54100300
_cell_length_b   4.86047353
_cell_length_c   9.22619254
_cell_angle_alpha   79.54659497
_cell_angle_beta   90.00000000
_cell_angle_gamma   90.00000000
_symmetry_Int_Tables_number   1
_chemical_formula_structural   Nb4(NiPt3)3
_chemical_formula_sum   'Nb4 Ni3 Pt9'
_cell_volume   244.35482216
_cell_formula_units_Z   1
loop_
 _symmetry_equiv_pos_site_id
 _symmetry_equiv_pos_as_xyz
  1  'x, y, z'
loop_
 _atom_site_type_symbol
 _atom_site_label
 _atom_site_symmetry_multiplicity
 _atom_site_fract_x
 _atom_site_fract_y
 _atom_site_fract_z
 _atom_site_occupancy
  Nb  Nb0  1  0.750000  0.384716  0.377559  1
  Nb  Nb1  1  0.250000  0.615879  0.626467  1
  Nb  Nb2  1  0.750000  0.211854  0.873079  1
  Nb  Nb3  1  0.250000  0.789394  0.124747  1
  Ni  Ni4  1  0.750000  0.794344  0.128414  1
  Ni  Ni5  1  0.250000  0.208011  0.871214  1
  Ni  Ni6  1  0.750000  0.615833  0.623874  1
  Pt  Pt7  1  0.250000  0.382738  0.375440  1
  Pt  Pt8  1  0.994441  0.874121  0.375161  1
  Pt  Pt9  1  0.499706  0.127521  0.629228  1
  Pt  Pt10  1  0.000294  0.127521  0.629228  1
  Pt  Pt11  1  0.505559  0.874121  0.375161  1
  Pt  Pt12  1  0.997423  0.288263  0.119378  1
  Pt  Pt13  1  0.499950  0.708710  0.875836  1
  Pt  Pt14  1  0.000050  0.708710  0.875836  1
  Pt  Pt15  1  0.502577  0.288263  0.119378  1
