# generated using pymatgen
data_TbYbRe2Si2C
_symmetry_space_group_name_H-M   'P 1'
_cell_length_a   5.81662018
_cell_length_b   5.81662034
_cell_length_c   7.05860931
_cell_angle_alpha   124.69963877
_cell_angle_beta   124.69962626
_cell_angle_gamma   39.69775771
_symmetry_Int_Tables_number   1
_chemical_formula_structural   TbYbRe2Si2C
_chemical_formula_sum   'Tb1 Yb1 Re2 Si2 C1'
_cell_volume   121.42938293
_cell_formula_units_Z   1
loop_
 _symmetry_equiv_pos_site_id
 _symmetry_equiv_pos_as_xyz
  1  'x, y, z'
loop_
 _atom_site_type_symbol
 _atom_site_label
 _atom_site_symmetry_multiplicity
 _atom_site_fract_x
 _atom_site_fract_y
 _atom_site_fract_z
 _atom_site_occupancy
  Tb  Tb0  1  0.574532  0.574532  0.298485  1
  Yb  Yb1  1  0.426441  0.426441  0.701220  1
  Re  Re2  1  0.205984  0.205984  0.084995  1
  Re  Re3  1  0.794403  0.794403  0.914305  1
  Si  Si4  1  0.859904  0.859904  0.319439  1
  Si  Si5  1  0.138230  0.138230  0.678937  1
  C  C6  1  0.000504  0.000504  0.002619  1
