# generated using pymatgen
data_Pr2Pa(SnIr)3
_symmetry_space_group_name_H-M   'P 1'
_cell_length_a   7.69582900
_cell_length_b   7.58918322
_cell_length_c   4.05252000
_cell_angle_alpha   90.00000000
_cell_angle_beta   90.00000000
_cell_angle_gamma   120.46594225
_symmetry_Int_Tables_number   1
_chemical_formula_structural   Pr2Pa(SnIr)3
_chemical_formula_sum   'Pr2 Pa1 Sn3 Ir3'
_cell_volume   204.00835927
_cell_formula_units_Z   1
loop_
 _symmetry_equiv_pos_site_id
 _symmetry_equiv_pos_as_xyz
  1  'x, y, z'
loop_
 _atom_site_type_symbol
 _atom_site_label
 _atom_site_symmetry_multiplicity
 _atom_site_fract_x
 _atom_site_fract_y
 _atom_site_fract_z
 _atom_site_occupancy
  Pr  Pr0  1  0.999615  0.590849  0.000000  1
  Pr  Pr1  1  0.408767  0.409151  0.000000  1
  Pa  Pa2  1  0.586508  0.000000  0.000000  1
  Sn  Sn3  1  0.241458  0.000000  0.500000  1
  Sn  Sn4  1  0.007186  0.259771  0.500000  1
  Sn  Sn5  1  0.747415  0.740229  0.500000  1
  Ir  Ir6  1  0.367217  0.705873  0.500000  1
  Ir  Ir7  1  0.661346  0.294127  0.500000  1
  Ir  Ir8  1  0.980489  0.000000  0.000000  1
