# generated using pymatgen
data_Er2Tm2B12IrRu
_symmetry_space_group_name_H-M   'P 1'
_cell_length_a   3.62208800
_cell_length_b   9.10967588
_cell_length_c   11.43941114
_cell_angle_alpha   90.05079133
_cell_angle_beta   90.00000000
_cell_angle_gamma   90.00000000
_symmetry_Int_Tables_number   1
_chemical_formula_structural   Er2Tm2B12IrRu
_chemical_formula_sum   'Er4 Tm4 B24 Ir2 Ru2'
_cell_volume   377.45520728
_cell_formula_units_Z   2
loop_
 _symmetry_equiv_pos_site_id
 _symmetry_equiv_pos_as_xyz
  1  'x, y, z'
loop_
 _atom_site_type_symbol
 _atom_site_label
 _atom_site_symmetry_multiplicity
 _atom_site_fract_x
 _atom_site_fract_y
 _atom_site_fract_z
 _atom_site_occupancy
  Er  Er0  1  0.000000  0.318286  0.412199  1
  Er  Er1  1  0.000000  0.681714  0.587801  1
  Er  Er2  1  0.000000  0.822449  0.084906  1
  Er  Er3  1  0.000000  0.177551  0.915094  1
  Tm  Tm4  1  0.000000  0.945687  0.372780  1
  Tm  Tm5  1  0.000000  0.054313  0.627220  1
  Tm  Tm6  1  0.000000  0.442227  0.125893  1
  Tm  Tm7  1  0.000000  0.557773  0.874107  1
  B  B8  1  0.500000  0.553037  0.433949  1
  B  B9  1  0.500000  0.446963  0.566051  1
  B  B10  1  0.500000  0.054035  0.066571  1
  B  B11  1  0.500000  0.945965  0.933429  1
  B  B12  1  0.500000  0.750973  0.420362  1
  B  B13  1  0.500000  0.249027  0.579638  1
  B  B14  1  0.500000  0.248559  0.079994  1
  B  B15  1  0.500000  0.751441  0.920006  1
  B  B16  1  0.500000  0.792986  0.265339  1
  B  B17  1  0.500000  0.207014  0.734661  1
  B  B18  1  0.500000  0.292031  0.234662  1
  B  B19  1  0.500000  0.707969  0.765338  1
  B  B20  1  0.500000  0.631190  0.183672  1
  B  B21  1  0.500000  0.368810  0.816328  1
  B  B22  1  0.500000  0.131641  0.315348  1
  B  B23  1  0.500000  0.868359  0.684652  1
  B  B24  1  0.500000  0.982826  0.212997  1
  B  B25  1  0.500000  0.017174  0.787003  1
  B  B26  1  0.500000  0.481157  0.286379  1
  B  B27  1  0.500000  0.518843  0.713621  1
  B  B28  1  0.500000  0.608258  0.029883  1
  B  B29  1  0.500000  0.391742  0.970117  1
  B  B30  1  0.500000  0.108002  0.470736  1
  B  B31  1  0.500000  0.891998  0.529264  1
  Ir  Ir32  1  0.000000  0.637569  0.321882  1
  Ir  Ir33  1  0.000000  0.362431  0.678118  1
  Ru  Ru34  1  0.000000  0.137671  0.179106  1
  Ru  Ru35  1  0.000000  0.862329  0.820894  1
