# generated using pymatgen
data_CaPr2Si4(AsPd10)2
_symmetry_space_group_name_H-M   'P 1'
_cell_length_a   8.76399471
_cell_length_b   8.85055938
_cell_length_c   8.85055893
_cell_angle_alpha   59.35396010
_cell_angle_beta   60.32301646
_cell_angle_gamma   60.32301496
_symmetry_Int_Tables_number   1
_chemical_formula_structural   CaPr2Si4(AsPd10)2
_chemical_formula_sum   'Ca1 Pr2 Si4 As2 Pd20'
_cell_volume   485.34013152
_cell_formula_units_Z   1
loop_
 _symmetry_equiv_pos_site_id
 _symmetry_equiv_pos_as_xyz
  1  'x, y, z'
loop_
 _atom_site_type_symbol
 _atom_site_label
 _atom_site_symmetry_multiplicity
 _atom_site_fract_x
 _atom_site_fract_y
 _atom_site_fract_z
 _atom_site_occupancy
  Ca  Ca0  1  0.000000  0.000000  0.000000  1
  Pr  Pr1  1  0.250000  0.250000  0.250000  1
  Pr  Pr2  1  0.750000  0.750000  0.750000  1
  Si  Si3  1  0.265337  0.734663  0.265337  1
  Si  Si4  1  0.734663  0.265337  0.734663  1
  Si  Si5  1  0.265337  0.265337  0.734663  1
  Si  Si6  1  0.734663  0.734663  0.265337  1
  As  As7  1  0.737281  0.262719  0.262719  1
  As  As8  1  0.262719  0.737281  0.737281  1
  Pd  Pd9  1  0.346911  0.000000  0.000000  1
  Pd  Pd10  1  0.653089  0.000000  0.000000  1
  Pd  Pd11  1  0.000000  0.346911  0.653089  1
  Pd  Pd12  1  0.000000  0.653089  0.346911  1
  Pd  Pd13  1  0.008200  0.348007  0.991800  1
  Pd  Pd14  1  0.651993  0.991800  0.348007  1
  Pd  Pd15  1  0.991800  0.651993  0.008200  1
  Pd  Pd16  1  0.348007  0.008200  0.651993  1
  Pd  Pd17  1  0.008200  0.991800  0.348007  1
  Pd  Pd18  1  0.991800  0.008200  0.651993  1
  Pd  Pd19  1  0.651993  0.348007  0.991800  1
  Pd  Pd20  1  0.348007  0.651993  0.008200  1
  Pd  Pd21  1  0.381196  0.387918  0.387918  1
  Pd  Pd22  1  0.618804  0.612082  0.612082  1
  Pd  Pd23  1  0.387918  0.381196  0.842968  1
  Pd  Pd24  1  0.387918  0.842968  0.381196  1
  Pd  Pd25  1  0.612082  0.618804  0.157032  1
  Pd  Pd26  1  0.612082  0.157032  0.618804  1
  Pd  Pd27  1  0.842968  0.387918  0.387918  1
  Pd  Pd28  1  0.157032  0.612082  0.612082  1
