# generated using pymatgen
data_Sr3Y(Al3Pd)6
_symmetry_space_group_name_H-M   'P 1'
_cell_length_a   7.72819143
_cell_length_b   7.73474373
_cell_length_c   9.67230500
_cell_angle_alpha   90.00000000
_cell_angle_beta   90.00000000
_cell_angle_gamma   119.46174832
_symmetry_Int_Tables_number   1
_chemical_formula_structural   Sr3Y(Al3Pd)6
_chemical_formula_sum   'Sr3 Y1 Al18 Pd6'
_cell_volume   503.40146278
_cell_formula_units_Z   1
loop_
 _symmetry_equiv_pos_site_id
 _symmetry_equiv_pos_as_xyz
  1  'x, y, z'
loop_
 _atom_site_type_symbol
 _atom_site_label
 _atom_site_symmetry_multiplicity
 _atom_site_fract_x
 _atom_site_fract_y
 _atom_site_fract_z
 _atom_site_occupancy
  Sr  Sr0  1  0.994608  0.669112  0.250000  1
  Sr  Sr1  1  0.003002  0.330541  0.750000  1
  Sr  Sr2  1  0.670884  0.995872  0.250000  1
  Y  Y3  1  0.330031  0.002723  0.750000  1
  Al  Al4  1  0.137364  0.135316  0.250000  1
  Al  Al5  1  0.870906  0.867055  0.750000  1
  Al  Al6  1  0.005772  0.334963  0.072004  1
  Al  Al7  1  0.999327  0.668056  0.921808  1
  Al  Al8  1  0.999327  0.668056  0.578192  1
  Al  Al9  1  0.334530  0.003914  0.431184  1
  Al  Al10  1  0.005772  0.334963  0.427996  1
  Al  Al11  1  0.662430  0.996784  0.578061  1
  Al  Al12  1  0.662430  0.996784  0.921939  1
  Al  Al13  1  0.334530  0.003914  0.068816  1
  Al  Al14  1  0.334629  0.331978  0.557250  1
  Al  Al15  1  0.663525  0.663601  0.454164  1
  Al  Al16  1  0.663525  0.663601  0.045836  1
  Al  Al17  1  0.334629  0.331978  0.942750  1
  Al  Al18  1  0.341026  0.542795  0.250000  1
  Al  Al19  1  0.652758  0.452277  0.750000  1
  Al  Al20  1  0.540289  0.339183  0.250000  1
  Al  Al21  1  0.458353  0.665998  0.750000  1
  Pd  Pd22  1  0.670169  0.328428  0.997962  1
  Pd  Pd23  1  0.328907  0.671382  0.997661  1
  Pd  Pd24  1  0.328907  0.671382  0.502339  1
  Pd  Pd25  1  0.670169  0.328428  0.502038  1
  Pd  Pd26  1  0.001100  0.000458  0.997549  1
  Pd  Pd27  1  0.001100  0.000458  0.502451  1
