# generated using pymatgen
data_LiTaP7Ru12
_symmetry_space_group_name_H-M   'P 1'
_cell_length_a   9.36000800
_cell_length_b   9.36000639
_cell_length_c   3.89409600
_cell_angle_alpha   90.00000000
_cell_angle_beta   90.00000000
_cell_angle_gamma   119.99999768
_symmetry_Int_Tables_number   1
_chemical_formula_structural   LiTaP7Ru12
_chemical_formula_sum   'Li1 Ta1 P7 Ru12'
_cell_volume   295.45385486
_cell_formula_units_Z   1
loop_
 _symmetry_equiv_pos_site_id
 _symmetry_equiv_pos_as_xyz
  1  'x, y, z'
loop_
 _atom_site_type_symbol
 _atom_site_label
 _atom_site_symmetry_multiplicity
 _atom_site_fract_x
 _atom_site_fract_y
 _atom_site_fract_z
 _atom_site_occupancy
  Li  Li0  1  0.333333  0.666667  0.000000  1
  Ta  Ta1  1  0.666667  0.333333  0.500000  1
  P  P2  1  0.598636  0.721742  0.500000  1
  P  P3  1  0.000000  0.000000  0.000000  1
  P  P4  1  0.278258  0.876895  0.500000  1
  P  P5  1  0.123105  0.401364  0.500000  1
  P  P6  1  0.889533  0.572319  0.000000  1
  P  P7  1  0.427681  0.317215  0.000000  1
  P  P8  1  0.682785  0.110467  0.000000  1
  Ru  Ru9  1  0.556153  0.959370  0.500000  1
  Ru  Ru10  1  0.403218  0.443847  0.500000  1
  Ru  Ru11  1  0.914746  0.121786  0.500000  1
  Ru  Ru12  1  0.207040  0.085254  0.500000  1
  Ru  Ru13  1  0.878214  0.792960  0.500000  1
  Ru  Ru14  1  0.723986  0.886318  0.000000  1
  Ru  Ru15  1  0.113682  0.837668  0.000000  1
  Ru  Ru16  1  0.162332  0.276014  0.000000  1
  Ru  Ru17  1  0.428346  0.080802  0.000000  1
  Ru  Ru18  1  0.919198  0.347545  0.000000  1
  Ru  Ru19  1  0.652455  0.571654  0.000000  1
  Ru  Ru20  1  0.040630  0.596782  0.500000  1
