# generated using pymatgen
data_GdErCSe
_symmetry_space_group_name_H-M   'P 1'
_cell_length_a   6.94513602
_cell_length_b   6.94513567
_cell_length_c   6.94513529
_cell_angle_alpha   31.52201590
_cell_angle_beta   31.52202312
_cell_angle_gamma   31.52202421
_symmetry_Int_Tables_number   1
_chemical_formula_structural   GdErCSe
_chemical_formula_sum   'Gd1 Er1 C1 Se1'
_cell_volume   81.29930626
_cell_formula_units_Z   1
loop_
 _symmetry_equiv_pos_site_id
 _symmetry_equiv_pos_as_xyz
  1  'x, y, z'
loop_
 _atom_site_type_symbol
 _atom_site_label
 _atom_site_symmetry_multiplicity
 _atom_site_fract_x
 _atom_site_fract_y
 _atom_site_fract_z
 _atom_site_occupancy
  Gd  Gd0  1  0.983644  0.983644  0.983644  1
  Er  Er1  1  0.515406  0.515406  0.515406  1
  C  C2  1  0.248844  0.248844  0.248844  1
  Se  Se3  1  0.752106  0.752106  0.752106  1
