# generated using pymatgen
data_Zr10SnBi5Se
_symmetry_space_group_name_H-M   'P 1'
_cell_length_a   5.93911030
_cell_length_b   8.75310483
_cell_length_c   8.73197042
_cell_angle_alpha   119.92014537
_cell_angle_beta   90.10115373
_cell_angle_gamma   89.94931490
_symmetry_Int_Tables_number   1
_chemical_formula_structural   Zr10SnBi5Se
_chemical_formula_sum   'Zr10 Sn1 Bi5 Se1'
_cell_volume   393.43648616
_cell_formula_units_Z   1
loop_
 _symmetry_equiv_pos_site_id
 _symmetry_equiv_pos_as_xyz
  1  'x, y, z'
loop_
 _atom_site_type_symbol
 _atom_site_label
 _atom_site_symmetry_multiplicity
 _atom_site_fract_x
 _atom_site_fract_y
 _atom_site_fract_z
 _atom_site_occupancy
  Zr  Zr0  1  0.498278  0.328851  0.662974  1
  Zr  Zr1  1  0.498277  0.671150  0.334122  1
  Zr  Zr2  1  0.001818  0.670420  0.334356  1
  Zr  Zr3  1  0.001822  0.329582  0.663935  1
  Zr  Zr4  1  0.770064  0.252674  0.998572  1
  Zr  Zr5  1  0.770066  0.747324  0.745897  1
  Zr  Zr6  1  0.770051  0.000002  0.253904  1
  Zr  Zr7  1  0.230011  0.749481  0.006180  1
  Zr  Zr8  1  0.230013  0.250519  0.256699  1
  Zr  Zr9  1  0.231074  0.000001  0.743511  1
  Sn  Sn10  1  0.250808  0.999998  0.392647  1
  Bi  Bi11  1  0.747755  0.607247  0.998948  1
  Bi  Bi12  1  0.747757  0.392754  0.391701  1
  Bi  Bi13  1  0.747511  0.000000  0.606251  1
  Bi  Bi14  1  0.252400  0.391133  0.000893  1
  Bi  Bi15  1  0.252404  0.608869  0.609761  1
  Se  Se16  1  0.499887  0.000000  0.999649  1
