# generated using pymatgen
data_Zr3Al3NiOsAu
_symmetry_space_group_name_H-M   'P 1'
_cell_length_a   7.30547100
_cell_length_b   7.30546997
_cell_length_c   3.42452300
_cell_angle_alpha   90.00000000
_cell_angle_beta   90.00000000
_cell_angle_gamma   120.00000917
_symmetry_Int_Tables_number   1
_chemical_formula_structural   Zr3Al3NiOsAu
_chemical_formula_sum   'Zr3 Al3 Ni1 Os1 Au1'
_cell_volume   158.28037124
_cell_formula_units_Z   1
loop_
 _symmetry_equiv_pos_site_id
 _symmetry_equiv_pos_as_xyz
  1  'x, y, z'
loop_
 _atom_site_type_symbol
 _atom_site_label
 _atom_site_symmetry_multiplicity
 _atom_site_fract_x
 _atom_site_fract_y
 _atom_site_fract_z
 _atom_site_occupancy
  Zr  Zr0  1  0.018033  0.402592  0.500000  1
  Zr  Zr1  1  0.597408  0.615439  0.500000  1
  Zr  Zr2  1  0.384561  0.981967  0.500000  1
  Al  Al3  1  0.998615  0.750041  0.000000  1
  Al  Al4  1  0.249959  0.248573  0.000000  1
  Al  Al5  1  0.751427  0.001385  0.000000  1
  Ni  Ni6  1  0.000000  0.000000  0.500000  1
  Os  Os7  1  0.333333  0.666667  0.000000  1
  Au  Au8  1  0.666667  0.333333  0.000000  1
