# generated using pymatgen
data_Sm6Ga7Pd16Se
_symmetry_space_group_name_H-M   'P 1'
_cell_length_a   9.17125173
_cell_length_b   9.17731671
_cell_length_c   9.17734500
_cell_angle_alpha   60.04622325
_cell_angle_beta   60.02213567
_cell_angle_gamma   60.02210072
_symmetry_Int_Tables_number   1
_chemical_formula_structural   Sm6Ga7Pd16Se
_chemical_formula_sum   'Sm6 Ga7 Pd16 Se1'
_cell_volume   546.56660078
_cell_formula_units_Z   1
loop_
 _symmetry_equiv_pos_site_id
 _symmetry_equiv_pos_as_xyz
  1  'x, y, z'
loop_
 _atom_site_type_symbol
 _atom_site_label
 _atom_site_symmetry_multiplicity
 _atom_site_fract_x
 _atom_site_fract_y
 _atom_site_fract_z
 _atom_site_occupancy
  Sm  Sm0  1  0.721455  0.278552  0.278637  1
  Sm  Sm1  1  0.278663  0.721446  0.721361  1
  Sm  Sm2  1  0.278473  0.721231  0.278805  1
  Sm  Sm3  1  0.721470  0.278715  0.721252  1
  Sm  Sm4  1  0.278495  0.278737  0.721207  1
  Sm  Sm5  1  0.721450  0.721318  0.278734  1
  Ga  Ga6  1  0.000000  0.999999  0.999999  1
  Ga  Ga7  1  0.500083  0.999994  0.999993  1
  Ga  Ga8  1  0.000000  0.500008  0.500005  1
  Ga  Ga9  1  0.999998  0.499956  0.000009  1
  Ga  Ga10  1  0.499957  0.999995  0.500041  1
  Ga  Ga11  1  0.999998  0.000008  0.499954  1
  Ga  Ga12  1  0.499958  0.500039  0.999996  1
  Pd  Pd13  1  0.119693  0.119491  0.119468  1
  Pd  Pd14  1  0.880276  0.880526  0.880546  1
  Pd  Pd15  1  0.119820  0.119613  0.640739  1
  Pd  Pd16  1  0.119845  0.640701  0.119611  1
  Pd  Pd17  1  0.880197  0.880380  0.359261  1
  Pd  Pd18  1  0.880162  0.359302  0.880385  1
  Pd  Pd19  1  0.641360  0.119477  0.119450  1
  Pd  Pd20  1  0.358646  0.880515  0.880546  1
  Pd  Pd21  1  0.331814  0.331479  0.331483  1
  Pd  Pd22  1  0.668198  0.668512  0.668511  1
  Pd  Pd23  1  0.331789  0.331520  0.004888  1
  Pd  Pd24  1  0.331814  0.004836  0.331536  1
  Pd  Pd25  1  0.668203  0.668480  0.995112  1
  Pd  Pd26  1  0.668181  0.995163  0.668464  1
  Pd  Pd27  1  0.005232  0.331488  0.331481  1
  Pd  Pd28  1  0.994770  0.668519  0.668526  1
  Se  Se29  1  0.499999  0.500000  0.500001  1
