# generated using pymatgen
data_DyEr15(AgPt)4
_symmetry_space_group_name_H-M   'P 1'
_cell_length_a   9.51143023
_cell_length_b   9.51143052
_cell_length_c   9.46491500
_cell_angle_alpha   60.16164107
_cell_angle_beta   60.16164007
_cell_angle_gamma   60.25813220
_symmetry_Int_Tables_number   1
_chemical_formula_structural   DyEr15(AgPt)4
_chemical_formula_sum   'Dy1 Er15 Ag4 Pt4'
_cell_volume   608.12710073
_cell_formula_units_Z   1
loop_
 _symmetry_equiv_pos_site_id
 _symmetry_equiv_pos_as_xyz
  1  'x, y, z'
loop_
 _atom_site_type_symbol
 _atom_site_label
 _atom_site_symmetry_multiplicity
 _atom_site_fract_x
 _atom_site_fract_y
 _atom_site_fract_z
 _atom_site_occupancy
  Dy  Dy0  1  0.935096  0.935096  0.564904  1
  Er  Er1  1  0.355752  0.355752  0.352561  1
  Er  Er2  1  0.355752  0.355752  0.935935  1
  Er  Er3  1  0.359453  0.927235  0.356655  1
  Er  Er4  1  0.927235  0.359453  0.356655  1
  Er  Er5  1  0.812190  0.189023  0.187885  1
  Er  Er6  1  0.189023  0.812190  0.810903  1
  Er  Er7  1  0.189023  0.812190  0.187885  1
  Er  Er8  1  0.812190  0.189023  0.810903  1
  Er  Er9  1  0.188762  0.188762  0.811238  1
  Er  Er10  1  0.811911  0.811911  0.188089  1
  Er  Er11  1  0.934930  0.564951  0.564882  1
  Er  Er12  1  0.564951  0.934930  0.935237  1
  Er  Er13  1  0.564951  0.934930  0.564882  1
  Er  Er14  1  0.934930  0.564951  0.935237  1
  Er  Er15  1  0.566448  0.566448  0.933552  1
  Ag  Ag16  1  0.583331  0.583331  0.584235  1
  Ag  Ag17  1  0.583331  0.583331  0.249103  1
  Ag  Ag18  1  0.580220  0.251842  0.583968  1
  Ag  Ag19  1  0.251842  0.580220  0.583968  1
  Pt  Pt20  1  0.144559  0.144559  0.147299  1
  Pt  Pt21  1  0.144559  0.144559  0.563585  1
  Pt  Pt22  1  0.142183  0.567379  0.145219  1
  Pt  Pt23  1  0.567379  0.142183  0.145219  1
