# generated using pymatgen
data_Ca3AcPd4
_symmetry_space_group_name_H-M   'P 1'
_cell_length_a   4.47473100
_cell_length_b   5.91311802
_cell_length_c   7.59357222
_cell_angle_alpha   90.81584976
_cell_angle_beta   90.00000000
_cell_angle_gamma   90.00000000
_symmetry_Int_Tables_number   1
_chemical_formula_structural   Ca3AcPd4
_chemical_formula_sum   'Ca3 Ac1 Pd4'
_cell_volume   200.90260965
_cell_formula_units_Z   1
loop_
 _symmetry_equiv_pos_site_id
 _symmetry_equiv_pos_as_xyz
  1  'x, y, z'
loop_
 _atom_site_type_symbol
 _atom_site_label
 _atom_site_symmetry_multiplicity
 _atom_site_fract_x
 _atom_site_fract_y
 _atom_site_fract_z
 _atom_site_occupancy
  Ca  Ca0  1  0.250000  0.364283  0.674966  1
  Ca  Ca1  1  0.250000  0.141521  0.191232  1
  Ca  Ca2  1  0.750000  0.635750  0.318296  1
  Ac  Ac3  1  0.750000  0.863953  0.817957  1
  Pd  Pd4  1  0.250000  0.861763  0.534988  1
  Pd  Pd5  1  0.250000  0.635810  0.036428  1
  Pd  Pd6  1  0.750000  0.142589  0.462351  1
  Pd  Pd7  1  0.750000  0.354331  0.963784  1
