# generated using pymatgen
data_Tm16In5GaOs2
_symmetry_space_group_name_H-M   'P 1'
_cell_length_a   10.18187579
_cell_length_b   10.18187566
_cell_length_c   7.03603980
_cell_angle_alpha   90.07127346
_cell_angle_beta   89.92872589
_cell_angle_gamma   120.04566730
_symmetry_Int_Tables_number   1
_chemical_formula_structural   Tm16In5GaOs2
_chemical_formula_sum   'Tm16 In5 Ga1 Os2'
_cell_volume   631.41372836
_cell_formula_units_Z   1
loop_
 _symmetry_equiv_pos_site_id
 _symmetry_equiv_pos_as_xyz
  1  'x, y, z'
loop_
 _atom_site_type_symbol
 _atom_site_label
 _atom_site_symmetry_multiplicity
 _atom_site_fract_x
 _atom_site_fract_y
 _atom_site_fract_z
 _atom_site_occupancy
  Tm  Tm0  1  0.176784  0.823216  0.992754  1
  Tm  Tm1  1  0.353909  0.176598  0.493213  1
  Tm  Tm2  1  0.823402  0.646091  0.493213  1
  Tm  Tm3  1  0.167867  0.348508  0.995914  1
  Tm  Tm4  1  0.651492  0.832133  0.995914  1
  Tm  Tm5  1  0.823531  0.176469  0.484043  1
  Tm  Tm6  1  0.333356  0.666644  0.668076  1
  Tm  Tm7  1  0.670165  0.329835  0.164149  1
  Tm  Tm8  1  0.466853  0.533147  0.285234  1
  Tm  Tm9  1  0.930884  0.460911  0.790313  1
  Tm  Tm10  1  0.539089  0.069116  0.790313  1
  Tm  Tm11  1  0.466306  0.933346  0.288928  1
  Tm  Tm12  1  0.066654  0.533694  0.288928  1
  Tm  Tm13  1  0.532741  0.467259  0.789096  1
  Tm  Tm14  1  0.997943  0.002057  0.268431  1
  Tm  Tm15  1  0.998625  0.001375  0.770835  1
  In  In16  1  0.163915  0.836085  0.540147  1
  In  In17  1  0.328224  0.165096  0.039594  1
  In  In18  1  0.834904  0.671776  0.039594  1
  In  In19  1  0.163941  0.327992  0.540278  1
  In  In20  1  0.672008  0.836059  0.540278  1
  Ga  Ga21  1  0.836429  0.163571  0.042644  1
  Os  Os22  1  0.333761  0.666239  0.061048  1
  Os  Os23  1  0.667215  0.332785  0.561065  1
