# generated using pymatgen
data_Tb2SmTeP2
_symmetry_space_group_name_H-M   'P 1'
_cell_length_a   4.11389700
_cell_length_b   10.30158160
_cell_length_c   7.09909500
_cell_angle_alpha   89.88824026
_cell_angle_beta   90.00000000
_cell_angle_gamma   90.00000000
_symmetry_Int_Tables_number   1
_chemical_formula_structural   Tb2SmTeP2
_chemical_formula_sum   'Tb4 Sm2 Te2 P4'
_cell_volume   300.85655804
_cell_formula_units_Z   2
loop_
 _symmetry_equiv_pos_site_id
 _symmetry_equiv_pos_as_xyz
  1  'x, y, z'
loop_
 _atom_site_type_symbol
 _atom_site_label
 _atom_site_symmetry_multiplicity
 _atom_site_fract_x
 _atom_site_fract_y
 _atom_site_fract_z
 _atom_site_occupancy
  Tb  Tb0  1  0.250000  0.801836  0.916325  1
  Tb  Tb1  1  0.750000  0.198164  0.083675  1
  Tb  Tb2  1  0.750000  0.801212  0.416692  1
  Tb  Tb3  1  0.250000  0.198788  0.583308  1
  Sm  Sm4  1  0.250000  0.500129  0.249746  1
  Sm  Sm5  1  0.750000  0.499871  0.750254  1
  Te  Te6  1  0.750000  0.000213  0.749555  1
  Te  Te7  1  0.250000  0.999787  0.250445  1
  P  P8  1  0.250000  0.661605  0.583695  1
  P  P9  1  0.750000  0.338395  0.416305  1
  P  P10  1  0.750000  0.662036  0.083295  1
  P  P11  1  0.250000  0.337964  0.916705  1
