# generated using pymatgen
data_Li7NbP4
_symmetry_space_group_name_H-M   'P 1'
_cell_length_a   7.20314530
_cell_length_b   7.20314516
_cell_length_c   11.76872905
_cell_angle_alpha   65.85819647
_cell_angle_beta   65.85819960
_cell_angle_gamma   48.72976690
_symmetry_Int_Tables_number   1
_chemical_formula_structural   Li7NbP4
_chemical_formula_sum   'Li14 Nb2 P8'
_cell_volume   410.08934513
_cell_formula_units_Z   2
loop_
 _symmetry_equiv_pos_site_id
 _symmetry_equiv_pos_as_xyz
  1  'x, y, z'
loop_
 _atom_site_type_symbol
 _atom_site_label
 _atom_site_symmetry_multiplicity
 _atom_site_fract_x
 _atom_site_fract_y
 _atom_site_fract_z
 _atom_site_occupancy
  Li  Li0  1  0.516060  0.984550  0.876110  1
  Li  Li1  1  0.755269  0.244731  0.750000  1
  Li  Li2  1  0.006577  0.474231  0.878321  1
  Li  Li3  1  0.015450  0.483940  0.623890  1
  Li  Li4  1  0.249998  0.749094  0.491983  1
  Li  Li5  1  0.525769  0.993423  0.621679  1
  Li  Li6  1  0.474231  0.006577  0.378321  1
  Li  Li7  1  0.750002  0.250906  0.508017  1
  Li  Li8  1  0.984550  0.516060  0.376110  1
  Li  Li9  1  0.250906  0.750002  0.008017  1
  Li  Li10  1  0.993423  0.525769  0.121679  1
  Li  Li11  1  0.483940  0.015450  0.123890  1
  Li  Li12  1  0.244731  0.755269  0.250000  1
  Li  Li13  1  0.749094  0.249998  0.991983  1
  Nb  Nb14  1  0.255595  0.744405  0.750000  1
  Nb  Nb15  1  0.744405  0.255595  0.250000  1
  P  P16  1  0.366525  0.394033  0.927666  1
  P  P17  1  0.906499  0.853493  0.692116  1
  P  P18  1  0.146507  0.093501  0.807884  1
  P  P19  1  0.394033  0.366525  0.427666  1
  P  P20  1  0.605967  0.633475  0.572334  1
  P  P21  1  0.853493  0.906499  0.192116  1
  P  P22  1  0.093501  0.146507  0.307884  1
  P  P23  1  0.633475  0.605967  0.072334  1
