# generated using pymatgen
data_Hf4Zr6Sn5Bi2
_symmetry_space_group_name_H-M   'P 1'
_cell_length_a   5.95070456
_cell_length_b   8.71190935
_cell_length_c   8.70915725
_cell_angle_alpha   120.01046431
_cell_angle_beta   90.00676433
_cell_angle_gamma   89.98645829
_symmetry_Int_Tables_number   1
_chemical_formula_structural   Hf4Zr6Sn5Bi2
_chemical_formula_sum   'Hf4 Zr6 Sn5 Bi2'
_cell_volume   390.96932521
_cell_formula_units_Z   1
loop_
 _symmetry_equiv_pos_site_id
 _symmetry_equiv_pos_as_xyz
  1  'x, y, z'
loop_
 _atom_site_type_symbol
 _atom_site_label
 _atom_site_symmetry_multiplicity
 _atom_site_fract_x
 _atom_site_fract_y
 _atom_site_fract_z
 _atom_site_occupancy
  Hf  Hf0  1  0.498463  0.331186  0.663931  1
  Hf  Hf1  1  0.498463  0.667255  0.336069  1
  Hf  Hf2  1  0.001966  0.667331  0.336863  1
  Hf  Hf3  1  0.001966  0.330469  0.663137  1
  Zr  Zr4  1  0.779122  0.266387  0.000000  1
  Zr  Zr5  1  0.776160  0.732337  0.726510  1
  Zr  Zr6  1  0.776160  0.005827  0.273490  1
  Zr  Zr7  1  0.225673  0.729551  0.000000  1
  Zr  Zr8  1  0.222972  0.270402  0.271046  1
  Zr  Zr9  1  0.222972  0.999356  0.728954  1
  Sn  Sn10  1  0.741359  0.389145  0.388174  1
  Sn  Sn11  1  0.741359  0.000971  0.611826  1
  Sn  Sn12  1  0.257709  0.386065  0.000000  1
  Sn  Sn13  1  0.257624  0.612013  0.613150  1
  Sn  Sn14  1  0.257624  0.998863  0.386850  1
  Bi  Bi15  1  0.741894  0.612743  0.000000  1
  Bi  Bi16  1  0.498514  0.000101  0.000000  1
