# generated using pymatgen
data_Tb6Mg2NbCo(ReN4)6
_symmetry_space_group_name_H-M   'P 1'
_cell_length_a   10.86003045
_cell_length_b   10.86002977
_cell_length_c   10.86003000
_cell_angle_alpha   109.48750027
_cell_angle_beta   109.48749901
_cell_angle_gamma   109.48750310
_symmetry_Int_Tables_number   1
_chemical_formula_structural   Tb6Mg2NbCo(ReN4)6
_chemical_formula_sum   'Tb12 Mg4 Nb2 Co2 Re12 N48'
_cell_volume   985.39225060
_cell_formula_units_Z   2
loop_
 _symmetry_equiv_pos_site_id
 _symmetry_equiv_pos_as_xyz
  1  'x, y, z'
loop_
 _atom_site_type_symbol
 _atom_site_label
 _atom_site_symmetry_multiplicity
 _atom_site_fract_x
 _atom_site_fract_y
 _atom_site_fract_z
 _atom_site_occupancy
  Tb  Tb0  1  0.376610  0.747525  0.126306  1
  Tb  Tb1  1  0.252366  0.374196  0.126690  1
  Tb  Tb2  1  0.373139  0.127557  0.252230  1
  Tb  Tb3  1  0.875389  0.630434  0.256922  1
  Tb  Tb4  1  0.750291  0.122886  0.378719  1
  Tb  Tb5  1  0.125684  0.246933  0.375566  1
  Tb  Tb6  1  0.874316  0.753067  0.624435  1
  Tb  Tb7  1  0.249709  0.877114  0.621281  1
  Tb  Tb8  1  0.124611  0.369566  0.743078  1
  Tb  Tb9  1  0.626862  0.872443  0.747770  1
  Tb  Tb10  1  0.623390  0.252475  0.873694  1
  Tb  Tb11  1  0.747634  0.625805  0.873310  1
  Mg  Mg12  1  0.500000  0.500000  0.000000  1
  Mg  Mg13  1  0.500000  0.000000  0.500000  1
  Mg  Mg14  1  0.000000  0.500000  0.500000  1
  Mg  Mg15  1  0.500000  0.500000  0.500000  1
  Nb  Nb16  1  0.500000  0.000000  0.000000  1
  Nb  Nb17  1  0.000000  0.500000  0.000000  1
  Co  Co18  1  0.000000  0.000000  0.000000  1
  Co  Co19  1  0.000000  0.000000  0.500000  1
  Re  Re20  1  0.877469  0.243612  0.122284  1
  Re  Re21  1  0.759555  0.878194  0.129481  1
  Re  Re22  1  0.625903  0.375922  0.248989  1
  Re  Re23  1  0.120204  0.880436  0.248702  1
  Re  Re24  1  0.249024  0.626296  0.375644  1
  Re  Re25  1  0.629847  0.755723  0.376433  1
  Re  Re26  1  0.370153  0.244277  0.623568  1
  Re  Re27  1  0.750976  0.373705  0.624356  1
  Re  Re28  1  0.879796  0.119564  0.751297  1
  Re  Re29  1  0.374098  0.624078  0.751011  1
  Re  Re30  1  0.240444  0.121806  0.870519  1
  Re  Re31  1  0.122531  0.756387  0.877716  1
  N  N32  1  0.315270  0.905145  0.024716  1
  N  N33  1  0.192136  0.110264  0.014031  1
  N  N34  1  0.886894  0.403352  0.093159  1
  N  N35  1  0.713881  0.690453  0.089746  1
  N  N36  1  0.625302  0.409281  0.096931  1
  N  N37  1  0.977070  0.684505  0.098395  1
  N  N38  1  0.020416  0.196380  0.112262  1
  N  N39  1  0.599620  0.912499  0.116652  1
  N  N40  1  0.208947  0.590009  0.181821  1
  N  N41  1  0.478101  0.598588  0.191458  1
  N  N42  1  0.111282  0.018810  0.193266  1
  N  N43  1  0.591342  0.183634  0.209495  1
  N  N44  1  0.305916  0.910242  0.289222  1
  N  N45  1  0.473429  0.376681  0.281828  1
  N  N46  1  0.907999  0.281902  0.306876  1
  N  N47  1  0.906331  0.015214  0.323973  1
  N  N48  1  0.281374  0.474398  0.377330  1
  N  N49  1  0.589598  0.903871  0.375363  1
  N  N50  1  0.809656  0.527871  0.404333  1
  N  N51  1  0.085823  0.892351  0.405595  1
  N  N52  1  0.096695  0.625810  0.409348  1
  N  N53  1  0.823274  0.800529  0.414958  1
  N  N54  1  0.596006  0.190699  0.472820  1
  N  N55  1  0.373489  0.281297  0.472698  1
  N  N56  1  0.626510  0.718703  0.527302  1
  N  N57  1  0.403995  0.809301  0.527181  1
  N  N58  1  0.176725  0.199470  0.585042  1
  N  N59  1  0.903305  0.374190  0.590652  1
  N  N60  1  0.914176  0.107649  0.594404  1
  N  N61  1  0.190344  0.472130  0.595668  1
  N  N62  1  0.410402  0.096129  0.624637  1
  N  N63  1  0.718626  0.525602  0.622669  1
  N  N64  1  0.092001  0.718098  0.693124  1
  N  N65  1  0.093669  0.984785  0.676027  1
  N  N66  1  0.526571  0.623318  0.718172  1
  N  N67  1  0.694084  0.089758  0.710778  1
  N  N68  1  0.888719  0.981191  0.806735  1
  N  N69  1  0.408658  0.816365  0.790504  1
  N  N70  1  0.521900  0.401413  0.808542  1
  N  N71  1  0.791052  0.409991  0.818178  1
  N  N72  1  0.400379  0.087500  0.883348  1
  N  N73  1  0.979585  0.803621  0.887739  1
  N  N74  1  0.022929  0.315495  0.901605  1
  N  N75  1  0.374698  0.590719  0.903069  1
  N  N76  1  0.286119  0.309547  0.910254  1
  N  N77  1  0.113106  0.596647  0.906840  1
  N  N78  1  0.684730  0.094855  0.975283  1
  N  N79  1  0.807865  0.889737  0.985970  1
