# generated using pymatgen
data_Y3Er7(AlSb2)2
_symmetry_space_group_name_H-M   'P 1'
_cell_length_a   8.84922163
_cell_length_b   8.84460309
_cell_length_c   6.36630400
_cell_angle_alpha   90.00000000
_cell_angle_beta   90.00000000
_cell_angle_gamma   120.02480860
_symmetry_Int_Tables_number   1
_chemical_formula_structural   Y3Er7(AlSb2)2
_chemical_formula_sum   'Y3 Er7 Al2 Sb4'
_cell_volume   431.41257783
_cell_formula_units_Z   1
loop_
 _symmetry_equiv_pos_site_id
 _symmetry_equiv_pos_as_xyz
  1  'x, y, z'
loop_
 _atom_site_type_symbol
 _atom_site_label
 _atom_site_symmetry_multiplicity
 _atom_site_fract_x
 _atom_site_fract_y
 _atom_site_fract_z
 _atom_site_occupancy
  Y  Y0  1  0.008772  0.766280  0.750000  1
  Y  Y1  1  0.008727  0.242490  0.250000  1
  Y  Y2  1  0.755412  0.756613  0.250000  1
  Er  Er3  1  0.755153  0.998956  0.750000  1
  Er  Er4  1  0.242057  0.232416  0.750000  1
  Er  Er5  1  0.242602  0.009883  0.250000  1
  Er  Er6  1  0.335795  0.667922  0.500056  1
  Er  Er7  1  0.655522  0.327704  0.999952  1
  Er  Er8  1  0.655522  0.327704  0.500048  1
  Er  Er9  1  0.335795  0.667922  0.999944  1
  Al  Al10  1  0.398422  0.997404  0.750000  1
  Al  Al11  1  0.397898  0.400500  0.250000  1
  Sb  Sb12  1  0.999113  0.606830  0.250000  1
  Sb  Sb13  1  0.998560  0.391547  0.750000  1
  Sb  Sb14  1  0.605428  0.604970  0.750000  1
  Sb  Sb15  1  0.605223  0.000861  0.250000  1
