# generated using pymatgen
data_Pr3Ga2(SnAu2)3
_symmetry_space_group_name_H-M   'P 1'
_cell_length_a   4.58283600
_cell_length_b   10.09232000
_cell_length_c   13.68501800
_cell_angle_alpha   90.00000000
_cell_angle_beta   90.00000000
_cell_angle_gamma   90.00000000
_symmetry_Int_Tables_number   1
_chemical_formula_structural   Pr3Ga2(SnAu2)3
_chemical_formula_sum   'Pr6 Ga4 Sn6 Au12'
_cell_volume   632.95189046
_cell_formula_units_Z   2
loop_
 _symmetry_equiv_pos_site_id
 _symmetry_equiv_pos_as_xyz
  1  'x, y, z'
loop_
 _atom_site_type_symbol
 _atom_site_label
 _atom_site_symmetry_multiplicity
 _atom_site_fract_x
 _atom_site_fract_y
 _atom_site_fract_z
 _atom_site_occupancy
  Pr  Pr0  1  0.000000  0.738052  0.808042  1
  Pr  Pr1  1  0.000000  0.738052  0.191958  1
  Pr  Pr2  1  0.500000  0.261948  0.691958  1
  Pr  Pr3  1  0.500000  0.261948  0.308042  1
  Pr  Pr4  1  0.000000  0.735710  0.500000  1
  Pr  Pr5  1  0.500000  0.264290  0.000000  1
  Ga  Ga6  1  0.000000  0.388757  0.832737  1
  Ga  Ga7  1  0.000000  0.388757  0.167263  1
  Ga  Ga8  1  0.500000  0.611243  0.667263  1
  Ga  Ga9  1  0.500000  0.611243  0.332737  1
  Sn  Sn10  1  0.000000  0.019611  0.356469  1
  Sn  Sn11  1  0.000000  0.019611  0.643531  1
  Sn  Sn12  1  0.500000  0.980389  0.143531  1
  Sn  Sn13  1  0.500000  0.980389  0.856469  1
  Sn  Sn14  1  0.000000  0.276219  0.500000  1
  Sn  Sn15  1  0.500000  0.723781  0.000000  1
  Au  Au16  1  0.000000  0.135748  0.842114  1
  Au  Au17  1  0.000000  0.135748  0.157886  1
  Au  Au18  1  0.500000  0.864252  0.657886  1
  Au  Au19  1  0.500000  0.864252  0.342114  1
  Au  Au20  1  0.000000  0.509388  0.000000  1
  Au  Au21  1  0.500000  0.490612  0.500000  1
  Au  Au22  1  0.000000  0.477864  0.351608  1
  Au  Au23  1  0.000000  0.477864  0.648392  1
  Au  Au24  1  0.500000  0.522136  0.148392  1
  Au  Au25  1  0.500000  0.522136  0.851608  1
  Au  Au26  1  0.000000  0.926740  0.000000  1
  Au  Au27  1  0.500000  0.073260  0.500000  1
