# generated using pymatgen
data_Tb3Mg2CdAgSn2
_symmetry_space_group_name_H-M   'P 1'
_cell_length_a   7.50212800
_cell_length_b   7.48785956
_cell_length_c   4.57206900
_cell_angle_alpha   90.00000000
_cell_angle_beta   90.00000000
_cell_angle_gamma   120.06304606
_symmetry_Int_Tables_number   1
_chemical_formula_structural   Tb3Mg2CdAgSn2
_chemical_formula_sum   'Tb3 Mg2 Cd1 Ag1 Sn2'
_cell_volume   222.28456771
_cell_formula_units_Z   1
loop_
 _symmetry_equiv_pos_site_id
 _symmetry_equiv_pos_as_xyz
  1  'x, y, z'
loop_
 _atom_site_type_symbol
 _atom_site_label
 _atom_site_symmetry_multiplicity
 _atom_site_fract_x
 _atom_site_fract_y
 _atom_site_fract_z
 _atom_site_occupancy
  Tb  Tb0  1  0.581822  0.000000  0.000000  1
  Tb  Tb1  1  0.001449  0.585989  0.000000  1
  Tb  Tb2  1  0.415460  0.414011  0.000000  1
  Mg  Mg3  1  0.001303  0.234836  0.500000  1
  Mg  Mg4  1  0.766467  0.765164  0.500000  1
  Cd  Cd5  1  0.237343  0.000000  0.500000  1
  Ag  Ag6  1  0.992874  0.000000  0.000000  1
  Sn  Sn7  1  0.333809  0.664336  0.500000  1
  Sn  Sn8  1  0.669474  0.335664  0.500000  1
