# generated using pymatgen
data_Er8Ta3Nb9Si15Ge
_symmetry_space_group_name_H-M   'P 1'
_cell_length_a   6.85189111
_cell_length_b   7.04820618
_cell_length_c   13.39366702
_cell_angle_alpha   90.04972098
_cell_angle_beta   89.92118705
_cell_angle_gamma   90.01287157
_symmetry_Int_Tables_number   1
_chemical_formula_structural   Er8Ta3Nb9Si15Ge
_chemical_formula_sum   'Er8 Ta3 Nb9 Si15 Ge1'
_cell_volume   646.82673905
_cell_formula_units_Z   1
loop_
 _symmetry_equiv_pos_site_id
 _symmetry_equiv_pos_as_xyz
  1  'x, y, z'
loop_
 _atom_site_type_symbol
 _atom_site_label
 _atom_site_symmetry_multiplicity
 _atom_site_fract_x
 _atom_site_fract_y
 _atom_site_fract_z
 _atom_site_occupancy
  Er  Er0  1  0.503566  0.328239  0.095729  1
  Er  Er1  1  0.002614  0.171546  0.403744  1
  Er  Er2  1  0.499710  0.674134  0.596657  1
  Er  Er3  1  0.996180  0.828039  0.904613  1
  Er  Er4  1  0.496189  0.671800  0.904516  1
  Er  Er5  1  0.996216  0.828979  0.596204  1
  Er  Er6  1  0.504178  0.326754  0.403276  1
  Er  Er7  1  0.003557  0.172336  0.095469  1
  Ta  Ta8  1  0.661735  0.007819  0.750250  1
  Ta  Ta9  1  0.161693  0.490661  0.752038  1
  Ta  Ta10  1  0.337710  0.992049  0.249707  1
  Nb  Nb11  1  0.838070  0.507821  0.249816  1
  Nb  Nb12  1  0.835345  0.324369  0.625936  1
  Nb  Nb13  1  0.336581  0.175132  0.874863  1
  Nb  Nb14  1  0.163424  0.675267  0.125103  1
  Nb  Nb15  1  0.662671  0.825456  0.374259  1
  Nb  Nb16  1  0.161647  0.677799  0.372991  1
  Nb  Nb17  1  0.662057  0.824657  0.125072  1
  Nb  Nb18  1  0.836683  0.324568  0.874775  1
  Nb  Nb19  1  0.339125  0.171402  0.626691  1
  Si  Si20  1  0.795574  0.628847  0.750323  1
  Si  Si21  1  0.294396  0.869651  0.750696  1
  Si  Si22  1  0.205595  0.371175  0.249640  1
  Si  Si23  1  0.704978  0.128139  0.249484  1
  Si  Si24  1  0.540648  0.377167  0.750362  1
  Si  Si25  1  0.040346  0.122444  0.750144  1
  Si  Si26  1  0.458898  0.623164  0.249902  1
  Si  Si27  1  0.958486  0.878390  0.248922  1
  Si  Si28  1  0.664247  0.036268  0.540388  1
  Si  Si29  1  0.163065  0.464435  0.959278  1
  Si  Si30  1  0.336281  0.964713  0.040849  1
  Si  Si31  1  0.832724  0.536764  0.459008  1
  Si  Si32  1  0.336155  0.963985  0.459273  1
  Si  Si33  1  0.836870  0.535888  0.040585  1
  Si  Si34  1  0.663194  0.035502  0.959193  1
  Ge  Ge35  1  0.169593  0.464642  0.540247  1
