# generated using pymatgen
data_DyEr11(InSi2)2
_symmetry_space_group_name_H-M   'P 1'
_cell_length_a   8.45012101
_cell_length_b   8.45012019
_cell_length_c   8.44447008
_cell_angle_alpha   112.60712294
_cell_angle_beta   110.88443615
_cell_angle_gamma   105.04638116
_symmetry_Int_Tables_number   1
_chemical_formula_structural   DyEr11(InSi2)2
_chemical_formula_sum   'Dy1 Er11 In2 Si4'
_cell_volume   461.81859588
_cell_formula_units_Z   1
loop_
 _symmetry_equiv_pos_site_id
 _symmetry_equiv_pos_as_xyz
  1  'x, y, z'
loop_
 _atom_site_type_symbol
 _atom_site_label
 _atom_site_symmetry_multiplicity
 _atom_site_fract_x
 _atom_site_fract_y
 _atom_site_fract_z
 _atom_site_occupancy
  Dy  Dy0  1  0.187582  0.279723  0.467306  1
  Er  Er1  1  0.812654  0.720207  0.532861  1
  Er  Er2  1  0.187227  0.720259  0.907485  1
  Er  Er3  1  0.812619  0.279803  0.092423  1
  Er  Er4  1  0.319542  0.615720  0.296019  1
  Er  Er5  1  0.680677  0.384396  0.704124  1
  Er  Er6  1  0.319728  0.023447  0.704124  1
  Er  Er7  1  0.680298  0.976476  0.296019  1
  Er  Er8  1  0.442403  0.236927  0.205033  1
  Er  Er9  1  0.557981  0.763316  0.794936  1
  Er  Er10  1  0.031620  0.236956  0.794936  1
  Er  Er11  1  0.968106  0.762629  0.205033  1
  In  In12  1  0.500079  0.500029  0.000108  1
  In  In13  1  0.999810  0.999636  0.999447  1
  Si  Si14  1  0.116067  0.616589  0.500033  1
  Si  Si15  1  0.883444  0.383966  0.500033  1
  Si  Si16  1  0.369604  0.999911  0.369514  1
  Si  Si17  1  0.630559  0.000010  0.630569  1
