# generated using pymatgen
data_Ac6ZnGa7Cl2
_symmetry_space_group_name_H-M   'P 1'
_cell_length_a   8.43044214
_cell_length_b   8.43877909
_cell_length_c   8.42324800
_cell_angle_alpha   119.41457574
_cell_angle_beta   119.38137776
_cell_angle_gamma   91.12173634
_symmetry_Int_Tables_number   1
_chemical_formula_structural   Ac6ZnGa7Cl2
_chemical_formula_sum   'Ac6 Zn1 Ga7 Cl2'
_cell_volume   427.22505443
_cell_formula_units_Z   1
loop_
 _symmetry_equiv_pos_site_id
 _symmetry_equiv_pos_as_xyz
  1  'x, y, z'
loop_
 _atom_site_type_symbol
 _atom_site_label
 _atom_site_symmetry_multiplicity
 _atom_site_fract_x
 _atom_site_fract_y
 _atom_site_fract_z
 _atom_site_occupancy
  Ac  Ac0  1  0.839748  0.660783  0.500000  1
  Ac  Ac1  1  0.660703  0.160271  0.820691  1
  Ac  Ac2  1  0.340013  0.839581  0.179309  1
  Ac  Ac3  1  0.160379  0.340367  0.500000  1
  Ac  Ac4  1  0.248943  0.250166  0.998740  1
  Ac  Ac5  1  0.750204  0.751427  0.001260  1
  Zn  Zn6  1  0.157726  0.939563  0.500000  1
  Ga  Ga7  1  0.440570  0.659468  0.500000  1
  Ga  Ga8  1  0.558613  0.340535  0.500000  1
  Ga  Ga9  1  0.659235  0.158211  0.217941  1
  Ga  Ga10  1  0.843071  0.057563  0.500000  1
  Ga  Ga11  1  0.058564  0.560246  0.218009  1
  Ga  Ga12  1  0.340556  0.842238  0.781991  1
  Ga  Ga13  1  0.941295  0.440271  0.782059  1
  Cl  Cl14  1  0.000313  0.999777  0.000245  1
  Cl  Cl15  1  0.500068  0.499533  0.999755  1
