# generated using pymatgen
data_Sc8Ta4Nb7Si16Mo
_symmetry_space_group_name_H-M   'P 1'
_cell_length_a   6.69118110
_cell_length_b   6.88579621
_cell_length_c   13.12614703
_cell_angle_alpha   89.99968382
_cell_angle_beta   89.99236155
_cell_angle_gamma   89.97695696
_symmetry_Int_Tables_number   1
_chemical_formula_structural   Sc8Ta4Nb7Si16Mo
_chemical_formula_sum   'Sc8 Ta4 Nb7 Si16 Mo1'
_cell_volume   604.77548027
_cell_formula_units_Z   1
loop_
 _symmetry_equiv_pos_site_id
 _symmetry_equiv_pos_as_xyz
  1  'x, y, z'
loop_
 _atom_site_type_symbol
 _atom_site_label
 _atom_site_symmetry_multiplicity
 _atom_site_fract_x
 _atom_site_fract_y
 _atom_site_fract_z
 _atom_site_occupancy
  Sc  Sc0  1  0.499596  0.325299  0.094457  1
  Sc  Sc1  1  0.000775  0.174195  0.405542  1
  Sc  Sc2  1  0.498838  0.674729  0.594776  1
  Sc  Sc3  1  0.998291  0.826113  0.904698  1
  Sc  Sc4  1  0.498796  0.674918  0.905175  1
  Sc  Sc5  1  0.998441  0.826201  0.595262  1
  Sc  Sc6  1  0.499577  0.325392  0.405656  1
  Sc  Sc7  1  0.000760  0.174069  0.094523  1
  Ta  Ta8  1  0.335082  0.174425  0.625072  1
  Ta  Ta9  1  0.660027  0.005628  0.749934  1
  Ta  Ta10  1  0.160096  0.492988  0.749889  1
  Ta  Ta11  1  0.339417  0.993600  0.250077  1
  Nb  Nb12  1  0.835416  0.325968  0.624543  1
  Nb  Nb13  1  0.334842  0.174339  0.875003  1
  Nb  Nb14  1  0.165808  0.672469  0.125709  1
  Nb  Nb15  1  0.665063  0.826779  0.374465  1
  Nb  Nb16  1  0.165590  0.672429  0.374284  1
  Nb  Nb17  1  0.665080  0.826726  0.125573  1
  Nb  Nb18  1  0.835573  0.326203  0.875445  1
  Si  Si19  1  0.668174  0.032538  0.539887  1
  Si  Si20  1  0.168434  0.467735  0.960411  1
  Si  Si21  1  0.331664  0.967311  0.039994  1
  Si  Si22  1  0.832048  0.533213  0.458905  1
  Si  Si23  1  0.331659  0.967280  0.460114  1
  Si  Si24  1  0.832174  0.533182  0.041039  1
  Si  Si25  1  0.668436  0.032487  0.960103  1
  Si  Si26  1  0.168887  0.467728  0.539598  1
  Si  Si27  1  0.538837  0.386659  0.750057  1
  Si  Si28  1  0.037328  0.111755  0.749958  1
  Si  Si29  1  0.466736  0.610307  0.250022  1
  Si  Si30  1  0.961619  0.887260  0.249998  1
  Si  Si31  1  0.793517  0.639290  0.749979  1
  Si  Si32  1  0.293509  0.860060  0.749872  1
  Si  Si33  1  0.202350  0.360702  0.249967  1
  Si  Si34  1  0.706551  0.144140  0.250031  1
  Mo  Mo35  1  0.841006  0.505880  0.249979  1
