# generated using pymatgen
data_Ho18TmMgIr12
_symmetry_space_group_name_H-M   'P 1'
_cell_length_a   10.80479000
_cell_length_b   10.80479000
_cell_length_c   6.29274900
_cell_angle_alpha   90.00000000
_cell_angle_beta   90.00000000
_cell_angle_gamma   90.00000000
_symmetry_Int_Tables_number   1
_chemical_formula_structural   Ho18TmMgIr12
_chemical_formula_sum   'Ho18 Tm1 Mg1 Ir12'
_cell_volume   734.63746072
_cell_formula_units_Z   1
loop_
 _symmetry_equiv_pos_site_id
 _symmetry_equiv_pos_as_xyz
  1  'x, y, z'
loop_
 _atom_site_type_symbol
 _atom_site_label
 _atom_site_symmetry_multiplicity
 _atom_site_fract_x
 _atom_site_fract_y
 _atom_site_fract_z
 _atom_site_occupancy
  Ho  Ho0  1  0.284212  0.084625  0.378127  1
  Ho  Ho1  1  0.290708  0.912226  0.878896  1
  Ho  Ho2  1  0.709292  0.087774  0.878896  1
  Ho  Ho3  1  0.715788  0.915375  0.378127  1
  Ho  Ho4  1  0.588357  0.791786  0.877790  1
  Ho  Ho5  1  0.587222  0.208221  0.376452  1
  Ho  Ho6  1  0.412778  0.791779  0.376452  1
  Ho  Ho7  1  0.411643  0.208214  0.877790  1
  Ho  Ho8  1  0.208221  0.412778  0.623548  1
  Ho  Ho9  1  0.208214  0.588357  0.122210  1
  Ho  Ho10  1  0.791786  0.411643  0.122210  1
  Ho  Ho11  1  0.791779  0.587222  0.623548  1
  Ho  Ho12  1  0.912226  0.709292  0.121104  1
  Ho  Ho13  1  0.915375  0.284212  0.621873  1
  Ho  Ho14  1  0.084625  0.715788  0.621873  1
  Ho  Ho15  1  0.087774  0.290708  0.121104  1
  Ho  Ho16  1  0.000000  0.000000  0.000000  1
  Ho  Ho17  1  0.500000  0.500000  0.000000  1
  Tm  Tm18  1  0.500000  0.500000  0.500000  1
  Mg  Mg19  1  0.000000  0.000000  0.500000  1
  Ir  Ir20  1  0.846130  0.154644  0.247162  1
  Ir  Ir21  1  0.845356  0.846130  0.752838  1
  Ir  Ir22  1  0.154644  0.153870  0.752838  1
  Ir  Ir23  1  0.153870  0.845356  0.247162  1
  Ir  Ir24  1  0.653956  0.346433  0.748167  1
  Ir  Ir25  1  0.653567  0.653956  0.251833  1
  Ir  Ir26  1  0.346433  0.346044  0.251833  1
  Ir  Ir27  1  0.346044  0.653567  0.748167  1
  Ir  Ir28  1  0.500000  0.000000  0.124234  1
  Ir  Ir29  1  0.500000  0.000000  0.620567  1
  Ir  Ir30  1  0.000000  0.500000  0.875766  1
  Ir  Ir31  1  0.000000  0.500000  0.379433  1
