# generated using pymatgen
data_Pr3Lu2P12Ru19
_symmetry_space_group_name_H-M   'P 1'
_cell_length_a   12.59278800
_cell_length_b   12.59278910
_cell_length_c   4.00939800
_cell_angle_alpha   90.00000000
_cell_angle_beta   90.00000000
_cell_angle_gamma   120.00000238
_symmetry_Int_Tables_number   1
_chemical_formula_structural   Pr3Lu2P12Ru19
_chemical_formula_sum   'Pr3 Lu2 P12 Ru19'
_cell_volume   550.62206724
_cell_formula_units_Z   1
loop_
 _symmetry_equiv_pos_site_id
 _symmetry_equiv_pos_as_xyz
  1  'x, y, z'
loop_
 _atom_site_type_symbol
 _atom_site_label
 _atom_site_symmetry_multiplicity
 _atom_site_fract_x
 _atom_site_fract_y
 _atom_site_fract_z
 _atom_site_occupancy
  Pr  Pr0  1  0.183951  0.183951  0.500000  1
  Pr  Pr1  1  0.816049  0.000000  0.500000  1
  Pr  Pr2  1  0.000000  0.816049  0.500000  1
  Lu  Lu3  1  0.333333  0.666667  0.000000  1
  Lu  Lu4  1  0.666667  0.333333  0.000000  1
  P  P5  1  0.811119  0.811119  0.000000  1
  P  P6  1  0.188881  0.000000  0.000000  1
  P  P7  1  0.000000  0.188881  0.000000  1
  P  P8  1  0.174617  0.479566  0.500000  1
  P  P9  1  0.520434  0.695051  0.500000  1
  P  P10  1  0.304949  0.825383  0.500000  1
  P  P11  1  0.695051  0.520434  0.500000  1
  P  P12  1  0.825383  0.304949  0.500000  1
  P  P13  1  0.479566  0.174617  0.500000  1
  P  P14  1  0.374092  0.374092  0.000000  1
  P  P15  1  0.625908  0.000000  0.000000  1
  P  P16  1  0.000000  0.625908  0.000000  1
  Ru  Ru17  1  0.553712  0.553712  0.000000  1
  Ru  Ru18  1  0.446288  0.000000  0.000000  1
  Ru  Ru19  1  0.000000  0.446288  0.000000  1
  Ru  Ru20  1  0.712412  0.712412  0.500000  1
  Ru  Ru21  1  0.287588  0.000000  0.500000  1
  Ru  Ru22  1  0.000000  0.287588  0.500000  1
  Ru  Ru23  1  0.185736  0.382219  0.000000  1
  Ru  Ru24  1  0.617781  0.803517  0.000000  1
  Ru  Ru25  1  0.196483  0.814264  0.000000  1
  Ru  Ru26  1  0.803517  0.617781  0.000000  1
  Ru  Ru27  1  0.814264  0.196483  0.000000  1
  Ru  Ru28  1  0.382219  0.185736  0.000000  1
  Ru  Ru29  1  0.367901  0.494461  0.500000  1
  Ru  Ru30  1  0.505539  0.873440  0.500000  1
  Ru  Ru31  1  0.126560  0.632099  0.500000  1
  Ru  Ru32  1  0.873440  0.505539  0.500000  1
  Ru  Ru33  1  0.632099  0.126560  0.500000  1
  Ru  Ru34  1  0.494461  0.367901  0.500000  1
  Ru  Ru35  1  0.000000  0.000000  0.000000  1
