# generated using pymatgen
data_Ho6InTe2
_symmetry_space_group_name_H-M   'P 1'
_cell_length_a   4.21703600
_cell_length_b   11.67101000
_cell_length_c   21.77621100
_cell_angle_alpha   90.00000000
_cell_angle_beta   90.00000000
_cell_angle_gamma   90.00000000
_symmetry_Int_Tables_number   1
_chemical_formula_structural   Ho6InTe2
_chemical_formula_sum   'Ho24 In4 Te8'
_cell_volume   1071.76128645
_cell_formula_units_Z   4
loop_
 _symmetry_equiv_pos_site_id
 _symmetry_equiv_pos_as_xyz
  1  'x, y, z'
loop_
 _atom_site_type_symbol
 _atom_site_label
 _atom_site_symmetry_multiplicity
 _atom_site_fract_x
 _atom_site_fract_y
 _atom_site_fract_z
 _atom_site_occupancy
  Ho  Ho0  1  0.750000  0.670356  0.891319  1
  Ho  Ho1  1  0.250000  0.369888  0.469048  1
  Ho  Ho2  1  0.750000  0.869888  0.030952  1
  Ho  Ho3  1  0.750000  0.973508  0.837027  1
  Ho  Ho4  1  0.250000  0.170356  0.608681  1
  Ho  Ho5  1  0.250000  0.746181  0.268958  1
  Ho  Ho6  1  0.750000  0.109394  0.490798  1
  Ho  Ho7  1  0.750000  0.567205  0.141781  1
  Ho  Ho8  1  0.250000  0.329644  0.108681  1
  Ho  Ho9  1  0.250000  0.026492  0.162973  1
  Ho  Ho10  1  0.250000  0.473508  0.662973  1
  Ho  Ho11  1  0.250000  0.753819  0.768958  1
  Ho  Ho12  1  0.750000  0.526492  0.337027  1
  Ho  Ho13  1  0.750000  0.932795  0.641781  1
  Ho  Ho14  1  0.250000  0.609394  0.009202  1
  Ho  Ho15  1  0.750000  0.253819  0.731042  1
  Ho  Ho16  1  0.750000  0.246181  0.231042  1
  Ho  Ho17  1  0.750000  0.630112  0.530952  1
  Ho  Ho18  1  0.750000  0.829644  0.391319  1
  Ho  Ho19  1  0.250000  0.130112  0.969048  1
  Ho  Ho20  1  0.250000  0.890606  0.509202  1
  Ho  Ho21  1  0.750000  0.390606  0.990798  1
  Ho  Ho22  1  0.250000  0.432795  0.858219  1
  Ho  Ho23  1  0.250000  0.067205  0.358219  1
  In  In24  1  0.750000  0.133392  0.076257  1
  In  In25  1  0.250000  0.633392  0.423743  1
  In  In26  1  0.250000  0.866608  0.923743  1
  In  In27  1  0.750000  0.366608  0.576257  1
  Te  Te28  1  0.250000  0.770443  0.126644  1
  Te  Te29  1  0.250000  0.729557  0.626644  1
  Te  Te30  1  0.250000  0.040494  0.735860  1
  Te  Te31  1  0.750000  0.270443  0.373356  1
  Te  Te32  1  0.750000  0.540494  0.764140  1
  Te  Te33  1  0.250000  0.459506  0.235860  1
  Te  Te34  1  0.750000  0.959506  0.264140  1
  Te  Te35  1  0.750000  0.229557  0.873356  1
