# generated using pymatgen
data_Ho3TmGa12Fe
_symmetry_space_group_name_H-M   'P 1'
_cell_length_a   7.39827546
_cell_length_b   7.39827475
_cell_length_c   7.41358300
_cell_angle_alpha   109.51313864
_cell_angle_beta   109.51313669
_cell_angle_gamma   109.42927013
_symmetry_Int_Tables_number   1
_chemical_formula_structural   Ho3TmGa12Fe
_chemical_formula_sum   'Ho3 Tm1 Ga12 Fe1'
_cell_volume   312.20675393
_cell_formula_units_Z   1
loop_
 _symmetry_equiv_pos_site_id
 _symmetry_equiv_pos_as_xyz
  1  'x, y, z'
loop_
 _atom_site_type_symbol
 _atom_site_label
 _atom_site_symmetry_multiplicity
 _atom_site_fract_x
 _atom_site_fract_y
 _atom_site_fract_z
 _atom_site_occupancy
  Ho  Ho0  1  0.000000  0.500000  0.000000  1
  Ho  Ho1  1  0.500000  0.000000  0.000000  1
  Ho  Ho2  1  0.500000  0.500000  0.500000  1
  Tm  Tm3  1  0.000000  0.000000  0.500000  1
  Ga  Ga4  1  0.750165  0.249835  0.500000  1
  Ga  Ga5  1  0.750165  0.500330  0.250165  1
  Ga  Ga6  1  0.499670  0.249835  0.749835  1
  Ga  Ga7  1  0.249835  0.499670  0.749835  1
  Ga  Ga8  1  0.249835  0.750165  0.500000  1
  Ga  Ga9  1  0.500330  0.750165  0.250165  1
  Ga  Ga10  1  0.716076  0.716076  0.000299  1
  Ga  Ga11  1  0.283924  0.000000  0.284222  1
  Ga  Ga12  1  0.000000  0.283924  0.284222  1
  Ga  Ga13  1  0.283924  0.283924  0.999701  1
  Ga  Ga14  1  0.716076  0.000000  0.715778  1
  Ga  Ga15  1  0.000000  0.716076  0.715778  1
  Fe  Fe16  1  0.000000  0.000000  0.000000  1
