# generated using pymatgen
data_Tb3Pr3Al24Ru7Au
_symmetry_space_group_name_H-M   'P 1'
_cell_length_a   8.89505573
_cell_length_b   8.90247131
_cell_length_c   9.61808368
_cell_angle_alpha   90.02338044
_cell_angle_beta   89.96543213
_cell_angle_gamma   119.84713069
_symmetry_Int_Tables_number   1
_chemical_formula_structural   Tb3Pr3Al24Ru7Au
_chemical_formula_sum   'Tb3 Pr3 Al24 Ru7 Au1'
_cell_volume   660.61022376
_cell_formula_units_Z   1
loop_
 _symmetry_equiv_pos_site_id
 _symmetry_equiv_pos_as_xyz
  1  'x, y, z'
loop_
 _atom_site_type_symbol
 _atom_site_label
 _atom_site_symmetry_multiplicity
 _atom_site_fract_x
 _atom_site_fract_y
 _atom_site_fract_z
 _atom_site_occupancy
  Tb  Tb0  1  0.193766  0.388987  0.253249  1
  Tb  Tb1  1  0.806425  0.610898  0.746925  1
  Tb  Tb2  1  0.614770  0.808253  0.249039  1
  Pr  Pr3  1  0.382762  0.190053  0.751419  1
  Pr  Pr4  1  0.192199  0.810514  0.248588  1
  Pr  Pr5  1  0.808293  0.190195  0.751264  1
  Al  Al6  1  0.328513  0.656137  0.019443  1
  Al  Al7  1  0.673092  0.345306  0.985049  1
  Al  Al8  1  0.667651  0.333952  0.511475  1
  Al  Al9  1  0.334016  0.666526  0.484165  1
  Al  Al10  1  0.163611  0.326061  0.575854  1
  Al  Al11  1  0.835775  0.675502  0.422326  1
  Al  Al12  1  0.675207  0.834566  0.574811  1
  Al  Al13  1  0.835914  0.675428  0.076621  1
  Al  Al14  1  0.324836  0.165327  0.421828  1
  Al  Al15  1  0.163362  0.326308  0.925716  1
  Al  Al16  1  0.160603  0.834690  0.576477  1
  Al  Al17  1  0.321706  0.173470  0.081463  1
  Al  Al18  1  0.838280  0.162560  0.421553  1
  Al  Al19  1  0.678020  0.826769  0.921849  1
  Al  Al20  1  0.850309  0.172016  0.081626  1
  Al  Al21  1  0.148597  0.826036  0.920047  1
  Al  Al22  1  0.566324  0.130440  0.255855  1
  Al  Al23  1  0.434643  0.867223  0.743115  1
  Al  Al24  1  0.877719  0.439412  0.248419  1
  Al  Al25  1  0.122954  0.560904  0.751566  1
  Al  Al26  1  0.560964  0.441832  0.248719  1
  Al  Al27  1  0.439770  0.561484  0.751821  1
  Al  Al28  1  0.997270  0.002903  0.250181  1
  Al  Al29  1  0.997927  0.994482  0.749831  1
  Ru  Ru30  1  0.000499  0.500175  0.000452  1
  Ru  Ru31  1  0.500953  0.999230  0.498547  1
  Ru  Ru32  1  0.500616  0.501272  0.001305  1
  Ru  Ru33  1  0.000571  0.500099  0.499432  1
  Ru  Ru34  1  0.500878  0.501128  0.499141  1
  Ru  Ru35  1  0.999934  0.000071  0.000270  1
  Ru  Ru36  1  0.000245  0.000126  0.499808  1
  Au  Au37  1  0.501024  0.999661  0.000750  1
