# generated using pymatgen
data_Tb7Th(ReB6)4
_symmetry_space_group_name_H-M   'P 1'
_cell_length_a   3.72625200
_cell_length_b   9.22529980
_cell_length_c   11.62646401
_cell_angle_alpha   90.04773178
_cell_angle_beta   90.00000000
_cell_angle_gamma   90.00000000
_symmetry_Int_Tables_number   1
_chemical_formula_structural   Tb7Th(ReB6)4
_chemical_formula_sum   'Tb7 Th1 Re4 B24'
_cell_volume   399.66876781
_cell_formula_units_Z   1
loop_
 _symmetry_equiv_pos_site_id
 _symmetry_equiv_pos_as_xyz
  1  'x, y, z'
loop_
 _atom_site_type_symbol
 _atom_site_label
 _atom_site_symmetry_multiplicity
 _atom_site_fract_x
 _atom_site_fract_y
 _atom_site_fract_z
 _atom_site_occupancy
  Tb  Tb0  1  0.000000  0.677096  0.587233  1
  Tb  Tb1  1  0.000000  0.823880  0.085233  1
  Tb  Tb2  1  0.000000  0.175476  0.913882  1
  Tb  Tb3  1  0.000000  0.942128  0.369422  1
  Tb  Tb4  1  0.000000  0.056005  0.631275  1
  Tb  Tb5  1  0.000000  0.443611  0.128561  1
  Tb  Tb6  1  0.000000  0.557233  0.870271  1
  Th  Th7  1  0.000000  0.323165  0.414002  1
  Re  Re8  1  0.000000  0.638651  0.321168  1
  Re  Re9  1  0.000000  0.361867  0.679507  1
  Re  Re10  1  0.000000  0.138374  0.178353  1
  Re  Re11  1  0.000000  0.861662  0.821045  1
  B  B12  1  0.500000  0.555813  0.432243  1
  B  B13  1  0.500000  0.446863  0.569501  1
  B  B14  1  0.500000  0.053146  0.066679  1
  B  B15  1  0.500000  0.946508  0.932782  1
  B  B16  1  0.500000  0.749518  0.418222  1
  B  B17  1  0.500000  0.251408  0.584806  1
  B  B18  1  0.500000  0.248113  0.080492  1
  B  B19  1  0.500000  0.751604  0.918169  1
  B  B20  1  0.500000  0.791692  0.265501  1
  B  B21  1  0.500000  0.208427  0.735603  1
  B  B22  1  0.500000  0.290137  0.232055  1
  B  B23  1  0.500000  0.708391  0.765951  1
  B  B24  1  0.500000  0.632524  0.185011  1
  B  B25  1  0.500000  0.369021  0.814606  1
  B  B26  1  0.500000  0.129921  0.312054  1
  B  B27  1  0.500000  0.868307  0.686483  1
  B  B28  1  0.500000  0.983055  0.210988  1
  B  B29  1  0.500000  0.016007  0.788622  1
  B  B30  1  0.500000  0.486589  0.286558  1
  B  B31  1  0.500000  0.517014  0.713296  1
  B  B32  1  0.500000  0.602194  0.027951  1
  B  B33  1  0.500000  0.398497  0.971105  1
  B  B34  1  0.500000  0.098051  0.472613  1
  B  B35  1  0.500000  0.898048  0.528753  1
