# generated using pymatgen
data_Er10Tl7In(PtRh)2
_symmetry_space_group_name_H-M   'P 1'
_cell_length_a   3.59786300
_cell_length_b   8.16641414
_cell_length_c   18.31033599
_cell_angle_alpha   90.04548168
_cell_angle_beta   90.00000000
_cell_angle_gamma   90.00000000
_symmetry_Int_Tables_number   1
_chemical_formula_structural   Er10Tl7In(PtRh)2
_chemical_formula_sum   'Er10 Tl7 In1 Pt2 Rh2'
_cell_volume   537.98751753
_cell_formula_units_Z   1
loop_
 _symmetry_equiv_pos_site_id
 _symmetry_equiv_pos_as_xyz
  1  'x, y, z'
loop_
 _atom_site_type_symbol
 _atom_site_label
 _atom_site_symmetry_multiplicity
 _atom_site_fract_x
 _atom_site_fract_y
 _atom_site_fract_z
 _atom_site_occupancy
  Er  Er0  1  0.000000  0.112657  0.411066  1
  Er  Er1  1  0.000000  0.888801  0.588138  1
  Er  Er2  1  0.000000  0.385846  0.910537  1
  Er  Er3  1  0.000000  0.613036  0.089590  1
  Er  Er4  1  0.000000  0.236905  0.222593  1
  Er  Er5  1  0.000000  0.762384  0.777566  1
  Er  Er6  1  0.000000  0.251826  0.719492  1
  Er  Er7  1  0.000000  0.746887  0.280537  1
  Er  Er8  1  0.000000  0.999699  0.000172  1
  Er  Er9  1  0.000000  0.502670  0.499761  1
  Tl  Tl10  1  0.500000  0.419677  0.354147  1
  Tl  Tl11  1  0.500000  0.584393  0.646107  1
  Tl  Tl12  1  0.500000  0.075146  0.851015  1
  Tl  Tl13  1  0.500000  0.923969  0.149506  1
  Tl  Tl14  1  0.500000  0.291634  0.063311  1
  Tl  Tl15  1  0.500000  0.707131  0.936672  1
  Tl  Tl16  1  0.500000  0.207384  0.564851  1
  In  In17  1  0.500000  0.796271  0.433682  1
  Pt  Pt18  1  0.500000  0.477058  0.801202  1
  Pt  Pt19  1  0.500000  0.520598  0.198531  1
  Rh  Rh20  1  0.500000  0.016688  0.306502  1
  Rh  Rh21  1  0.500000  0.979339  0.695022  1
