# generated using pymatgen
data_LiYbPt4
_symmetry_space_group_name_H-M   'P 1'
_cell_length_a   5.34503827
_cell_length_b   5.34503763
_cell_length_c   5.34503800
_cell_angle_alpha   59.99999772
_cell_angle_beta   60.00000165
_cell_angle_gamma   60.00000432
_symmetry_Int_Tables_number   1
_chemical_formula_structural   LiYbPt4
_chemical_formula_sum   'Li1 Yb1 Pt4'
_cell_volume   107.97852667
_cell_formula_units_Z   1
loop_
 _symmetry_equiv_pos_site_id
 _symmetry_equiv_pos_as_xyz
  1  'x, y, z'
loop_
 _atom_site_type_symbol
 _atom_site_label
 _atom_site_symmetry_multiplicity
 _atom_site_fract_x
 _atom_site_fract_y
 _atom_site_fract_z
 _atom_site_occupancy
  Li  Li0  1  0.750000  0.750000  0.750000  1
  Yb  Yb1  1  0.500000  0.500000  0.500000  1
  Pt  Pt2  1  0.124804  0.625589  0.124804  1
  Pt  Pt3  1  0.124804  0.124804  0.625589  1
  Pt  Pt4  1  0.625589  0.124804  0.124804  1
  Pt  Pt5  1  0.124804  0.124804  0.124804  1
