# generated using pymatgen
data_Dy20NiAg6Os
_symmetry_space_group_name_H-M   'P 1'
_cell_length_a   9.53155500
_cell_length_b   9.53155582
_cell_length_c   9.70113900
_cell_angle_alpha   90.00000000
_cell_angle_beta   90.00000000
_cell_angle_gamma   119.99999369
_symmetry_Int_Tables_number   1
_chemical_formula_structural   Dy20NiAg6Os
_chemical_formula_sum   'Dy20 Ni1 Ag6 Os1'
_cell_volume   763.27482843
_cell_formula_units_Z   1
loop_
 _symmetry_equiv_pos_site_id
 _symmetry_equiv_pos_as_xyz
  1  'x, y, z'
loop_
 _atom_site_type_symbol
 _atom_site_label
 _atom_site_symmetry_multiplicity
 _atom_site_fract_x
 _atom_site_fract_y
 _atom_site_fract_z
 _atom_site_occupancy
  Dy  Dy0  1  0.000000  0.000000  0.499983  1
  Dy  Dy1  1  0.000000  0.000000  0.000017  1
  Dy  Dy2  1  0.541177  0.458823  0.250000  1
  Dy  Dy3  1  0.541177  0.082352  0.250000  1
  Dy  Dy4  1  0.917648  0.458823  0.250000  1
  Dy  Dy5  1  0.456898  0.543102  0.750000  1
  Dy  Dy6  1  0.456898  0.913796  0.750000  1
  Dy  Dy7  1  0.086204  0.543102  0.750000  1
  Dy  Dy8  1  0.208640  0.791360  0.441223  1
  Dy  Dy9  1  0.208640  0.417280  0.441223  1
  Dy  Dy10  1  0.582720  0.791360  0.441223  1
  Dy  Dy11  1  0.789750  0.210250  0.560870  1
  Dy  Dy12  1  0.789750  0.579499  0.560870  1
  Dy  Dy13  1  0.420501  0.210250  0.560870  1
  Dy  Dy14  1  0.789750  0.210250  0.939130  1
  Dy  Dy15  1  0.789750  0.579499  0.939130  1
  Dy  Dy16  1  0.420501  0.210250  0.939130  1
  Dy  Dy17  1  0.208640  0.791360  0.058777  1
  Dy  Dy18  1  0.208640  0.417280  0.058777  1
  Dy  Dy19  1  0.582720  0.791360  0.058777  1
  Ni  Ni20  1  0.666667  0.333333  0.750000  1
  Ag  Ag21  1  0.883570  0.116430  0.250000  1
  Ag  Ag22  1  0.883570  0.767141  0.250000  1
  Ag  Ag23  1  0.232859  0.116430  0.250000  1
  Ag  Ag24  1  0.115499  0.884501  0.750000  1
  Ag  Ag25  1  0.115499  0.230998  0.750000  1
  Ag  Ag26  1  0.769002  0.884501  0.750000  1
  Os  Os27  1  0.333333  0.666667  0.250000  1
