# generated using pymatgen
data_Ce4Al18(FePd)3
_symmetry_space_group_name_H-M   'P 1'
_cell_length_a   7.60194794
_cell_length_b   7.60194877
_cell_length_c   9.41587664
_cell_angle_alpha   89.98261788
_cell_angle_beta   89.98261436
_cell_angle_gamma   119.51408545
_symmetry_Int_Tables_number   1
_chemical_formula_structural   Ce4Al18(FePd)3
_chemical_formula_sum   'Ce4 Al18 Fe3 Pd3'
_cell_volume   473.52930845
_cell_formula_units_Z   1
loop_
 _symmetry_equiv_pos_site_id
 _symmetry_equiv_pos_as_xyz
  1  'x, y, z'
loop_
 _atom_site_type_symbol
 _atom_site_label
 _atom_site_symmetry_multiplicity
 _atom_site_fract_x
 _atom_site_fract_y
 _atom_site_fract_z
 _atom_site_occupancy
  Ce  Ce0  1  0.993929  0.670487  0.247131  1
  Ce  Ce1  1  0.005387  0.330674  0.751703  1
  Ce  Ce2  1  0.669326  0.994613  0.248297  1
  Ce  Ce3  1  0.329513  0.006071  0.752869  1
  Al  Al4  1  0.119328  0.121195  0.248272  1
  Al  Al5  1  0.878805  0.880672  0.751728  1
  Al  Al6  1  0.991695  0.325127  0.072962  1
  Al  Al7  1  0.991538  0.665212  0.925317  1
  Al  Al8  1  0.996843  0.674972  0.576592  1
  Al  Al9  1  0.325028  0.003157  0.423408  1
  Al  Al10  1  0.001421  0.325408  0.424241  1
  Al  Al11  1  0.674592  0.998579  0.575759  1
  Al  Al12  1  0.674873  0.008305  0.927038  1
  Al  Al13  1  0.334788  0.008462  0.074683  1
  Al  Al14  1  0.326025  0.326363  0.551210  1
  Al  Al15  1  0.673637  0.673975  0.448790  1
  Al  Al16  1  0.674211  0.666875  0.043528  1
  Al  Al17  1  0.333125  0.325789  0.956472  1
  Al  Al18  1  0.341653  0.542142  0.249294  1
  Al  Al19  1  0.657744  0.449704  0.759083  1
  Al  Al20  1  0.550296  0.342256  0.240917  1
  Al  Al21  1  0.457858  0.658347  0.750706  1
  Fe  Fe22  1  0.672352  0.327648  0.000000  1
  Fe  Fe23  1  0.999891  0.000109  0.000000  1
  Fe  Fe24  1  0.999662  0.000338  0.500000  1
  Pd  Pd25  1  0.327683  0.672317  0.000000  1
  Pd  Pd26  1  0.327487  0.672513  0.500000  1
  Pd  Pd27  1  0.671308  0.328692  0.500000  1
