# generated using pymatgen
data_La3PrAl15(GaIr2)3
_symmetry_space_group_name_H-M   'P 1'
_cell_length_a   7.63359188
_cell_length_b   7.63575624
_cell_length_c   9.72480100
_cell_angle_alpha   90.00000000
_cell_angle_beta   90.00000000
_cell_angle_gamma   119.28163538
_symmetry_Int_Tables_number   1
_chemical_formula_structural   La3PrAl15(GaIr2)3
_chemical_formula_sum   'La3 Pr1 Al15 Ga3 Ir6'
_cell_volume   494.41403105
_cell_formula_units_Z   1
loop_
 _symmetry_equiv_pos_site_id
 _symmetry_equiv_pos_as_xyz
  1  'x, y, z'
loop_
 _atom_site_type_symbol
 _atom_site_label
 _atom_site_symmetry_multiplicity
 _atom_site_fract_x
 _atom_site_fract_y
 _atom_site_fract_z
 _atom_site_occupancy
  La  La0  1  0.998103  0.674012  0.250000  1
  La  La1  1  0.004294  0.325771  0.750000  1
  La  La2  1  0.670153  0.991266  0.250000  1
  Pr  Pr3  1  0.325429  0.003099  0.750000  1
  Al  Al4  1  0.004902  0.335763  0.070490  1
  Al  Al5  1  0.997282  0.664409  0.927234  1
  Al  Al6  1  0.997282  0.664409  0.572766  1
  Al  Al7  1  0.336759  0.006772  0.430195  1
  Al  Al8  1  0.004902  0.335763  0.429510  1
  Al  Al9  1  0.662699  0.996921  0.572497  1
  Al  Al10  1  0.662699  0.996921  0.927503  1
  Al  Al11  1  0.336759  0.006772  0.069805  1
  Al  Al12  1  0.335561  0.335163  0.553121  1
  Al  Al13  1  0.665129  0.664585  0.458940  1
  Al  Al14  1  0.665129  0.664585  0.041060  1
  Al  Al15  1  0.335561  0.335163  0.946879  1
  Al  Al16  1  0.660331  0.452065  0.750000  1
  Al  Al17  1  0.546106  0.339288  0.250000  1
  Al  Al18  1  0.453522  0.663119  0.750000  1
  Ga  Ga19  1  0.134986  0.135222  0.250000  1
  Ga  Ga20  1  0.863206  0.862006  0.750000  1
  Ga  Ga21  1  0.337846  0.541249  0.250000  1
  Ir  Ir22  1  0.670469  0.330739  0.000446  1
  Ir  Ir23  1  0.330293  0.671760  0.998104  1
  Ir  Ir24  1  0.330293  0.671760  0.501896  1
  Ir  Ir25  1  0.670469  0.330739  0.499554  1
  Ir  Ir26  1  0.999917  0.000338  0.999815  1
  Ir  Ir27  1  0.999917  0.000338  0.500185  1
