# generated using pymatgen
data_Fe6Re2W5
_symmetry_space_group_name_H-M   'P 1'
_cell_length_a   4.76942714
_cell_length_b   4.76942651
_cell_length_c   9.15744062
_cell_angle_alpha   74.90544867
_cell_angle_beta   74.90545178
_cell_angle_gamma   59.99999951
_symmetry_Int_Tables_number   1
_chemical_formula_structural   Fe6Re2W5
_chemical_formula_sum   'Fe6 Re2 W5'
_cell_volume   172.05117767
_cell_formula_units_Z   1
loop_
 _symmetry_equiv_pos_site_id
 _symmetry_equiv_pos_as_xyz
  1  'x, y, z'
loop_
 _atom_site_type_symbol
 _atom_site_label
 _atom_site_symmetry_multiplicity
 _atom_site_fract_x
 _atom_site_fract_y
 _atom_site_fract_z
 _atom_site_occupancy
  Fe  Fe0  1  0.906844  0.906844  0.765003  1
  Fe  Fe1  1  0.421307  0.906844  0.765003  1
  Fe  Fe2  1  0.906844  0.421307  0.765003  1
  Fe  Fe3  1  0.093058  0.093058  0.234673  1
  Fe  Fe4  1  0.579213  0.093058  0.234673  1
  Fe  Fe5  1  0.093058  0.579213  0.234673  1
  Re  Re6  1  0.999862  0.999862  0.000414  1
  Re  Re7  1  0.451272  0.451272  0.646182  1
  W  W8  1  0.835183  0.835183  0.494451  1
  W  W9  1  0.164464  0.164464  0.506608  1
  W  W10  1  0.650814  0.650814  0.047559  1
  W  W11  1  0.349907  0.349907  0.950278  1
  W  W12  1  0.548174  0.548174  0.355480  1
