# generated using pymatgen
data_Tb2InGa6Ni2Pd
_symmetry_space_group_name_H-M   'P 1'
_cell_length_a   4.15295388
_cell_length_b   6.49570823
_cell_length_c   8.01821973
_cell_angle_alpha   90.51289817
_cell_angle_beta   105.00894991
_cell_angle_gamma   90.00000406
_symmetry_Int_Tables_number   1
_chemical_formula_structural   Tb2InGa6Ni2Pd
_chemical_formula_sum   'Tb2 In1 Ga6 Ni2 Pd1'
_cell_volume   208.91446621
_cell_formula_units_Z   1
loop_
 _symmetry_equiv_pos_site_id
 _symmetry_equiv_pos_as_xyz
  1  'x, y, z'
loop_
 _atom_site_type_symbol
 _atom_site_label
 _atom_site_symmetry_multiplicity
 _atom_site_fract_x
 _atom_site_fract_y
 _atom_site_fract_z
 _atom_site_occupancy
  Tb  Tb0  1  0.872175  0.757148  0.744350  1
  Tb  Tb1  1  0.127825  0.242852  0.255650  1
  In  In2  1  0.500000  0.000000  0.000000  1
  Ga  Ga3  1  0.066632  0.707045  0.133264  1
  Ga  Ga4  1  0.933368  0.292955  0.866736  1
  Ga  Ga5  1  0.680909  0.547172  0.361818  1
  Ga  Ga6  1  0.319091  0.452828  0.638182  1
  Ga  Ga7  1  0.688555  0.946841  0.377108  1
  Ga  Ga8  1  0.311445  0.053159  0.622892  1
  Ni  Ni9  1  0.220349  0.745331  0.440697  1
  Ni  Ni10  1  0.779651  0.254669  0.559303  1
  Pd  Pd11  1  0.500000  0.500000  0.000000  1
