# generated using pymatgen
data_Tm16MgIn3(CoNi)2
_symmetry_space_group_name_H-M   'P 1'
_cell_length_a   9.45946765
_cell_length_b   9.43064256
_cell_length_c   9.47131100
_cell_angle_alpha   59.85724155
_cell_angle_beta   59.95857168
_cell_angle_gamma   60.09117673
_symmetry_Int_Tables_number   1
_chemical_formula_structural   Tm16MgIn3(CoNi)2
_chemical_formula_sum   'Tm16 Mg1 In3 Co2 Ni2'
_cell_volume   597.02702688
_cell_formula_units_Z   1
loop_
 _symmetry_equiv_pos_site_id
 _symmetry_equiv_pos_as_xyz
  1  'x, y, z'
loop_
 _atom_site_type_symbol
 _atom_site_label
 _atom_site_symmetry_multiplicity
 _atom_site_fract_x
 _atom_site_fract_y
 _atom_site_fract_z
 _atom_site_occupancy
  Tm  Tm0  1  0.347466  0.346643  0.342258  1
  Tm  Tm1  1  0.347466  0.346643  0.963633  1
  Tm  Tm2  1  0.352992  0.958226  0.344391  1
  Tm  Tm3  1  0.953080  0.354608  0.346156  1
  Tm  Tm4  1  0.806099  0.189967  0.189337  1
  Tm  Tm5  1  0.186368  0.808849  0.816461  1
  Tm  Tm6  1  0.186368  0.808849  0.188323  1
  Tm  Tm7  1  0.806099  0.189967  0.814598  1
  Tm  Tm8  1  0.186568  0.188481  0.812476  1
  Tm  Tm9  1  0.810012  0.810676  0.189656  1
  Tm  Tm10  1  0.939082  0.564445  0.560990  1
  Tm  Tm11  1  0.564432  0.937544  0.937199  1
  Tm  Tm12  1  0.564432  0.937544  0.560825  1
  Tm  Tm13  1  0.939082  0.564445  0.935484  1
  Tm  Tm14  1  0.563195  0.561470  0.937667  1
  Tm  Tm15  1  0.939552  0.937940  0.561255  1
  Mg  Mg16  1  0.269152  0.576216  0.577316  1
  In  In17  1  0.582053  0.583216  0.584329  1
  In  In18  1  0.582053  0.583216  0.250401  1
  In  In19  1  0.581664  0.251778  0.583279  1
  Co  Co20  1  0.137702  0.575483  0.143408  1
  Co  Co21  1  0.576033  0.140994  0.141487  1
  Ni  Ni22  1  0.139525  0.141400  0.143700  1
  Ni  Ni23  1  0.139525  0.141400  0.575374  1
