# generated using pymatgen
data_Li3Er3AlSiAs
_symmetry_space_group_name_H-M   'P 1'
_cell_length_a   7.05704200
_cell_length_b   7.05704267
_cell_length_c   4.19783000
_cell_angle_alpha   90.00000000
_cell_angle_beta   90.00000000
_cell_angle_gamma   119.99998748
_symmetry_Int_Tables_number   1
_chemical_formula_structural   Li3Er3AlSiAs
_chemical_formula_sum   'Li3 Er3 Al1 Si1 As1'
_cell_volume   181.05102131
_cell_formula_units_Z   1
loop_
 _symmetry_equiv_pos_site_id
 _symmetry_equiv_pos_as_xyz
  1  'x, y, z'
loop_
 _atom_site_type_symbol
 _atom_site_label
 _atom_site_symmetry_multiplicity
 _atom_site_fract_x
 _atom_site_fract_y
 _atom_site_fract_z
 _atom_site_occupancy
  Li  Li0  1  0.245421  0.999695  0.500000  1
  Li  Li1  1  0.754274  0.754579  0.500000  1
  Li  Li2  1  0.000305  0.245726  0.500000  1
  Er  Er3  1  0.993020  0.563188  0.000000  1
  Er  Er4  1  0.570168  0.006980  0.000000  1
  Er  Er5  1  0.436812  0.429832  0.000000  1
  Al  Al6  1  0.000000  0.000000  0.000000  1
  Si  Si7  1  0.666667  0.333333  0.500000  1
  As  As8  1  0.333333  0.666667  0.500000  1
