# generated using pymatgen
data_NpBr5
_symmetry_space_group_name_H-M   'P 1'
_cell_length_a   15.47259496
_cell_length_b   15.47259451
_cell_length_c   7.27503216
_cell_angle_alpha   89.32160067
_cell_angle_beta   89.32160110
_cell_angle_gamma   84.70998997
_symmetry_Int_Tables_number   1
_chemical_formula_structural   NpBr5
_chemical_formula_sum   'Np6 Br30'
_cell_volume   1734.01067171
_cell_formula_units_Z   6
loop_
 _symmetry_equiv_pos_site_id
 _symmetry_equiv_pos_as_xyz
  1  'x, y, z'
loop_
 _atom_site_type_symbol
 _atom_site_label
 _atom_site_symmetry_multiplicity
 _atom_site_fract_x
 _atom_site_fract_y
 _atom_site_fract_z
 _atom_site_occupancy
  Np  Np0  1  0.603458  0.396542  0.500000  1
  Np  Np1  1  0.396542  0.603458  0.500000  1
  Np  Np2  1  0.269988  0.063580  0.021232  1
  Np  Np3  1  0.063580  0.269988  0.021232  1
  Np  Np4  1  0.730012  0.936420  0.978768  1
  Np  Np5  1  0.936420  0.730012  0.978768  1
  Br  Br6  1  0.118701  0.118701  0.817023  1
  Br  Br7  1  0.881299  0.881299  0.182977  1
  Br  Br8  1  0.300569  0.930406  0.800290  1
  Br  Br9  1  0.930406  0.300569  0.800290  1
  Br  Br10  1  0.699431  0.069594  0.199710  1
  Br  Br11  1  0.069594  0.699431  0.199710  1
  Br  Br12  1  0.173572  0.973029  0.236649  1
  Br  Br13  1  0.973029  0.173572  0.236649  1
  Br  Br14  1  0.826428  0.026971  0.763351  1
  Br  Br15  1  0.026971  0.826428  0.763351  1
  Br  Br16  1  0.403358  0.032938  0.241500  1
  Br  Br17  1  0.032938  0.403358  0.241500  1
  Br  Br18  1  0.596642  0.967062  0.758500  1
  Br  Br19  1  0.967062  0.596642  0.758500  1
  Br  Br20  1  0.214648  0.214648  0.226043  1
  Br  Br21  1  0.785352  0.785352  0.773957  1
  Br  Br22  1  0.506970  0.306208  0.293650  1
  Br  Br23  1  0.306208  0.506970  0.293650  1
  Br  Br24  1  0.493030  0.693792  0.706350  1
  Br  Br25  1  0.693792  0.493030  0.706350  1
  Br  Br26  1  0.360486  0.160289  0.806377  1
  Br  Br27  1  0.160289  0.360486  0.806377  1
  Br  Br28  1  0.639514  0.839711  0.193623  1
  Br  Br29  1  0.839711  0.639514  0.193623  1
  Br  Br30  1  0.737312  0.366175  0.275461  1
  Br  Br31  1  0.366175  0.737312  0.275461  1
  Br  Br32  1  0.262688  0.633825  0.724539  1
  Br  Br33  1  0.633825  0.262688  0.724539  1
  Br  Br34  1  0.548223  0.548223  0.291789  1
  Br  Br35  1  0.451777  0.451777  0.708211  1
