# generated using pymatgen
data_CaDy2PaPt4
_symmetry_space_group_name_H-M   'P 1'
_cell_length_a   4.55072900
_cell_length_b   5.61613392
_cell_length_c   7.00658500
_cell_angle_alpha   91.24457823
_cell_angle_beta   90.00000000
_cell_angle_gamma   90.00000000
_symmetry_Int_Tables_number   1
_chemical_formula_structural   CaDy2PaPt4
_chemical_formula_sum   'Ca1 Dy2 Pa1 Pt4'
_cell_volume   179.02857548
_cell_formula_units_Z   1
loop_
 _symmetry_equiv_pos_site_id
 _symmetry_equiv_pos_as_xyz
  1  'x, y, z'
loop_
 _atom_site_type_symbol
 _atom_site_label
 _atom_site_symmetry_multiplicity
 _atom_site_fract_x
 _atom_site_fract_y
 _atom_site_fract_z
 _atom_site_occupancy
  Ca  Ca0  1  0.250000  0.143263  0.184541  1
  Dy  Dy1  1  0.750000  0.643428  0.316112  1
  Dy  Dy2  1  0.750000  0.855437  0.819551  1
  Pa  Pa3  1  0.250000  0.358827  0.682335  1
  Pt  Pt4  1  0.250000  0.833815  0.551875  1
  Pt  Pt5  1  0.250000  0.646609  0.032343  1
  Pt  Pt6  1  0.750000  0.170294  0.477900  1
  Pt  Pt7  1  0.750000  0.348325  0.935340  1
