# generated using pymatgen
data_Sm8TiPd11Pt13
_symmetry_space_group_name_H-M   'P 1'
_cell_length_a   8.45976800
_cell_length_b   8.44244700
_cell_length_c   8.49408100
_cell_angle_alpha   90.00000000
_cell_angle_beta   90.00000000
_cell_angle_gamma   90.00000000
_symmetry_Int_Tables_number   1
_chemical_formula_structural   Sm8TiPd11Pt13
_chemical_formula_sum   'Sm8 Ti1 Pd11 Pt13'
_cell_volume   606.65697352
_cell_formula_units_Z   1
loop_
 _symmetry_equiv_pos_site_id
 _symmetry_equiv_pos_as_xyz
  1  'x, y, z'
loop_
 _atom_site_type_symbol
 _atom_site_label
 _atom_site_symmetry_multiplicity
 _atom_site_fract_x
 _atom_site_fract_y
 _atom_site_fract_z
 _atom_site_occupancy
  Sm  Sm0  1  0.250853  0.250732  0.251522  1
  Sm  Sm1  1  0.749268  0.749656  0.748689  1
  Sm  Sm2  1  0.749268  0.749656  0.251311  1
  Sm  Sm3  1  0.749268  0.250344  0.748689  1
  Sm  Sm4  1  0.250853  0.250732  0.748478  1
  Sm  Sm5  1  0.250853  0.749268  0.251522  1
  Sm  Sm6  1  0.250853  0.749268  0.748478  1
  Sm  Sm7  1  0.749268  0.250344  0.251311  1
  Ti  Ti8  1  0.000102  0.000000  0.000000  1
  Pd  Pd9  1  0.500037  0.000000  0.265795  1
  Pd  Pd10  1  0.265917  0.000000  0.500000  1
  Pd  Pd11  1  0.500037  0.000000  0.734205  1
  Pd  Pd12  1  0.733824  0.000000  0.500000  1
  Pd  Pd13  1  0.999901  0.500000  0.265539  1
  Pd  Pd14  1  0.999901  0.500000  0.734461  1
  Pd  Pd15  1  0.745386  0.500000  0.500000  1
  Pd  Pd16  1  0.499707  0.255501  0.500000  1
  Pd  Pd17  1  0.499707  0.744499  0.500000  1
  Pd  Pd18  1  0.499881  0.500000  0.255916  1
  Pd  Pd19  1  0.499881  0.500000  0.744084  1
  Pt  Pt20  1  0.264779  0.500000  0.000000  1
  Pt  Pt21  1  0.734798  0.500000  0.000000  1
  Pt  Pt22  1  0.000284  0.264279  0.500000  1
  Pt  Pt23  1  0.499993  0.264189  0.000000  1
  Pt  Pt24  1  0.000284  0.735721  0.500000  1
  Pt  Pt25  1  0.499993  0.735811  0.000000  1
  Pt  Pt26  1  0.254566  0.500000  0.500000  1
  Pt  Pt27  1  0.301586  0.000000  0.000000  1
  Pt  Pt28  1  0.698897  0.000000  0.000000  1
  Pt  Pt29  1  0.000008  0.301660  0.000000  1
  Pt  Pt30  1  0.000008  0.698340  0.000000  1
  Pt  Pt31  1  0.000019  0.000000  0.301191  1
  Pt  Pt32  1  0.000019  0.000000  0.698809  1
