# generated using pymatgen
data_YHo2Fe2Co7P6
_symmetry_space_group_name_H-M   'P 1'
_cell_length_a   3.70739100
_cell_length_b   10.57562400
_cell_length_c   12.14269500
_cell_angle_alpha   90.00000000
_cell_angle_beta   90.00000000
_cell_angle_gamma   90.00000000
_symmetry_Int_Tables_number   1
_chemical_formula_structural   YHo2Fe2Co7P6
_chemical_formula_sum   'Y2 Ho4 Fe4 Co14 P12'
_cell_volume   476.09046058
_cell_formula_units_Z   2
loop_
 _symmetry_equiv_pos_site_id
 _symmetry_equiv_pos_as_xyz
  1  'x, y, z'
loop_
 _atom_site_type_symbol
 _atom_site_label
 _atom_site_symmetry_multiplicity
 _atom_site_fract_x
 _atom_site_fract_y
 _atom_site_fract_z
 _atom_site_occupancy
  Y  Y0  1  0.000000  0.500000  0.522155  1
  Y  Y1  1  0.500000  0.000000  0.477845  1
  Ho  Ho2  1  0.500000  0.819241  0.204040  1
  Ho  Ho3  1  0.500000  0.180759  0.204040  1
  Ho  Ho4  1  0.000000  0.680759  0.795960  1
  Ho  Ho5  1  0.000000  0.319241  0.795960  1
  Fe  Fe6  1  0.500000  0.500000  0.155358  1
  Fe  Fe7  1  0.000000  0.000000  0.844642  1
  Fe  Fe8  1  0.000000  0.500000  0.988486  1
  Fe  Fe9  1  0.500000  0.000000  0.011514  1
  Co  Co10  1  0.500000  0.500000  0.701792  1
  Co  Co11  1  0.000000  0.000000  0.298208  1
  Co  Co12  1  0.500000  0.331670  0.994344  1
  Co  Co13  1  0.500000  0.668330  0.994344  1
  Co  Co14  1  0.000000  0.168330  0.005656  1
  Co  Co15  1  0.000000  0.831670  0.005656  1
  Co  Co16  1  0.500000  0.296344  0.430286  1
  Co  Co17  1  0.500000  0.703656  0.430286  1
  Co  Co18  1  0.000000  0.203656  0.569714  1
  Co  Co19  1  0.000000  0.796344  0.569714  1
  Co  Co20  1  0.500000  0.878813  0.709578  1
  Co  Co21  1  0.500000  0.121187  0.709578  1
  Co  Co22  1  0.000000  0.621187  0.290422  1
  Co  Co23  1  0.000000  0.378813  0.290422  1
  P  P24  1  0.500000  0.500000  0.884531  1
  P  P25  1  0.000000  0.000000  0.115469  1
  P  P26  1  0.500000  0.500000  0.341104  1
  P  P27  1  0.000000  0.000000  0.658896  1
  P  P28  1  0.500000  0.309777  0.617007  1
  P  P29  1  0.500000  0.690223  0.617007  1
  P  P30  1  0.000000  0.190223  0.382993  1
  P  P31  1  0.000000  0.809777  0.382993  1
  P  P32  1  0.500000  0.847329  0.893602  1
  P  P33  1  0.500000  0.152671  0.893602  1
  P  P34  1  0.000000  0.652671  0.106398  1
  P  P35  1  0.000000  0.347329  0.106398  1
