# generated using pymatgen
data_DyCoBr18
_symmetry_space_group_name_H-M   'P 1'
_cell_length_a   9.19296751
_cell_length_b   9.19163001
_cell_length_c   9.19241723
_cell_angle_alpha   87.13740544
_cell_angle_beta   87.19963586
_cell_angle_gamma   87.24241940
_symmetry_Int_Tables_number   1
_chemical_formula_structural   DyCoBr18
_chemical_formula_sum   'Dy1 Co1 Br18'
_cell_volume   774.03602541
_cell_formula_units_Z   1
loop_
 _symmetry_equiv_pos_site_id
 _symmetry_equiv_pos_as_xyz
  1  'x, y, z'
loop_
 _atom_site_type_symbol
 _atom_site_label
 _atom_site_symmetry_multiplicity
 _atom_site_fract_x
 _atom_site_fract_y
 _atom_site_fract_z
 _atom_site_occupancy
  Dy  Dy0  1  0.000000  0.000000  0.000000  1
  Co  Co1  1  0.500000  0.500000  0.500000  1
  Br  Br2  1  0.761124  0.466948  0.506414  1
  Br  Br3  1  0.507100  0.761385  0.466688  1
  Br  Br4  1  0.468026  0.507260  0.761275  1
  Br  Br5  1  0.238876  0.533052  0.493586  1
  Br  Br6  1  0.492900  0.238615  0.533312  1
  Br  Br7  1  0.531974  0.492740  0.238725  1
  Br  Br8  1  0.876695  0.385397  0.744249  1
  Br  Br9  1  0.744879  0.876609  0.385175  1
  Br  Br10  1  0.385777  0.744853  0.876620  1
  Br  Br11  1  0.123305  0.614603  0.255751  1
  Br  Br12  1  0.255121  0.123391  0.614825  1
  Br  Br13  1  0.614223  0.255147  0.123380  1
  Br  Br14  1  0.033768  0.966865  0.696601  1
  Br  Br15  1  0.696732  0.033814  0.967336  1
  Br  Br16  1  0.967114  0.696867  0.034003  1
  Br  Br17  1  0.966232  0.033135  0.303399  1
  Br  Br18  1  0.303268  0.966186  0.032664  1
  Br  Br19  1  0.032886  0.303133  0.965997  1
