# generated using pymatgen
data_Dy3Lu(GaRu)4
_symmetry_space_group_name_H-M   'P 1'
_cell_length_a   4.51161000
_cell_length_b   7.07954879
_cell_length_c   7.18591108
_cell_angle_alpha   90.07105337
_cell_angle_beta   90.00000000
_cell_angle_gamma   90.00000000
_symmetry_Int_Tables_number   1
_chemical_formula_structural   Dy3Lu(GaRu)4
_chemical_formula_sum   'Dy3 Lu1 Ga4 Ru4'
_cell_volume   229.51899555
_cell_formula_units_Z   1
loop_
 _symmetry_equiv_pos_site_id
 _symmetry_equiv_pos_as_xyz
  1  'x, y, z'
loop_
 _atom_site_type_symbol
 _atom_site_label
 _atom_site_symmetry_multiplicity
 _atom_site_fract_x
 _atom_site_fract_y
 _atom_site_fract_z
 _atom_site_occupancy
  Dy  Dy0  1  0.250000  0.303477  0.020941  1
  Dy  Dy1  1  0.750000  0.696054  0.979548  1
  Dy  Dy2  1  0.750000  0.805705  0.480399  1
  Lu  Lu3  1  0.250000  0.199188  0.521588  1
  Ga  Ga4  1  0.250000  0.894965  0.198373  1
  Ga  Ga5  1  0.750000  0.392249  0.304403  1
  Ga  Ga6  1  0.250000  0.604945  0.697182  1
  Ga  Ga7  1  0.750000  0.105939  0.800564  1
  Ru  Ru8  1  0.250000  0.938221  0.839786  1
  Ru  Ru9  1  0.250000  0.561585  0.342198  1
  Ru  Ru10  1  0.750000  0.062733  0.157405  1
  Ru  Ru11  1  0.750000  0.434938  0.657612  1
