# generated using pymatgen
data_Dy5Y3(CoB14)2
_symmetry_space_group_name_H-M   'P 1'
_cell_length_a   7.22231601
_cell_length_b   7.22244001
_cell_length_c   7.51394700
_cell_angle_alpha   90.00000000
_cell_angle_beta   90.00000000
_cell_angle_gamma   90.00574356
_symmetry_Int_Tables_number   1
_chemical_formula_structural   Dy5Y3(CoB14)2
_chemical_formula_sum   'Dy5 Y3 Co2 B28'
_cell_volume   391.94809259
_cell_formula_units_Z   1
loop_
 _symmetry_equiv_pos_site_id
 _symmetry_equiv_pos_as_xyz
  1  'x, y, z'
loop_
 _atom_site_type_symbol
 _atom_site_label
 _atom_site_symmetry_multiplicity
 _atom_site_fract_x
 _atom_site_fract_y
 _atom_site_fract_z
 _atom_site_occupancy
  Dy  Dy0  1  0.693041  0.170074  0.500000  1
  Dy  Dy1  1  0.306980  0.829898  0.500000  1
  Dy  Dy2  1  0.806889  0.670022  0.000000  1
  Dy  Dy3  1  0.829890  0.693039  0.500000  1
  Dy  Dy4  1  0.170048  0.306958  0.500000  1
  Y  Y5  1  0.192950  0.330271  0.000000  1
  Y  Y6  1  0.669846  0.193063  0.000000  1
  Y  Y7  1  0.330205  0.806896  0.000000  1
  Co  Co8  1  0.999860  0.999755  0.000000  1
  Co  Co9  1  0.500023  0.499992  0.500000  1
  B  B10  1  0.174085  0.038750  0.231177  1
  B  B11  1  0.961232  0.174075  0.231199  1
  B  B12  1  0.038635  0.825862  0.231102  1
  B  B13  1  0.674087  0.461337  0.269156  1
  B  B14  1  0.325987  0.538778  0.269271  1
  B  B15  1  0.825917  0.961114  0.231116  1
  B  B16  1  0.538877  0.674024  0.269176  1
  B  B17  1  0.461217  0.326008  0.269290  1
  B  B18  1  0.825917  0.961114  0.768884  1
  B  B19  1  0.038635  0.825862  0.768898  1
  B  B20  1  0.961232  0.174075  0.768801  1
  B  B21  1  0.325987  0.538778  0.730729  1
  B  B22  1  0.674087  0.461337  0.730844  1
  B  B23  1  0.174085  0.038750  0.768823  1
  B  B24  1  0.461217  0.326008  0.730710  1
  B  B25  1  0.538877  0.674024  0.730824  1
  B  B26  1  0.088242  0.588328  0.250461  1
  B  B27  1  0.411693  0.088313  0.250702  1
  B  B28  1  0.588383  0.911608  0.250522  1
  B  B29  1  0.911653  0.411738  0.250434  1
  B  B30  1  0.911653  0.411738  0.749566  1
  B  B31  1  0.588383  0.911608  0.749478  1
  B  B32  1  0.411693  0.088313  0.749298  1
  B  B33  1  0.088242  0.588328  0.749539  1
  B  B34  1  0.000019  0.999994  0.388250  1
  B  B35  1  0.500109  0.500088  0.111821  1
  B  B36  1  0.000019  0.999994  0.611750  1
  B  B37  1  0.500109  0.500088  0.888179  1
