# generated using pymatgen
data_AlCuPd4
_symmetry_space_group_name_H-M   'P 1'
_cell_length_a   5.38362200
_cell_length_b   4.15651700
_cell_length_c   7.79877100
_cell_angle_alpha   90.00000000
_cell_angle_beta   90.00000000
_cell_angle_gamma   90.00000000
_symmetry_Int_Tables_number   1
_chemical_formula_structural   AlCuPd4
_chemical_formula_sum   'Al2 Cu2 Pd8'
_cell_volume   174.51400617
_cell_formula_units_Z   2
loop_
 _symmetry_equiv_pos_site_id
 _symmetry_equiv_pos_as_xyz
  1  'x, y, z'
loop_
 _atom_site_type_symbol
 _atom_site_label
 _atom_site_symmetry_multiplicity
 _atom_site_fract_x
 _atom_site_fract_y
 _atom_site_fract_z
 _atom_site_occupancy
  Al  Al0  1  0.818958  0.250000  0.399540  1
  Al  Al1  1  0.681041  0.749998  0.899540  1
  Cu  Cu2  1  0.317662  0.250000  0.100326  1
  Cu  Cu3  1  0.182339  0.749998  0.600326  1
  Pd  Pd4  1  0.956620  0.250000  0.722716  1
  Pd  Pd5  1  0.543380  0.749998  0.222715  1
  Pd  Pd6  1  0.455696  0.250000  0.777825  1
  Pd  Pd7  1  0.044302  0.749998  0.277827  1
  Pd  Pd8  1  0.826978  0.250000  0.068622  1
  Pd  Pd9  1  0.673021  0.749998  0.568622  1
  Pd  Pd10  1  0.335636  0.250000  0.430973  1
  Pd  Pd11  1  0.164365  0.749998  0.930973  1
