# generated using pymatgen
data_Nd3SmBr10
_symmetry_space_group_name_H-M   'P 1'
_cell_length_a   4.11366200
_cell_length_b   8.61237063
_cell_length_c   13.79070340
_cell_angle_alpha   85.98384707
_cell_angle_beta   90.00000000
_cell_angle_gamma   90.00000000
_symmetry_Int_Tables_number   1
_chemical_formula_structural   Nd3SmBr10
_chemical_formula_sum   'Nd3 Sm1 Br10'
_cell_volume   487.38251553
_cell_formula_units_Z   1
loop_
 _symmetry_equiv_pos_site_id
 _symmetry_equiv_pos_as_xyz
  1  'x, y, z'
loop_
 _atom_site_type_symbol
 _atom_site_label
 _atom_site_symmetry_multiplicity
 _atom_site_fract_x
 _atom_site_fract_y
 _atom_site_fract_z
 _atom_site_occupancy
  Nd  Nd0  1  0.750000  0.101469  0.848704  1
  Nd  Nd1  1  0.250000  0.899016  0.150983  1
  Nd  Nd2  1  0.750000  0.583049  0.343558  1
  Sm  Sm3  1  0.250000  0.416996  0.656656  1
  Br  Br4  1  0.750000  0.629496  0.713775  1
  Br  Br5  1  0.250000  0.366434  0.285290  1
  Br  Br6  1  0.750000  0.132674  0.071412  1
  Br  Br7  1  0.250000  0.867409  0.928523  1
  Br  Br8  1  0.250000  0.679308  0.485932  1
  Br  Br9  1  0.750000  0.321041  0.517025  1
  Br  Br10  1  0.250000  0.067645  0.692217  1
  Br  Br11  1  0.750000  0.934679  0.307389  1
  Br  Br12  1  0.250000  0.347700  0.874110  1
  Br  Br13  1  0.750000  0.653083  0.124426  1
