# generated using pymatgen
data_AcYbPr3Sn4
_symmetry_space_group_name_H-M   'P 1'
_cell_length_a   8.24287400
_cell_length_b   8.57786100
_cell_length_c   16.46015500
_cell_angle_alpha   90.00000000
_cell_angle_beta   90.00000000
_cell_angle_gamma   90.00000000
_symmetry_Int_Tables_number   1
_chemical_formula_structural   AcYbPr3Sn4
_chemical_formula_sum   'Ac4 Yb4 Pr12 Sn16'
_cell_volume   1163.83546268
_cell_formula_units_Z   4
loop_
 _symmetry_equiv_pos_site_id
 _symmetry_equiv_pos_as_xyz
  1  'x, y, z'
loop_
 _atom_site_type_symbol
 _atom_site_label
 _atom_site_symmetry_multiplicity
 _atom_site_fract_x
 _atom_site_fract_y
 _atom_site_fract_z
 _atom_site_occupancy
  Ac  Ac0  1  0.498998  0.320304  0.404172  1
  Ac  Ac1  1  0.998998  0.179696  0.095828  1
  Ac  Ac2  1  0.501002  0.679696  0.904172  1
  Ac  Ac3  1  0.001002  0.820304  0.595828  1
  Yb  Yb4  1  0.824275  0.502587  0.749714  1
  Yb  Yb5  1  0.324275  0.997413  0.750286  1
  Yb  Yb6  1  0.175725  0.497413  0.249714  1
  Yb  Yb7  1  0.675725  0.002587  0.250286  1
  Pr  Pr8  1  0.659474  0.169037  0.624568  1
  Pr  Pr9  1  0.159474  0.330963  0.875432  1
  Pr  Pr10  1  0.340526  0.830963  0.124568  1
  Pr  Pr11  1  0.840526  0.669037  0.375432  1
  Pr  Pr12  1  0.343556  0.827315  0.376272  1
  Pr  Pr13  1  0.843556  0.672685  0.123728  1
  Pr  Pr14  1  0.656444  0.172685  0.876272  1
  Pr  Pr15  1  0.156444  0.327315  0.623728  1
  Pr  Pr16  1  0.502820  0.684048  0.598289  1
  Pr  Pr17  1  0.002820  0.815952  0.901711  1
  Pr  Pr18  1  0.497180  0.315952  0.098289  1
  Pr  Pr19  1  0.997180  0.184048  0.401711  1
  Sn  Sn20  1  0.680441  0.959648  0.462295  1
  Sn  Sn21  1  0.180441  0.540352  0.037705  1
  Sn  Sn22  1  0.319559  0.040352  0.962295  1
  Sn  Sn23  1  0.819559  0.459648  0.537705  1
  Sn  Sn24  1  0.324592  0.038145  0.537141  1
  Sn  Sn25  1  0.824592  0.461855  0.962859  1
  Sn  Sn26  1  0.675408  0.961855  0.037141  1
  Sn  Sn27  1  0.175408  0.538145  0.462859  1
  Sn  Sn28  1  0.457936  0.388851  0.747438  1
  Sn  Sn29  1  0.957936  0.111149  0.752562  1
  Sn  Sn30  1  0.542064  0.611149  0.247438  1
  Sn  Sn31  1  0.042064  0.888851  0.252562  1
  Sn  Sn32  1  0.697838  0.863229  0.750010  1
  Sn  Sn33  1  0.197838  0.636771  0.749990  1
  Sn  Sn34  1  0.302162  0.136771  0.250010  1
  Sn  Sn35  1  0.802162  0.363229  0.249990  1
