# generated using pymatgen
data_Be11Si(NiIr)6
_symmetry_space_group_name_H-M   'P 1'
_cell_length_a   3.85739400
_cell_length_b   5.44691000
_cell_length_c   11.55500400
_cell_angle_alpha   90.00000000
_cell_angle_beta   90.00033198
_cell_angle_gamma   90.00000000
_symmetry_Int_Tables_number   1
_chemical_formula_structural   Be11Si(NiIr)6
_chemical_formula_sum   'Be11 Si1 Ni6 Ir6'
_cell_volume   242.78077878
_cell_formula_units_Z   1
loop_
 _symmetry_equiv_pos_site_id
 _symmetry_equiv_pos_as_xyz
  1  'x, y, z'
loop_
 _atom_site_type_symbol
 _atom_site_label
 _atom_site_symmetry_multiplicity
 _atom_site_fract_x
 _atom_site_fract_y
 _atom_site_fract_z
 _atom_site_occupancy
  Be  Be0  1  0.500000  0.744052  0.000000  1
  Be  Be1  1  0.000168  0.249662  0.172251  1
  Be  Be2  1  0.000173  0.750580  0.170104  1
  Be  Be3  1  0.500194  0.248936  0.335241  1
  Be  Be4  1  0.500219  0.753467  0.338095  1
  Be  Be5  1  0.000000  0.250716  0.500000  1
  Be  Be6  1  0.000000  0.748868  0.500000  1
  Be  Be7  1  0.499806  0.248936  0.664759  1
  Be  Be8  1  0.499781  0.753467  0.661905  1
  Be  Be9  1  0.999831  0.249662  0.827748  1
  Be  Be10  1  0.999826  0.750580  0.829895  1
  Si  Si11  1  0.500000  0.251478  0.000000  1
  Ni  Ni12  1  0.000000  0.505279  0.000000  1
  Ni  Ni13  1  0.500133  0.996522  0.168650  1
  Ni  Ni14  1  0.000138  0.500651  0.334051  1
  Ni  Ni15  1  0.500000  0.001112  0.500000  1
  Ni  Ni16  1  0.999861  0.500651  0.665948  1
  Ni  Ni17  1  0.499866  0.996522  0.831350  1
  Ir  Ir18  1  0.000000  0.995332  0.000000  1
  Ir  Ir19  1  0.500138  0.502091  0.169068  1
  Ir  Ir20  1  0.000168  0.999957  0.334555  1
  Ir  Ir21  1  0.500000  0.499426  0.500000  1
  Ir  Ir22  1  0.999832  0.999957  0.665444  1
  Ir  Ir23  1  0.499862  0.502091  0.830932  1
