# generated using pymatgen
data_SrPu(BH4)4
_symmetry_space_group_name_H-M   'P 1'
_cell_length_a   6.95249400
_cell_length_b   7.04717408
_cell_length_c   4.43612700
_cell_angle_alpha   90.00000000
_cell_angle_beta   90.00000000
_cell_angle_gamma   89.59039913
_symmetry_Int_Tables_number   1
_chemical_formula_structural   SrPu(BH4)4
_chemical_formula_sum   'Sr1 Pu1 B4 H16'
_cell_volume   217.34442028
_cell_formula_units_Z   1
loop_
 _symmetry_equiv_pos_site_id
 _symmetry_equiv_pos_as_xyz
  1  'x, y, z'
loop_
 _atom_site_type_symbol
 _atom_site_label
 _atom_site_symmetry_multiplicity
 _atom_site_fract_x
 _atom_site_fract_y
 _atom_site_fract_z
 _atom_site_occupancy
  Sr  Sr0  1  0.000000  0.500000  0.519424  1
  Pu  Pu1  1  0.500000  0.000000  0.018765  1
  B  B2  1  0.230867  0.303582  0.023193  1
  B  B3  1  0.769133  0.696418  0.023193  1
  B  B4  1  0.319417  0.783772  0.523141  1
  B  B5  1  0.680583  0.216228  0.523141  1
  H  H6  1  0.166975  0.466281  0.019620  1
  H  H7  1  0.833025  0.533719  0.019620  1
  H  H8  1  0.405408  0.325183  0.048093  1
  H  H9  1  0.594592  0.674817  0.048093  1
  H  H10  1  0.166719  0.212168  0.236403  1
  H  H11  1  0.833281  0.787832  0.236403  1
  H  H12  1  0.237233  0.828123  0.285438  1
  H  H13  1  0.762767  0.171877  0.285438  1
  H  H14  1  0.487702  0.841385  0.521732  1
  H  H15  1  0.512298  0.158615  0.521732  1
  H  H16  1  0.334719  0.611725  0.546822  1
  H  H17  1  0.665281  0.388275  0.546822  1
  H  H18  1  0.227897  0.852531  0.736499  1
  H  H19  1  0.772103  0.147469  0.736499  1
  H  H20  1  0.192062  0.219794  0.787969  1
  H  H21  1  0.807938  0.780206  0.787969  1
