# generated using pymatgen
data_LiEr4Sc3(B6Ir)4
_symmetry_space_group_name_H-M   'P 1'
_cell_length_a   3.53306500
_cell_length_b   8.94399241
_cell_length_c   11.31029004
_cell_angle_alpha   90.08404124
_cell_angle_beta   90.00000000
_cell_angle_gamma   90.00000000
_symmetry_Int_Tables_number   1
_chemical_formula_structural   LiEr4Sc3(B6Ir)4
_chemical_formula_sum   'Li1 Er4 Sc3 B24 Ir4'
_cell_volume   357.40146159
_cell_formula_units_Z   1
loop_
 _symmetry_equiv_pos_site_id
 _symmetry_equiv_pos_as_xyz
  1  'x, y, z'
loop_
 _atom_site_type_symbol
 _atom_site_label
 _atom_site_symmetry_multiplicity
 _atom_site_fract_x
 _atom_site_fract_y
 _atom_site_fract_z
 _atom_site_occupancy
  Li  Li0  1  0.500000  0.446513  0.121957  1
  Er  Er1  1  0.500000  0.320067  0.412383  1
  Er  Er2  1  0.500000  0.680468  0.585512  1
  Er  Er3  1  0.500000  0.182777  0.915731  1
  Er  Er4  1  0.500000  0.816792  0.086489  1
  Sc  Sc5  1  0.500000  0.553383  0.880214  1
  Sc  Sc6  1  0.500000  0.055319  0.623749  1
  Sc  Sc7  1  0.500000  0.944939  0.375197  1
  B  B8  1  0.000000  0.101273  0.472551  1
  B  B9  1  0.000000  0.898908  0.526981  1
  B  B10  1  0.000000  0.400462  0.974372  1
  B  B11  1  0.000000  0.598418  0.027745  1
  B  B12  1  0.000000  0.130179  0.317232  1
  B  B13  1  0.000000  0.870321  0.681389  1
  B  B14  1  0.000000  0.369870  0.821370  1
  B  B15  1  0.000000  0.626235  0.180330  1
  B  B16  1  0.000000  0.055899  0.066622  1
  B  B17  1  0.000000  0.944627  0.935267  1
  B  B18  1  0.000000  0.444596  0.564861  1
  B  B19  1  0.000000  0.555115  0.432795  1
  B  B20  1  0.000000  0.481375  0.283056  1
  B  B21  1  0.000000  0.518178  0.715769  1
  B  B22  1  0.000000  0.019353  0.785233  1
  B  B23  1  0.000000  0.981483  0.214243  1
  B  B24  1  0.000000  0.257780  0.081104  1
  B  B25  1  0.000000  0.744693  0.922414  1
  B  B26  1  0.000000  0.246549  0.578846  1
  B  B27  1  0.000000  0.753713  0.419552  1
  B  B28  1  0.000000  0.296618  0.233706  1
  B  B29  1  0.000000  0.704273  0.765599  1
  B  B30  1  0.000000  0.205492  0.736505  1
  B  B31  1  0.000000  0.793053  0.264291  1
  Ir  Ir32  1  0.500000  0.142268  0.181644  1
  Ir  Ir33  1  0.500000  0.859633  0.817786  1
  Ir  Ir34  1  0.500000  0.360039  0.679223  1
  Ir  Ir35  1  0.500000  0.639341  0.318282  1
