# generated using pymatgen
data_Lu4FeCo4
_symmetry_space_group_name_H-M   'P 1'
_cell_length_a   5.37990773
_cell_length_b   5.37990687
_cell_length_c   8.66574986
_cell_angle_alpha   72.19362791
_cell_angle_beta   72.19363266
_cell_angle_gamma   42.70147425
_symmetry_Int_Tables_number   1
_chemical_formula_structural   Lu4FeCo4
_chemical_formula_sum   'Lu4 Fe1 Co4'
_cell_volume   160.66821202
_cell_formula_units_Z   1
loop_
 _symmetry_equiv_pos_site_id
 _symmetry_equiv_pos_as_xyz
  1  'x, y, z'
loop_
 _atom_site_type_symbol
 _atom_site_label
 _atom_site_symmetry_multiplicity
 _atom_site_fract_x
 _atom_site_fract_y
 _atom_site_fract_z
 _atom_site_occupancy
  Lu  Lu0  1  0.742221  0.742221  0.660425  1
  Lu  Lu1  1  0.257779  0.257779  0.339575  1
  Lu  Lu2  1  0.389619  0.389619  0.883279  1
  Lu  Lu3  1  0.610381  0.610381  0.116721  1
  Fe  Fe4  1  0.500000  0.500000  0.500000  1
  Co  Co5  1  0.033370  0.033370  0.639092  1
  Co  Co6  1  0.966630  0.966630  0.360908  1
  Co  Co7  1  0.090600  0.090600  0.878308  1
  Co  Co8  1  0.909400  0.909400  0.121692  1
