# generated using pymatgen
data_Er4Sc4Re(B8Ru)3
_symmetry_space_group_name_H-M   'P 1'
_cell_length_a   3.56056800
_cell_length_b   8.95353134
_cell_length_c   11.33111735
_cell_angle_alpha   90.04227535
_cell_angle_beta   90.00000000
_cell_angle_gamma   90.00000000
_symmetry_Int_Tables_number   1
_chemical_formula_structural   Er4Sc4Re(B8Ru)3
_chemical_formula_sum   'Er4 Sc4 Re1 B24 Ru3'
_cell_volume   361.23203817
_cell_formula_units_Z   1
loop_
 _symmetry_equiv_pos_site_id
 _symmetry_equiv_pos_as_xyz
  1  'x, y, z'
loop_
 _atom_site_type_symbol
 _atom_site_label
 _atom_site_symmetry_multiplicity
 _atom_site_fract_x
 _atom_site_fract_y
 _atom_site_fract_z
 _atom_site_occupancy
  Er  Er0  1  0.000000  0.320029  0.414896  1
  Er  Er1  1  0.000000  0.682016  0.587994  1
  Er  Er2  1  0.000000  0.819974  0.084497  1
  Er  Er3  1  0.000000  0.178796  0.913115  1
  Sc  Sc4  1  0.000000  0.944474  0.372672  1
  Sc  Sc5  1  0.000000  0.054570  0.627057  1
  Sc  Sc6  1  0.000000  0.443698  0.127501  1
  Sc  Sc7  1  0.000000  0.556035  0.873117  1
  Re  Re8  1  0.000000  0.860397  0.818985  1
  B  B9  1  0.500000  0.554626  0.433363  1
  B  B10  1  0.500000  0.445903  0.566816  1
  B  B11  1  0.500000  0.054345  0.067236  1
  B  B12  1  0.500000  0.946486  0.933538  1
  B  B13  1  0.500000  0.752801  0.419138  1
  B  B14  1  0.500000  0.247564  0.580494  1
  B  B15  1  0.500000  0.252133  0.080944  1
  B  B16  1  0.500000  0.747071  0.919315  1
  B  B17  1  0.500000  0.792945  0.265083  1
  B  B18  1  0.500000  0.206925  0.734007  1
  B  B19  1  0.500000  0.293363  0.234854  1
  B  B20  1  0.500000  0.705783  0.765166  1
  B  B21  1  0.500000  0.628286  0.182986  1
  B  B22  1  0.500000  0.371094  0.816548  1
  B  B23  1  0.500000  0.128783  0.317113  1
  B  B24  1  0.500000  0.871588  0.683093  1
  B  B25  1  0.500000  0.981275  0.214011  1
  B  B26  1  0.500000  0.020133  0.785932  1
  B  B27  1  0.500000  0.481119  0.286462  1
  B  B28  1  0.500000  0.518814  0.713687  1
  B  B29  1  0.500000  0.598477  0.027714  1
  B  B30  1  0.500000  0.399614  0.972940  1
  B  B31  1  0.500000  0.100235  0.472217  1
  B  B32  1  0.500000  0.900633  0.526539  1
  Ru  Ru33  1  0.000000  0.639444  0.318822  1
  Ru  Ru34  1  0.000000  0.360780  0.680651  1
  Ru  Ru35  1  0.000000  0.139793  0.181494  1
