# generated using pymatgen
data_Sc2Zn8RuRh
_symmetry_space_group_name_H-M   'P 1'
_cell_length_a   5.02473700
_cell_length_b   5.02473598
_cell_length_c   8.13726800
_cell_angle_alpha   90.00000000
_cell_angle_beta   90.00000000
_cell_angle_gamma   120.00000013
_symmetry_Int_Tables_number   1
_chemical_formula_structural   Sc2Zn8RuRh
_chemical_formula_sum   'Sc2 Zn8 Ru1 Rh1'
_cell_volume   177.92453239
_cell_formula_units_Z   1
loop_
 _symmetry_equiv_pos_site_id
 _symmetry_equiv_pos_as_xyz
  1  'x, y, z'
loop_
 _atom_site_type_symbol
 _atom_site_label
 _atom_site_symmetry_multiplicity
 _atom_site_fract_x
 _atom_site_fract_y
 _atom_site_fract_z
 _atom_site_occupancy
  Sc  Sc0  1  0.666667  0.333333  0.430901  1
  Sc  Sc1  1  0.333333  0.666667  0.935457  1
  Zn  Zn2  1  0.000000  0.000000  0.002232  1
  Zn  Zn3  1  0.000000  0.000000  0.503357  1
  Zn  Zn4  1  0.170999  0.341997  0.248538  1
  Zn  Zn5  1  0.828642  0.171358  0.750780  1
  Zn  Zn6  1  0.342714  0.171358  0.750780  1
  Zn  Zn7  1  0.658003  0.829001  0.248538  1
  Zn  Zn8  1  0.170999  0.829001  0.248538  1
  Zn  Zn9  1  0.828642  0.657286  0.750780  1
  Ru  Ru10  1  0.666667  0.333333  0.064149  1
  Rh  Rh11  1  0.333333  0.666667  0.565951  1
