# generated using pymatgen
data_Ti6SI9
_symmetry_space_group_name_H-M   'P 1'
_cell_length_a   10.99355215
_cell_length_b   11.38280389
_cell_length_c   12.38306503
_cell_angle_alpha   106.89172974
_cell_angle_beta   105.51043534
_cell_angle_gamma   114.23410016
_symmetry_Int_Tables_number   1
_chemical_formula_structural   Ti6SI9
_chemical_formula_sum   'Ti12 S2 I18'
_cell_volume   1212.04212848
_cell_formula_units_Z   2
loop_
 _symmetry_equiv_pos_site_id
 _symmetry_equiv_pos_as_xyz
  1  'x, y, z'
loop_
 _atom_site_type_symbol
 _atom_site_label
 _atom_site_symmetry_multiplicity
 _atom_site_fract_x
 _atom_site_fract_y
 _atom_site_fract_z
 _atom_site_occupancy
  Ti  Ti0  1  0.610464  0.725053  0.042522  1
  Ti  Ti1  1  0.098226  0.983842  0.666062  1
  Ti  Ti2  1  0.999025  0.177972  0.615034  1
  Ti  Ti3  1  0.779994  0.852803  0.467245  1
  Ti  Ti4  1  0.000975  0.822028  0.384966  1
  Ti  Ti5  1  0.488075  0.561317  0.175668  1
  Ti  Ti6  1  0.289510  0.467966  0.905186  1
  Ti  Ti7  1  0.901774  0.016158  0.333938  1
  Ti  Ti8  1  0.220006  0.147197  0.532755  1
  Ti  Ti9  1  0.389536  0.274947  0.957478  1
  Ti  Ti10  1  0.710490  0.532034  0.094814  1
  Ti  Ti11  1  0.511925  0.438683  0.824332  1
  S  S12  1  0.252082  0.248125  0.750337  1
  S  S13  1  0.747918  0.751875  0.249663  1
  I  I14  1  0.293312  0.943598  0.567909  1
  I  I15  1  0.576177  0.365704  0.209603  1
  I  I16  1  0.106700  0.317410  0.473653  1
  I  I17  1  0.190853  0.323028  0.046360  1
  I  I18  1  0.809147  0.676972  0.953640  1
  I  I19  1  0.234446  0.977051  0.890440  1
  I  I20  1  0.893300  0.682590  0.526347  1
  I  I21  1  0.513532  0.348295  0.587121  1
  I  I22  1  0.993477  0.581899  0.226722  1
  I  I23  1  0.765554  0.022949  0.109560  1
  I  I24  1  0.380569  0.730330  0.105692  1
  I  I25  1  0.706688  0.056402  0.432091  1
  I  I26  1  0.006523  0.418101  0.773278  1
  I  I27  1  0.872145  0.004288  0.727618  1
  I  I28  1  0.486468  0.651705  0.412879  1
  I  I29  1  0.127855  0.995712  0.272382  1
  I  I30  1  0.423823  0.634296  0.790397  1
  I  I31  1  0.619431  0.269670  0.894308  1
