# generated using pymatgen
data_La16Mg3ZnOs4
_symmetry_space_group_name_H-M   'P 1'
_cell_length_a   10.12185047
_cell_length_b   10.12185132
_cell_length_c   10.12185046
_cell_angle_alpha   60.05025668
_cell_angle_beta   60.05025308
_cell_angle_gamma   60.05025432
_symmetry_Int_Tables_number   1
_chemical_formula_structural   La16Mg3ZnOs4
_chemical_formula_sum   'La16 Mg3 Zn1 Os4'
_cell_volume   734.10669720
_cell_formula_units_Z   1
loop_
 _symmetry_equiv_pos_site_id
 _symmetry_equiv_pos_as_xyz
  1  'x, y, z'
loop_
 _atom_site_type_symbol
 _atom_site_label
 _atom_site_symmetry_multiplicity
 _atom_site_fract_x
 _atom_site_fract_y
 _atom_site_fract_z
 _atom_site_occupancy
  La  La0  1  0.559997  0.932682  0.559997  1
  La  La1  1  0.188434  0.188434  0.811218  1
  La  La2  1  0.559997  0.559997  0.932682  1
  La  La3  1  0.965049  0.344680  0.344680  1
  La  La4  1  0.810578  0.192405  0.810578  1
  La  La5  1  0.188434  0.811218  0.188434  1
  La  La6  1  0.344680  0.344680  0.965049  1
  La  La7  1  0.344680  0.965049  0.344680  1
  La  La8  1  0.943258  0.943258  0.558361  1
  La  La9  1  0.932682  0.559997  0.559997  1
  La  La10  1  0.342465  0.342465  0.342465  1
  La  La11  1  0.810578  0.810578  0.192405  1
  La  La12  1  0.811218  0.188434  0.188434  1
  La  La13  1  0.558361  0.943258  0.943258  1
  La  La14  1  0.943258  0.558361  0.943258  1
  La  La15  1  0.192405  0.810578  0.810578  1
  Mg  Mg16  1  0.577945  0.270832  0.577945  1
  Mg  Mg17  1  0.577945  0.577945  0.270832  1
  Mg  Mg18  1  0.270832  0.577945  0.577945  1
  Zn  Zn19  1  0.581131  0.581131  0.581131  1
  Os  Os20  1  0.135809  0.586676  0.135809  1
  Os  Os21  1  0.586676  0.135809  0.135809  1
  Os  Os22  1  0.135809  0.135809  0.586676  1
  Os  Os23  1  0.137783  0.137783  0.137783  1
