# generated using pymatgen
data_NdSm3(Ga5Rh3)2
_symmetry_space_group_name_H-M   'P 1'
_cell_length_a   8.65534286
_cell_length_b   8.65286282
_cell_length_c   5.75759166
_cell_angle_alpha   70.49271703
_cell_angle_beta   70.50900804
_cell_angle_gamma   95.67690402
_symmetry_Int_Tables_number   1
_chemical_formula_structural   NdSm3(Ga5Rh3)2
_chemical_formula_sum   'Nd1 Sm3 Ga10 Rh6'
_cell_volume   372.27290242
_cell_formula_units_Z   1
loop_
 _symmetry_equiv_pos_site_id
 _symmetry_equiv_pos_as_xyz
  1  'x, y, z'
loop_
 _atom_site_type_symbol
 _atom_site_label
 _atom_site_symmetry_multiplicity
 _atom_site_fract_x
 _atom_site_fract_y
 _atom_site_fract_z
 _atom_site_occupancy
  Nd  Nd0  1  0.864933  0.590376  0.773127  1
  Sm  Sm1  1  0.409604  0.135191  0.726717  1
  Sm  Sm2  1  0.135350  0.409437  0.226712  1
  Sm  Sm3  1  0.590336  0.864905  0.273275  1
  Ga  Ga4  1  0.082388  0.263021  0.826713  1
  Ga  Ga5  1  0.736820  0.918309  0.673048  1
  Ga  Ga6  1  0.917987  0.737552  0.172721  1
  Ga  Ga7  1  0.262741  0.082213  0.327019  1
  Ga  Ga8  1  0.205835  0.794989  0.750002  1
  Ga  Ga9  1  0.794657  0.205018  0.250191  1
  Ga  Ga10  1  0.500174  0.499110  0.750208  1
  Ga  Ga11  1  0.498905  0.500389  0.250499  1
  Ga  Ga12  1  0.793342  0.206252  0.750162  1
  Ga  Ga13  1  0.207118  0.793722  0.249188  1
  Rh  Rh14  1  0.260604  0.556169  0.593494  1
  Rh  Rh15  1  0.444061  0.739752  0.906170  1
  Rh  Rh16  1  0.739426  0.443648  0.406646  1
  Rh  Rh17  1  0.555454  0.259463  0.094470  1
  Rh  Rh18  1  0.999535  0.000839  0.749858  1
  Rh  Rh19  1  0.000733  0.999645  0.249779  1
