# generated using pymatgen
data_ThTa3NbC4
_symmetry_space_group_name_H-M   'P 1'
_cell_length_a   6.36360638
_cell_length_b   6.36360486
_cell_length_c   6.37693355
_cell_angle_alpha   94.01942042
_cell_angle_beta   93.80934892
_cell_angle_gamma   149.67568491
_symmetry_Int_Tables_number   1
_chemical_formula_structural   ThTa3NbC4
_chemical_formula_sum   'Th1 Ta3 Nb1 C4'
_cell_volume   125.86275311
_cell_formula_units_Z   1
loop_
 _symmetry_equiv_pos_site_id
 _symmetry_equiv_pos_as_xyz
  1  'x, y, z'
loop_
 _atom_site_type_symbol
 _atom_site_label
 _atom_site_symmetry_multiplicity
 _atom_site_fract_x
 _atom_site_fract_y
 _atom_site_fract_z
 _atom_site_occupancy
  Th  Th0  1  0.999921  0.000298  0.000218  1
  Ta  Ta1  1  0.372490  0.173290  0.545782  1
  Ta  Ta2  1  0.826733  0.372238  0.198970  1
  Ta  Ta3  1  0.172785  0.627248  0.800036  1
  Nb  Nb4  1  0.626675  0.827485  0.454155  1
  C  C5  1  0.276815  0.399833  0.676652  1
  C  C6  1  0.725846  0.600354  0.326200  1
  C  C7  1  0.397543  0.724544  0.122086  1
  C  C8  1  0.601192  0.274710  0.875901  1
