# generated using pymatgen
data_Dy2TaB2Ru5
_symmetry_space_group_name_H-M   'P 1'
_cell_length_a   9.68278700
_cell_length_b   9.68278700
_cell_length_c   3.13075100
_cell_angle_alpha   90.00000000
_cell_angle_beta   90.00000000
_cell_angle_gamma   90.00000000
_symmetry_Int_Tables_number   1
_chemical_formula_structural   Dy2TaB2Ru5
_chemical_formula_sum   'Dy4 Ta2 B4 Ru10'
_cell_volume   293.52783062
_cell_formula_units_Z   2
loop_
 _symmetry_equiv_pos_site_id
 _symmetry_equiv_pos_as_xyz
  1  'x, y, z'
loop_
 _atom_site_type_symbol
 _atom_site_label
 _atom_site_symmetry_multiplicity
 _atom_site_fract_x
 _atom_site_fract_y
 _atom_site_fract_z
 _atom_site_occupancy
  Dy  Dy0  1  0.824992  0.675008  0.000000  1
  Dy  Dy1  1  0.175008  0.324992  0.000000  1
  Dy  Dy2  1  0.324992  0.824992  0.000000  1
  Dy  Dy3  1  0.675008  0.175008  0.000000  1
  Ta  Ta4  1  0.500000  0.500000  0.000000  1
  Ta  Ta5  1  0.000000  0.000000  0.000000  1
  B  B6  1  0.620425  0.879575  0.000000  1
  B  B7  1  0.379575  0.120425  0.000000  1
  B  B8  1  0.120425  0.620425  0.000000  1
  B  B9  1  0.879575  0.379575  0.000000  1
  Ru  Ru10  1  0.570629  0.718162  0.500000  1
  Ru  Ru11  1  0.429371  0.281838  0.500000  1
  Ru  Ru12  1  0.070629  0.781838  0.500000  1
  Ru  Ru13  1  0.929371  0.218162  0.500000  1
  Ru  Ru14  1  0.281838  0.570629  0.500000  1
  Ru  Ru15  1  0.718162  0.429371  0.500000  1
  Ru  Ru16  1  0.218162  0.070629  0.500000  1
  Ru  Ru17  1  0.781838  0.929371  0.500000  1
  Ru  Ru18  1  0.500000  0.000000  0.500000  1
  Ru  Ru19  1  0.000000  0.500000  0.500000  1
