# generated using pymatgen
data_Dy6Al23VTc8
_symmetry_space_group_name_H-M   'P 1'
_cell_length_a   8.83301000
_cell_length_b   8.83301032
_cell_length_c   9.68856600
_cell_angle_alpha   90.00000000
_cell_angle_beta   90.00000000
_cell_angle_gamma   119.99999131
_symmetry_Int_Tables_number   1
_chemical_formula_structural   Dy6Al23VTc8
_chemical_formula_sum   'Dy6 Al23 V1 Tc8'
_cell_volume   654.64767805
_cell_formula_units_Z   1
loop_
 _symmetry_equiv_pos_site_id
 _symmetry_equiv_pos_as_xyz
  1  'x, y, z'
loop_
 _atom_site_type_symbol
 _atom_site_label
 _atom_site_symmetry_multiplicity
 _atom_site_fract_x
 _atom_site_fract_y
 _atom_site_fract_z
 _atom_site_occupancy
  Dy  Dy0  1  0.194828  0.389658  0.246610  1
  Dy  Dy1  1  0.806869  0.613736  0.749296  1
  Dy  Dy2  1  0.610342  0.805172  0.246610  1
  Dy  Dy3  1  0.386264  0.193131  0.749296  1
  Dy  Dy4  1  0.194828  0.805172  0.246610  1
  Dy  Dy5  1  0.806869  0.193131  0.749296  1
  Al  Al6  1  0.666667  0.333333  0.991768  1
  Al  Al7  1  0.666667  0.333333  0.516739  1
  Al  Al8  1  0.333333  0.666667  0.486184  1
  Al  Al9  1  0.162253  0.324507  0.578394  1
  Al  Al10  1  0.837171  0.674341  0.423644  1
  Al  Al11  1  0.675493  0.837747  0.578394  1
  Al  Al12  1  0.837989  0.675977  0.078186  1
  Al  Al13  1  0.325659  0.162829  0.423644  1
  Al  Al14  1  0.159704  0.319409  0.922329  1
  Al  Al15  1  0.162253  0.837747  0.578394  1
  Al  Al16  1  0.324023  0.162011  0.078186  1
  Al  Al17  1  0.837171  0.162829  0.423644  1
  Al  Al18  1  0.680591  0.840296  0.922329  1
  Al  Al19  1  0.837989  0.162011  0.078186  1
  Al  Al20  1  0.159704  0.840296  0.922329  1
  Al  Al21  1  0.561698  0.123396  0.252082  1
  Al  Al22  1  0.440397  0.880792  0.750439  1
  Al  Al23  1  0.876604  0.438302  0.252082  1
  Al  Al24  1  0.119208  0.559603  0.750439  1
  Al  Al25  1  0.561698  0.438302  0.252082  1
  Al  Al26  1  0.440397  0.559603  0.750439  1
  Al  Al27  1  0.000000  0.000000  0.250556  1
  Al  Al28  1  0.000000  0.000000  0.750682  1
  V  V29  1  0.333333  0.666667  0.982947  1
  Tc  Tc30  1  0.494090  0.988180  0.004339  1
  Tc  Tc31  1  0.011820  0.505910  0.004339  1
  Tc  Tc32  1  0.498989  0.997977  0.501363  1
  Tc  Tc33  1  0.494090  0.505910  0.004339  1
  Tc  Tc34  1  0.002023  0.501011  0.501363  1
  Tc  Tc35  1  0.498989  0.501011  0.501363  1
  Tc  Tc36  1  0.000000  0.000000  0.001185  1
  Tc  Tc37  1  0.000000  0.000000  0.499892  1
