# generated using pymatgen
data_Er3Tm5Zn2(Si6Ir)2
_symmetry_space_group_name_H-M   'P 1'
_cell_length_a   8.10905000
_cell_length_b   8.10528109
_cell_length_c   7.89034900
_cell_angle_alpha   89.99930724
_cell_angle_beta   90.00000000
_cell_angle_gamma   120.01538308
_symmetry_Int_Tables_number   1
_chemical_formula_structural   Er3Tm5Zn2(Si6Ir)2
_chemical_formula_sum   'Er3 Tm5 Zn2 Si12 Ir2'
_cell_volume   449.05295925
_cell_formula_units_Z   1
loop_
 _symmetry_equiv_pos_site_id
 _symmetry_equiv_pos_as_xyz
  1  'x, y, z'
loop_
 _atom_site_type_symbol
 _atom_site_label
 _atom_site_symmetry_multiplicity
 _atom_site_fract_x
 _atom_site_fract_y
 _atom_site_fract_z
 _atom_site_occupancy
  Er  Er0  1  0.508018  0.016032  0.256037  1
  Er  Er1  1  0.000013  0.000035  0.750949  1
  Er  Er2  1  0.000000  0.999996  0.249039  1
  Tm  Tm3  1  0.983722  0.491920  0.256829  1
  Tm  Tm4  1  0.508198  0.491920  0.256828  1
  Tm  Tm5  1  0.491718  0.983436  0.743277  1
  Tm  Tm6  1  0.016679  0.508366  0.743322  1
  Tm  Tm7  1  0.491689  0.508366  0.743322  1
  Zn  Zn8  1  0.333114  0.666234  0.042209  1
  Zn  Zn9  1  0.666736  0.333480  0.956458  1
  Si  Si10  1  0.166192  0.833678  0.491874  1
  Si  Si11  1  0.166163  0.332325  0.491919  1
  Si  Si12  1  0.667488  0.833678  0.491875  1
  Si  Si13  1  0.333494  0.166937  0.007798  1
  Si  Si14  1  0.833765  0.667529  0.508352  1
  Si  Si15  1  0.833444  0.166939  0.007798  1
  Si  Si16  1  0.833321  0.666640  0.008187  1
  Si  Si17  1  0.166633  0.333267  0.991914  1
  Si  Si18  1  0.666557  0.833258  0.991702  1
  Si  Si19  1  0.332655  0.166401  0.508501  1
  Si  Si20  1  0.833743  0.166404  0.508502  1
  Si  Si21  1  0.166701  0.833255  0.991700  1
  Ir  Ir22  1  0.666813  0.333628  0.518655  1
  Ir  Ir23  1  0.333144  0.666275  0.482954  1
