# generated using pymatgen
data_LuScF6
_symmetry_space_group_name_H-M   'P 1'
_cell_length_a   5.88816238
_cell_length_b   5.88817311
_cell_length_c   5.88816100
_cell_angle_alpha   59.99992050
_cell_angle_beta   59.99989879
_cell_angle_gamma   59.99993897
_symmetry_Int_Tables_number   1
_chemical_formula_structural   LuScF6
_chemical_formula_sum   'Lu1 Sc1 F6'
_cell_volume   144.35247446
_cell_formula_units_Z   1
loop_
 _symmetry_equiv_pos_site_id
 _symmetry_equiv_pos_as_xyz
  1  'x, y, z'
loop_
 _atom_site_type_symbol
 _atom_site_label
 _atom_site_symmetry_multiplicity
 _atom_site_fract_x
 _atom_site_fract_y
 _atom_site_fract_z
 _atom_site_occupancy
  Lu  Lu0  1  0.499999  0.500002  0.499999  1
  Sc  Sc1  1  0.000000  0.999999  0.000001  1
  F  F2  1  0.755622  0.244378  0.244378  1
  F  F3  1  0.244378  0.755622  0.244378  1
  F  F4  1  0.755622  0.755621  0.244378  1
  F  F5  1  0.244378  0.244378  0.755621  1
  F  F6  1  0.755623  0.244377  0.755623  1
  F  F7  1  0.244378  0.755622  0.755622  1
