# generated using pymatgen
data_La7Nd3(Sn3O)2
_symmetry_space_group_name_H-M   'P 1'
_cell_length_a   9.52676719
_cell_length_b   9.52676684
_cell_length_c   9.52243300
_cell_angle_alpha   126.34476998
_cell_angle_beta   126.34476046
_cell_angle_gamma   79.24581658
_symmetry_Int_Tables_number   1
_chemical_formula_structural   La7Nd3(Sn3O)2
_chemical_formula_sum   'La7 Nd3 Sn6 O2'
_cell_volume   542.35044159
_cell_formula_units_Z   1
loop_
 _symmetry_equiv_pos_site_id
 _symmetry_equiv_pos_as_xyz
  1  'x, y, z'
loop_
 _atom_site_type_symbol
 _atom_site_label
 _atom_site_symmetry_multiplicity
 _atom_site_fract_x
 _atom_site_fract_y
 _atom_site_fract_z
 _atom_site_occupancy
  La  La0  1  0.497834  0.304892  0.499195  1
  La  La1  1  0.804892  0.997834  0.499195  1
  La  La2  1  0.997698  0.497698  0.192491  1
  La  La3  1  0.305721  0.805721  0.807958  1
  La  La4  1  0.504660  0.696830  0.500413  1
  La  La5  1  0.196830  0.004660  0.500413  1
  La  La6  1  0.003507  0.503507  0.806012  1
  Nd  Nd7  1  0.699017  0.199017  0.194665  1
  Nd  Nd8  1  0.503234  0.502858  0.000169  1
  Nd  Nd9  1  0.002858  0.003234  0.000169  1
  Sn  Sn10  1  0.140198  0.359007  0.498725  1
  Sn  Sn11  1  0.859007  0.640198  0.498725  1
  Sn  Sn12  1  0.642237  0.142237  0.784123  1
  Sn  Sn13  1  0.359460  0.859460  0.217516  1
  Sn  Sn14  1  0.751322  0.753330  0.000612  1
  Sn  Sn15  1  0.253330  0.251322  0.000612  1
  O  O16  1  0.750630  0.250630  0.499663  1
  O  O17  1  0.250407  0.750407  0.499343  1
