# generated using pymatgen
data_Ti8Fe8Si13P
_symmetry_space_group_name_H-M   'P 1'
_cell_length_a   9.19183326
_cell_length_b   9.19188219
_cell_length_c   9.20057500
_cell_angle_alpha   94.17756951
_cell_angle_beta   94.17493557
_cell_angle_gamma   148.67303537
_symmetry_Int_Tables_number   1
_chemical_formula_structural   Ti8Fe8Si13P
_chemical_formula_sum   'Ti8 Fe8 Si13 P1'
_cell_volume   389.18481332
_cell_formula_units_Z   1
loop_
 _symmetry_equiv_pos_site_id
 _symmetry_equiv_pos_as_xyz
  1  'x, y, z'
loop_
 _atom_site_type_symbol
 _atom_site_label
 _atom_site_symmetry_multiplicity
 _atom_site_fract_x
 _atom_site_fract_y
 _atom_site_fract_z
 _atom_site_occupancy
  Ti  Ti0  1  0.137195  0.137189  0.274422  1
  Ti  Ti1  1  0.861551  0.861544  0.723082  1
  Ti  Ti2  1  0.863922  0.136505  0.000428  1
  Ti  Ti3  1  0.136517  0.863960  0.000451  1
  Ti  Ti4  1  0.499348  0.691851  0.191206  1
  Ti  Ti5  1  0.497514  0.308046  0.805597  1
  Ti  Ti6  1  0.307988  0.497568  0.805520  1
  Ti  Ti7  1  0.691779  0.499391  0.191146  1
  Fe  Fe8  1  0.399544  0.899451  0.799050  1
  Fe  Fe9  1  0.100390  0.600293  0.200663  1
  Fe  Fe10  1  0.099884  0.905677  0.502447  1
  Fe  Fe11  1  0.402568  0.596845  0.502459  1
  Fe  Fe12  1  0.596757  0.402542  0.502448  1
  Fe  Fe13  1  0.905639  0.099853  0.502462  1
  Fe  Fe14  1  0.899597  0.399505  0.799061  1
  Fe  Fe15  1  0.600408  0.100311  0.200665  1
  Si  Si16  1  0.702712  0.702625  0.405393  1
  Si  Si17  1  0.704692  0.294416  0.999143  1
  Si  Si18  1  0.294526  0.704681  0.999138  1
  Si  Si19  1  0.001229  0.293308  0.294572  1
  Si  Si20  1  0.999949  0.707784  0.707637  1
  Si  Si21  1  0.707561  0.999833  0.707452  1
  Si  Si22  1  0.293175  0.001190  0.294391  1
  Si  Si23  1  0.503091  0.905022  0.408005  1
  Si  Si24  1  0.497938  0.093987  0.592042  1
  Si  Si25  1  0.093993  0.497957  0.592022  1
  Si  Si26  1  0.904978  0.503046  0.407987  1
  Si  Si27  1  0.750746  0.750782  0.999579  1
  Si  Si28  1  0.248802  0.248847  0.999599  1
  P  P29  1  0.296010  0.295988  0.591933  1
