# generated using pymatgen
data_Sr2LiScSn2
_symmetry_space_group_name_H-M   'P 1'
_cell_length_a   9.04568429
_cell_length_b   9.04568420
_cell_length_c   9.04568400
_cell_angle_alpha   135.03863289
_cell_angle_beta   135.26166410
_cell_angle_gamma   65.29715597
_symmetry_Int_Tables_number   1
_chemical_formula_structural   Sr2LiScSn2
_chemical_formula_sum   'Sr4 Li2 Sc2 Sn4'
_cell_volume   362.75856924
_cell_formula_units_Z   2
loop_
 _symmetry_equiv_pos_site_id
 _symmetry_equiv_pos_as_xyz
  1  'x, y, z'
loop_
 _atom_site_type_symbol
 _atom_site_label
 _atom_site_symmetry_multiplicity
 _atom_site_fract_x
 _atom_site_fract_y
 _atom_site_fract_z
 _atom_site_occupancy
  Sr  Sr0  1  0.109294  0.831273  0.278021  1
  Sr  Sr1  1  0.890706  0.168727  0.721979  1
  Sr  Sr2  1  0.446747  0.668727  0.778021  1
  Sr  Sr3  1  0.553253  0.331273  0.221979  1
  Li  Li4  1  0.500000  0.250000  0.750000  1
  Li  Li5  1  0.500000  0.750000  0.250000  1
  Sc  Sc6  1  0.000000  0.250000  0.250000  1
  Sc  Sc7  1  0.000000  0.750000  0.750000  1
  Sn  Sn8  1  0.648931  0.892565  0.756365  1
  Sn  Sn9  1  0.136201  0.392565  0.743635  1
  Sn  Sn10  1  0.863799  0.607435  0.256365  1
  Sn  Sn11  1  0.351069  0.107435  0.243635  1
