# generated using pymatgen
data_La6TcPtBr6
_symmetry_space_group_name_H-M   'P 1'
_cell_length_a   10.70887181
_cell_length_b   10.70887216
_cell_length_c   10.68366848
_cell_angle_alpha   109.92620255
_cell_angle_beta   109.92621206
_cell_angle_gamma   108.66201008
_symmetry_Int_Tables_number   1
_chemical_formula_structural   La6TcPtBr6
_chemical_formula_sum   'La12 Tc2 Pt2 Br12'
_cell_volume   941.87239045
_cell_formula_units_Z   2
loop_
 _symmetry_equiv_pos_site_id
 _symmetry_equiv_pos_as_xyz
  1  'x, y, z'
loop_
 _atom_site_type_symbol
 _atom_site_label
 _atom_site_symmetry_multiplicity
 _atom_site_fract_x
 _atom_site_fract_y
 _atom_site_fract_z
 _atom_site_occupancy
  La  La0  1  0.391351  0.608649  0.000000  1
  La  La1  1  0.608649  0.391351  0.000000  1
  La  La2  1  0.641257  0.141257  0.282516  1
  La  La3  1  0.858743  0.358743  0.717484  1
  La  La4  1  0.406506  0.395451  0.264042  1
  La  La5  1  0.131407  0.142465  0.735958  1
  La  La6  1  0.139654  0.364154  0.520599  1
  La  La7  1  0.843555  0.619053  0.479401  1
  La  La8  1  0.604549  0.593494  0.735958  1
  La  La9  1  0.857535  0.868593  0.264042  1
  La  La10  1  0.635846  0.860346  0.479401  1
  La  La11  1  0.380947  0.156445  0.520599  1
  Tc  Tc12  1  0.633326  0.633326  0.266651  1
  Tc  Tc13  1  0.366674  0.366674  0.733349  1
  Pt  Pt14  1  0.874625  0.125375  0.500000  1
  Pt  Pt15  1  0.625375  0.374625  0.500000  1
  Br  Br16  1  0.368041  0.631959  0.500000  1
  Br  Br17  1  0.131959  0.868041  0.500000  1
  Br  Br18  1  0.119919  0.119919  0.239838  1
  Br  Br19  1  0.880081  0.880081  0.760162  1
  Br  Br20  1  0.881219  0.626127  0.001919  1
  Br  Br21  1  0.624207  0.879298  0.998081  1
  Br  Br22  1  0.624565  0.124362  0.753748  1
  Br  Br23  1  0.370614  0.870817  0.246252  1
  Br  Br24  1  0.373873  0.118781  0.998081  1
  Br  Br25  1  0.120702  0.375793  0.001919  1
  Br  Br26  1  0.875638  0.375435  0.246252  1
  Br  Br27  1  0.129183  0.629386  0.753748  1
