# generated using pymatgen
data_Tm3Al3SiAu2
_symmetry_space_group_name_H-M   'P 1'
_cell_length_a   6.94728500
_cell_length_b   6.94728536
_cell_length_c   4.27225900
_cell_angle_alpha   90.00000000
_cell_angle_beta   90.00000000
_cell_angle_gamma   119.99999353
_symmetry_Int_Tables_number   1
_chemical_formula_structural   Tm3Al3SiAu2
_chemical_formula_sum   'Tm3 Al3 Si1 Au2'
_cell_volume   178.57410681
_cell_formula_units_Z   1
loop_
 _symmetry_equiv_pos_site_id
 _symmetry_equiv_pos_as_xyz
  1  'x, y, z'
loop_
 _atom_site_type_symbol
 _atom_site_label
 _atom_site_symmetry_multiplicity
 _atom_site_fract_x
 _atom_site_fract_y
 _atom_site_fract_z
 _atom_site_occupancy
  Tm  Tm0  1  0.423584  0.421694  0.500000  1
  Tm  Tm1  1  0.578306  0.001890  0.500000  1
  Tm  Tm2  1  0.998110  0.576416  0.500000  1
  Al  Al3  1  0.751675  0.756273  0.000000  1
  Al  Al4  1  0.243727  0.995403  0.000000  1
  Al  Al5  1  0.004597  0.248325  0.000000  1
  Si  Si6  1  0.666667  0.333333  0.000000  1
  Au  Au7  1  0.333333  0.666667  0.000000  1
  Au  Au8  1  0.000000  0.000000  0.500000  1
