# generated using pymatgen
data_PrY3(BeSi3)2
_symmetry_space_group_name_H-M   'P 1'
_cell_length_a   7.88195000
_cell_length_b   7.88195006
_cell_length_c   8.27085900
_cell_angle_alpha   90.00000000
_cell_angle_beta   90.00000000
_cell_angle_gamma   119.99999975
_symmetry_Int_Tables_number   1
_chemical_formula_structural   PrY3(BeSi3)2
_chemical_formula_sum   'Pr2 Y6 Be4 Si12'
_cell_volume   444.98831227
_cell_formula_units_Z   2
loop_
 _symmetry_equiv_pos_site_id
 _symmetry_equiv_pos_as_xyz
  1  'x, y, z'
loop_
 _atom_site_type_symbol
 _atom_site_label
 _atom_site_symmetry_multiplicity
 _atom_site_fract_x
 _atom_site_fract_y
 _atom_site_fract_z
 _atom_site_occupancy
  Pr  Pr0  1  0.000000  0.000000  0.250000  1
  Pr  Pr1  1  0.000000  0.000000  0.750000  1
  Y  Y2  1  0.999759  0.499879  0.250000  1
  Y  Y3  1  0.500121  0.499879  0.250000  1
  Y  Y4  1  0.499879  0.999759  0.750000  1
  Y  Y5  1  0.500121  0.000241  0.250000  1
  Y  Y6  1  0.499879  0.500121  0.750000  1
  Y  Y7  1  0.000241  0.500121  0.750000  1
  Be  Be8  1  0.333333  0.666667  0.999263  1
  Be  Be9  1  0.333333  0.666667  0.500737  1
  Be  Be10  1  0.666667  0.333333  0.000737  1
  Be  Be11  1  0.666667  0.333333  0.499263  1
  Si  Si12  1  0.173800  0.347601  0.000035  1
  Si  Si13  1  0.652399  0.826200  0.000035  1
  Si  Si14  1  0.173800  0.347601  0.499965  1
  Si  Si15  1  0.347601  0.173800  0.999965  1
  Si  Si16  1  0.173800  0.826200  0.000035  1
  Si  Si17  1  0.652399  0.826200  0.499965  1
  Si  Si18  1  0.826200  0.652399  0.999965  1
  Si  Si19  1  0.347601  0.173800  0.500035  1
  Si  Si20  1  0.173800  0.826200  0.499965  1
  Si  Si21  1  0.826200  0.652399  0.500035  1
  Si  Si22  1  0.826200  0.173800  0.999965  1
  Si  Si23  1  0.826200  0.173800  0.500035  1
