# generated using pymatgen
data_Yb2GaFeO5
_symmetry_space_group_name_H-M   'P 1'
_cell_length_a   5.40797100
_cell_length_b   5.64123300
_cell_length_c   14.55783700
_cell_angle_alpha   90.00000000
_cell_angle_beta   90.00000000
_cell_angle_gamma   90.00000000
_symmetry_Int_Tables_number   1
_chemical_formula_structural   Yb2GaFeO5
_chemical_formula_sum   'Yb8 Ga4 Fe4 O20'
_cell_volume   444.12502427
_cell_formula_units_Z   4
loop_
 _symmetry_equiv_pos_site_id
 _symmetry_equiv_pos_as_xyz
  1  'x, y, z'
loop_
 _atom_site_type_symbol
 _atom_site_label
 _atom_site_symmetry_multiplicity
 _atom_site_fract_x
 _atom_site_fract_y
 _atom_site_fract_z
 _atom_site_occupancy
  Yb  Yb0  1  0.979260  0.027571  0.106668  1
  Yb  Yb1  1  0.520740  0.527571  0.606668  1
  Yb  Yb2  1  0.520740  0.527571  0.893332  1
  Yb  Yb3  1  0.479260  0.472429  0.106668  1
  Yb  Yb4  1  0.479260  0.472429  0.393332  1
  Yb  Yb5  1  0.020740  0.972429  0.606668  1
  Yb  Yb6  1  0.020740  0.972429  0.893332  1
  Yb  Yb7  1  0.979260  0.027571  0.393332  1
  Ga  Ga8  1  0.451668  0.930717  0.250000  1
  Ga  Ga9  1  0.048332  0.430717  0.750000  1
  Ga  Ga10  1  0.951668  0.569283  0.250000  1
  Ga  Ga11  1  0.548332  0.069283  0.750000  1
  Fe  Fe12  1  0.500000  0.000000  0.000000  1
  Fe  Fe13  1  0.500000  0.000000  0.500000  1
  Fe  Fe14  1  0.000000  0.500000  0.500000  1
  Fe  Fe15  1  0.000000  0.500000  0.000000  1
  O  O16  1  0.399808  0.377201  0.750000  1
  O  O17  1  0.263508  0.263997  0.516574  1
  O  O18  1  0.236492  0.763997  0.016574  1
  O  O19  1  0.536432  0.079406  0.142135  1
  O  O20  1  0.736492  0.736003  0.016574  1
  O  O21  1  0.763508  0.236003  0.983426  1
  O  O22  1  0.763508  0.236003  0.516574  1
  O  O23  1  0.963568  0.579406  0.857865  1
  O  O24  1  0.899808  0.122799  0.750000  1
  O  O25  1  0.100192  0.877201  0.250000  1
  O  O26  1  0.736492  0.736003  0.483426  1
  O  O27  1  0.463568  0.920594  0.857865  1
  O  O28  1  0.536432  0.079406  0.357865  1
  O  O29  1  0.600192  0.622799  0.250000  1
  O  O30  1  0.236492  0.763997  0.483426  1
  O  O31  1  0.963568  0.579406  0.642135  1
  O  O32  1  0.036432  0.420594  0.142135  1
  O  O33  1  0.263508  0.263997  0.983426  1
  O  O34  1  0.463568  0.920594  0.642135  1
  O  O35  1  0.036432  0.420594  0.357865  1
