# generated using pymatgen
data_Tm2AlB2Ir5
_symmetry_space_group_name_H-M   'P 1'
_cell_length_a   9.55034100
_cell_length_b   9.55034100
_cell_length_c   3.12843800
_cell_angle_alpha   90.00000000
_cell_angle_beta   90.00000000
_cell_angle_gamma   90.00000000
_symmetry_Int_Tables_number   1
_chemical_formula_structural   Tm2AlB2Ir5
_chemical_formula_sum   'Tm4 Al2 B4 Ir10'
_cell_volume   285.34174289
_cell_formula_units_Z   2
loop_
 _symmetry_equiv_pos_site_id
 _symmetry_equiv_pos_as_xyz
  1  'x, y, z'
loop_
 _atom_site_type_symbol
 _atom_site_label
 _atom_site_symmetry_multiplicity
 _atom_site_fract_x
 _atom_site_fract_y
 _atom_site_fract_z
 _atom_site_occupancy
  Tm  Tm0  1  0.176293  0.676293  0.000000  1
  Tm  Tm1  1  0.323707  0.176293  0.000000  1
  Tm  Tm2  1  0.676293  0.823707  0.000000  1
  Tm  Tm3  1  0.823707  0.323707  0.000000  1
  Al  Al4  1  0.000000  0.000000  0.000000  1
  Al  Al5  1  0.500000  0.500000  0.000000  1
  B  B6  1  0.122668  0.377332  0.000000  1
  B  B7  1  0.377332  0.877332  0.000000  1
  B  B8  1  0.622668  0.122668  0.000000  1
  B  B9  1  0.877332  0.622668  0.000000  1
  Ir  Ir10  1  0.000000  0.500000  0.500000  1
  Ir  Ir11  1  0.069261  0.217654  0.500000  1
  Ir  Ir12  1  0.217654  0.930739  0.500000  1
  Ir  Ir13  1  0.282346  0.430739  0.500000  1
  Ir  Ir14  1  0.430739  0.717654  0.500000  1
  Ir  Ir15  1  0.500000  0.000000  0.500000  1
  Ir  Ir16  1  0.569261  0.282346  0.500000  1
  Ir  Ir17  1  0.717654  0.569261  0.500000  1
  Ir  Ir18  1  0.782346  0.069261  0.500000  1
  Ir  Ir19  1  0.930739  0.782346  0.500000  1
