# generated using pymatgen
data_Dy3Er5(ReB6)4
_symmetry_space_group_name_H-M   'P 1'
_cell_length_a   3.66706200
_cell_length_b   9.14701200
_cell_length_c   11.52890500
_cell_angle_alpha   89.99711808
_cell_angle_beta   90.00000000
_cell_angle_gamma   90.00000000
_symmetry_Int_Tables_number   1
_chemical_formula_structural   Dy3Er5(ReB6)4
_chemical_formula_sum   'Dy3 Er5 Re4 B24'
_cell_volume   386.71014171
_cell_formula_units_Z   1
loop_
 _symmetry_equiv_pos_site_id
 _symmetry_equiv_pos_as_xyz
  1  'x, y, z'
loop_
 _atom_site_type_symbol
 _atom_site_label
 _atom_site_symmetry_multiplicity
 _atom_site_fract_x
 _atom_site_fract_y
 _atom_site_fract_z
 _atom_site_occupancy
  Dy  Dy0  1  0.000000  0.323300  0.413788  1
  Dy  Dy1  1  0.000000  0.676619  0.586310  1
  Dy  Dy2  1  0.000000  0.823406  0.086158  1
  Er  Er3  1  0.000000  0.176511  0.913804  1
  Er  Er4  1  0.000000  0.943435  0.370045  1
  Er  Er5  1  0.000000  0.056694  0.629973  1
  Er  Er6  1  0.000000  0.443261  0.129679  1
  Er  Er7  1  0.000000  0.556562  0.870219  1
  Re  Re8  1  0.000000  0.639054  0.320468  1
  Re  Re9  1  0.000000  0.360719  0.679829  1
  Re  Re10  1  0.000000  0.139059  0.179129  1
  Re  Re11  1  0.000000  0.861304  0.820654  1
  B  B12  1  0.500000  0.553411  0.432788  1
  B  B13  1  0.500000  0.446440  0.567355  1
  B  B14  1  0.500000  0.053605  0.066816  1
  B  B15  1  0.500000  0.946993  0.932846  1
  B  B16  1  0.500000  0.749732  0.418551  1
  B  B17  1  0.500000  0.250270  0.581659  1
  B  B18  1  0.500000  0.249618  0.080883  1
  B  B19  1  0.500000  0.750432  0.918524  1
  B  B20  1  0.500000  0.792578  0.265556  1
  B  B21  1  0.500000  0.207224  0.734831  1
  B  B22  1  0.500000  0.292507  0.234153  1
  B  B23  1  0.500000  0.707512  0.765664  1
  B  B24  1  0.500000  0.630633  0.185378  1
  B  B25  1  0.500000  0.368962  0.814935  1
  B  B26  1  0.500000  0.130721  0.314411  1
  B  B27  1  0.500000  0.869502  0.685570  1
  B  B28  1  0.500000  0.982408  0.212056  1
  B  B29  1  0.500000  0.018223  0.788053  1
  B  B30  1  0.500000  0.482218  0.287682  1
  B  B31  1  0.500000  0.517574  0.712381  1
  B  B32  1  0.500000  0.599363  0.027723  1
  B  B33  1  0.500000  0.400039  0.972056  1
  B  B34  1  0.500000  0.099316  0.472290  1
  B  B35  1  0.500000  0.900793  0.527782  1
