# generated using pymatgen
data_Na2CeThB24
_symmetry_space_group_name_H-M   'P 1'
_cell_length_a   4.13701700
_cell_length_b   5.85844400
_cell_length_c   11.70379300
_cell_angle_alpha   90.00000000
_cell_angle_beta   90.00000000
_cell_angle_gamma   90.00000000
_symmetry_Int_Tables_number   1
_chemical_formula_structural   Na2CeThB24
_chemical_formula_sum   'Na2 Ce1 Th1 B24'
_cell_volume   283.65877331
_cell_formula_units_Z   1
loop_
 _symmetry_equiv_pos_site_id
 _symmetry_equiv_pos_as_xyz
  1  'x, y, z'
loop_
 _atom_site_type_symbol
 _atom_site_label
 _atom_site_symmetry_multiplicity
 _atom_site_fract_x
 _atom_site_fract_y
 _atom_site_fract_z
 _atom_site_occupancy
  Na  Na0  1  0.000000  0.500000  0.253596  1
  Na  Na1  1  0.000000  0.500000  0.746404  1
  Ce  Ce2  1  0.000000  0.000000  0.500000  1
  Th  Th3  1  0.000000  0.000000  0.000000  1
  B  B4  1  0.201121  0.500000  0.500000  1
  B  B5  1  0.201096  0.000000  0.750982  1
  B  B6  1  0.201074  0.500000  0.000000  1
  B  B7  1  0.201096  0.000000  0.249018  1
  B  B8  1  0.500000  0.649158  0.575294  1
  B  B9  1  0.500000  0.150120  0.825146  1
  B  B10  1  0.500000  0.648914  0.075222  1
  B  B11  1  0.500000  0.150319  0.324110  1
  B  B12  1  0.500000  0.350842  0.575294  1
  B  B13  1  0.500000  0.849880  0.825146  1
  B  B14  1  0.500000  0.351086  0.075222  1
  B  B15  1  0.500000  0.849681  0.324110  1
  B  B16  1  0.500000  0.350842  0.424706  1
  B  B17  1  0.500000  0.849681  0.675890  1
  B  B18  1  0.500000  0.351086  0.924778  1
  B  B19  1  0.500000  0.849880  0.174854  1
  B  B20  1  0.500000  0.649158  0.424706  1
  B  B21  1  0.500000  0.150319  0.675890  1
  B  B22  1  0.500000  0.648914  0.924778  1
  B  B23  1  0.500000  0.150120  0.174854  1
  B  B24  1  0.798879  0.500000  0.500000  1
  B  B25  1  0.798904  0.000000  0.750982  1
  B  B26  1  0.798926  0.500000  0.000000  1
  B  B27  1  0.798904  0.000000  0.249018  1
