# generated using pymatgen
data_Hf8Ni2Ir2C
_symmetry_space_group_name_H-M   'P 1'
_cell_length_a   8.64510315
_cell_length_b   8.64510410
_cell_length_c   8.64510341
_cell_angle_alpha   120.05544436
_cell_angle_beta   119.90975249
_cell_angle_gamma   90.03019078
_symmetry_Int_Tables_number   1
_chemical_formula_structural   Hf8Ni2Ir2C
_chemical_formula_sum   'Hf16 Ni4 Ir4 C2'
_cell_volume   456.99228554
_cell_formula_units_Z   2
loop_
 _symmetry_equiv_pos_site_id
 _symmetry_equiv_pos_as_xyz
  1  'x, y, z'
loop_
 _atom_site_type_symbol
 _atom_site_label
 _atom_site_symmetry_multiplicity
 _atom_site_fract_x
 _atom_site_fract_y
 _atom_site_fract_z
 _atom_site_occupancy
  Hf  Hf0  1  0.937333  0.187333  0.750000  1
  Hf  Hf1  1  0.322626  0.572626  0.750000  1
  Hf  Hf2  1  0.933282  0.568191  0.756407  1
  Hf  Hf3  1  0.311784  0.176875  0.743593  1
  Hf  Hf4  1  0.933282  0.176875  0.365091  1
  Hf  Hf5  1  0.311784  0.568191  0.134909  1
  Hf  Hf6  1  0.058836  0.808836  0.250000  1
  Hf  Hf7  1  0.688849  0.438849  0.250000  1
  Hf  Hf8  1  0.059298  0.439073  0.244930  1
  Hf  Hf9  1  0.694143  0.814368  0.255070  1
  Hf  Hf10  1  0.059298  0.814368  0.620225  1
  Hf  Hf11  1  0.694143  0.439073  0.879775  1
  Hf  Hf12  1  0.485225  0.014703  0.029478  1
  Hf  Hf13  1  0.485225  0.455746  0.470522  1
  Hf  Hf14  1  0.485717  0.013849  0.471869  1
  Hf  Hf15  1  0.041980  0.013849  0.028131  1
  Ni  Ni16  1  0.273559  0.231508  0.457949  1
  Ni  Ni17  1  0.273559  0.815610  0.042051  1
  Ni  Ni18  1  0.276001  0.228600  0.047400  1
  Ni  Ni19  1  0.681199  0.228600  0.452600  1
  Ir  Ir20  1  0.706903  0.783543  0.576641  1
  Ir  Ir21  1  0.706903  0.130262  0.923359  1
  Ir  Ir22  1  0.704596  0.789686  0.914910  1
  Ir  Ir23  1  0.374778  0.789686  0.585090  1
  C  C24  1  0.999850  0.499405  0.999555  1
  C  C25  1  0.999850  0.000295  0.500445  1
