# generated using pymatgen
data_La5IrOs
_symmetry_space_group_name_H-M   'P 1'
_cell_length_a   9.16459994
_cell_length_b   9.16460007
_cell_length_c   7.45057939
_cell_angle_alpha   84.44123693
_cell_angle_beta   84.44123773
_cell_angle_gamma   43.02990627
_symmetry_Int_Tables_number   1
_chemical_formula_structural   La5IrOs
_chemical_formula_sum   'La10 Ir2 Os2'
_cell_volume   424.69422615
_cell_formula_units_Z   2
loop_
 _symmetry_equiv_pos_site_id
 _symmetry_equiv_pos_as_xyz
  1  'x, y, z'
loop_
 _atom_site_type_symbol
 _atom_site_label
 _atom_site_symmetry_multiplicity
 _atom_site_fract_x
 _atom_site_fract_y
 _atom_site_fract_z
 _atom_site_occupancy
  La  La0  1  0.016617  0.799971  0.908124  1
  La  La1  1  0.200029  0.983383  0.591876  1
  La  La2  1  0.990076  0.194653  0.087083  1
  La  La3  1  0.805347  0.009924  0.412917  1
  La  La4  1  0.356181  0.211726  0.818052  1
  La  La5  1  0.788274  0.643819  0.681948  1
  La  La6  1  0.639600  0.788516  0.178954  1
  La  La7  1  0.211484  0.360400  0.321046  1
  La  La8  1  0.571451  0.428549  0.750000  1
  La  La9  1  0.425483  0.574517  0.250000  1
  Ir  Ir10  1  0.819309  0.404779  0.420655  1
  Ir  Ir11  1  0.595221  0.180691  0.079345  1
  Os  Os12  1  0.178541  0.597614  0.577563  1
  Os  Os13  1  0.402386  0.821459  0.922437  1
