# generated using pymatgen
data_Th3Ga3TcPd2
_symmetry_space_group_name_H-M   'P 1'
_cell_length_a   7.29906400
_cell_length_b   7.29906413
_cell_length_c   4.12775800
_cell_angle_alpha   90.00000000
_cell_angle_beta   90.00000000
_cell_angle_gamma   119.99999940
_symmetry_Int_Tables_number   1
_chemical_formula_structural   Th3Ga3TcPd2
_chemical_formula_sum   'Th3 Ga3 Tc1 Pd2'
_cell_volume   190.44922656
_cell_formula_units_Z   1
loop_
 _symmetry_equiv_pos_site_id
 _symmetry_equiv_pos_as_xyz
  1  'x, y, z'
loop_
 _atom_site_type_symbol
 _atom_site_label
 _atom_site_symmetry_multiplicity
 _atom_site_fract_x
 _atom_site_fract_y
 _atom_site_fract_z
 _atom_site_occupancy
  Th  Th0  1  0.989821  0.414302  0.500000  1
  Th  Th1  1  0.585698  0.575519  0.500000  1
  Th  Th2  1  0.424481  0.010179  0.500000  1
  Ga  Ga3  1  0.996446  0.756607  0.000000  1
  Ga  Ga4  1  0.243393  0.239839  0.000000  1
  Ga  Ga5  1  0.760161  0.003554  0.000000  1
  Tc  Tc6  1  0.666667  0.333333  0.000000  1
  Pd  Pd7  1  0.333333  0.666667  0.000000  1
  Pd  Pd8  1  0.000000  0.000000  0.500000  1
