# generated using pymatgen
data_Ca19Yb(CdAg3)3
_symmetry_space_group_name_H-M   'P 1'
_cell_length_a   8.13101600
_cell_length_b   8.13101600
_cell_length_c   14.81057800
_cell_angle_alpha   90.00000000
_cell_angle_beta   90.00000000
_cell_angle_gamma   90.00000000
_symmetry_Int_Tables_number   1
_chemical_formula_structural   Ca19Yb(CdAg3)3
_chemical_formula_sum   'Ca19 Yb1 Cd3 Ag9'
_cell_volume   979.17798141
_cell_formula_units_Z   1
loop_
 _symmetry_equiv_pos_site_id
 _symmetry_equiv_pos_as_xyz
  1  'x, y, z'
loop_
 _atom_site_type_symbol
 _atom_site_label
 _atom_site_symmetry_multiplicity
 _atom_site_fract_x
 _atom_site_fract_y
 _atom_site_fract_z
 _atom_site_occupancy
  Ca  Ca0  1  0.671113  0.162915  0.105650  1
  Ca  Ca1  1  0.168080  0.666767  0.608274  1
  Ca  Ca2  1  0.328887  0.837085  0.105650  1
  Ca  Ca3  1  0.831920  0.333233  0.608274  1
  Ca  Ca4  1  0.837085  0.671113  0.105650  1
  Ca  Ca5  1  0.333233  0.168080  0.608274  1
  Ca  Ca6  1  0.162915  0.328887  0.105650  1
  Ca  Ca7  1  0.666767  0.831920  0.608274  1
  Ca  Ca8  1  0.836916  0.329164  0.894468  1
  Ca  Ca9  1  0.333023  0.832054  0.391597  1
  Ca  Ca10  1  0.163084  0.670836  0.894468  1
  Ca  Ca11  1  0.666977  0.167946  0.391597  1
  Ca  Ca12  1  0.670836  0.836916  0.894468  1
  Ca  Ca13  1  0.167946  0.333023  0.391597  1
  Ca  Ca14  1  0.329164  0.163084  0.894468  1
  Ca  Ca15  1  0.832054  0.666977  0.391597  1
  Ca  Ca16  1  0.500000  0.500000  0.754220  1
  Ca  Ca17  1  0.000000  0.000000  0.749314  1
  Ca  Ca18  1  0.500000  0.500000  0.245812  1
  Yb  Yb19  1  0.000000  0.000000  0.250653  1
  Cd  Cd20  1  0.500000  0.500000  0.500021  1
  Cd  Cd21  1  0.500000  0.500000  0.999941  1
  Cd  Cd22  1  0.000000  0.000000  0.499825  1
  Ag  Ag23  1  0.625869  0.126488  0.751356  1
  Ag  Ag24  1  0.126078  0.627290  0.248638  1
  Ag  Ag25  1  0.873922  0.372710  0.248638  1
  Ag  Ag26  1  0.374131  0.873512  0.751356  1
  Ag  Ag27  1  0.873512  0.625869  0.751356  1
  Ag  Ag28  1  0.372710  0.126078  0.248638  1
  Ag  Ag29  1  0.126488  0.374131  0.751356  1
  Ag  Ag30  1  0.627290  0.873922  0.248638  1
  Ag  Ag31  1  0.000000  0.000000  0.000281  1
