# generated using pymatgen
data_LiRh3Pb5
_symmetry_space_group_name_H-M   'P 1'
_cell_length_a   5.68434900
_cell_length_b   10.28523500
_cell_length_c   13.33368900
_cell_angle_alpha   90.00000000
_cell_angle_beta   90.00000000
_cell_angle_gamma   90.00000000
_symmetry_Int_Tables_number   1
_chemical_formula_structural   LiRh3Pb5
_chemical_formula_sum   'Li4 Rh12 Pb20'
_cell_volume   779.55233116
_cell_formula_units_Z   4
loop_
 _symmetry_equiv_pos_site_id
 _symmetry_equiv_pos_as_xyz
  1  'x, y, z'
loop_
 _atom_site_type_symbol
 _atom_site_label
 _atom_site_symmetry_multiplicity
 _atom_site_fract_x
 _atom_site_fract_y
 _atom_site_fract_z
 _atom_site_occupancy
  Li  Li0  1  0.586678  0.107758  0.250000  1
  Li  Li1  1  0.586678  0.392242  0.750000  1
  Li  Li2  1  0.413322  0.607758  0.250000  1
  Li  Li3  1  0.413322  0.892242  0.750000  1
  Rh  Rh4  1  0.644289  0.551808  0.421204  1
  Rh  Rh5  1  0.355711  0.448192  0.921204  1
  Rh  Rh6  1  0.644289  0.551808  0.078796  1
  Rh  Rh7  1  0.644289  0.948192  0.921204  1
  Rh  Rh8  1  0.097087  0.308781  0.750000  1
  Rh  Rh9  1  0.355711  0.051808  0.078796  1
  Rh  Rh10  1  0.355711  0.051808  0.421204  1
  Rh  Rh11  1  0.644289  0.948192  0.578796  1
  Rh  Rh12  1  0.902913  0.808781  0.750000  1
  Rh  Rh13  1  0.902913  0.691219  0.250000  1
  Rh  Rh14  1  0.355711  0.448192  0.578796  1
  Rh  Rh15  1  0.097087  0.191219  0.250000  1
  Pb  Pb16  1  0.865345  0.124840  0.064865  1
  Pb  Pb17  1  0.626321  0.825674  0.112905  1
  Pb  Pb18  1  0.134655  0.875160  0.564865  1
  Pb  Pb19  1  0.626321  0.674326  0.612905  1
  Pb  Pb20  1  0.865345  0.124840  0.435135  1
  Pb  Pb21  1  0.134655  0.624840  0.064865  1
  Pb  Pb22  1  0.373679  0.325674  0.112905  1
  Pb  Pb23  1  0.626321  0.825674  0.387095  1
  Pb  Pb24  1  0.134655  0.875160  0.935135  1
  Pb  Pb25  1  0.373679  0.174326  0.887095  1
  Pb  Pb26  1  0.626321  0.674326  0.887095  1
  Pb  Pb27  1  0.373679  0.325674  0.387095  1
  Pb  Pb28  1  0.373679  0.174326  0.612905  1
  Pb  Pb29  1  0.865345  0.375160  0.935135  1
  Pb  Pb30  1  0.850967  0.423426  0.250000  1
  Pb  Pb31  1  0.149033  0.576574  0.750000  1
  Pb  Pb32  1  0.134655  0.624840  0.435135  1
  Pb  Pb33  1  0.850967  0.076574  0.750000  1
  Pb  Pb34  1  0.149033  0.923426  0.250000  1
  Pb  Pb35  1  0.865345  0.375160  0.564865  1
