# generated using pymatgen
data_La4AlZn3Pd4
_symmetry_space_group_name_H-M   'P 1'
_cell_length_a   7.23282153
_cell_length_b   4.51698500
_cell_length_c   8.09794915
_cell_angle_alpha   90.00000000
_cell_angle_beta   90.28259423
_cell_angle_gamma   90.00000000
_symmetry_Int_Tables_number   1
_chemical_formula_structural   La4AlZn3Pd4
_chemical_formula_sum   'La4 Al1 Zn3 Pd4'
_cell_volume   264.56120512
_cell_formula_units_Z   1
loop_
 _symmetry_equiv_pos_site_id
 _symmetry_equiv_pos_as_xyz
  1  'x, y, z'
loop_
 _atom_site_type_symbol
 _atom_site_label
 _atom_site_symmetry_multiplicity
 _atom_site_fract_x
 _atom_site_fract_y
 _atom_site_fract_z
 _atom_site_occupancy
  La  La0  1  0.031400  0.250000  0.305743  1
  La  La1  1  0.532408  0.250000  0.189642  1
  La  La2  1  0.969781  0.750000  0.694521  1
  La  La3  1  0.465159  0.750000  0.809101  1
  Al  Al4  1  0.650386  0.250000  0.567520  1
  Zn  Zn5  1  0.152366  0.250000  0.930075  1
  Zn  Zn6  1  0.347791  0.750000  0.429468  1
  Zn  Zn7  1  0.845979  0.750000  0.072102  1
  Pd  Pd8  1  0.280112  0.250000  0.606265  1
  Pd  Pd9  1  0.767956  0.250000  0.886095  1
  Pd  Pd10  1  0.726672  0.750000  0.401497  1
  Pd  Pd11  1  0.229989  0.750000  0.107969  1
