# generated using pymatgen
data_K4FeCo3F14
_symmetry_space_group_name_H-M   'P 1'
_cell_length_a   7.77319299
_cell_length_b   7.81114625
_cell_length_c   7.81114800
_cell_angle_alpha   121.22285004
_cell_angle_beta   116.85975276
_cell_angle_gamma   91.84383373
_symmetry_Int_Tables_number   1
_chemical_formula_structural   K4FeCo3F14
_chemical_formula_sum   'K4 Fe1 Co3 F14'
_cell_volume   339.05017111
_cell_formula_units_Z   1
loop_
 _symmetry_equiv_pos_site_id
 _symmetry_equiv_pos_as_xyz
  1  'x, y, z'
loop_
 _atom_site_type_symbol
 _atom_site_label
 _atom_site_symmetry_multiplicity
 _atom_site_fract_x
 _atom_site_fract_y
 _atom_site_fract_z
 _atom_site_occupancy
  K  K0  1  0.500000  0.500000  0.000000  1
  K  K1  1  0.000000  0.000000  0.000000  1
  K  K2  1  0.000000  0.500000  0.000000  1
  K  K3  1  0.000000  0.000000  0.500000  1
  Fe  Fe4  1  0.000000  0.500000  0.500000  1
  Co  Co5  1  0.500000  0.500000  0.500000  1
  Co  Co6  1  0.500000  0.000000  0.000000  1
  Co  Co7  1  0.500000  0.000000  0.500000  1
  F  F8  1  0.878750  0.586721  0.292030  1
  F  F9  1  0.214492  0.916769  0.297724  1
  F  F10  1  0.188343  0.802005  0.761097  1
  F  F11  1  0.459636  0.697543  0.387151  1
  F  F12  1  0.459636  0.072485  0.762094  1
  F  F13  1  0.188343  0.427247  0.386338  1
  F  F14  1  0.811657  0.572753  0.613662  1
  F  F15  1  0.540364  0.927515  0.237906  1
  F  F16  1  0.540364  0.302457  0.612849  1
  F  F17  1  0.811657  0.197995  0.238903  1
  F  F18  1  0.398194  0.248032  0.150162  1
  F  F19  1  0.121250  0.413279  0.707970  1
  F  F20  1  0.785508  0.083231  0.702276  1
  F  F21  1  0.601806  0.751968  0.849838  1
