# generated using pymatgen
data_Np(SeCl)2
_symmetry_space_group_name_H-M   'P 1'
_cell_length_a   6.95357603
_cell_length_b   7.30678883
_cell_length_c   8.21107650
_cell_angle_alpha   66.70495267
_cell_angle_beta   70.10593974
_cell_angle_gamma   61.61175361
_symmetry_Int_Tables_number   1
_chemical_formula_structural   Np(SeCl)2
_chemical_formula_sum   'Np2 Se4 Cl4'
_cell_volume   331.06377486
_cell_formula_units_Z   2
loop_
 _symmetry_equiv_pos_site_id
 _symmetry_equiv_pos_as_xyz
  1  'x, y, z'
loop_
 _atom_site_type_symbol
 _atom_site_label
 _atom_site_symmetry_multiplicity
 _atom_site_fract_x
 _atom_site_fract_y
 _atom_site_fract_z
 _atom_site_occupancy
  Np  Np0  1  0.848078  0.304088  0.999931  1
  Np  Np1  1  0.151922  0.695912  0.000069  1
  Se  Se2  1  0.929212  0.899410  0.296059  1
  Se  Se3  1  0.070788  0.100590  0.703941  1
  Se  Se4  1  0.748383  0.042948  0.872379  1
  Se  Se5  1  0.251617  0.957052  0.127621  1
  Cl  Cl6  1  0.847396  0.513008  0.210275  1
  Cl  Cl7  1  0.152604  0.486992  0.789725  1
  Cl  Cl8  1  0.431720  0.344585  0.210662  1
  Cl  Cl9  1  0.568280  0.655415  0.789338  1
