# generated using pymatgen
data_Ho8Co17Si10Tc
_symmetry_space_group_name_H-M   'P 1'
_cell_length_a   5.19951468
_cell_length_b   5.19951418
_cell_length_c   21.88343300
_cell_angle_alpha   89.90153016
_cell_angle_beta   90.09846983
_cell_angle_gamma   120.49081206
_symmetry_Int_Tables_number   1
_chemical_formula_structural   Ho8Co17Si10Tc
_chemical_formula_sum   'Ho8 Co17 Si10 Tc1'
_cell_volume   509.80205571
_cell_formula_units_Z   1
loop_
 _symmetry_equiv_pos_site_id
 _symmetry_equiv_pos_as_xyz
  1  'x, y, z'
loop_
 _atom_site_type_symbol
 _atom_site_label
 _atom_site_symmetry_multiplicity
 _atom_site_fract_x
 _atom_site_fract_y
 _atom_site_fract_z
 _atom_site_occupancy
  Ho  Ho0  1  0.331890  0.668110  0.531788  1
  Ho  Ho1  1  0.664340  0.335660  0.475524  1
  Ho  Ho2  1  0.666802  0.333198  0.027530  1
  Ho  Ho3  1  0.333443  0.666557  0.971517  1
  Ho  Ho4  1  0.333049  0.666951  0.676012  1
  Ho  Ho5  1  0.668236  0.331764  0.325160  1
  Ho  Ho6  1  0.667306  0.332694  0.173770  1
  Ho  Ho7  1  0.333475  0.666525  0.826145  1
  Co  Co8  1  0.166927  0.333088  0.086605  1
  Co  Co9  1  0.833092  0.667306  0.912443  1
  Co  Co10  1  0.666912  0.833073  0.086605  1
  Co  Co11  1  0.831233  0.667061  0.590011  1
  Co  Co12  1  0.332694  0.166908  0.912443  1
  Co  Co13  1  0.161999  0.333791  0.412310  1
  Co  Co14  1  0.167002  0.832998  0.086721  1
  Co  Co15  1  0.332939  0.168767  0.590011  1
  Co  Co16  1  0.833844  0.166156  0.911690  1
  Co  Co17  1  0.666209  0.838001  0.412310  1
  Co  Co18  1  0.833354  0.166646  0.589923  1
  Co  Co19  1  0.168457  0.332833  0.246623  1
  Co  Co20  1  0.832630  0.664792  0.750692  1
  Co  Co21  1  0.667167  0.831543  0.246623  1
  Co  Co22  1  0.335208  0.167370  0.750692  1
  Co  Co23  1  0.168025  0.831975  0.249104  1
  Co  Co24  1  0.832994  0.167006  0.751118  1
  Si  Si25  1  0.999095  0.000905  0.999411  1
  Si  Si26  1  0.996675  0.003325  0.503712  1
  Si  Si27  1  0.332644  0.667356  0.166320  1
  Si  Si28  1  0.665832  0.334168  0.832567  1
  Si  Si29  1  0.667104  0.332896  0.669339  1
  Si  Si30  1  0.344466  0.655534  0.327361  1
  Si  Si31  1  0.001828  0.998172  0.166736  1
  Si  Si32  1  0.001299  0.998701  0.831608  1
  Si  Si33  1  0.999965  0.000035  0.670164  1
  Si  Si34  1  0.992836  0.007164  0.327342  1
  Tc  Tc35  1  0.169029  0.830971  0.412070  1
