# generated using pymatgen
data_Ti4InSnRh10
_symmetry_space_group_name_H-M   'P 1'
_cell_length_a   4.03608500
_cell_length_b   5.49987823
_cell_length_c   10.97148272
_cell_angle_alpha   89.72970451
_cell_angle_beta   90.00000000
_cell_angle_gamma   90.00000000
_symmetry_Int_Tables_number   1
_chemical_formula_structural   Ti4InSnRh10
_chemical_formula_sum   'Ti4 In1 Sn1 Rh10'
_cell_volume   243.54200036
_cell_formula_units_Z   1
loop_
 _symmetry_equiv_pos_site_id
 _symmetry_equiv_pos_as_xyz
  1  'x, y, z'
loop_
 _atom_site_type_symbol
 _atom_site_label
 _atom_site_symmetry_multiplicity
 _atom_site_fract_x
 _atom_site_fract_y
 _atom_site_fract_z
 _atom_site_occupancy
  Ti  Ti0  1  0.500000  0.313527  0.142766  1
  Ti  Ti1  1  0.500000  0.686473  0.857234  1
  Ti  Ti2  1  0.500000  0.810518  0.359673  1
  Ti  Ti3  1  0.500000  0.189482  0.640327  1
  In  In4  1  0.000000  0.500000  0.500000  1
  Sn  Sn5  1  0.000000  0.000000  0.000000  1
  Rh  Rh6  1  0.000000  0.000000  0.500000  1
  Rh  Rh7  1  0.000000  0.500000  0.000000  1
  Rh  Rh8  1  0.000000  0.043163  0.250036  1
  Rh  Rh9  1  0.000000  0.956837  0.749964  1
  Rh  Rh10  1  0.000000  0.542704  0.248334  1
  Rh  Rh11  1  0.000000  0.457296  0.751666  1
  Rh  Rh12  1  0.500000  0.274702  0.376565  1
  Rh  Rh13  1  0.500000  0.725298  0.623435  1
  Rh  Rh14  1  0.500000  0.780159  0.120973  1
  Rh  Rh15  1  0.500000  0.219841  0.879027  1
