# generated using pymatgen
data_Nd12Si7Ni4Pb
_symmetry_space_group_name_H-M   'P 1'
_cell_length_a   4.24717300
_cell_length_b   11.86079376
_cell_length_c   11.86289042
_cell_angle_alpha   89.64610795
_cell_angle_beta   90.00000000
_cell_angle_gamma   90.00000000
_symmetry_Int_Tables_number   1
_chemical_formula_structural   Nd12Si7Ni4Pb
_chemical_formula_sum   'Nd12 Si7 Ni4 Pb1'
_cell_volume   597.57984374
_cell_formula_units_Z   1
loop_
 _symmetry_equiv_pos_site_id
 _symmetry_equiv_pos_as_xyz
  1  'x, y, z'
loop_
 _atom_site_type_symbol
 _atom_site_label
 _atom_site_symmetry_multiplicity
 _atom_site_fract_x
 _atom_site_fract_y
 _atom_site_fract_z
 _atom_site_occupancy
  Nd  Nd0  1  0.250000  0.372328  0.067900  1
  Nd  Nd1  1  0.750000  0.638685  0.958754  1
  Nd  Nd2  1  0.750000  0.876733  0.437946  1
  Nd  Nd3  1  0.250000  0.120607  0.558311  1
  Nd  Nd4  1  0.250000  0.696855  0.214298  1
  Nd  Nd5  1  0.750000  0.286130  0.780731  1
  Nd  Nd6  1  0.750000  0.192960  0.288027  1
  Nd  Nd7  1  0.250000  0.805450  0.712931  1
  Nd  Nd8  1  0.250000  0.440106  0.382509  1
  Nd  Nd9  1  0.750000  0.556172  0.598906  1
  Nd  Nd10  1  0.750000  0.943822  0.117499  1
  Nd  Nd11  1  0.250000  0.058481  0.885070  1
  Si  Si12  1  0.250000  0.690028  0.468638  1
  Si  Si13  1  0.750000  0.310201  0.526201  1
  Si  Si14  1  0.750000  0.185715  0.029816  1
  Si  Si15  1  0.250000  0.820076  0.970889  1
  Si  Si16  1  0.250000  0.008395  0.300109  1
  Si  Si17  1  0.750000  0.992653  0.700559  1
  Si  Si18  1  0.750000  0.510189  0.202054  1
  Ni  Ni19  1  0.250000  0.133484  0.131245  1
  Ni  Ni20  1  0.750000  0.871165  0.871510  1
  Ni  Ni21  1  0.750000  0.635872  0.369125  1
  Ni  Ni22  1  0.250000  0.354077  0.620292  1
  Pb  Pb23  1  0.250000  0.499818  0.806680  1
