# generated using pymatgen
data_PrAs12IrOs3
_symmetry_space_group_name_H-M   'P 1'
_cell_length_a   7.48192836
_cell_length_b   7.49678983
_cell_length_c   7.48192910
_cell_angle_alpha   109.51145778
_cell_angle_beta   109.43094491
_cell_angle_gamma   109.51147122
_symmetry_Int_Tables_number   1
_chemical_formula_structural   PrAs12IrOs3
_chemical_formula_sum   'Pr1 As12 Ir1 Os3'
_cell_volume   322.89747565
_cell_formula_units_Z   1
loop_
 _symmetry_equiv_pos_site_id
 _symmetry_equiv_pos_as_xyz
  1  'x, y, z'
loop_
 _atom_site_type_symbol
 _atom_site_label
 _atom_site_symmetry_multiplicity
 _atom_site_fract_x
 _atom_site_fract_y
 _atom_site_fract_z
 _atom_site_occupancy
  Pr  Pr0  1  0.000000  0.000000  0.000000  1
  As  As1  1  0.347085  0.197296  0.850583  1
  As  As2  1  0.652915  0.802704  0.149417  1
  As  As3  1  0.650285  0.503597  0.850263  1
  As  As4  1  0.349715  0.496403  0.149737  1
  As  As5  1  0.199978  0.853311  0.349715  1
  As  As6  1  0.800022  0.146689  0.650285  1
  As  As7  1  0.503499  0.850211  0.652915  1
  As  As8  1  0.496501  0.149789  0.347085  1
  As  As9  1  0.850263  0.346666  0.199978  1
  As  As10  1  0.149737  0.653334  0.800022  1
  As  As11  1  0.850583  0.653287  0.503499  1
  As  As12  1  0.149417  0.346713  0.496501  1
  Ir  Ir13  1  0.000000  0.500000  0.000000  1
  Os  Os14  1  0.000000  0.000000  0.500000  1
  Os  Os15  1  0.500000  0.000000  0.000000  1
  Os  Os16  1  0.500000  0.500000  0.500000  1
