# generated using pymatgen
data_Na2Er3P12Ir18Ru
_symmetry_space_group_name_H-M   'P 1'
_cell_length_a   12.68179079
_cell_length_b   12.63180120
_cell_length_c   3.98547700
_cell_angle_alpha   90.00000000
_cell_angle_beta   90.00000000
_cell_angle_gamma   120.03087137
_symmetry_Int_Tables_number   1
_chemical_formula_structural   Na2Er3P12Ir18Ru
_chemical_formula_sum   'Na2 Er3 P12 Ir18 Ru1'
_cell_volume   552.74092465
_cell_formula_units_Z   1
loop_
 _symmetry_equiv_pos_site_id
 _symmetry_equiv_pos_as_xyz
  1  'x, y, z'
loop_
 _atom_site_type_symbol
 _atom_site_label
 _atom_site_symmetry_multiplicity
 _atom_site_fract_x
 _atom_site_fract_y
 _atom_site_fract_z
 _atom_site_occupancy
  Na  Na0  1  0.819219  0.818483  0.500000  1
  Na  Na1  1  0.181856  0.001398  0.500000  1
  Er  Er2  1  0.666080  0.331900  0.000000  1
  Er  Er3  1  0.332298  0.664166  0.000000  1
  Er  Er4  1  0.002465  0.181285  0.500000  1
  P  P5  1  0.687990  0.169055  0.500000  1
  P  P6  1  0.826496  0.518054  0.500000  1
  P  P7  1  0.479468  0.310051  0.500000  1
  P  P8  1  0.172029  0.690392  0.500000  1
  P  P9  1  0.517833  0.828864  0.500000  1
  P  P10  1  0.310783  0.479031  0.500000  1
  P  P11  1  0.643302  0.643857  0.000000  1
  P  P12  1  0.356448  0.000938  0.000000  1
  P  P13  1  0.000845  0.357436  0.000000  1
  P  P14  1  0.182888  0.180335  0.000000  1
  P  P15  1  0.820781  0.997941  0.000000  1
  P  P16  1  0.000743  0.822098  0.000000  1
  Ir  Ir17  1  0.807157  0.181113  0.000000  1
  Ir  Ir18  1  0.817744  0.619966  0.000000  1
  Ir  Ir19  1  0.382804  0.200111  0.000000  1
  Ir  Ir20  1  0.182348  0.801752  0.000000  1
  Ir  Ir21  1  0.617970  0.818102  0.000000  1
  Ir  Ir22  1  0.194376  0.375638  0.000000  1
  Ir  Ir23  1  0.459142  0.463274  0.000000  1
  Ir  Ir24  1  0.538214  0.001593  0.000000  1
  Ir  Ir25  1  0.998503  0.537560  0.000000  1
  Ir  Ir26  1  0.717870  0.000024  0.500000  1
  Ir  Ir27  1  0.999748  0.714820  0.500000  1
  Ir  Ir28  1  0.864061  0.360811  0.500000  1
  Ir  Ir29  1  0.636006  0.506157  0.500000  1
  Ir  Ir30  1  0.494303  0.131801  0.500000  1
  Ir  Ir31  1  0.363186  0.868944  0.500000  1
  Ir  Ir32  1  0.505188  0.638015  0.500000  1
  Ir  Ir33  1  0.133324  0.494921  0.500000  1
  Ir  Ir34  1  0.000661  0.003877  0.000000  1
  Ru  Ru35  1  0.285869  0.286232  0.500000  1
