# generated using pymatgen
data_TbDy4Lu(Al3Os)8
_symmetry_space_group_name_H-M   'P 1'
_cell_length_a   8.81635391
_cell_length_b   8.81635470
_cell_length_c   9.63510200
_cell_angle_alpha   90.00000000
_cell_angle_beta   90.00000000
_cell_angle_gamma   120.14629516
_symmetry_Int_Tables_number   1
_chemical_formula_structural   TbDy4Lu(Al3Os)8
_chemical_formula_sum   'Tb1 Dy4 Lu1 Al24 Os8'
_cell_volume   647.62395755
_cell_formula_units_Z   1
loop_
 _symmetry_equiv_pos_site_id
 _symmetry_equiv_pos_as_xyz
  1  'x, y, z'
loop_
 _atom_site_type_symbol
 _atom_site_label
 _atom_site_symmetry_multiplicity
 _atom_site_fract_x
 _atom_site_fract_y
 _atom_site_fract_z
 _atom_site_occupancy
  Tb  Tb0  1  0.807212  0.192788  0.750000  1
  Dy  Dy1  1  0.192975  0.386863  0.250000  1
  Dy  Dy2  1  0.805973  0.612569  0.750000  1
  Dy  Dy3  1  0.613137  0.807025  0.250000  1
  Dy  Dy4  1  0.387431  0.194027  0.750000  1
  Lu  Lu5  1  0.195350  0.804650  0.250000  1
  Al  Al6  1  0.333106  0.666894  0.021827  1
  Al  Al7  1  0.666657  0.333343  0.979981  1
  Al  Al8  1  0.666657  0.333343  0.520019  1
  Al  Al9  1  0.333106  0.666894  0.478173  1
  Al  Al10  1  0.163952  0.327828  0.575212  1
  Al  Al11  1  0.836767  0.672985  0.423989  1
  Al  Al12  1  0.672172  0.836048  0.575212  1
  Al  Al13  1  0.836767  0.672985  0.076011  1
  Al  Al14  1  0.327015  0.163233  0.423989  1
  Al  Al15  1  0.163952  0.327828  0.924788  1
  Al  Al16  1  0.163767  0.836233  0.574471  1
  Al  Al17  1  0.327015  0.163233  0.076011  1
  Al  Al18  1  0.836064  0.163936  0.423788  1
  Al  Al19  1  0.672172  0.836048  0.924788  1
  Al  Al20  1  0.836064  0.163936  0.076212  1
  Al  Al21  1  0.163767  0.836233  0.925529  1
  Al  Al22  1  0.560733  0.123616  0.250000  1
  Al  Al23  1  0.437328  0.875555  0.750000  1
  Al  Al24  1  0.876384  0.439267  0.250000  1
  Al  Al25  1  0.124445  0.562672  0.750000  1
  Al  Al26  1  0.561931  0.438069  0.250000  1
  Al  Al27  1  0.437643  0.562357  0.750000  1
  Al  Al28  1  0.001523  0.998477  0.250000  1
  Al  Al29  1  0.000721  0.999279  0.750000  1
  Os  Os30  1  0.498765  0.999319  0.001082  1
  Os  Os31  1  0.000681  0.501235  0.001082  1
  Os  Os32  1  0.498765  0.999319  0.498918  1
  Os  Os33  1  0.499831  0.500169  0.000235  1
  Os  Os34  1  0.000681  0.501235  0.498918  1
  Os  Os35  1  0.499831  0.500169  0.499765  1
  Os  Os36  1  0.999827  0.000173  0.000062  1
  Os  Os37  1  0.999827  0.000173  0.499938  1
