# generated using pymatgen
data_TbZr2Zn2Co9B4
_symmetry_space_group_name_H-M   'P 1'
_cell_length_a   5.01608810
_cell_length_b   5.01753074
_cell_length_c   9.74119300
_cell_angle_alpha   89.99988765
_cell_angle_beta   90.00009518
_cell_angle_gamma   119.98579361
_symmetry_Int_Tables_number   1
_chemical_formula_structural   TbZr2Zn2Co9B4
_chemical_formula_sum   'Tb1 Zr2 Zn2 Co9 B4'
_cell_volume   212.35384516
_cell_formula_units_Z   1
loop_
 _symmetry_equiv_pos_site_id
 _symmetry_equiv_pos_as_xyz
  1  'x, y, z'
loop_
 _atom_site_type_symbol
 _atom_site_label
 _atom_site_symmetry_multiplicity
 _atom_site_fract_x
 _atom_site_fract_y
 _atom_site_fract_z
 _atom_site_occupancy
  Tb  Tb0  1  0.999988  0.000000  0.999965  1
  Zr  Zr1  1  0.999996  0.000001  0.340569  1
  Zr  Zr2  1  0.000001  0.000000  0.659562  1
  Zn  Zn3  1  0.333283  0.666616  0.999942  1
  Zn  Zn4  1  0.666693  0.333383  0.999941  1
  Co  Co5  1  0.499997  0.000000  0.500027  1
  Co  Co6  1  0.499997  0.500001  0.500054  1
  Co  Co7  1  0.999996  0.499999  0.500017  1
  Co  Co8  1  0.499994  0.000000  0.211144  1
  Co  Co9  1  0.499993  0.500000  0.211089  1
  Co  Co10  1  0.999992  0.499999  0.211128  1
  Co  Co11  1  0.499998  0.000000  0.788813  1
  Co  Co12  1  0.499998  0.500000  0.788847  1
  Co  Co13  1  0.999996  0.499999  0.788893  1
  B  B14  1  0.333382  0.666646  0.350678  1
  B  B15  1  0.666605  0.333355  0.350678  1
  B  B16  1  0.666701  0.333382  0.649329  1
  B  B17  1  0.333291  0.666618  0.649329  1
