# generated using pymatgen
data_Nd7HoSc12Si15As
_symmetry_space_group_name_H-M   'P 1'
_cell_length_a   7.25783813
_cell_length_b   7.49016167
_cell_length_c   14.16638698
_cell_angle_alpha   90.06054726
_cell_angle_beta   88.97594135
_cell_angle_gamma   90.30021818
_symmetry_Int_Tables_number   1
_chemical_formula_structural   Nd7HoSc12Si15As
_chemical_formula_sum   'Nd7 Ho1 Sc12 Si15 As1'
_cell_volume   769.98459428
_cell_formula_units_Z   1
loop_
 _symmetry_equiv_pos_site_id
 _symmetry_equiv_pos_as_xyz
  1  'x, y, z'
loop_
 _atom_site_type_symbol
 _atom_site_label
 _atom_site_symmetry_multiplicity
 _atom_site_fract_x
 _atom_site_fract_y
 _atom_site_fract_z
 _atom_site_occupancy
  Nd  Nd0  1  0.010672  0.173041  0.097643  1
  Nd  Nd1  1  0.990143  0.827395  0.900859  1
  Nd  Nd2  1  0.489541  0.672416  0.902754  1
  Nd  Nd3  1  0.994523  0.822052  0.596290  1
  Nd  Nd4  1  0.510796  0.327976  0.097731  1
  Nd  Nd5  1  0.005562  0.177129  0.404323  1
  Nd  Nd6  1  0.501843  0.323381  0.402351  1
  Ho  Ho7  1  0.502584  0.676566  0.599060  1
  Sc  Sc8  1  0.166861  0.499827  0.749331  1
  Sc  Sc9  1  0.833362  0.501708  0.253126  1
  Sc  Sc10  1  0.333420  0.997227  0.251607  1
  Sc  Sc11  1  0.666256  0.001562  0.748261  1
  Sc  Sc12  1  0.342492  0.170766  0.627139  1
  Sc  Sc13  1  0.658535  0.827579  0.373815  1
  Sc  Sc14  1  0.156082  0.670617  0.378242  1
  Sc  Sc15  1  0.666851  0.824638  0.125781  1
  Sc  Sc16  1  0.840495  0.330655  0.621800  1
  Sc  Sc17  1  0.333323  0.174828  0.872580  1
  Sc  Sc18  1  0.833278  0.323437  0.873497  1
  Sc  Sc19  1  0.166158  0.677078  0.125127  1
  Si  Si20  1  0.038774  0.124077  0.747875  1
  Si  Si21  1  0.960695  0.876385  0.250969  1
  Si  Si22  1  0.455941  0.623841  0.249414  1
  Si  Si23  1  0.542287  0.379396  0.749383  1
  Si  Si24  1  0.294764  0.875659  0.748498  1
  Si  Si25  1  0.708454  0.119917  0.249570  1
  Si  Si26  1  0.206365  0.382267  0.250040  1
  Si  Si27  1  0.790967  0.619645  0.748378  1
  Si  Si28  1  0.811078  0.543990  0.457087  1
  Si  Si29  1  0.339290  0.957120  0.462421  1
  Si  Si30  1  0.847110  0.537278  0.039095  1
  Si  Si31  1  0.660359  0.034770  0.541099  1
  Si  Si32  1  0.151954  0.463478  0.959791  1
  Si  Si33  1  0.652993  0.036605  0.959595  1
  Si  Si34  1  0.347213  0.964427  0.039812  1
  As  As35  1  0.188979  0.461263  0.545656  1
