# generated using pymatgen
data_Zr4V6RhW
_symmetry_space_group_name_H-M   'P 1'
_cell_length_a   5.29363700
_cell_length_b   5.29363888
_cell_length_c   8.38060300
_cell_angle_alpha   90.00000000
_cell_angle_beta   90.00000000
_cell_angle_gamma   119.99999451
_symmetry_Int_Tables_number   1
_chemical_formula_structural   Zr4V6RhW
_chemical_formula_sum   'Zr4 V6 Rh1 W1'
_cell_volume   203.38287965
_cell_formula_units_Z   1
loop_
 _symmetry_equiv_pos_site_id
 _symmetry_equiv_pos_as_xyz
  1  'x, y, z'
loop_
 _atom_site_type_symbol
 _atom_site_label
 _atom_site_symmetry_multiplicity
 _atom_site_fract_x
 _atom_site_fract_y
 _atom_site_fract_z
 _atom_site_occupancy
  Zr  Zr0  1  0.333333  0.666667  0.438894  1
  Zr  Zr1  1  0.666667  0.333333  0.561106  1
  Zr  Zr2  1  0.666667  0.333333  0.939400  1
  Zr  Zr3  1  0.333333  0.666667  0.060600  1
  V  V4  1  0.829597  0.170403  0.250411  1
  V  V5  1  0.829597  0.659195  0.250411  1
  V  V6  1  0.340805  0.170403  0.250411  1
  V  V7  1  0.170403  0.829597  0.749589  1
  V  V8  1  0.170403  0.340805  0.749589  1
  V  V9  1  0.659195  0.829597  0.749589  1
  Rh  Rh10  1  0.000000  0.000000  0.000000  1
  W  W11  1  0.000000  0.000000  0.500000  1
