# generated using pymatgen
data_SrCa3(U2Se5)4
_symmetry_space_group_name_H-M   'P 1'
_cell_length_a   7.73558275
_cell_length_b   8.48786022
_cell_length_c   12.21318243
_cell_angle_alpha   90.20885935
_cell_angle_beta   90.00291774
_cell_angle_gamma   89.86652698
_symmetry_Int_Tables_number   1
_chemical_formula_structural   SrCa3(U2Se5)4
_chemical_formula_sum   'Sr1 Ca3 U8 Se20'
_cell_volume   801.89228496
_cell_formula_units_Z   1
loop_
 _symmetry_equiv_pos_site_id
 _symmetry_equiv_pos_as_xyz
  1  'x, y, z'
loop_
 _atom_site_type_symbol
 _atom_site_label
 _atom_site_symmetry_multiplicity
 _atom_site_fract_x
 _atom_site_fract_y
 _atom_site_fract_z
 _atom_site_occupancy
  Sr  Sr0  1  0.042213  0.494104  0.328480  1
  Ca  Ca1  1  0.536268  0.503689  0.174594  1
  Ca  Ca2  1  0.964180  0.502323  0.678759  1
  Ca  Ca3  1  0.462932  0.496025  0.824297  1
  U  U4  1  0.021386  0.998914  0.318867  1
  U  U5  1  0.524139  0.999135  0.179177  1
  U  U6  1  0.977536  0.000599  0.680934  1
  U  U7  1  0.478789  0.000296  0.820745  1
  U  U8  1  0.074825  0.749702  0.006129  1
  U  U9  1  0.573812  0.250257  0.492473  1
  U  U10  1  0.927124  0.252004  0.991676  1
  U  U11  1  0.424761  0.752014  0.510337  1
  Se  Se12  1  0.664627  0.954182  0.402836  1
  Se  Se13  1  0.164837  0.045637  0.096790  1
  Se  Se14  1  0.335380  0.048305  0.598216  1
  Se  Se15  1  0.834641  0.955028  0.903052  1
  Se  Se16  1  0.457917  0.771948  0.999434  1
  Se  Se17  1  0.955997  0.223970  0.502070  1
  Se  Se18  1  0.542339  0.228823  0.999297  1
  Se  Se19  1  0.041013  0.775697  0.502291  1
  Se  Se20  1  0.831459  0.769565  0.185011  1
  Se  Se21  1  0.334420  0.226886  0.312786  1
  Se  Se22  1  0.167612  0.232321  0.813181  1
  Se  Se23  1  0.668210  0.768277  0.687025  1
  Se  Se24  1  0.310153  0.761755  0.282518  1
  Se  Se25  1  0.803575  0.238332  0.216876  1
  Se  Se26  1  0.692265  0.242574  0.718664  1
  Se  Se27  1  0.194817  0.758050  0.780820  1
  Se  Se28  1  0.178495  0.456702  0.083122  1
  Se  Se29  1  0.666124  0.542405  0.411209  1
  Se  Se30  1  0.825077  0.543306  0.911542  1
  Se  Se31  1  0.323077  0.457175  0.586789  1
