# generated using pymatgen
data_PrY2Cu2Rh7
_symmetry_space_group_name_H-M   'P 1'
_cell_length_a   5.35274400
_cell_length_b   5.35274412
_cell_length_c   16.91218100
_cell_angle_alpha   90.00000000
_cell_angle_beta   90.00000000
_cell_angle_gamma   119.99998690
_symmetry_Int_Tables_number   1
_chemical_formula_structural   PrY2Cu2Rh7
_chemical_formula_sum   'Pr2 Y4 Cu4 Rh14'
_cell_volume   419.64616965
_cell_formula_units_Z   2
loop_
 _symmetry_equiv_pos_site_id
 _symmetry_equiv_pos_as_xyz
  1  'x, y, z'
loop_
 _atom_site_type_symbol
 _atom_site_label
 _atom_site_symmetry_multiplicity
 _atom_site_fract_x
 _atom_site_fract_y
 _atom_site_fract_z
 _atom_site_occupancy
  Pr  Pr0  1  0.333333  0.666667  0.750000  1
  Pr  Pr1  1  0.666667  0.333333  0.250000  1
  Y  Y2  1  0.333333  0.666667  0.960655  1
  Y  Y3  1  0.666667  0.333333  0.039345  1
  Y  Y4  1  0.666667  0.333333  0.460655  1
  Y  Y5  1  0.333333  0.666667  0.539345  1
  Cu  Cu6  1  0.333333  0.666667  0.250000  1
  Cu  Cu7  1  0.666667  0.333333  0.750000  1
  Cu  Cu8  1  0.000000  0.000000  0.250000  1
  Cu  Cu9  1  0.000000  0.000000  0.750000  1
  Rh  Rh10  1  0.168215  0.831785  0.374451  1
  Rh  Rh11  1  0.168215  0.336428  0.374451  1
  Rh  Rh12  1  0.663572  0.831785  0.374451  1
  Rh  Rh13  1  0.831785  0.168215  0.625549  1
  Rh  Rh14  1  0.831785  0.663572  0.625549  1
  Rh  Rh15  1  0.336428  0.168215  0.625549  1
  Rh  Rh16  1  0.831785  0.168215  0.874451  1
  Rh  Rh17  1  0.831785  0.663572  0.874451  1
  Rh  Rh18  1  0.336428  0.168215  0.874451  1
  Rh  Rh19  1  0.168215  0.831785  0.125549  1
  Rh  Rh20  1  0.168215  0.336428  0.125549  1
  Rh  Rh21  1  0.663572  0.831785  0.125549  1
  Rh  Rh22  1  0.000000  0.000000  0.500000  1
  Rh  Rh23  1  0.000000  0.000000  0.000000  1
