# generated using pymatgen
data_Sc6Ti7V9Os7
_symmetry_space_group_name_H-M   'P 1'
_cell_length_a   8.82069967
_cell_length_b   8.82070098
_cell_length_c   8.82070037
_cell_angle_alpha   60.16334617
_cell_angle_beta   60.16334140
_cell_angle_gamma   60.16333989
_symmetry_Int_Tables_number   1
_chemical_formula_structural   Sc6Ti7V9Os7
_chemical_formula_sum   'Sc6 Ti7 V9 Os7'
_cell_volume   487.07735265
_cell_formula_units_Z   1
loop_
 _symmetry_equiv_pos_site_id
 _symmetry_equiv_pos_as_xyz
  1  'x, y, z'
loop_
 _atom_site_type_symbol
 _atom_site_label
 _atom_site_symmetry_multiplicity
 _atom_site_fract_x
 _atom_site_fract_y
 _atom_site_fract_z
 _atom_site_occupancy
  Sc  Sc0  1  0.695372  0.695372  0.303659  1
  Sc  Sc1  1  0.303392  0.698870  0.303392  1
  Sc  Sc2  1  0.698870  0.303392  0.303392  1
  Sc  Sc3  1  0.303392  0.303392  0.698870  1
  Sc  Sc4  1  0.695372  0.303659  0.695372  1
  Sc  Sc5  1  0.303659  0.695372  0.695372  1
  Ti  Ti6  1  0.881898  0.881898  0.357362  1
  Ti  Ti7  1  0.881898  0.357362  0.881898  1
  Ti  Ti8  1  0.357362  0.881898  0.881898  1
  Ti  Ti9  1  0.880448  0.880448  0.880448  1
  Ti  Ti10  1  0.118720  0.118720  0.641956  1
  Ti  Ti11  1  0.118720  0.641956  0.118720  1
  Ti  Ti12  1  0.641956  0.118720  0.118720  1
  V  V13  1  0.121098  0.121098  0.121098  1
  V  V14  1  0.673756  0.673756  0.978444  1
  V  V15  1  0.673756  0.978444  0.673756  1
  V  V16  1  0.978444  0.673756  0.673756  1
  V  V17  1  0.673908  0.673908  0.673908  1
  V  V18  1  0.325435  0.325435  0.021643  1
  V  V19  1  0.325435  0.021643  0.325435  1
  V  V20  1  0.021643  0.325435  0.325435  1
  V  V21  1  0.326523  0.326523  0.326523  1
  Os  Os22  1  0.001609  0.001609  0.001609  1
  Os  Os23  1  0.999951  0.999951  0.498536  1
  Os  Os24  1  0.499504  0.999888  0.499504  1
  Os  Os25  1  0.999888  0.499504  0.499504  1
  Os  Os26  1  0.499504  0.499504  0.999888  1
  Os  Os27  1  0.999951  0.498536  0.999951  1
  Os  Os28  1  0.498536  0.999951  0.999951  1
