# generated using pymatgen
data_Er12Fe3Sn2
_symmetry_space_group_name_H-M   'P 1'
_cell_length_a   8.28407649
_cell_length_b   8.28398921
_cell_length_c   8.28407660
_cell_angle_alpha   108.72532238
_cell_angle_beta   108.74247494
_cell_angle_gamma   110.95657932
_symmetry_Int_Tables_number   1
_chemical_formula_structural   Er12Fe3Sn2
_chemical_formula_sum   'Er12 Fe3 Sn2'
_cell_volume   437.40523329
_cell_formula_units_Z   1
loop_
 _symmetry_equiv_pos_site_id
 _symmetry_equiv_pos_as_xyz
  1  'x, y, z'
loop_
 _atom_site_type_symbol
 _atom_site_label
 _atom_site_symmetry_multiplicity
 _atom_site_fract_x
 _atom_site_fract_y
 _atom_site_fract_z
 _atom_site_occupancy
  Er  Er0  1  0.192093  0.428141  0.236048  1
  Er  Er1  1  0.807907  0.571859  0.763952  1
  Er  Er2  1  0.192074  0.956025  0.763950  1
  Er  Er3  1  0.956096  0.192114  0.763990  1
  Er  Er4  1  0.807926  0.043975  0.236050  1
  Er  Er5  1  0.043904  0.807886  0.236010  1
  Er  Er6  1  0.428125  0.192114  0.236018  1
  Er  Er7  1  0.571875  0.807886  0.763982  1
  Er  Er8  1  0.307489  0.307467  0.614970  1
  Er  Er9  1  0.692511  0.692533  0.385030  1
  Er  Er10  1  0.692496  0.307467  0.999978  1
  Er  Er11  1  0.307504  0.692533  0.000022  1
  Fe  Fe12  1  0.385226  0.385220  0.999993  1
  Fe  Fe13  1  0.614774  0.614780  0.000007  1
  Fe  Fe14  1  0.000000  0.000000  0.000000  1
  Sn  Sn15  1  0.000000  0.500000  0.500000  1
  Sn  Sn16  1  0.500000  0.000000  0.500000  1
