# generated using pymatgen
data_Cd5Ag(IO6)2
_symmetry_space_group_name_H-M   'P 1'
_cell_length_a   5.76969148
_cell_length_b   5.62605915
_cell_length_c   10.09312123
_cell_angle_alpha   56.46893950
_cell_angle_beta   89.75012377
_cell_angle_gamma   89.60475909
_symmetry_Int_Tables_number   1
_chemical_formula_structural   Cd5Ag(IO6)2
_chemical_formula_sum   'Cd5 Ag1 I2 O12'
_cell_volume   273.10057462
_cell_formula_units_Z   1
loop_
 _symmetry_equiv_pos_site_id
 _symmetry_equiv_pos_as_xyz
  1  'x, y, z'
loop_
 _atom_site_type_symbol
 _atom_site_label
 _atom_site_symmetry_multiplicity
 _atom_site_fract_x
 _atom_site_fract_y
 _atom_site_fract_z
 _atom_site_occupancy
  Cd  Cd0  1  0.959054  0.246528  0.242872  1
  Cd  Cd1  1  0.454435  0.745187  0.267730  1
  Cd  Cd2  1  0.040946  0.753472  0.757128  1
  Cd  Cd3  1  0.545565  0.254813  0.732270  1
  Cd  Cd4  1  0.500000  0.500000  0.000000  1
  Ag  Ag5  1  0.000000  0.500000  0.500000  1
  I  I6  1  0.000000  0.000000  0.000000  1
  I  I7  1  0.500000  0.000000  0.500000  1
  O  O8  1  0.274106  0.925670  0.905812  1
  O  O9  1  0.770727  0.068461  0.588660  1
  O  O10  1  0.725894  0.074330  0.094188  1
  O  O11  1  0.229273  0.931539  0.411340  1
  O  O12  1  0.180150  0.237070  0.050758  1
  O  O13  1  0.672071  0.755713  0.455978  1
  O  O14  1  0.819850  0.762930  0.949242  1
  O  O15  1  0.327929  0.244287  0.544022  1
  O  O16  1  0.415050  0.664257  0.715590  1
  O  O17  1  0.911270  0.336345  0.791139  1
  O  O18  1  0.584950  0.335743  0.284410  1
  O  O19  1  0.088730  0.663655  0.208861  1
