# generated using pymatgen
data_Sm2Fe11NiP7
_symmetry_space_group_name_H-M   'P 1'
_cell_length_a   9.02325848
_cell_length_b   9.01621334
_cell_length_c   3.66817200
_cell_angle_alpha   90.00000000
_cell_angle_beta   90.00000000
_cell_angle_gamma   120.08792677
_symmetry_Int_Tables_number   1
_chemical_formula_structural   Sm2Fe11NiP7
_chemical_formula_sum   'Sm2 Fe11 Ni1 P7'
_cell_volume   258.21557227
_cell_formula_units_Z   1
loop_
 _symmetry_equiv_pos_site_id
 _symmetry_equiv_pos_as_xyz
  1  'x, y, z'
loop_
 _atom_site_type_symbol
 _atom_site_label
 _atom_site_symmetry_multiplicity
 _atom_site_fract_x
 _atom_site_fract_y
 _atom_site_fract_z
 _atom_site_occupancy
  Sm  Sm0  1  0.999897  0.000811  0.000000  1
  Sm  Sm1  1  0.333675  0.666967  0.500000  1
  Fe  Fe2  1  0.298314  0.907973  0.000000  1
  Fe  Fe3  1  0.609475  0.701769  0.000000  1
  Fe  Fe4  1  0.817754  0.604627  0.000000  1
  Fe  Fe5  1  0.785192  0.179737  0.000000  1
  Fe  Fe6  1  0.393395  0.212265  0.000000  1
  Fe  Fe7  1  0.049526  0.766335  0.500000  1
  Fe  Fe8  1  0.713508  0.947102  0.500000  1
  Fe  Fe9  1  0.233853  0.285525  0.500000  1
  Fe  Fe10  1  0.887841  0.432789  0.500000  1
  Fe  Fe11  1  0.547977  0.118126  0.500000  1
  Fe  Fe12  1  0.568910  0.450359  0.500000  1
  Ni  Ni13  1  0.096278  0.393901  0.000000  1
  P  P14  1  0.074125  0.638737  0.000000  1
  P  P15  1  0.558732  0.925396  0.000000  1
  P  P16  1  0.372909  0.442472  0.000000  1
  P  P17  1  0.775117  0.731171  0.500000  1
  P  P18  1  0.949662  0.217720  0.500000  1
  P  P19  1  0.267893  0.044316  0.500000  1
  P  P20  1  0.665964  0.331899  0.000000  1
