# generated using pymatgen
data_TmMn4VP3
_symmetry_space_group_name_H-M   'P 1'
_cell_length_a   3.59959400
_cell_length_b   10.79278700
_cell_length_c   12.32399000
_cell_angle_alpha   90.00000000
_cell_angle_beta   90.00000000
_cell_angle_gamma   90.00000000
_symmetry_Int_Tables_number   1
_chemical_formula_structural   TmMn4VP3
_chemical_formula_sum   'Tm4 Mn16 V4 P12'
_cell_volume   478.78271448
_cell_formula_units_Z   4
loop_
 _symmetry_equiv_pos_site_id
 _symmetry_equiv_pos_as_xyz
  1  'x, y, z'
loop_
 _atom_site_type_symbol
 _atom_site_label
 _atom_site_symmetry_multiplicity
 _atom_site_fract_x
 _atom_site_fract_y
 _atom_site_fract_z
 _atom_site_occupancy
  Tm  Tm0  1  0.250000  0.586279  0.706820  1
  Tm  Tm1  1  0.250000  0.913721  0.206820  1
  Tm  Tm2  1  0.750000  0.413721  0.293180  1
  Tm  Tm3  1  0.750000  0.086279  0.793180  1
  Mn  Mn4  1  0.250000  0.410347  0.492967  1
  Mn  Mn5  1  0.250000  0.089653  0.992967  1
  Mn  Mn6  1  0.750000  0.589653  0.507033  1
  Mn  Mn7  1  0.750000  0.910347  0.007033  1
  Mn  Mn8  1  0.250000  0.212454  0.181380  1
  Mn  Mn9  1  0.250000  0.287546  0.681380  1
  Mn  Mn10  1  0.750000  0.787546  0.818620  1
  Mn  Mn11  1  0.750000  0.712454  0.318620  1
  Mn  Mn12  1  0.250000  0.883735  0.693314  1
  Mn  Mn13  1  0.250000  0.616265  0.193314  1
  Mn  Mn14  1  0.750000  0.116265  0.306686  1
  Mn  Mn15  1  0.750000  0.383735  0.806686  1
  Mn  Mn16  1  0.250000  0.465374  0.934971  1
  Mn  Mn17  1  0.250000  0.034626  0.434971  1
  Mn  Mn18  1  0.750000  0.534626  0.065029  1
  Mn  Mn19  1  0.750000  0.965374  0.565029  1
  V  V20  1  0.250000  0.708540  0.982869  1
  V  V21  1  0.250000  0.791460  0.482869  1
  V  V22  1  0.750000  0.291460  0.017131  1
  V  V23  1  0.750000  0.208540  0.517131  1
  P  P24  1  0.250000  0.412325  0.117244  1
  P  P25  1  0.250000  0.087675  0.617244  1
  P  P26  1  0.750000  0.587675  0.882756  1
  P  P27  1  0.750000  0.912325  0.382756  1
  P  P28  1  0.250000  0.263789  0.873557  1
  P  P29  1  0.250000  0.236211  0.373557  1
  P  P30  1  0.750000  0.736211  0.126443  1
  P  P31  1  0.750000  0.763789  0.626443  1
  P  P32  1  0.250000  0.591090  0.383519  1
  P  P33  1  0.250000  0.908910  0.883519  1
  P  P34  1  0.750000  0.408910  0.616481  1
  P  P35  1  0.750000  0.091090  0.116481  1
