# generated using pymatgen
data_Tb17Ho3IrRh11
_symmetry_space_group_name_H-M   'P 1'
_cell_length_a   10.92780808
_cell_length_b   10.92812787
_cell_length_c   6.36878700
_cell_angle_alpha   90.00015513
_cell_angle_beta   89.99957140
_cell_angle_gamma   90.06606113
_symmetry_Int_Tables_number   1
_chemical_formula_structural   Tb17Ho3IrRh11
_chemical_formula_sum   'Tb17 Ho3 Ir1 Rh11'
_cell_volume   760.56312155
_cell_formula_units_Z   1
loop_
 _symmetry_equiv_pos_site_id
 _symmetry_equiv_pos_as_xyz
  1  'x, y, z'
loop_
 _atom_site_type_symbol
 _atom_site_label
 _atom_site_symmetry_multiplicity
 _atom_site_fract_x
 _atom_site_fract_y
 _atom_site_fract_z
 _atom_site_occupancy
  Tb  Tb0  1  0.290725  0.088593  0.378541  1
  Tb  Tb1  1  0.290967  0.909887  0.878619  1
  Tb  Tb2  1  0.709276  0.088353  0.878560  1
  Tb  Tb3  1  0.708992  0.911285  0.378275  1
  Tb  Tb4  1  0.587018  0.789977  0.878165  1
  Tb  Tb5  1  0.588587  0.209445  0.378945  1
  Tb  Tb6  1  0.411016  0.789965  0.379599  1
  Tb  Tb7  1  0.411298  0.209178  0.878291  1
  Tb  Tb8  1  0.210041  0.413031  0.621778  1
  Tb  Tb9  1  0.210029  0.589027  0.120444  1
  Tb  Tb10  1  0.790567  0.411355  0.121092  1
  Tb  Tb11  1  0.790820  0.588648  0.621666  1
  Tb  Tb12  1  0.911430  0.709413  0.121340  1
  Tb  Tb13  1  0.911623  0.290863  0.621555  1
  Tb  Tb14  1  0.090139  0.708894  0.621505  1
  Tb  Tb15  1  0.088701  0.290861  0.121621  1
  Tb  Tb16  1  0.999746  0.999887  0.500146  1
  Ho  Ho17  1  0.000129  0.000235  0.999870  1
  Ho  Ho18  1  0.499686  0.500003  0.000059  1
  Ho  Ho19  1  0.500002  0.500313  0.499945  1
  Ir  Ir20  1  0.346832  0.653151  0.749976  1
  Rh  Rh21  1  0.846107  0.153879  0.249454  1
  Rh  Rh22  1  0.845893  0.846305  0.750793  1
  Rh  Rh23  1  0.153688  0.154112  0.750263  1
  Rh  Rh24  1  0.153212  0.846808  0.249452  1
  Rh  Rh25  1  0.653487  0.346520  0.749999  1
  Rh  Rh26  1  0.654216  0.653544  0.250120  1
  Rh  Rh27  1  0.346462  0.345772  0.249927  1
  Rh  Rh28  1  0.500214  0.000496  0.123518  1
  Rh  Rh29  1  0.500317  0.000733  0.622866  1
  Rh  Rh30  1  0.999266  0.499687  0.877106  1
  Rh  Rh31  1  0.999516  0.499777  0.376514  1
