# generated using pymatgen
data_Er8Ta11Si16Mo
_symmetry_space_group_name_H-M   'P 1'
_cell_length_a   6.82234864
_cell_length_b   7.01602134
_cell_length_c   13.29653821
_cell_angle_alpha   90.02755452
_cell_angle_beta   89.95543296
_cell_angle_gamma   89.95867484
_symmetry_Int_Tables_number   1
_chemical_formula_structural   Er8Ta11Si16Mo
_chemical_formula_sum   'Er8 Ta11 Si16 Mo1'
_cell_volume   636.44825735
_cell_formula_units_Z   1
loop_
 _symmetry_equiv_pos_site_id
 _symmetry_equiv_pos_as_xyz
  1  'x, y, z'
loop_
 _atom_site_type_symbol
 _atom_site_label
 _atom_site_symmetry_multiplicity
 _atom_site_fract_x
 _atom_site_fract_y
 _atom_site_fract_z
 _atom_site_occupancy
  Er  Er0  1  0.503051  0.328704  0.095827  1
  Er  Er1  1  0.001119  0.172302  0.404365  1
  Er  Er2  1  0.496951  0.672063  0.595248  1
  Er  Er3  1  0.997986  0.828636  0.903939  1
  Er  Er4  1  0.497432  0.671359  0.903607  1
  Er  Er5  1  0.997874  0.828111  0.595636  1
  Er  Er6  1  0.502519  0.328508  0.405559  1
  Er  Er7  1  0.002969  0.171990  0.096071  1
  Ta  Ta8  1  0.838467  0.325398  0.624573  1
  Ta  Ta9  1  0.337875  0.174788  0.873536  1
  Ta  Ta10  1  0.163092  0.674610  0.125625  1
  Ta  Ta11  1  0.660951  0.826571  0.375190  1
  Ta  Ta12  1  0.165456  0.675308  0.376073  1
  Ta  Ta13  1  0.663443  0.825194  0.125642  1
  Ta  Ta14  1  0.836938  0.324767  0.873107  1
  Ta  Ta15  1  0.661800  0.008715  0.748918  1
  Ta  Ta16  1  0.160830  0.491126  0.749323  1
  Ta  Ta17  1  0.338436  0.992764  0.250595  1
  Ta  Ta18  1  0.838254  0.508558  0.250361  1
  Si  Si19  1  0.661385  0.036839  0.542109  1
  Si  Si20  1  0.164475  0.463796  0.958724  1
  Si  Si21  1  0.335695  0.964251  0.040926  1
  Si  Si22  1  0.835740  0.536646  0.458878  1
  Si  Si23  1  0.333415  0.965753  0.461370  1
  Si  Si24  1  0.835378  0.535793  0.040408  1
  Si  Si25  1  0.664599  0.035759  0.959318  1
  Si  Si26  1  0.165942  0.459720  0.542103  1
  Si  Si27  1  0.538836  0.377300  0.747707  1
  Si  Si28  1  0.043022  0.121167  0.748757  1
  Si  Si29  1  0.460061  0.620723  0.250332  1
  Si  Si30  1  0.959624  0.878600  0.250665  1
  Si  Si31  1  0.794337  0.629675  0.749510  1
  Si  Si32  1  0.296634  0.870697  0.749479  1
  Si  Si33  1  0.205127  0.370275  0.250671  1
  Si  Si34  1  0.704011  0.130974  0.250028  1
  Mo  Mo35  1  0.336272  0.172562  0.625825  1
