# generated using pymatgen
data_ZnGa11(IrRh)6
_symmetry_space_group_name_H-M   'P 1'
_cell_length_a   4.30236800
_cell_length_b   6.04281200
_cell_length_c   12.99661900
_cell_angle_alpha   90.00001830
_cell_angle_beta   89.99986729
_cell_angle_gamma   89.99996772
_symmetry_Int_Tables_number   1
_chemical_formula_structural   ZnGa11(IrRh)6
_chemical_formula_sum   'Zn1 Ga11 Ir6 Rh6'
_cell_volume   337.89131213
_cell_formula_units_Z   1
loop_
 _symmetry_equiv_pos_site_id
 _symmetry_equiv_pos_as_xyz
  1  'x, y, z'
loop_
 _atom_site_type_symbol
 _atom_site_label
 _atom_site_symmetry_multiplicity
 _atom_site_fract_x
 _atom_site_fract_y
 _atom_site_fract_z
 _atom_site_occupancy
  Zn  Zn0  1  0.500000  0.250161  0.000000  1
  Ga  Ga1  1  0.499999  0.749656  0.999999  1
  Ga  Ga2  1  0.000012  0.249691  0.163514  1
  Ga  Ga3  1  0.000012  0.750319  0.165976  1
  Ga  Ga4  1  0.500014  0.250376  0.332698  1
  Ga  Ga5  1  0.500013  0.749670  0.332699  1
  Ga  Ga6  1  0.999999  0.249663  0.499999  1
  Ga  Ga7  1  0.999999  0.750395  0.500000  1
  Ga  Ga8  1  0.499987  0.250374  0.667302  1
  Ga  Ga9  1  0.499988  0.749670  0.667300  1
  Ga  Ga10  1  0.999988  0.249690  0.836486  1
  Ga  Ga11  1  0.999987  0.750322  0.834025  1
  Ir  Ir12  1  0.999993  0.995188  0.000001  1
  Ir  Ir13  1  0.500013  0.501723  0.168659  1
  Ir  Ir14  1  0.000015  0.000549  0.333429  1
  Ir  Ir15  1  0.500001  0.500039  0.500000  1
  Ir  Ir16  1  0.999981  0.000554  0.666569  1
  Ir  Ir17  1  0.499989  0.501726  0.831342  1
  Rh  Rh18  1  0.000005  0.502024  0.000000  1
  Rh  Rh19  1  0.500017  0.999419  0.168336  1
  Rh  Rh20  1  0.000005  0.499678  0.333561  1
  Rh  Rh21  1  0.500002  0.000007  0.499998  1
  Rh  Rh22  1  0.999995  0.499680  0.666442  1
  Rh  Rh23  1  0.499983  0.999423  0.831667  1
