# generated using pymatgen
data_Ca5Eu(Hg2Pb)6
_symmetry_space_group_name_H-M   'P 1'
_cell_length_a   5.33994603
_cell_length_b   7.76736500
_cell_length_c   16.21119800
_cell_angle_alpha   90.00000000
_cell_angle_beta   90.00604080
_cell_angle_gamma   90.00000000
_symmetry_Int_Tables_number   1
_chemical_formula_structural   Ca5Eu(Hg2Pb)6
_chemical_formula_sum   'Ca5 Eu1 Hg12 Pb6'
_cell_volume   672.39687944
_cell_formula_units_Z   1
loop_
 _symmetry_equiv_pos_site_id
 _symmetry_equiv_pos_as_xyz
  1  'x, y, z'
loop_
 _atom_site_type_symbol
 _atom_site_label
 _atom_site_symmetry_multiplicity
 _atom_site_fract_x
 _atom_site_fract_y
 _atom_site_fract_z
 _atom_site_occupancy
  Ca  Ca0  1  0.999999  0.000000  0.001574  1
  Ca  Ca1  1  0.499906  0.500000  0.166785  1
  Ca  Ca2  1  0.999900  0.000000  0.333545  1
  Ca  Ca3  1  0.500005  0.500000  0.499675  1
  Ca  Ca4  1  0.000115  0.000000  0.664860  1
  Eu  Eu5  1  0.500103  0.500000  0.833483  1
  Hg  Hg6  1  0.499997  0.246732  0.004204  1
  Hg  Hg7  1  0.499997  0.753268  0.004204  1
  Hg  Hg8  1  0.999911  0.248828  0.167508  1
  Hg  Hg9  1  0.999911  0.751172  0.167508  1
  Hg  Hg10  1  0.499919  0.252691  0.333278  1
  Hg  Hg11  1  0.499919  0.747309  0.333278  1
  Hg  Hg12  1  0.000003  0.249182  0.499220  1
  Hg  Hg13  1  0.000003  0.750819  0.499220  1
  Hg  Hg14  1  0.500098  0.247007  0.662504  1
  Hg  Hg15  1  0.500098  0.752993  0.662504  1
  Hg  Hg16  1  0.000081  0.241595  0.833248  1
  Hg  Hg17  1  0.000081  0.758405  0.833248  1
  Pb  Pb18  1  0.999996  0.500000  0.001023  1
  Pb  Pb19  1  0.499903  0.000000  0.168974  1
  Pb  Pb20  1  0.999950  0.500000  0.333240  1
  Pb  Pb21  1  0.500009  0.000000  0.497837  1
  Pb  Pb22  1  0.000058  0.500000  0.665843  1
  Pb  Pb23  1  0.500039  0.000000  0.833240  1
