# generated using pymatgen
data_Zr10In3Si2Bi3
_symmetry_space_group_name_H-M   'P 1'
_cell_length_a   8.81989900
_cell_length_b   8.81989910
_cell_length_c   5.93337200
_cell_angle_alpha   90.00000000
_cell_angle_beta   90.00000000
_cell_angle_gamma   119.99999586
_symmetry_Int_Tables_number   1
_chemical_formula_structural   Zr10In3Si2Bi3
_chemical_formula_sum   'Zr10 In3 Si2 Bi3'
_cell_volume   399.72329289
_cell_formula_units_Z   1
loop_
 _symmetry_equiv_pos_site_id
 _symmetry_equiv_pos_as_xyz
  1  'x, y, z'
loop_
 _atom_site_type_symbol
 _atom_site_label
 _atom_site_symmetry_multiplicity
 _atom_site_fract_x
 _atom_site_fract_y
 _atom_site_fract_z
 _atom_site_occupancy
  Zr  Zr0  1  0.666667  0.333333  0.010164  1
  Zr  Zr1  1  0.333333  0.666667  0.010164  1
  Zr  Zr2  1  0.333333  0.666667  0.489836  1
  Zr  Zr3  1  0.666667  0.333333  0.489836  1
  Zr  Zr4  1  0.760336  0.760336  0.750000  1
  Zr  Zr5  1  0.239664  0.000000  0.750000  1
  Zr  Zr6  1  0.000000  0.239664  0.750000  1
  Zr  Zr7  1  0.269367  0.269367  0.250000  1
  Zr  Zr8  1  0.730633  0.000000  0.250000  1
  Zr  Zr9  1  0.000000  0.730633  0.250000  1
  In  In10  1  0.616087  0.616087  0.250000  1
  In  In11  1  0.383913  0.000000  0.250000  1
  In  In12  1  0.000000  0.383913  0.250000  1
  Si  Si13  1  0.000000  0.000000  0.028675  1
  Si  Si14  1  0.000000  0.000000  0.471325  1
  Bi  Bi15  1  0.404490  0.404490  0.750000  1
  Bi  Bi16  1  0.595510  0.000000  0.750000  1
  Bi  Bi17  1  0.000000  0.595510  0.750000  1
