# generated using pymatgen
data_Y4Er5Lu3Co5Bi
_symmetry_space_group_name_H-M   'P 1'
_cell_length_a   8.27465023
_cell_length_b   8.26473463
_cell_length_c   8.27464821
_cell_angle_alpha   110.64142276
_cell_angle_beta   110.87452810
_cell_angle_gamma   106.97361887
_symmetry_Int_Tables_number   1
_chemical_formula_structural   Y4Er5Lu3Co5Bi
_chemical_formula_sum   'Y4 Er5 Lu3 Co5 Bi1'
_cell_volume   434.73882202
_cell_formula_units_Z   1
loop_
 _symmetry_equiv_pos_site_id
 _symmetry_equiv_pos_as_xyz
  1  'x, y, z'
loop_
 _atom_site_type_symbol
 _atom_site_label
 _atom_site_symmetry_multiplicity
 _atom_site_fract_x
 _atom_site_fract_y
 _atom_site_fract_z
 _atom_site_occupancy
  Y  Y0  1  0.812935  0.709686  0.524641  1
  Y  Y1  1  0.185887  0.290320  0.474562  1
  Y  Y2  1  0.185045  0.709686  0.896750  1
  Y  Y3  1  0.815758  0.290320  0.104434  1
  Er  Er4  1  0.311360  0.000376  0.689017  1
  Er  Er5  1  0.599510  0.793015  0.805879  1
  Er  Er6  1  0.401602  0.207249  0.195096  1
  Er  Er7  1  0.987136  0.793015  0.193504  1
  Er  Er8  1  0.012153  0.207249  0.805647  1
  Lu  Lu9  1  0.687670  0.375018  0.687348  1
  Lu  Lu10  1  0.312605  0.625010  0.312405  1
  Lu  Lu11  1  0.687905  0.000199  0.312294  1
  Co  Co12  1  0.623724  0.999537  0.622175  1
  Co  Co13  1  0.377363  0.999537  0.375814  1
  Co  Co14  1  0.111694  0.611345  0.499651  1
  Co  Co15  1  0.887090  0.387702  0.500613  1
  Co  Co16  1  0.000250  0.999854  0.999604  1
  Bi  Bi17  1  0.500314  0.500882  0.000568  1
