# generated using pymatgen
data_Li2P3Rh4
_symmetry_space_group_name_H-M   'P 1'
_cell_length_a   6.13067502
_cell_length_b   6.48981510
_cell_length_c   3.56515300
_cell_angle_alpha   90.00000000
_cell_angle_beta   90.00000000
_cell_angle_gamma   121.95737868
_symmetry_Int_Tables_number   1
_chemical_formula_structural   Li2P3Rh4
_chemical_formula_sum   'Li2 P3 Rh4'
_cell_volume   120.34858270
_cell_formula_units_Z   1
loop_
 _symmetry_equiv_pos_site_id
 _symmetry_equiv_pos_as_xyz
  1  'x, y, z'
loop_
 _atom_site_type_symbol
 _atom_site_label
 _atom_site_symmetry_multiplicity
 _atom_site_fract_x
 _atom_site_fract_y
 _atom_site_fract_z
 _atom_site_occupancy
  Li  Li0  1  0.403516  0.405577  0.500000  1
  Li  Li1  1  0.596487  0.002053  0.500000  1
  P  P2  1  0.000000  0.992383  0.500000  1
  P  P3  1  0.690612  0.351639  0.000000  1
  P  P4  1  0.309386  0.661025  0.000000  1
  Rh  Rh5  1  0.000004  0.596567  0.500000  1
  Rh  Rh6  1  0.727791  0.736117  0.000000  1
  Rh  Rh7  1  0.272211  0.008325  0.000000  1
  Rh  Rh8  1  0.999994  0.246313  0.000000  1
