# generated using pymatgen
data_PrY2Ga2GeRh6
_symmetry_space_group_name_H-M   'P 1'
_cell_length_a   5.63702900
_cell_length_b   5.63702898
_cell_length_c   15.68264100
_cell_angle_alpha   90.00000000
_cell_angle_beta   90.00000000
_cell_angle_gamma   120.00000601
_symmetry_Int_Tables_number   1
_chemical_formula_structural   PrY2Ga2GeRh6
_chemical_formula_sum   'Pr2 Y4 Ga4 Ge2 Rh12'
_cell_volume   431.56910065
_cell_formula_units_Z   2
loop_
 _symmetry_equiv_pos_site_id
 _symmetry_equiv_pos_as_xyz
  1  'x, y, z'
loop_
 _atom_site_type_symbol
 _atom_site_label
 _atom_site_symmetry_multiplicity
 _atom_site_fract_x
 _atom_site_fract_y
 _atom_site_fract_z
 _atom_site_occupancy
  Pr  Pr0  1  0.333333  0.666667  0.750000  1
  Pr  Pr1  1  0.666667  0.333333  0.250000  1
  Y  Y2  1  0.333333  0.666667  0.539187  1
  Y  Y3  1  0.666667  0.333333  0.460813  1
  Y  Y4  1  0.666667  0.333333  0.039187  1
  Y  Y5  1  0.333333  0.666667  0.960813  1
  Ga  Ga6  1  0.000000  0.000000  0.250000  1
  Ga  Ga7  1  0.000000  0.000000  0.750000  1
  Ga  Ga8  1  0.000000  0.000000  0.000000  1
  Ga  Ga9  1  0.000000  0.000000  0.500000  1
  Ge  Ge10  1  0.333333  0.666667  0.250000  1
  Ge  Ge11  1  0.666667  0.333333  0.750000  1
  Rh  Rh12  1  0.168482  0.336964  0.126813  1
  Rh  Rh13  1  0.831518  0.663036  0.873187  1
  Rh  Rh14  1  0.663036  0.831518  0.126813  1
  Rh  Rh15  1  0.831518  0.663036  0.626813  1
  Rh  Rh16  1  0.336964  0.168482  0.873187  1
  Rh  Rh17  1  0.168482  0.336964  0.373187  1
  Rh  Rh18  1  0.168482  0.831518  0.126813  1
  Rh  Rh19  1  0.336964  0.168482  0.626813  1
  Rh  Rh20  1  0.831518  0.168482  0.873187  1
  Rh  Rh21  1  0.663036  0.831518  0.373187  1
  Rh  Rh22  1  0.831518  0.168482  0.626813  1
  Rh  Rh23  1  0.168482  0.831518  0.373187  1
