# generated using pymatgen
data_KBe3FeF9
_symmetry_space_group_name_H-M   'P 1'
_cell_length_a   6.74826300
_cell_length_b   6.74826259
_cell_length_c   9.75800100
_cell_angle_alpha   90.00000000
_cell_angle_beta   90.00000000
_cell_angle_gamma   119.99999713
_symmetry_Int_Tables_number   1
_chemical_formula_structural   KBe3FeF9
_chemical_formula_sum   'K2 Be6 Fe2 F18'
_cell_volume   384.83580858
_cell_formula_units_Z   2
loop_
 _symmetry_equiv_pos_site_id
 _symmetry_equiv_pos_as_xyz
  1  'x, y, z'
loop_
 _atom_site_type_symbol
 _atom_site_label
 _atom_site_symmetry_multiplicity
 _atom_site_fract_x
 _atom_site_fract_y
 _atom_site_fract_z
 _atom_site_occupancy
  K  K0  1  0.666667  0.333333  0.000000  1
  K  K1  1  0.666667  0.333333  0.500000  1
  Be  Be2  1  0.218019  0.946030  0.250000  1
  Be  Be3  1  0.218019  0.271990  0.750000  1
  Be  Be4  1  0.728010  0.946030  0.750000  1
  Be  Be5  1  0.053970  0.781981  0.750000  1
  Be  Be6  1  0.053970  0.271990  0.250000  1
  Be  Be7  1  0.728010  0.781981  0.250000  1
  Fe  Fe8  1  0.333333  0.666667  0.000000  1
  Fe  Fe9  1  0.333333  0.666667  0.500000  1
  F  F10  1  0.071463  0.663971  0.618172  1
  F  F11  1  0.592508  0.928537  0.618172  1
  F  F12  1  0.336029  0.407492  0.618172  1
  F  F13  1  0.336029  0.928537  0.381828  1
  F  F14  1  0.237366  0.191255  0.250000  1
  F  F15  1  0.953889  0.762634  0.250000  1
  F  F16  1  0.808745  0.046111  0.250000  1
  F  F17  1  0.808745  0.762634  0.750000  1
  F  F18  1  0.953889  0.191255  0.750000  1
  F  F19  1  0.237366  0.046111  0.750000  1
  F  F20  1  0.336029  0.928537  0.118171  1
  F  F21  1  0.592508  0.663971  0.381828  1
  F  F22  1  0.071463  0.407492  0.381828  1
  F  F23  1  0.071463  0.407492  0.118171  1
  F  F24  1  0.592508  0.663971  0.118171  1
  F  F25  1  0.071463  0.663971  0.881828  1
  F  F26  1  0.592508  0.928537  0.881828  1
  F  F27  1  0.336029  0.407492  0.881828  1
