# generated using pymatgen
data_Rb4Li2YGaSb4
_symmetry_space_group_name_H-M   'P 1'
_cell_length_a   11.05256951
_cell_length_b   11.05256514
_cell_length_c   7.03971500
_cell_angle_alpha   90.00000000
_cell_angle_beta   90.00000000
_cell_angle_gamma   101.32167181
_symmetry_Int_Tables_number   1
_chemical_formula_structural   Rb4Li2YGaSb4
_chemical_formula_sum   'Rb8 Li4 Y2 Ga2 Sb8'
_cell_volume   843.23172915
_cell_formula_units_Z   2
loop_
 _symmetry_equiv_pos_site_id
 _symmetry_equiv_pos_as_xyz
  1  'x, y, z'
loop_
 _atom_site_type_symbol
 _atom_site_label
 _atom_site_symmetry_multiplicity
 _atom_site_fract_x
 _atom_site_fract_y
 _atom_site_fract_z
 _atom_site_occupancy
  Rb  Rb0  1  0.570231  0.929769  0.750000  1
  Rb  Rb1  1  0.929769  0.570231  0.250000  1
  Rb  Rb2  1  0.420712  0.079288  0.250000  1
  Rb  Rb3  1  0.079288  0.420712  0.750000  1
  Rb  Rb4  1  0.666688  0.320675  0.775432  1
  Rb  Rb5  1  0.833312  0.179325  0.275432  1
  Rb  Rb6  1  0.320675  0.666688  0.224568  1
  Rb  Rb7  1  0.179325  0.833312  0.724568  1
  Li  Li8  1  0.617138  0.617139  0.000000  1
  Li  Li9  1  0.882862  0.882861  0.500000  1
  Li  Li10  1  0.374254  0.374254  0.000000  1
  Li  Li11  1  0.125746  0.125746  0.500000  1
  Y  Y12  1  0.875306  0.875306  0.000000  1
  Y  Y13  1  0.624694  0.624694  0.500000  1
  Ga  Ga14  1  0.132886  0.132886  0.000000  1
  Ga  Ga15  1  0.367114  0.367114  0.500000  1
  Sb  Sb16  1  0.339896  0.160103  0.750000  1
  Sb  Sb17  1  0.160104  0.339897  0.250000  1
  Sb  Sb18  1  0.651544  0.848456  0.250000  1
  Sb  Sb19  1  0.848456  0.651544  0.750000  1
  Sb  Sb20  1  0.916851  0.105136  0.768779  1
  Sb  Sb21  1  0.583149  0.394864  0.268779  1
  Sb  Sb22  1  0.105136  0.916851  0.231221  1
  Sb  Sb23  1  0.394864  0.583149  0.731221  1
