# generated using pymatgen
data_Na2YbV4O12
_symmetry_space_group_name_H-M   'P 1'
_cell_length_a   10.48259700
_cell_length_b   10.48259700
_cell_length_c   5.00525300
_cell_angle_alpha   90.00000000
_cell_angle_beta   90.00000000
_cell_angle_gamma   90.00000000
_symmetry_Int_Tables_number   1
_chemical_formula_structural   Na2YbV4O12
_chemical_formula_sum   'Na4 Yb2 V8 O24'
_cell_volume   550.00142439
_cell_formula_units_Z   2
loop_
 _symmetry_equiv_pos_site_id
 _symmetry_equiv_pos_as_xyz
  1  'x, y, z'
loop_
 _atom_site_type_symbol
 _atom_site_label
 _atom_site_symmetry_multiplicity
 _atom_site_fract_x
 _atom_site_fract_y
 _atom_site_fract_z
 _atom_site_occupancy
  Na  Na0  1  0.750000  0.750000  0.500000  1
  Na  Na1  1  0.750000  0.250000  0.500000  1
  Na  Na2  1  0.250000  0.750000  0.500000  1
  Na  Na3  1  0.250000  0.250000  0.500000  1
  Yb  Yb4  1  0.000000  0.000000  0.500000  1
  Yb  Yb5  1  0.500000  0.500000  0.500000  1
  V  V6  1  0.275205  0.000000  0.000000  1
  V  V7  1  0.000000  0.275205  0.000000  1
  V  V8  1  0.724795  0.000000  0.000000  1
  V  V9  1  0.000000  0.724795  0.000000  1
  V  V10  1  0.500000  0.224795  0.000000  1
  V  V11  1  0.224795  0.500000  0.000000  1
  V  V12  1  0.775205  0.500000  0.000000  1
  V  V13  1  0.500000  0.775205  0.000000  1
  O  O14  1  0.434442  0.313493  0.243782  1
  O  O15  1  0.565558  0.686507  0.243782  1
  O  O16  1  0.686507  0.434442  0.243782  1
  O  O17  1  0.313493  0.565558  0.243782  1
  O  O18  1  0.313493  0.434442  0.756218  1
  O  O19  1  0.434442  0.686507  0.756218  1
  O  O20  1  0.565558  0.313493  0.756218  1
  O  O21  1  0.686507  0.565558  0.756218  1
  O  O22  1  0.065558  0.186507  0.756218  1
  O  O23  1  0.934442  0.813493  0.756218  1
  O  O24  1  0.813493  0.065558  0.756218  1
  O  O25  1  0.186507  0.934442  0.756218  1
  O  O26  1  0.186507  0.065558  0.243782  1
  O  O27  1  0.065558  0.813493  0.243782  1
  O  O28  1  0.121807  0.378193  0.148155  1
  O  O29  1  0.378193  0.878193  0.148155  1
  O  O30  1  0.621807  0.121807  0.148155  1
  O  O31  1  0.878193  0.621807  0.148155  1
  O  O32  1  0.878193  0.378193  0.851845  1
  O  O33  1  0.121807  0.621807  0.851845  1
  O  O34  1  0.378193  0.121807  0.851845  1
  O  O35  1  0.621807  0.878193  0.851845  1
  O  O36  1  0.813493  0.934442  0.243782  1
  O  O37  1  0.934442  0.186507  0.243782  1
