# generated using pymatgen
data_HoTmTa2(Fe4P3)2
_symmetry_space_group_name_H-M   'P 1'
_cell_length_a   3.66843700
_cell_length_b   10.43327900
_cell_length_c   12.33189500
_cell_angle_alpha   90.00000000
_cell_angle_beta   90.00000000
_cell_angle_gamma   90.00000000
_symmetry_Int_Tables_number   1
_chemical_formula_structural   HoTmTa2(Fe4P3)2
_chemical_formula_sum   'Ho2 Tm2 Ta4 Fe16 P12'
_cell_volume   471.98881230
_cell_formula_units_Z   2
loop_
 _symmetry_equiv_pos_site_id
 _symmetry_equiv_pos_as_xyz
  1  'x, y, z'
loop_
 _atom_site_type_symbol
 _atom_site_label
 _atom_site_symmetry_multiplicity
 _atom_site_fract_x
 _atom_site_fract_y
 _atom_site_fract_z
 _atom_site_occupancy
  Ho  Ho0  1  0.750000  0.416684  0.286964  1
  Ho  Ho1  1  0.750000  0.083316  0.786964  1
  Tm  Tm2  1  0.250000  0.583274  0.713248  1
  Tm  Tm3  1  0.250000  0.916726  0.213248  1
  Ta  Ta4  1  0.250000  0.703684  0.992287  1
  Ta  Ta5  1  0.250000  0.796316  0.492287  1
  Ta  Ta6  1  0.750000  0.296331  0.007835  1
  Ta  Ta7  1  0.750000  0.203669  0.507835  1
  Fe  Fe8  1  0.250000  0.416786  0.491750  1
  Fe  Fe9  1  0.250000  0.083214  0.991750  1
  Fe  Fe10  1  0.750000  0.583392  0.508849  1
  Fe  Fe11  1  0.750000  0.916608  0.008849  1
  Fe  Fe12  1  0.250000  0.215994  0.170659  1
  Fe  Fe13  1  0.250000  0.284006  0.670659  1
  Fe  Fe14  1  0.750000  0.783404  0.829145  1
  Fe  Fe15  1  0.750000  0.716596  0.329145  1
  Fe  Fe16  1  0.250000  0.878725  0.697625  1
  Fe  Fe17  1  0.250000  0.621275  0.197625  1
  Fe  Fe18  1  0.750000  0.120366  0.302188  1
  Fe  Fe19  1  0.750000  0.379634  0.802188  1
  Fe  Fe20  1  0.250000  0.464087  0.933717  1
  Fe  Fe21  1  0.250000  0.035913  0.433717  1
  Fe  Fe22  1  0.750000  0.536242  0.065949  1
  Fe  Fe23  1  0.750000  0.963758  0.565949  1
  P  P24  1  0.250000  0.424953  0.113446  1
  P  P25  1  0.250000  0.075047  0.613446  1
  P  P26  1  0.750000  0.575255  0.885933  1
  P  P27  1  0.750000  0.924745  0.385933  1
  P  P28  1  0.250000  0.273229  0.854764  1
  P  P29  1  0.250000  0.226771  0.354764  1
  P  P30  1  0.750000  0.727544  0.145425  1
  P  P31  1  0.750000  0.772456  0.645425  1
  P  P32  1  0.250000  0.596596  0.376128  1
  P  P33  1  0.250000  0.903404  0.876128  1
  P  P34  1  0.750000  0.404099  0.624090  1
  P  P35  1  0.750000  0.095901  0.124090  1
