# generated using pymatgen
data_Nd4ZnSi8Pt7
_symmetry_space_group_name_H-M   'P 1'
_cell_length_a   4.23974447
_cell_length_b   8.56921369
_cell_length_c   9.83906300
_cell_angle_alpha   89.98814530
_cell_angle_beta   89.97297206
_cell_angle_gamma   89.95617951
_symmetry_Int_Tables_number   1
_chemical_formula_structural   Nd4ZnSi8Pt7
_chemical_formula_sum   'Nd4 Zn1 Si8 Pt7'
_cell_volume   357.46556508
_cell_formula_units_Z   1
loop_
 _symmetry_equiv_pos_site_id
 _symmetry_equiv_pos_as_xyz
  1  'x, y, z'
loop_
 _atom_site_type_symbol
 _atom_site_label
 _atom_site_symmetry_multiplicity
 _atom_site_fract_x
 _atom_site_fract_y
 _atom_site_fract_z
 _atom_site_occupancy
  Nd  Nd0  1  0.750941  0.625106  0.753605  1
  Nd  Nd1  1  0.749481  0.125019  0.753283  1
  Nd  Nd2  1  0.250498  0.877037  0.246623  1
  Nd  Nd3  1  0.248923  0.372812  0.246468  1
  Zn  Zn4  1  0.245350  0.125828  0.503430  1
  Si  Si5  1  0.748618  0.375447  0.002054  1
  Si  Si6  1  0.746242  0.124792  0.363850  1
  Si  Si7  1  0.252980  0.871137  0.634856  1
  Si  Si8  1  0.251243  0.625068  0.998292  1
  Si  Si9  1  0.751683  0.874409  0.001916  1
  Si  Si10  1  0.248793  0.379501  0.635318  1
  Si  Si11  1  0.249380  0.124884  0.996884  1
  Si  Si12  1  0.751029  0.624777  0.365575  1
  Pt  Pt13  1  0.248993  0.375531  0.880655  1
  Pt  Pt14  1  0.751040  0.624926  0.120129  1
  Pt  Pt15  1  0.754062  0.873005  0.500068  1
  Pt  Pt16  1  0.748196  0.376491  0.500191  1
  Pt  Pt17  1  0.749406  0.124800  0.118233  1
  Pt  Pt18  1  0.251466  0.624960  0.498307  1
  Pt  Pt19  1  0.251677  0.874468  0.880262  1
