# generated using pymatgen
data_Nb12Al5Ga3(CuC)4
_symmetry_space_group_name_H-M   'P 1'
_cell_length_a   8.32420319
_cell_length_b   8.32420356
_cell_length_c   8.32234006
_cell_angle_alpha   59.99587298
_cell_angle_beta   59.99587250
_cell_angle_gamma   60.01878023
_symmetry_Int_Tables_number   1
_chemical_formula_structural   Nb12Al5Ga3(CuC)4
_chemical_formula_sum   'Nb12 Al5 Ga3 Cu4 C4'
_cell_volume   407.80291279
_cell_formula_units_Z   1
loop_
 _symmetry_equiv_pos_site_id
 _symmetry_equiv_pos_as_xyz
  1  'x, y, z'
loop_
 _atom_site_type_symbol
 _atom_site_label
 _atom_site_symmetry_multiplicity
 _atom_site_fract_x
 _atom_site_fract_y
 _atom_site_fract_z
 _atom_site_occupancy
  Nb  Nb0  1  0.566080  0.933614  0.566755  1
  Nb  Nb1  1  0.316672  0.683919  0.682824  1
  Nb  Nb2  1  0.683563  0.316380  0.316939  1
  Nb  Nb3  1  0.316380  0.683563  0.316939  1
  Nb  Nb4  1  0.683036  0.683036  0.317290  1
  Nb  Nb5  1  0.316413  0.316413  0.683243  1
  Nb  Nb6  1  0.566455  0.566455  0.933259  1
  Nb  Nb7  1  0.933614  0.566080  0.566755  1
  Nb  Nb8  1  0.566974  0.933592  0.932954  1
  Nb  Nb9  1  0.933350  0.933350  0.567216  1
  Nb  Nb10  1  0.683919  0.316672  0.682824  1
  Nb  Nb11  1  0.933592  0.566974  0.932954  1
  Al  Al12  1  0.333542  0.333542  0.999228  1
  Al  Al13  1  0.916414  0.250680  0.916369  1
  Al  Al14  1  0.916423  0.916423  0.250626  1
  Al  Al15  1  0.250680  0.916414  0.916369  1
  Al  Al16  1  0.333535  0.333535  0.333745  1
  Ga  Ga17  1  0.916156  0.916156  0.916053  1
  Ga  Ga18  1  0.997655  0.334365  0.334043  1
  Ga  Ga19  1  0.334365  0.997655  0.334043  1
  Cu  Cu20  1  0.124776  0.124776  0.124008  1
  Cu  Cu21  1  0.624614  0.126003  0.125107  1
  Cu  Cu22  1  0.126003  0.624614  0.125107  1
  Cu  Cu23  1  0.125379  0.125379  0.625486  1
  C  C24  1  0.624975  0.624975  0.624560  1
  C  C25  1  0.124625  0.625546  0.625127  1
  C  C26  1  0.625546  0.124625  0.625127  1
  C  C27  1  0.625264  0.625264  0.125049  1
