# generated using pymatgen
data_LaPr(BiAu2)2
_symmetry_space_group_name_H-M   'P 1'
_cell_length_a   4.94558800
_cell_length_b   4.94558813
_cell_length_c   9.64635100
_cell_angle_alpha   90.00000000
_cell_angle_beta   90.00000000
_cell_angle_gamma   119.99999910
_symmetry_Int_Tables_number   1
_chemical_formula_structural   LaPr(BiAu2)2
_chemical_formula_sum   'La1 Pr1 Bi2 Au4'
_cell_volume   204.32879594
_cell_formula_units_Z   1
loop_
 _symmetry_equiv_pos_site_id
 _symmetry_equiv_pos_as_xyz
  1  'x, y, z'
loop_
 _atom_site_type_symbol
 _atom_site_label
 _atom_site_symmetry_multiplicity
 _atom_site_fract_x
 _atom_site_fract_y
 _atom_site_fract_z
 _atom_site_occupancy
  La  La0  1  0.666668  0.333334  0.750001  1
  Pr  Pr1  1  0.333334  0.666668  0.250001  1
  Bi  Bi2  1  0.000000  0.000000  0.001140  1
  Bi  Bi3  1  0.000000  0.000000  0.498860  1
  Au  Au4  1  0.666668  0.333334  0.103787  1
  Au  Au5  1  0.666668  0.333334  0.396213  1
  Au  Au6  1  0.333334  0.666668  0.602623  1
  Au  Au7  1  0.333334  0.666668  0.897377  1
