# generated using pymatgen
data_La6GeSe7
_symmetry_space_group_name_H-M   'P 1'
_cell_length_a   7.88478992
_cell_length_b   7.88478972
_cell_length_c   7.88478949
_cell_angle_alpha   109.39215182
_cell_angle_beta   109.39214986
_cell_angle_gamma   109.39214457
_symmetry_Int_Tables_number   1
_chemical_formula_structural   La6GeSe7
_chemical_formula_sum   'La6 Ge1 Se7'
_cell_volume   378.45425608
_cell_formula_units_Z   1
loop_
 _symmetry_equiv_pos_site_id
 _symmetry_equiv_pos_as_xyz
  1  'x, y, z'
loop_
 _atom_site_type_symbol
 _atom_site_label
 _atom_site_symmetry_multiplicity
 _atom_site_fract_x
 _atom_site_fract_y
 _atom_site_fract_z
 _atom_site_occupancy
  La  La0  1  0.870840  0.118424  0.748113  1
  La  La1  1  0.381404  0.257179  0.625866  1
  La  La2  1  0.118424  0.748113  0.870840  1
  La  La3  1  0.748113  0.870840  0.118424  1
  La  La4  1  0.257179  0.625866  0.381404  1
  La  La5  1  0.625866  0.381404  0.257179  1
  Ge  Ge6  1  0.654481  0.654481  0.654481  1
  Se  Se7  1  0.498636  0.998813  0.347714  1
  Se  Se8  1  0.998813  0.347714  0.498636  1
  Se  Se9  1  0.347714  0.498636  0.998813  1
  Se  Se10  1  0.000095  0.848800  0.498989  1
  Se  Se11  1  0.848800  0.498989  0.000095  1
  Se  Se12  1  0.150648  0.150648  0.150648  1
  Se  Se13  1  0.498989  0.000095  0.848800  1
