# generated using pymatgen
data_Zr2Si3Ir4
_symmetry_space_group_name_H-M   'P 1'
_cell_length_a   12.93572900
_cell_length_b   12.93572831
_cell_length_c   3.95295300
_cell_angle_alpha   90.00000000
_cell_angle_beta   90.00000000
_cell_angle_gamma   119.99999409
_symmetry_Int_Tables_number   1
_chemical_formula_structural   Zr2Si3Ir4
_chemical_formula_sum   'Zr8 Si12 Ir16'
_cell_volume   572.84101074
_cell_formula_units_Z   4
loop_
 _symmetry_equiv_pos_site_id
 _symmetry_equiv_pos_as_xyz
  1  'x, y, z'
loop_
 _atom_site_type_symbol
 _atom_site_label
 _atom_site_symmetry_multiplicity
 _atom_site_fract_x
 _atom_site_fract_y
 _atom_site_fract_z
 _atom_site_occupancy
  Zr  Zr0  1  0.438586  0.438586  0.000000  1
  Zr  Zr1  1  0.561414  0.000000  0.000000  1
  Zr  Zr2  1  0.000000  0.561414  0.000000  1
  Zr  Zr3  1  0.666667  0.333333  0.000000  1
  Zr  Zr4  1  0.333333  0.666667  0.000000  1
  Zr  Zr5  1  0.805952  0.805952  0.500000  1
  Zr  Zr6  1  0.194048  0.000000  0.500000  1
  Zr  Zr7  1  0.000000  0.194048  0.500000  1
  Si  Si8  1  0.644714  0.644714  0.000000  1
  Si  Si9  1  0.355286  0.000000  0.000000  1
  Si  Si10  1  0.000000  0.355286  0.000000  1
  Si  Si11  1  0.483098  0.307606  0.500000  1
  Si  Si12  1  0.692394  0.175490  0.500000  1
  Si  Si13  1  0.824510  0.516902  0.500000  1
  Si  Si14  1  0.516902  0.824510  0.500000  1
  Si  Si15  1  0.175490  0.692394  0.500000  1
  Si  Si16  1  0.823731  0.000000  0.000000  1
  Si  Si17  1  0.000000  0.823731  0.000000  1
  Si  Si18  1  0.307606  0.483098  0.500000  1
  Si  Si19  1  0.176269  0.176269  0.000000  1
  Ir  Ir20  1  0.191360  0.371892  0.000000  1
  Ir  Ir21  1  0.180531  0.808640  0.000000  1
  Ir  Ir22  1  0.819469  0.628108  0.000000  1
  Ir  Ir23  1  0.808640  0.180531  0.000000  1
  Ir  Ir24  1  0.371892  0.191360  0.000000  1
  Ir  Ir25  1  0.126611  0.488608  0.500000  1
  Ir  Ir26  1  0.361997  0.873389  0.500000  1
  Ir  Ir27  1  0.511392  0.638003  0.500000  1
  Ir  Ir28  1  0.638003  0.511392  0.500000  1
  Ir  Ir29  1  0.873389  0.361997  0.500000  1
  Ir  Ir30  1  0.488608  0.126611  0.500000  1
  Ir  Ir31  1  0.000000  0.000000  0.000000  1
  Ir  Ir32  1  0.725255  0.000000  0.500000  1
  Ir  Ir33  1  0.000000  0.725255  0.500000  1
  Ir  Ir34  1  0.628108  0.819469  0.000000  1
  Ir  Ir35  1  0.274745  0.274745  0.500000  1
