# generated using pymatgen
data_Tm8Sc2TiSi16Mo9
_symmetry_space_group_name_H-M   'P 1'
_cell_length_a   6.92791998
_cell_length_b   6.92791993
_cell_length_c   12.79134000
_cell_angle_alpha   89.97080375
_cell_angle_beta   90.02919940
_cell_angle_gamma   89.92175439
_symmetry_Int_Tables_number   1
_chemical_formula_structural   Tm8Sc2TiSi16Mo9
_chemical_formula_sum   'Tm8 Sc2 Ti1 Si16 Mo9'
_cell_volume   613.93338058
_cell_formula_units_Z   1
loop_
 _symmetry_equiv_pos_site_id
 _symmetry_equiv_pos_as_xyz
  1  'x, y, z'
loop_
 _atom_site_type_symbol
 _atom_site_label
 _atom_site_symmetry_multiplicity
 _atom_site_fract_x
 _atom_site_fract_y
 _atom_site_fract_z
 _atom_site_occupancy
  Tm  Tm0  1  0.340413  0.002621  0.469252  1
  Tm  Tm1  1  0.495790  0.838458  0.719079  1
  Tm  Tm2  1  0.500425  0.162722  0.217153  1
  Tm  Tm3  1  0.838458  0.495790  0.280921  1
  Tm  Tm4  1  0.162722  0.500425  0.782847  1
  Tm  Tm5  1  0.657585  0.999785  0.969491  1
  Tm  Tm6  1  0.002621  0.340413  0.530748  1
  Tm  Tm7  1  0.999785  0.657585  0.030509  1
  Sc  Sc8  1  0.170235  0.830648  0.248892  1
  Sc  Sc9  1  0.830648  0.170235  0.751108  1
  Ti  Ti10  1  0.669028  0.669028  0.500000  1
  Si  Si11  1  0.204259  0.129732  0.682324  1
  Si  Si12  1  0.373668  0.698456  0.933395  1
  Si  Si13  1  0.629059  0.299360  0.433169  1
  Si  Si14  1  0.698456  0.373668  0.066605  1
  Si  Si15  1  0.299360  0.629059  0.566831  1
  Si  Si16  1  0.793657  0.871389  0.182202  1
  Si  Si17  1  0.129732  0.204259  0.317676  1
  Si  Si18  1  0.871389  0.793657  0.817798  1
  Si  Si19  1  0.288335  0.966377  0.059732  1
  Si  Si20  1  0.544653  0.790209  0.313786  1
  Si  Si21  1  0.454017  0.211408  0.816176  1
  Si  Si22  1  0.790209  0.544653  0.686214  1
  Si  Si23  1  0.211408  0.454017  0.183824  1
  Si  Si24  1  0.708807  0.039100  0.561423  1
  Si  Si25  1  0.966377  0.288335  0.940268  1
  Si  Si26  1  0.039100  0.708807  0.438577  1
  Mo  Mo27  1  0.332493  0.332493  0.000000  1
  Mo  Mo28  1  0.158279  0.998643  0.872721  1
  Mo  Mo29  1  0.496383  0.665723  0.123391  1
  Mo  Mo30  1  0.503593  0.341454  0.623451  1
  Mo  Mo31  1  0.665723  0.496383  0.876609  1
  Mo  Mo32  1  0.341454  0.503593  0.376549  1
  Mo  Mo33  1  0.838755  0.994485  0.374784  1
  Mo  Mo34  1  0.998643  0.158279  0.127279  1
  Mo  Mo35  1  0.994485  0.838755  0.625216  1
