# generated using pymatgen
data_Yb2Zn14Pd3
_symmetry_space_group_name_H-M   'P 1'
_cell_length_a   6.83634848
_cell_length_b   6.83634844
_cell_length_c   6.83634915
_cell_angle_alpha   83.06360590
_cell_angle_beta   83.06360423
_cell_angle_gamma   83.06361358
_symmetry_Int_Tables_number   1
_chemical_formula_structural   Yb2Zn14Pd3
_chemical_formula_sum   'Yb2 Zn14 Pd3'
_cell_volume   313.00829865
_cell_formula_units_Z   1
loop_
 _symmetry_equiv_pos_site_id
 _symmetry_equiv_pos_as_xyz
  1  'x, y, z'
loop_
 _atom_site_type_symbol
 _atom_site_label
 _atom_site_symmetry_multiplicity
 _atom_site_fract_x
 _atom_site_fract_y
 _atom_site_fract_z
 _atom_site_occupancy
  Yb  Yb0  1  0.663153  0.663153  0.663153  1
  Yb  Yb1  1  0.336847  0.336847  0.336847  1
  Zn  Zn2  1  0.351224  0.351224  0.839766  1
  Zn  Zn3  1  0.839766  0.351224  0.351224  1
  Zn  Zn4  1  0.101851  0.101851  0.101851  1
  Zn  Zn5  1  0.898149  0.898149  0.898149  1
  Zn  Zn6  1  0.298451  0.701549  0.000000  1
  Zn  Zn7  1  0.701549  0.000000  0.298451  1
  Zn  Zn8  1  0.000000  0.298451  0.701549  1
  Zn  Zn9  1  0.701549  0.298451  0.000000  1
  Zn  Zn10  1  0.298451  0.000000  0.701549  1
  Zn  Zn11  1  0.000000  0.701549  0.298451  1
  Zn  Zn12  1  0.160234  0.648776  0.648776  1
  Zn  Zn13  1  0.648776  0.648776  0.160234  1
  Zn  Zn14  1  0.648776  0.160234  0.648776  1
  Zn  Zn15  1  0.351224  0.839766  0.351224  1
  Pd  Pd16  1  0.000000  0.000000  0.500000  1
  Pd  Pd17  1  0.000000  0.500000  0.000000  1
  Pd  Pd18  1  0.500000  0.000000  0.000000  1
