# generated using pymatgen
data_Zr5TiBBr12
_symmetry_space_group_name_H-M   'P 1'
_cell_length_a   8.61895697
_cell_length_b   8.67746131
_cell_length_c   8.64803858
_cell_angle_alpha   106.71763802
_cell_angle_beta   106.88341539
_cell_angle_gamma   106.97425038
_symmetry_Int_Tables_number   1
_chemical_formula_structural   Zr5TiBBr12
_chemical_formula_sum   'Zr5 Ti1 B1 Br12'
_cell_volume   540.71953777
_cell_formula_units_Z   1
loop_
 _symmetry_equiv_pos_site_id
 _symmetry_equiv_pos_as_xyz
  1  'x, y, z'
loop_
 _atom_site_type_symbol
 _atom_site_label
 _atom_site_symmetry_multiplicity
 _atom_site_fract_x
 _atom_site_fract_y
 _atom_site_fract_z
 _atom_site_occupancy
  Zr  Zr0  1  0.289692  0.094862  0.028708  1
  Zr  Zr1  1  0.095264  0.027714  0.288281  1
  Zr  Zr2  1  0.903991  0.970918  0.711448  1
  Zr  Zr3  1  0.708545  0.902075  0.970689  1
  Zr  Zr4  1  0.028210  0.289449  0.094612  1
  Ti  Ti5  1  0.974183  0.730609  0.910968  1
  B  B6  1  0.999263  0.001349  0.000502  1
  Br  Br7  1  0.920619  0.305468  0.773137  1
  Br  Br8  1  0.685664  0.222137  0.078274  1
  Br  Br9  1  0.444247  0.140308  0.366780  1
  Br  Br10  1  0.864676  0.636234  0.572605  1
  Br  Br11  1  0.225377  0.077587  0.687691  1
  Br  Br12  1  0.646736  0.561415  0.860244  1
  Br  Br13  1  0.368150  0.441822  0.140505  1
  Br  Br14  1  0.773765  0.918036  0.310905  1
  Br  Br15  1  0.140765  0.364800  0.442561  1
  Br  Br16  1  0.554297  0.856401  0.632881  1
  Br  Br17  1  0.303144  0.772779  0.920345  1
  Br  Br18  1  0.073413  0.686035  0.208866  1
