# generated using pymatgen
data_Sc12FeCo4Bi
_symmetry_space_group_name_H-M   'P 1'
_cell_length_a   7.73951169
_cell_length_b   7.73951231
_cell_length_c   7.73951179
_cell_angle_alpha   111.55198579
_cell_angle_beta   110.70054956
_cell_angle_gamma   106.21073398
_symmetry_Int_Tables_number   1
_chemical_formula_structural   Sc12FeCo4Bi
_chemical_formula_sum   'Sc12 Fe1 Co4 Bi1'
_cell_volume   355.99584190
_cell_formula_units_Z   1
loop_
 _symmetry_equiv_pos_site_id
 _symmetry_equiv_pos_as_xyz
  1  'x, y, z'
loop_
 _atom_site_type_symbol
 _atom_site_label
 _atom_site_symmetry_multiplicity
 _atom_site_fract_x
 _atom_site_fract_y
 _atom_site_fract_z
 _atom_site_occupancy
  Sc  Sc0  1  0.820380  0.724849  0.545229  1
  Sc  Sc1  1  0.179620  0.275151  0.454771  1
  Sc  Sc2  1  0.179620  0.724849  0.904470  1
  Sc  Sc3  1  0.820380  0.275151  0.095530  1
  Sc  Sc4  1  0.683370  0.373090  0.689721  1
  Sc  Sc5  1  0.316630  0.626910  0.310279  1
  Sc  Sc6  1  0.683370  0.993650  0.310279  1
  Sc  Sc7  1  0.316630  0.006350  0.689721  1
  Sc  Sc8  1  0.587831  0.781777  0.806055  1
  Sc  Sc9  1  0.412169  0.218223  0.193945  1
  Sc  Sc10  1  0.975722  0.781777  0.193945  1
  Sc  Sc11  1  0.024278  0.218223  0.806055  1
  Fe  Fe12  1  0.000000  0.000000  0.000000  1
  Co  Co13  1  0.647034  0.000000  0.647034  1
  Co  Co14  1  0.352966  0.000000  0.352966  1
  Co  Co15  1  0.118501  0.618501  0.500000  1
  Co  Co16  1  0.881499  0.381499  0.500000  1
  Bi  Bi17  1  0.500000  0.500000  0.000000  1
