# generated using pymatgen
data_Ac5Si2Sn
_symmetry_space_group_name_H-M   'P 1'
_cell_length_a   8.39992700
_cell_length_b   9.72114944
_cell_length_c   8.39992700
_cell_angle_alpha   115.59734573
_cell_angle_beta   90.00000000
_cell_angle_gamma   115.59734573
_symmetry_Int_Tables_number   1
_chemical_formula_structural   Ac5Si2Sn
_chemical_formula_sum   'Ac10 Si4 Sn2'
_cell_volume   542.98793519
_cell_formula_units_Z   2
loop_
 _symmetry_equiv_pos_site_id
 _symmetry_equiv_pos_as_xyz
  1  'x, y, z'
loop_
 _atom_site_type_symbol
 _atom_site_label
 _atom_site_symmetry_multiplicity
 _atom_site_fract_x
 _atom_site_fract_y
 _atom_site_fract_z
 _atom_site_occupancy
  Ac  Ac0  1  0.000000  0.000000  0.000000  1
  Ac  Ac1  1  0.500000  0.000000  0.500000  1
  Ac  Ac2  1  0.532754  0.720159  0.687407  1
  Ac  Ac3  1  0.187407  0.720159  0.032754  1
  Ac  Ac4  1  0.687407  0.720159  0.187407  1
  Ac  Ac5  1  0.032754  0.720159  0.532754  1
  Ac  Ac6  1  0.467246  0.279841  0.312593  1
  Ac  Ac7  1  0.812593  0.279841  0.967246  1
  Ac  Ac8  1  0.312593  0.279841  0.812593  1
  Ac  Ac9  1  0.967246  0.279841  0.467246  1
  Si  Si10  1  0.885032  0.000000  0.614968  1
  Si  Si11  1  0.114968  0.000000  0.385032  1
  Si  Si12  1  0.614968  0.000000  0.114968  1
  Si  Si13  1  0.385032  0.000000  0.885032  1
  Sn  Sn14  1  0.750000  0.500000  0.750000  1
  Sn  Sn15  1  0.250000  0.500000  0.250000  1
