# generated using pymatgen
data_Ca12Ti12Cr5In3O48
_symmetry_space_group_name_H-M   'P 1'
_cell_length_a   11.02420708
_cell_length_b   11.01547633
_cell_length_c   11.02461425
_cell_angle_alpha   109.48024862
_cell_angle_beta   109.54902944
_cell_angle_gamma   109.50855666
_symmetry_Int_Tables_number   1
_chemical_formula_structural   Ca12Ti12Cr5In3O48
_chemical_formula_sum   'Ca12 Ti12 Cr5 In3 O48'
_cell_volume   1029.02211746
_cell_formula_units_Z   1
loop_
 _symmetry_equiv_pos_site_id
 _symmetry_equiv_pos_as_xyz
  1  'x, y, z'
loop_
 _atom_site_type_symbol
 _atom_site_label
 _atom_site_symmetry_multiplicity
 _atom_site_fract_x
 _atom_site_fract_y
 _atom_site_fract_z
 _atom_site_occupancy
  Ca  Ca0  1  0.245674  0.372830  0.125331  1
  Ca  Ca1  1  0.754326  0.627170  0.874669  1
  Ca  Ca2  1  0.748410  0.124928  0.376696  1
  Ca  Ca3  1  0.127157  0.255107  0.376992  1
  Ca  Ca4  1  0.371049  0.751316  0.129597  1
  Ca  Ca5  1  0.251590  0.875072  0.623304  1
  Ca  Ca6  1  0.872843  0.744893  0.623008  1
  Ca  Ca7  1  0.628951  0.248684  0.870403  1
  Ca  Ca8  1  0.373679  0.128818  0.253429  1
  Ca  Ca9  1  0.626321  0.871182  0.746571  1
  Ca  Ca10  1  0.120271  0.380429  0.751400  1
  Ca  Ca11  1  0.879729  0.619571  0.248600  1
  Ti  Ti12  1  0.249572  0.624880  0.375281  1
  Ti  Ti13  1  0.750428  0.375120  0.624719  1
  Ti  Ti14  1  0.755495  0.878933  0.124509  1
  Ti  Ti15  1  0.381125  0.251311  0.621030  1
  Ti  Ti16  1  0.618875  0.748689  0.378970  1
  Ti  Ti17  1  0.244505  0.121067  0.875491  1
  Ti  Ti18  1  0.118920  0.745540  0.874567  1
  Ti  Ti19  1  0.881080  0.254460  0.125433  1
  Ti  Ti20  1  0.630520  0.379609  0.259513  1
  Ti  Ti21  1  0.369480  0.620391  0.740487  1
  Ti  Ti22  1  0.873166  0.128250  0.753589  1
  Ti  Ti23  1  0.126834  0.871750  0.246411  1
  Cr  Cr24  1  0.000000  0.000000  0.000000  1
  Cr  Cr25  1  0.500000  0.000000  0.500000  1
  Cr  Cr26  1  0.000000  0.500000  0.500000  1
  Cr  Cr27  1  0.500000  0.500000  0.500000  1
  Cr  Cr28  1  0.000000  0.500000  0.000000  1
  In  In29  1  0.500000  0.000000  0.000000  1
  In  In30  1  0.500000  0.500000  0.000000  1
  In  In31  1  0.000000  0.000000  0.500000  1
  O  O32  1  0.484913  0.387616  0.302119  1
  O  O33  1  0.515087  0.612384  0.697881  1
  O  O34  1  0.586601  0.188968  0.216561  1
  O  O35  1  0.914581  0.127430  0.605101  1
  O  O36  1  0.302230  0.484688  0.383632  1
  O  O37  1  0.320695  0.919870  0.300022  1
  O  O38  1  0.413399  0.811032  0.783439  1
  O  O39  1  0.085419  0.872570  0.394899  1
  O  O40  1  0.697770  0.515312  0.616368  1
  O  O41  1  0.679305  0.080130  0.699978  1
  O  O42  1  0.015349  0.318920  0.903430  1
  O  O43  1  0.196249  0.581115  0.182968  1
  O  O44  1  0.115016  0.012689  0.197103  1
  O  O45  1  0.984651  0.681080  0.096570  1
  O  O46  1  0.803751  0.418885  0.817032  1
  O  O47  1  0.884984  0.987311  0.802897  1
  O  O48  1  0.601850  0.910386  0.123611  1
  O  O49  1  0.177056  0.476917  0.593923  1
  O  O50  1  0.398150  0.089614  0.876389  1
  O  O51  1  0.822944  0.523083  0.406077  1
  O  O52  1  0.902954  0.029847  0.313507  1
  O  O53  1  0.374017  0.586416  0.893528  1
  O  O54  1  0.097046  0.970153  0.686493  1
  O  O55  1  0.625983  0.413584  0.106472  1
  O  O56  1  0.381626  0.298298  0.475468  1
  O  O57  1  0.583285  0.901824  0.386073  1
  O  O58  1  0.618374  0.701702  0.524532  1
  O  O59  1  0.416715  0.098176  0.613927  1
  O  O60  1  0.115579  0.597268  0.918015  1
  O  O61  1  0.022119  0.201229  0.120947  1
  O  O62  1  0.884421  0.402732  0.081985  1
  O  O63  1  0.977881  0.798771  0.879053  1
  O  O64  1  0.308229  0.895584  0.020249  1
  O  O65  1  0.917752  0.304232  0.314908  1
  O  O66  1  0.691771  0.104416  0.979751  1
  O  O67  1  0.082248  0.695768  0.685092  1
  O  O68  1  0.194966  0.212466  0.588323  1
  O  O69  1  0.472154  0.601518  0.188047  1
  O  O70  1  0.805034  0.787534  0.411677  1
  O  O71  1  0.527846  0.398482  0.811953  1
  O  O72  1  0.283217  0.308700  0.911842  1
  O  O73  1  0.716783  0.691300  0.088158  1
  O  O74  1  0.201602  0.117198  0.022352  1
  O  O75  1  0.798398  0.882802  0.977648  1
  O  O76  1  0.897735  0.382086  0.578872  1
  O  O77  1  0.102265  0.617914  0.421128  1
  O  O78  1  0.601553  0.182714  0.487146  1
  O  O79  1  0.398447  0.817286  0.512854  1
