# generated using pymatgen
data_ErLuCoB6
_symmetry_space_group_name_H-M   'P 1'
_cell_length_a   3.51406800
_cell_length_b   9.00689800
_cell_length_c   11.36557800
_cell_angle_alpha   90.00000000
_cell_angle_beta   90.00000000
_cell_angle_gamma   90.00000000
_symmetry_Int_Tables_number   1
_chemical_formula_structural   ErLuCoB6
_chemical_formula_sum   'Er4 Lu4 Co4 B24'
_cell_volume   359.73022764
_cell_formula_units_Z   4
loop_
 _symmetry_equiv_pos_site_id
 _symmetry_equiv_pos_as_xyz
  1  'x, y, z'
loop_
 _atom_site_type_symbol
 _atom_site_label
 _atom_site_symmetry_multiplicity
 _atom_site_fract_x
 _atom_site_fract_y
 _atom_site_fract_z
 _atom_site_occupancy
  Er  Er0  1  0.000000  0.824037  0.085467  1
  Er  Er1  1  0.000000  0.175963  0.914533  1
  Er  Er2  1  0.000000  0.324037  0.414533  1
  Er  Er3  1  0.000000  0.675963  0.585467  1
  Lu  Lu4  1  0.000000  0.443885  0.129175  1
  Lu  Lu5  1  0.000000  0.556115  0.870825  1
  Lu  Lu6  1  0.000000  0.943885  0.370825  1
  Lu  Lu7  1  0.000000  0.056115  0.629175  1
  Co  Co8  1  0.000000  0.140251  0.180076  1
  Co  Co9  1  0.000000  0.859749  0.819924  1
  Co  Co10  1  0.000000  0.640251  0.319924  1
  Co  Co11  1  0.000000  0.359749  0.680076  1
  B  B12  1  0.500000  0.053819  0.067242  1
  B  B13  1  0.500000  0.946181  0.932758  1
  B  B14  1  0.500000  0.553819  0.432758  1
  B  B15  1  0.500000  0.446181  0.567242  1
  B  B16  1  0.500000  0.248113  0.081936  1
  B  B17  1  0.500000  0.751887  0.918064  1
  B  B18  1  0.500000  0.748113  0.418064  1
  B  B19  1  0.500000  0.251887  0.581936  1
  B  B20  1  0.500000  0.292656  0.235623  1
  B  B21  1  0.500000  0.707344  0.764377  1
  B  B22  1  0.500000  0.792656  0.264377  1
  B  B23  1  0.500000  0.207344  0.735623  1
  B  B24  1  0.500000  0.133456  0.315758  1
  B  B25  1  0.500000  0.866544  0.684242  1
  B  B26  1  0.500000  0.633456  0.184242  1
  B  B27  1  0.500000  0.366544  0.815758  1
  B  B28  1  0.500000  0.485601  0.288289  1
  B  B29  1  0.500000  0.514399  0.711711  1
  B  B30  1  0.500000  0.985601  0.211711  1
  B  B31  1  0.500000  0.014399  0.788289  1
  B  B32  1  0.500000  0.105979  0.471343  1
  B  B33  1  0.500000  0.894021  0.528657  1
  B  B34  1  0.500000  0.605979  0.028657  1
  B  B35  1  0.500000  0.394021  0.971343  1
