# generated using pymatgen
data_DyEr3(Al3Pt4)2
_symmetry_space_group_name_H-M   'P 1'
_cell_length_a   8.11076359
_cell_length_b   8.11076302
_cell_length_c   7.63047462
_cell_angle_alpha   89.95676171
_cell_angle_beta   90.04323727
_cell_angle_gamma   139.97994291
_symmetry_Int_Tables_number   1
_chemical_formula_structural   DyEr3(Al3Pt4)2
_chemical_formula_sum   'Dy1 Er3 Al6 Pt8'
_cell_volume   322.79253452
_cell_formula_units_Z   1
loop_
 _symmetry_equiv_pos_site_id
 _symmetry_equiv_pos_as_xyz
  1  'x, y, z'
loop_
 _atom_site_type_symbol
 _atom_site_label
 _atom_site_symmetry_multiplicity
 _atom_site_fract_x
 _atom_site_fract_y
 _atom_site_fract_z
 _atom_site_occupancy
  Dy  Dy0  1  0.106654  0.893346  0.408102  1
  Er  Er1  1  0.893088  0.106912  0.591822  1
  Er  Er2  1  0.393343  0.606657  0.908090  1
  Er  Er3  1  0.606773  0.393227  0.091511  1
  Al  Al4  1  0.999896  0.000104  0.000144  1
  Al  Al5  1  0.499643  0.500357  0.500346  1
  Al  Al6  1  0.023171  0.476680  0.249698  1
  Al  Al7  1  0.477125  0.023019  0.750036  1
  Al  Al8  1  0.976981  0.522875  0.750036  1
  Al  Al9  1  0.523320  0.976829  0.249698  1
  Pt  Pt10  1  0.191647  0.308672  0.249785  1
  Pt  Pt11  1  0.308411  0.192045  0.750673  1
  Pt  Pt12  1  0.807955  0.691589  0.750673  1
  Pt  Pt13  1  0.691328  0.808353  0.249785  1
  Pt  Pt14  1  0.184212  0.815788  0.028296  1
  Pt  Pt15  1  0.815956  0.184044  0.971272  1
  Pt  Pt16  1  0.316007  0.683993  0.528735  1
  Pt  Pt17  1  0.684489  0.315511  0.471296  1
