# generated using pymatgen
data_DyLu2Pa(Al3Rh)6
_symmetry_space_group_name_H-M   'P 1'
_cell_length_a   7.56362809
_cell_length_b   7.55891465
_cell_length_c   9.39897000
_cell_angle_alpha   90.00000000
_cell_angle_beta   90.00000000
_cell_angle_gamma   119.41184540
_symmetry_Int_Tables_number   1
_chemical_formula_structural   DyLu2Pa(Al3Rh)6
_chemical_formula_sum   'Dy1 Lu2 Pa1 Al18 Rh6'
_cell_volume   468.10579595
_cell_formula_units_Z   1
loop_
 _symmetry_equiv_pos_site_id
 _symmetry_equiv_pos_as_xyz
  1  'x, y, z'
loop_
 _atom_site_type_symbol
 _atom_site_label
 _atom_site_symmetry_multiplicity
 _atom_site_fract_x
 _atom_site_fract_y
 _atom_site_fract_z
 _atom_site_occupancy
  Dy  Dy0  1  0.674047  0.994281  0.250000  1
  Lu  Lu1  1  0.004869  0.327248  0.750000  1
  Lu  Lu2  1  0.327329  0.004548  0.750000  1
  Pa  Pa3  1  0.995671  0.673407  0.250000  1
  Al  Al4  1  0.134019  0.132025  0.250000  1
  Al  Al5  1  0.873810  0.875082  0.750000  1
  Al  Al6  1  0.001313  0.334144  0.074113  1
  Al  Al7  1  0.000006  0.663959  0.918435  1
  Al  Al8  1  0.000006  0.663959  0.581565  1
  Al  Al9  1  0.338806  0.003577  0.425686  1
  Al  Al10  1  0.001313  0.334144  0.425887  1
  Al  Al11  1  0.664298  0.001049  0.579417  1
  Al  Al12  1  0.664298  0.001049  0.920583  1
  Al  Al13  1  0.338806  0.003577  0.074314  1
  Al  Al14  1  0.331022  0.331343  0.557145  1
  Al  Al15  1  0.663476  0.665064  0.452779  1
  Al  Al16  1  0.663476  0.665064  0.047221  1
  Al  Al17  1  0.331022  0.331343  0.942855  1
  Al  Al18  1  0.339041  0.548390  0.250000  1
  Al  Al19  1  0.658502  0.446573  0.750000  1
  Al  Al20  1  0.549749  0.342776  0.250000  1
  Al  Al21  1  0.447545  0.660299  0.750000  1
  Rh  Rh22  1  0.673289  0.328774  0.000725  1
  Rh  Rh23  1  0.325712  0.672202  0.001175  1
  Rh  Rh24  1  0.325712  0.672202  0.498825  1
  Rh  Rh25  1  0.673289  0.328774  0.499275  1
  Rh  Rh26  1  0.999788  0.997572  0.002059  1
  Rh  Rh27  1  0.999788  0.997572  0.497941  1
