# generated using pymatgen
data_Pr7Lu13Tl16
_symmetry_space_group_name_H-M   'P 1'
_cell_length_a   8.30544093
_cell_length_b   8.31599143
_cell_length_c   15.13338011
_cell_angle_alpha   89.91486020
_cell_angle_beta   90.12368557
_cell_angle_gamma   90.00399771
_symmetry_Int_Tables_number   1
_chemical_formula_structural   Pr7Lu13Tl16
_chemical_formula_sum   'Pr7 Lu13 Tl16'
_cell_volume   1045.22833705
_cell_formula_units_Z   1
loop_
 _symmetry_equiv_pos_site_id
 _symmetry_equiv_pos_as_xyz
  1  'x, y, z'
loop_
 _atom_site_type_symbol
 _atom_site_label
 _atom_site_symmetry_multiplicity
 _atom_site_fract_x
 _atom_site_fract_y
 _atom_site_fract_z
 _atom_site_occupancy
  Pr  Pr0  1  0.648044  0.002760  0.965920  1
  Pr  Pr1  1  0.853497  0.502759  0.284765  1
  Pr  Pr2  1  0.147316  0.497538  0.782742  1
  Pr  Pr3  1  0.002433  0.647127  0.035044  1
  Pr  Pr4  1  0.998596  0.352062  0.532752  1
  Pr  Pr5  1  0.496631  0.147548  0.217264  1
  Pr  Pr6  1  0.501294  0.852379  0.716068  1
  Lu  Lu7  1  0.327935  0.328203  0.999774  1
  Lu  Lu8  1  0.669075  0.673211  0.499971  1
  Lu  Lu9  1  0.827095  0.172286  0.748842  1
  Lu  Lu10  1  0.173686  0.829959  0.251577  1
  Lu  Lu11  1  0.162542  0.002883  0.871194  1
  Lu  Lu12  1  0.837535  0.996945  0.372049  1
  Lu  Lu13  1  0.663324  0.496288  0.877808  1
  Lu  Lu14  1  0.337738  0.505021  0.378362  1
  Lu  Lu15  1  0.995452  0.839234  0.625841  1
  Lu  Lu16  1  0.004960  0.163330  0.130318  1
  Lu  Lu17  1  0.500818  0.337045  0.618608  1
  Lu  Lu18  1  0.496464  0.662894  0.123052  1
  Lu  Lu19  1  0.358690  0.991928  0.467379  1
  Tl  Tl20  1  0.286557  0.954647  0.066358  1
  Tl  Tl21  1  0.707070  0.043546  0.565413  1
  Tl  Tl22  1  0.786111  0.545012  0.682829  1
  Tl  Tl23  1  0.213168  0.453291  0.185012  1
  Tl  Tl24  1  0.045780  0.715149  0.433538  1
  Tl  Tl25  1  0.955536  0.286388  0.933840  1
  Tl  Tl26  1  0.454820  0.213997  0.814968  1
  Tl  Tl27  1  0.542017  0.790492  0.317997  1
  Tl  Tl28  1  0.199082  0.135975  0.670185  1
  Tl  Tl29  1  0.801422  0.864366  0.173353  1
  Tl  Tl30  1  0.698714  0.362783  0.077626  1
  Tl  Tl31  1  0.301754  0.641182  0.576065  1
  Tl  Tl32  1  0.862525  0.800963  0.826189  1
  Tl  Tl33  1  0.143980  0.193411  0.332758  1
  Tl  Tl34  1  0.635301  0.299312  0.421554  1
  Tl  Tl35  1  0.363032  0.698082  0.922987  1
