# generated using pymatgen
data_Ho3Th(SiPd14)2
_symmetry_space_group_name_H-M   'P 1'
_cell_length_a   8.94912600
_cell_length_b   8.94912600
_cell_length_c   7.10626900
_cell_angle_alpha   90.00000000
_cell_angle_beta   90.00000000
_cell_angle_gamma   90.00000000
_symmetry_Int_Tables_number   1
_chemical_formula_structural   Ho3Th(SiPd14)2
_chemical_formula_sum   'Ho3 Th1 Si2 Pd28'
_cell_volume   569.11874326
_cell_formula_units_Z   1
loop_
 _symmetry_equiv_pos_site_id
 _symmetry_equiv_pos_as_xyz
  1  'x, y, z'
loop_
 _atom_site_type_symbol
 _atom_site_label
 _atom_site_symmetry_multiplicity
 _atom_site_fract_x
 _atom_site_fract_y
 _atom_site_fract_z
 _atom_site_occupancy
  Ho  Ho0  1  0.500000  0.000000  0.934354  1
  Ho  Ho1  1  0.000000  0.500000  0.065646  1
  Ho  Ho2  1  0.500000  0.500000  0.500000  1
  Th  Th3  1  0.000000  0.000000  0.500000  1
  Si  Si4  1  0.500000  0.000000  0.448629  1
  Si  Si5  1  0.000000  0.500000  0.551371  1
  Pd  Pd6  1  0.335587  0.834461  0.615703  1
  Pd  Pd7  1  0.335587  0.165539  0.615703  1
  Pd  Pd8  1  0.664413  0.834461  0.615703  1
  Pd  Pd9  1  0.664413  0.165539  0.615703  1
  Pd  Pd10  1  0.165539  0.664413  0.384297  1
  Pd  Pd11  1  0.165539  0.335587  0.384297  1
  Pd  Pd12  1  0.834461  0.664413  0.384297  1
  Pd  Pd13  1  0.834461  0.335587  0.384297  1
  Pd  Pd14  1  0.500000  0.770178  0.256067  1
  Pd  Pd15  1  0.500000  0.229822  0.256067  1
  Pd  Pd16  1  0.270926  0.000000  0.255725  1
  Pd  Pd17  1  0.729074  0.000000  0.255725  1
  Pd  Pd18  1  0.000000  0.729074  0.744275  1
  Pd  Pd19  1  0.000000  0.270926  0.744275  1
  Pd  Pd20  1  0.229822  0.500000  0.743933  1
  Pd  Pd21  1  0.770178  0.500000  0.743933  1
  Pd  Pd22  1  0.500000  0.349172  0.852407  1
  Pd  Pd23  1  0.500000  0.650828  0.852407  1
  Pd  Pd24  1  0.848656  0.000000  0.851999  1
  Pd  Pd25  1  0.151344  0.000000  0.851999  1
  Pd  Pd26  1  0.000000  0.151344  0.148001  1
  Pd  Pd27  1  0.000000  0.848656  0.148001  1
  Pd  Pd28  1  0.650828  0.500000  0.147593  1
  Pd  Pd29  1  0.349172  0.500000  0.147593  1
  Pd  Pd30  1  0.250392  0.749608  0.000000  1
  Pd  Pd31  1  0.250392  0.250392  0.000000  1
  Pd  Pd32  1  0.749608  0.749608  0.000000  1
  Pd  Pd33  1  0.749608  0.250392  0.000000  1
