# generated using pymatgen
data_CeY4Al2Ru3
_symmetry_space_group_name_H-M   'P 1'
_cell_length_a   8.49230995
_cell_length_b   8.39982604
_cell_length_c   8.36234892
_cell_angle_alpha   110.05201079
_cell_angle_beta   109.28584324
_cell_angle_gamma   110.25055253
_symmetry_Int_Tables_number   1
_chemical_formula_structural   CeY4Al2Ru3
_chemical_formula_sum   'Ce2 Y8 Al4 Ru6'
_cell_volume   452.39418205
_cell_formula_units_Z   2
loop_
 _symmetry_equiv_pos_site_id
 _symmetry_equiv_pos_as_xyz
  1  'x, y, z'
loop_
 _atom_site_type_symbol
 _atom_site_label
 _atom_site_symmetry_multiplicity
 _atom_site_fract_x
 _atom_site_fract_y
 _atom_site_fract_z
 _atom_site_occupancy
  Ce  Ce0  1  0.944082  0.250759  0.195458  1
  Ce  Ce1  1  0.197327  0.943467  0.251170  1
  Y  Y2  1  0.780644  0.784904  0.778135  1
  Y  Y3  1  0.316496  0.565472  0.753515  1
  Y  Y4  1  0.750924  0.316120  0.567420  1
  Y  Y5  1  0.567311  0.748591  0.313189  1
  Y  Y6  1  0.722139  0.503237  0.998901  1
  Y  Y7  1  0.999019  0.720406  0.505225  1
  Y  Y8  1  0.500973  0.992128  0.717097  1
  Y  Y9  1  0.253917  0.188814  0.933686  1
  Al  Al10  1  0.415836  0.410997  0.408701  1
  Al  Al11  1  0.091648  0.493036  0.996937  1
  Al  Al12  1  0.998475  0.091585  0.503316  1
  Al  Al13  1  0.502882  0.009350  0.094681  1
  Ru  Ru14  1  0.869530  0.118523  0.741898  1
  Ru  Ru15  1  0.755755  0.906045  0.124756  1
  Ru  Ru16  1  0.128946  0.764709  0.911449  1
  Ru  Ru17  1  0.223075  0.588602  0.361229  1
  Ru  Ru18  1  0.355733  0.219939  0.591717  1
  Ru  Ru19  1  0.625287  0.383317  0.251517  1
