# generated using pymatgen
data_HoEr10Cd9Pd4
_symmetry_space_group_name_H-M   'P 1'
_cell_length_a   13.04873800
_cell_length_b   13.04873919
_cell_length_c   3.66425000
_cell_angle_alpha   90.00000000
_cell_angle_beta   90.00000000
_cell_angle_gamma   111.63593223
_symmetry_Int_Tables_number   1
_chemical_formula_structural   HoEr10Cd9Pd4
_chemical_formula_sum   'Ho1 Er10 Cd9 Pd4'
_cell_volume   579.95297801
_cell_formula_units_Z   1
loop_
 _symmetry_equiv_pos_site_id
 _symmetry_equiv_pos_as_xyz
  1  'x, y, z'
loop_
 _atom_site_type_symbol
 _atom_site_label
 _atom_site_symmetry_multiplicity
 _atom_site_fract_x
 _atom_site_fract_y
 _atom_site_fract_z
 _atom_site_occupancy
  Ho  Ho0  1  0.000000  0.000000  0.000000  1
  Er  Er1  1  0.415682  0.074600  0.000000  1
  Er  Er2  1  0.584318  0.925400  0.000000  1
  Er  Er3  1  0.074600  0.415682  0.000000  1
  Er  Er4  1  0.925400  0.584318  0.000000  1
  Er  Er5  1  0.162465  0.837535  0.000000  1
  Er  Er6  1  0.837535  0.162465  0.000000  1
  Er  Er7  1  0.370637  0.629363  0.000000  1
  Er  Er8  1  0.629363  0.370637  0.000000  1
  Er  Er9  1  0.306245  0.306245  0.000000  1
  Er  Er10  1  0.693755  0.693755  0.000000  1
  Cd  Cd11  1  0.366175  0.844261  0.500000  1
  Cd  Cd12  1  0.633825  0.155739  0.500000  1
  Cd  Cd13  1  0.844261  0.366175  0.500000  1
  Cd  Cd14  1  0.155739  0.633825  0.500000  1
  Cd  Cd15  1  0.216015  0.069635  0.500000  1
  Cd  Cd16  1  0.783985  0.930365  0.500000  1
  Cd  Cd17  1  0.069635  0.216015  0.500000  1
  Cd  Cd18  1  0.930365  0.783985  0.500000  1
  Cd  Cd19  1  0.500000  0.500000  0.500000  1
  Pd  Pd20  1  0.450587  0.249524  0.500000  1
  Pd  Pd21  1  0.549413  0.750476  0.500000  1
  Pd  Pd22  1  0.249524  0.450587  0.500000  1
  Pd  Pd23  1  0.750476  0.549413  0.500000  1
