# generated using pymatgen
data_La2Ga6Tc
_symmetry_space_group_name_H-M   'P 1'
_cell_length_a   6.39207756
_cell_length_b   6.39207764
_cell_length_c   6.39207800
_cell_angle_alpha   60.00000851
_cell_angle_beta   60.00000807
_cell_angle_gamma   60.00000582
_symmetry_Int_Tables_number   1
_chemical_formula_structural   La2Ga6Tc
_chemical_formula_sum   'La2 Ga6 Tc1'
_cell_volume   184.67632309
_cell_formula_units_Z   1
loop_
 _symmetry_equiv_pos_site_id
 _symmetry_equiv_pos_as_xyz
  1  'x, y, z'
loop_
 _atom_site_type_symbol
 _atom_site_label
 _atom_site_symmetry_multiplicity
 _atom_site_fract_x
 _atom_site_fract_y
 _atom_site_fract_z
 _atom_site_occupancy
  La  La0  1  0.750000  0.750000  0.750000  1
  La  La1  1  0.250000  0.250000  0.250000  1
  Ga  Ga2  1  0.784467  0.784467  0.215533  1
  Ga  Ga3  1  0.215533  0.784467  0.215533  1
  Ga  Ga4  1  0.784467  0.215533  0.215533  1
  Ga  Ga5  1  0.215533  0.215533  0.784467  1
  Ga  Ga6  1  0.784467  0.215533  0.784467  1
  Ga  Ga7  1  0.215533  0.784467  0.784467  1
  Tc  Tc8  1  0.500000  0.500000  0.500000  1
