# generated using pymatgen
data_Nd2TmMg3Ga2Hg
_symmetry_space_group_name_H-M   'P 1'
_cell_length_a   7.55100300
_cell_length_b   7.46554507
_cell_length_c   4.47684800
_cell_angle_alpha   90.00000000
_cell_angle_beta   90.00000000
_cell_angle_gamma   120.37937761
_symmetry_Int_Tables_number   1
_chemical_formula_structural   Nd2TmMg3Ga2Hg
_chemical_formula_sum   'Nd2 Tm1 Mg3 Ga2 Hg1'
_cell_volume   217.71892037
_cell_formula_units_Z   1
loop_
 _symmetry_equiv_pos_site_id
 _symmetry_equiv_pos_as_xyz
  1  'x, y, z'
loop_
 _atom_site_type_symbol
 _atom_site_label
 _atom_site_symmetry_multiplicity
 _atom_site_fract_x
 _atom_site_fract_y
 _atom_site_fract_z
 _atom_site_occupancy
  Nd  Nd0  1  0.001770  0.574349  0.000000  1
  Nd  Nd1  1  0.427420  0.425651  0.000000  1
  Tm  Tm2  1  0.575159  0.000000  0.000000  1
  Mg  Mg3  1  0.997774  0.246433  0.500000  1
  Mg  Mg4  1  0.751341  0.753567  0.500000  1
  Mg  Mg5  1  0.249392  0.000000  0.500000  1
  Ga  Ga6  1  0.665295  0.325264  0.500000  1
  Ga  Ga7  1  0.340031  0.674736  0.500000  1
  Hg  Hg8  1  0.991818  0.000000  0.000000  1
