# generated using pymatgen
data_SmLu2Ga2Co9B4
_symmetry_space_group_name_H-M   'P 1'
_cell_length_a   5.12492000
_cell_length_b   5.12830004
_cell_length_c   9.54163500
_cell_angle_alpha   90.00001876
_cell_angle_beta   89.99997364
_cell_angle_gamma   119.97818676
_symmetry_Int_Tables_number   1
_chemical_formula_structural   SmLu2Ga2Co9B4
_chemical_formula_sum   'Sm1 Lu2 Ga2 Co9 B4'
_cell_volume   217.22478011
_cell_formula_units_Z   1
loop_
 _symmetry_equiv_pos_site_id
 _symmetry_equiv_pos_as_xyz
  1  'x, y, z'
loop_
 _atom_site_type_symbol
 _atom_site_label
 _atom_site_symmetry_multiplicity
 _atom_site_fract_x
 _atom_site_fract_y
 _atom_site_fract_z
 _atom_site_occupancy
  Sm  Sm0  1  0.999988  0.000000  0.999952  1
  Lu  Lu1  1  0.999988  0.000000  0.341045  1
  Lu  Lu2  1  0.999992  0.000000  0.658933  1
  Ga  Ga3  1  0.333251  0.666511  0.999977  1
  Ga  Ga4  1  0.666739  0.333489  0.999977  1
  Co  Co5  1  0.499992  0.000000  0.499996  1
  Co  Co6  1  0.499997  0.499998  0.499982  1
  Co  Co7  1  0.999999  0.500002  0.499982  1
  Co  Co8  1  0.499994  0.000000  0.209222  1
  Co  Co9  1  0.499993  0.500000  0.209195  1
  Co  Co10  1  0.999993  0.500000  0.209195  1
  Co  Co11  1  0.499997  0.000000  0.790845  1
  Co  Co12  1  0.499999  0.499997  0.790840  1
  Co  Co13  1  0.000002  0.500003  0.790840  1
  B  B14  1  0.333362  0.666738  0.350013  1
  B  B15  1  0.666624  0.333262  0.350013  1
  B  B16  1  0.666735  0.333479  0.649997  1
  B  B17  1  0.333255  0.666521  0.649997  1
