# generated using pymatgen
data_Eu(BeH3)2
_symmetry_space_group_name_H-M   'P 1'
_cell_length_a   4.17203634
_cell_length_b   4.59299186
_cell_length_c   4.80406032
_cell_angle_alpha   87.47747177
_cell_angle_beta   88.22985516
_cell_angle_gamma   89.51300010
_symmetry_Int_Tables_number   1
_chemical_formula_structural   Eu(BeH3)2
_chemical_formula_sum   'Eu1 Be2 H6'
_cell_volume   91.92058328
_cell_formula_units_Z   1
loop_
 _symmetry_equiv_pos_site_id
 _symmetry_equiv_pos_as_xyz
  1  'x, y, z'
loop_
 _atom_site_type_symbol
 _atom_site_label
 _atom_site_symmetry_multiplicity
 _atom_site_fract_x
 _atom_site_fract_y
 _atom_site_fract_z
 _atom_site_occupancy
  Eu  Eu0  1  0.879188  0.047263  0.234119  1
  Be  Be1  1  0.334064  0.533164  0.475744  1
  Be  Be2  1  0.791141  0.627768  0.759287  1
  H  H3  1  0.388710  0.788836  0.306034  1
  H  H4  1  0.977641  0.527903  0.515622  1
  H  H5  1  0.906944  0.535883  0.022295  1
  H  H6  1  0.475579  0.502061  0.745935  1
  H  H7  1  0.797353  0.940416  0.741099  1
  H  H8  1  0.378535  0.275515  0.328248  1
