# generated using pymatgen
data_Dy4YEr3(Ni4As3)4
_symmetry_space_group_name_H-M   'P 1'
_cell_length_a   12.86210300
_cell_length_b   12.86210243
_cell_length_c   3.95382300
_cell_angle_alpha   90.00000000
_cell_angle_beta   90.00000000
_cell_angle_gamma   120.00000403
_symmetry_Int_Tables_number   1
_chemical_formula_structural   Dy4YEr3(Ni4As3)4
_chemical_formula_sum   'Dy4 Y1 Er3 Ni16 As12'
_cell_volume   566.46330844
_cell_formula_units_Z   1
loop_
 _symmetry_equiv_pos_site_id
 _symmetry_equiv_pos_as_xyz
  1  'x, y, z'
loop_
 _atom_site_type_symbol
 _atom_site_label
 _atom_site_symmetry_multiplicity
 _atom_site_fract_x
 _atom_site_fract_y
 _atom_site_fract_z
 _atom_site_occupancy
  Dy  Dy0  1  0.181911  0.181911  0.500000  1
  Dy  Dy1  1  0.818089  0.000000  0.500000  1
  Dy  Dy2  1  0.000000  0.818089  0.500000  1
  Dy  Dy3  1  0.333333  0.666667  0.000000  1
  Y  Y4  1  0.666667  0.333333  0.000000  1
  Er  Er5  1  0.565122  0.565162  0.000000  1
  Er  Er6  1  0.434838  0.999960  0.000000  1
  Er  Er7  1  0.000040  0.434878  0.000000  1
  Ni  Ni8  1  0.725082  0.725080  0.500000  1
  Ni  Ni9  1  0.274920  0.000002  0.500000  1
  Ni  Ni10  1  0.999998  0.274918  0.500000  1
  Ni  Ni11  1  0.186312  0.377221  0.000000  1
  Ni  Ni12  1  0.622779  0.809091  0.000000  1
  Ni  Ni13  1  0.190909  0.813688  0.000000  1
  Ni  Ni14  1  0.809122  0.622799  0.000000  1
  Ni  Ni15  1  0.813678  0.190878  0.000000  1
  Ni  Ni16  1  0.377201  0.186322  0.000000  1
  Ni  Ni17  1  0.361638  0.481005  0.500000  1
  Ni  Ni18  1  0.518995  0.880634  0.500000  1
  Ni  Ni19  1  0.119366  0.638362  0.500000  1
  Ni  Ni20  1  0.880650  0.519019  0.500000  1
  Ni  Ni21  1  0.638371  0.119350  0.500000  1
  Ni  Ni22  1  0.480981  0.361629  0.500000  1
  Ni  Ni23  1  0.000000  0.000000  0.000000  1
  As  As24  1  0.822077  0.822079  0.000000  1
  As  As25  1  0.177921  0.999997  0.000000  1
  As  As26  1  0.000003  0.177923  0.000000  1
  As  As27  1  0.175428  0.478090  0.500000  1
  As  As28  1  0.521910  0.697338  0.500000  1
  As  As29  1  0.302662  0.824572  0.500000  1
  As  As30  1  0.697346  0.521961  0.500000  1
  As  As31  1  0.824615  0.302654  0.500000  1
  As  As32  1  0.478039  0.175385  0.500000  1
  As  As33  1  0.351549  0.351538  0.000000  1
  As  As34  1  0.648462  0.000011  0.000000  1
  As  As35  1  0.999989  0.648451  0.000000  1
