# generated using pymatgen
data_NdHoIr2O7
_symmetry_space_group_name_H-M   'P 1'
_cell_length_a   7.31459765
_cell_length_b   7.27461357
_cell_length_c   7.31459776
_cell_angle_alpha   60.18066363
_cell_angle_beta   60.34208447
_cell_angle_gamma   60.18066469
_symmetry_Int_Tables_number   1
_chemical_formula_structural   NdHoIr2O7
_chemical_formula_sum   'Nd2 Ho2 Ir4 O14'
_cell_volume   276.67679192
_cell_formula_units_Z   2
loop_
 _symmetry_equiv_pos_site_id
 _symmetry_equiv_pos_as_xyz
  1  'x, y, z'
loop_
 _atom_site_type_symbol
 _atom_site_label
 _atom_site_symmetry_multiplicity
 _atom_site_fract_x
 _atom_site_fract_y
 _atom_site_fract_z
 _atom_site_occupancy
  Nd  Nd0  1  0.625000  0.125000  0.125000  1
  Nd  Nd1  1  0.125000  0.125000  0.625000  1
  Ho  Ho2  1  0.125000  0.625000  0.125000  1
  Ho  Ho3  1  0.125000  0.125000  0.125000  1
  Ir  Ir4  1  0.125000  0.625000  0.625000  1
  Ir  Ir5  1  0.625000  0.125000  0.625000  1
  Ir  Ir6  1  0.625000  0.625000  0.125000  1
  Ir  Ir7  1  0.625000  0.625000  0.625000  1
  O  O8  1  0.718038  0.702362  0.289285  1
  O  O9  1  0.289285  0.290315  0.718038  1
  O  O10  1  0.709562  0.290438  0.709562  1
  O  O11  1  0.289487  0.710513  0.289487  1
  O  O12  1  0.289285  0.702362  0.718038  1
  O  O13  1  0.718038  0.290315  0.289285  1
  O  O14  1  0.531962  0.547638  0.960715  1
  O  O15  1  0.960715  0.959685  0.531962  1
  O  O16  1  0.540438  0.959562  0.540438  1
  O  O17  1  0.960513  0.539487  0.960513  1
  O  O18  1  0.960715  0.547638  0.531962  1
  O  O19  1  0.531962  0.959685  0.960715  1
  O  O20  1  0.242177  0.257823  0.242177  1
  O  O21  1  0.007823  0.992177  0.007823  1
