# generated using pymatgen
data_RbTc12I25
_symmetry_space_group_name_H-M   'P 1'
_cell_length_a   10.87526534
_cell_length_b   11.89545105
_cell_length_c   12.79029953
_cell_angle_alpha   83.58273558
_cell_angle_beta   73.30432288
_cell_angle_gamma   86.35562195
_symmetry_Int_Tables_number   1
_chemical_formula_structural   RbTc12I25
_chemical_formula_sum   'Rb1 Tc12 I25'
_cell_volume   1574.08933573
_cell_formula_units_Z   1
loop_
 _symmetry_equiv_pos_site_id
 _symmetry_equiv_pos_as_xyz
  1  'x, y, z'
loop_
 _atom_site_type_symbol
 _atom_site_label
 _atom_site_symmetry_multiplicity
 _atom_site_fract_x
 _atom_site_fract_y
 _atom_site_fract_z
 _atom_site_occupancy
  Rb  Rb0  1  0.500000  0.000000  0.000000  1
  Tc  Tc1  1  0.836677  0.259701  0.136649  1
  Tc  Tc2  1  0.163323  0.740299  0.863351  1
  Tc  Tc3  1  0.772449  0.134903  0.281415  1
  Tc  Tc4  1  0.227551  0.865097  0.718585  1
  Tc  Tc5  1  0.057765  0.281362  0.192460  1
  Tc  Tc6  1  0.942235  0.718638  0.807540  1
  Tc  Tc7  1  0.849678  0.420396  0.268328  1
  Tc  Tc8  1  0.150322  0.579604  0.731672  1
  Tc  Tc9  1  0.783441  0.296502  0.414293  1
  Tc  Tc10  1  0.216559  0.703498  0.585707  1
  Tc  Tc11  1  0.992636  0.157738  0.338130  1
  Tc  Tc12  1  0.007364  0.842262  0.661870  1
  I  I13  1  0.950043  0.969049  0.263390  1
  I  I14  1  0.049957  0.030951  0.736610  1
  I  I15  1  0.969613  0.270032  0.510847  1
  I  I16  1  0.030387  0.729968  0.489153  1
  I  I17  1  0.656732  0.426129  0.175890  1
  I  I18  1  0.343268  0.573871  0.824110  1
  I  I19  1  0.082884  0.470418  0.277296  1
  I  I20  1  0.917116  0.529582  0.722704  1
  I  I21  1  0.000000  0.500000  0.000000  1
  I  I22  1  0.618313  0.974415  0.247579  1
  I  I23  1  0.381687  0.025585  0.752421  1
  I  I24  1  0.204110  0.047998  0.383747  1
  I  I25  1  0.795890  0.952002  0.616253  1
  I  I26  1  0.560321  0.220078  0.412209  1
  I  I27  1  0.439679  0.779922  0.587791  1
  I  I28  1  0.059904  0.169267  0.023030  1
  I  I29  1  0.940096  0.830733  0.976970  1
  I  I30  1  0.774312  0.637261  0.318393  1
  I  I31  1  0.225688  0.362739  0.681607  1
  I  I32  1  0.743428  0.218908  0.964472  1
  I  I33  1  0.256572  0.781092  0.035528  1
  I  I34  1  0.322409  0.272441  0.115799  1
  I  I35  1  0.677591  0.727559  0.884201  1
  I  I36  1  0.649198  0.408137  0.589447  1
  I  I37  1  0.350802  0.591863  0.410553  1
