# generated using pymatgen
data_NdHo3(Sn5Rh3)2
_symmetry_space_group_name_H-M   'P 1'
_cell_length_a   13.49308602
_cell_length_b   13.49308690
_cell_length_c   7.26569965
_cell_angle_alpha   90.04840299
_cell_angle_beta   89.95159782
_cell_angle_gamma   161.02197311
_symmetry_Int_Tables_number   1
_chemical_formula_structural   NdHo3(Sn5Rh3)2
_chemical_formula_sum   'Nd1 Ho3 Sn10 Rh6'
_cell_volume   430.18751121
_cell_formula_units_Z   1
loop_
 _symmetry_equiv_pos_site_id
 _symmetry_equiv_pos_as_xyz
  1  'x, y, z'
loop_
 _atom_site_type_symbol
 _atom_site_label
 _atom_site_symmetry_multiplicity
 _atom_site_fract_x
 _atom_site_fract_y
 _atom_site_fract_z
 _atom_site_occupancy
  Nd  Nd0  1  0.172904  0.827096  0.747787  1
  Ho  Ho1  1  0.828820  0.171180  0.245189  1
  Ho  Ho2  1  0.475628  0.524372  0.760112  1
  Ho  Ho3  1  0.523225  0.476775  0.261820  1
  Sn  Sn4  1  0.881259  0.118741  0.769521  1
  Sn  Sn5  1  0.118939  0.881061  0.267998  1
  Sn  Sn6  1  0.704683  0.295317  0.450831  1
  Sn  Sn7  1  0.295647  0.704353  0.952907  1
  Sn  Sn8  1  0.594863  0.405137  0.885167  1
  Sn  Sn9  1  0.403494  0.596506  0.385594  1
  Sn  Sn10  1  0.952535  0.047465  0.100153  1
  Sn  Sn11  1  0.046710  0.953290  0.600753  1
  Sn  Sn12  1  0.291644  0.708356  0.522459  1
  Sn  Sn13  1  0.710231  0.289769  0.027172  1
  Rh  Rh14  1  0.049689  0.950311  0.981863  1
  Rh  Rh15  1  0.949554  0.050446  0.480640  1
  Rh  Rh16  1  0.778462  0.221538  0.737200  1
  Rh  Rh17  1  0.223019  0.776981  0.238055  1
  Rh  Rh18  1  0.394101  0.605899  0.016353  1
  Rh  Rh19  1  0.604593  0.395407  0.512431  1
