# generated using pymatgen
data_Be8Al3Tc
_symmetry_space_group_name_H-M   'P 1'
_cell_length_a   4.43784100
_cell_length_b   4.43784121
_cell_length_c   7.07825100
_cell_angle_alpha   90.00000000
_cell_angle_beta   90.00000000
_cell_angle_gamma   120.00000587
_symmetry_Int_Tables_number   1
_chemical_formula_structural   Be8Al3Tc
_chemical_formula_sum   'Be8 Al3 Tc1'
_cell_volume   120.72579168
_cell_formula_units_Z   1
loop_
 _symmetry_equiv_pos_site_id
 _symmetry_equiv_pos_as_xyz
  1  'x, y, z'
loop_
 _atom_site_type_symbol
 _atom_site_label
 _atom_site_symmetry_multiplicity
 _atom_site_fract_x
 _atom_site_fract_y
 _atom_site_fract_z
 _atom_site_occupancy
  Be  Be0  1  0.000000  0.000000  0.993560  1
  Be  Be1  1  0.000000  0.000000  0.497874  1
  Be  Be2  1  0.835268  0.670536  0.253441  1
  Be  Be3  1  0.168463  0.831537  0.746925  1
  Be  Be4  1  0.663075  0.831537  0.746925  1
  Be  Be5  1  0.329464  0.164732  0.253441  1
  Be  Be6  1  0.835268  0.164732  0.253441  1
  Be  Be7  1  0.168463  0.336925  0.746925  1
  Al  Al8  1  0.333333  0.666667  0.075834  1
  Al  Al9  1  0.666667  0.333333  0.549111  1
  Al  Al10  1  0.666667  0.333333  0.939312  1
  Tc  Tc11  1  0.333333  0.666667  0.443210  1
