# generated using pymatgen
data_TbP12Os3Rh
_symmetry_space_group_name_H-M   'P 1'
_cell_length_a   7.02164668
_cell_length_b   7.04082857
_cell_length_c   7.02164600
_cell_angle_alpha   109.52655976
_cell_angle_beta   109.41581926
_cell_angle_gamma   109.52657456
_symmetry_Int_Tables_number   1
_chemical_formula_structural   TbP12Os3Rh
_chemical_formula_sum   'Tb1 P12 Os3 Rh1'
_cell_volume   267.04390593
_cell_formula_units_Z   1
loop_
 _symmetry_equiv_pos_site_id
 _symmetry_equiv_pos_as_xyz
  1  'x, y, z'
loop_
 _atom_site_type_symbol
 _atom_site_label
 _atom_site_symmetry_multiplicity
 _atom_site_fract_x
 _atom_site_fract_y
 _atom_site_fract_z
 _atom_site_occupancy
  Tb  Tb0  1  0.000000  0.000000  0.000000  1
  P  P1  1  0.857742  0.645666  0.502870  1
  P  P2  1  0.142258  0.354334  0.497130  1
  P  P3  1  0.143085  0.646016  0.786050  1
  P  P4  1  0.856915  0.353984  0.213950  1
  P  P5  1  0.642965  0.502931  0.856915  1
  P  P6  1  0.357035  0.497069  0.143085  1
  P  P7  1  0.645128  0.787923  0.142258  1
  P  P8  1  0.354872  0.212077  0.857742  1
  P  P9  1  0.502870  0.857205  0.645128  1
  P  P10  1  0.497130  0.142795  0.354872  1
  P  P11  1  0.786050  0.140034  0.642965  1
  P  P12  1  0.213950  0.859966  0.357035  1
  Os  Os13  1  0.500000  0.500000  0.500000  1
  Os  Os14  1  0.500000  0.000000  0.000000  1
  Os  Os15  1  0.000000  0.000000  0.500000  1
  Rh  Rh16  1  0.000000  0.500000  0.000000  1
