# generated using pymatgen
data_Tb8Ho4Ni4SnAu
_symmetry_space_group_name_H-M   'P 1'
_cell_length_a   8.39882953
_cell_length_b   8.39843423
_cell_length_c   8.39882798
_cell_angle_alpha   113.10663376
_cell_angle_beta   108.97729519
_cell_angle_gamma   106.40318441
_symmetry_Int_Tables_number   1
_chemical_formula_structural   Tb8Ho4Ni4SnAu
_chemical_formula_sum   'Tb8 Ho4 Ni4 Sn1 Au1'
_cell_volume   454.43996183
_cell_formula_units_Z   1
loop_
 _symmetry_equiv_pos_site_id
 _symmetry_equiv_pos_as_xyz
  1  'x, y, z'
loop_
 _atom_site_type_symbol
 _atom_site_label
 _atom_site_symmetry_multiplicity
 _atom_site_fract_x
 _atom_site_fract_y
 _atom_site_fract_z
 _atom_site_occupancy
  Tb  Tb0  1  0.419503  0.222653  0.196860  1
  Tb  Tb1  1  0.580497  0.777347  0.803140  1
  Tb  Tb2  1  0.025792  0.222653  0.803151  1
  Tb  Tb3  1  0.974208  0.777347  0.196849  1
  Tb  Tb4  1  0.179908  0.294081  0.474072  1
  Tb  Tb5  1  0.820092  0.705919  0.525928  1
  Tb  Tb6  1  0.179991  0.705919  0.885829  1
  Tb  Tb7  1  0.820009  0.294081  0.114171  1
  Ho  Ho8  1  0.325528  0.635585  0.310057  1
  Ho  Ho9  1  0.674472  0.364415  0.689943  1
  Ho  Ho10  1  0.325474  0.015415  0.689942  1
  Ho  Ho11  1  0.674526  0.984585  0.310058  1
  Ni  Ni12  1  0.360129  0.000000  0.360129  1
  Ni  Ni13  1  0.639871  0.000000  0.639871  1
  Ni  Ni14  1  0.125981  0.625946  0.499965  1
  Ni  Ni15  1  0.874019  0.374054  0.500035  1
  Sn  Sn16  1  0.500000  0.500000  0.000000  1
  Au  Au17  1  0.000000  0.000000  0.000000  1
