# generated using pymatgen
data_Er8Ga12Ni3Rh
_symmetry_space_group_name_H-M   'P 1'
_cell_length_a   6.95949000
_cell_length_b   8.72960055
_cell_length_c   8.72960100
_cell_angle_alpha   119.99999792
_cell_angle_beta   90.00000000
_cell_angle_gamma   90.00000000
_symmetry_Int_Tables_number   1
_chemical_formula_structural   Er8Ga12Ni3Rh
_chemical_formula_sum   'Er8 Ga12 Ni3 Rh1'
_cell_volume   459.30039793
_cell_formula_units_Z   1
loop_
 _symmetry_equiv_pos_site_id
 _symmetry_equiv_pos_as_xyz
  1  'x, y, z'
loop_
 _atom_site_type_symbol
 _atom_site_label
 _atom_site_symmetry_multiplicity
 _atom_site_fract_x
 _atom_site_fract_y
 _atom_site_fract_z
 _atom_site_occupancy
  Er  Er0  1  0.753544  0.000000  0.000000  1
  Er  Er1  1  0.251089  0.000000  0.000000  1
  Er  Er2  1  0.749224  0.478091  0.521909  1
  Er  Er3  1  0.250949  0.523905  0.476095  1
  Er  Er4  1  0.749224  0.043819  0.521909  1
  Er  Er5  1  0.250949  0.952190  0.476095  1
  Er  Er6  1  0.749224  0.478091  0.956181  1
  Er  Er7  1  0.250949  0.523905  0.047810  1
  Ga  Ga8  1  0.954164  0.828738  0.171262  1
  Ga  Ga9  1  0.046496  0.171458  0.828542  1
  Ga  Ga10  1  0.954164  0.342526  0.171262  1
  Ga  Ga11  1  0.454116  0.171776  0.828224  1
  Ga  Ga12  1  0.046496  0.657084  0.828542  1
  Ga  Ga13  1  0.546208  0.832576  0.167424  1
  Ga  Ga14  1  0.954164  0.828738  0.657474  1
  Ga  Ga15  1  0.454116  0.656447  0.828224  1
  Ga  Ga16  1  0.046496  0.171458  0.342916  1
  Ga  Ga17  1  0.546208  0.334849  0.167424  1
  Ga  Ga18  1  0.454116  0.171776  0.343553  1
  Ga  Ga19  1  0.546208  0.832576  0.665151  1
  Ni  Ni20  1  0.967437  0.666667  0.333333  1
  Ni  Ni21  1  0.028084  0.333333  0.666667  1
  Ni  Ni22  1  0.472523  0.333333  0.666667  1
  Rh  Rh23  1  0.523853  0.666667  0.333333  1
