# generated using pymatgen
data_Lu2Sc6Nb11Si16Ag
_symmetry_space_group_name_H-M   'P 1'
_cell_length_a   6.72162418
_cell_length_b   6.94651545
_cell_length_c   13.24270571
_cell_angle_alpha   90.11350993
_cell_angle_beta   90.01974389
_cell_angle_gamma   90.50681499
_symmetry_Int_Tables_number   1
_chemical_formula_structural   Lu2Sc6Nb11Si16Ag
_chemical_formula_sum   'Lu2 Sc6 Nb11 Si16 Ag1'
_cell_volume   618.30119854
_cell_formula_units_Z   1
loop_
 _symmetry_equiv_pos_site_id
 _symmetry_equiv_pos_as_xyz
  1  'x, y, z'
loop_
 _atom_site_type_symbol
 _atom_site_label
 _atom_site_symmetry_multiplicity
 _atom_site_fract_x
 _atom_site_fract_y
 _atom_site_fract_z
 _atom_site_occupancy
  Lu  Lu0  1  0.501923  0.671803  0.590595  1
  Lu  Lu1  1  0.003371  0.827137  0.908598  1
  Sc  Sc2  1  0.495803  0.326606  0.097330  1
  Sc  Sc3  1  0.000359  0.172553  0.400465  1
  Sc  Sc4  1  0.495239  0.326305  0.402531  1
  Sc  Sc5  1  0.999190  0.173123  0.100296  1
  Sc  Sc6  1  0.499356  0.674729  0.908199  1
  Sc  Sc7  1  0.005055  0.827430  0.592477  1
  Nb  Nb8  1  0.667763  0.173966  0.625403  1
  Nb  Nb9  1  0.156820  0.322591  0.875193  1
  Nb  Nb10  1  0.336799  0.826878  0.125101  1
  Nb  Nb11  1  0.836182  0.675484  0.375661  1
  Nb  Nb12  1  0.336035  0.828283  0.373902  1
  Nb  Nb13  1  0.834953  0.674144  0.124841  1
  Nb  Nb14  1  0.669398  0.173899  0.874661  1
  Nb  Nb15  1  0.157466  0.323628  0.625298  1
  Nb  Nb16  1  0.337867  0.000413  0.749765  1
  Nb  Nb17  1  0.161059  0.505724  0.249815  1
  Nb  Nb18  1  0.662486  0.996355  0.250034  1
  Si  Si19  1  0.669741  0.971010  0.458812  1
  Si  Si20  1  0.168455  0.530158  0.040872  1
  Si  Si21  1  0.339044  0.036895  0.960785  1
  Si  Si22  1  0.835380  0.455140  0.529863  1
  Si  Si23  1  0.332939  0.037121  0.538869  1
  Si  Si24  1  0.829314  0.455191  0.970442  1
  Si  Si25  1  0.668495  0.968784  0.041101  1
  Si  Si26  1  0.167355  0.532831  0.459201  1
  Si  Si27  1  0.458197  0.375556  0.751204  1
  Si  Si28  1  0.963402  0.109853  0.748723  1
  Si  Si29  1  0.538174  0.614890  0.250141  1
  Si  Si30  1  0.039630  0.885343  0.249711  1
  Si  Si31  1  0.702376  0.873332  0.750111  1
  Si  Si32  1  0.214801  0.630014  0.750372  1
  Si  Si33  1  0.295629  0.137364  0.249726  1
  Si  Si34  1  0.791578  0.364844  0.250426  1
  Ag  Ag35  1  0.828362  0.520625  0.749480  1
