# generated using pymatgen
data_Y3Tm2Lu7Ru4
_symmetry_space_group_name_H-M   'P 1'
_cell_length_a   6.20919441
_cell_length_b   7.30392728
_cell_length_c   8.94299511
_cell_angle_alpha   89.99052569
_cell_angle_beta   90.01532298
_cell_angle_gamma   89.88766254
_symmetry_Int_Tables_number   1
_chemical_formula_structural   Y3Tm2Lu7Ru4
_chemical_formula_sum   'Y3 Tm2 Lu7 Ru4'
_cell_volume   405.57748260
_cell_formula_units_Z   1
loop_
 _symmetry_equiv_pos_site_id
 _symmetry_equiv_pos_as_xyz
  1  'x, y, z'
loop_
 _atom_site_type_symbol
 _atom_site_label
 _atom_site_symmetry_multiplicity
 _atom_site_fract_x
 _atom_site_fract_y
 _atom_site_fract_z
 _atom_site_occupancy
  Y  Y0  1  0.871203  0.539973  0.250096  1
  Y  Y1  1  0.629621  0.040578  0.250053  1
  Y  Y2  1  0.129347  0.459952  0.749895  1
  Tm  Tm3  1  0.335083  0.676585  0.063412  1
  Tm  Tm4  1  0.369297  0.958721  0.749908  1
  Lu  Lu5  1  0.166181  0.174023  0.436839  1
  Lu  Lu6  1  0.664549  0.323739  0.564565  1
  Lu  Lu7  1  0.833167  0.825248  0.935288  1
  Lu  Lu8  1  0.664619  0.323648  0.935365  1
  Lu  Lu9  1  0.833110  0.825213  0.564667  1
  Lu  Lu10  1  0.335117  0.676495  0.436653  1
  Lu  Lu11  1  0.166133  0.173974  0.063179  1
  Ru  Ru12  1  0.044940  0.885163  0.250123  1
  Ru  Ru13  1  0.454738  0.384661  0.250083  1
  Ru  Ru14  1  0.960019  0.114122  0.750030  1
  Ru  Ru15  1  0.542877  0.617904  0.749845  1
