# generated using pymatgen
data_Ca20Ga11Hg
_symmetry_space_group_name_H-M   'P 1'
_cell_length_a   8.05702300
_cell_length_b   8.05702300
_cell_length_c   14.58507200
_cell_angle_alpha   90.00000000
_cell_angle_beta   90.00000000
_cell_angle_gamma   90.00000000
_symmetry_Int_Tables_number   1
_chemical_formula_structural   Ca20Ga11Hg
_chemical_formula_sum   'Ca20 Ga11 Hg1'
_cell_volume   946.79898612
_cell_formula_units_Z   1
loop_
 _symmetry_equiv_pos_site_id
 _symmetry_equiv_pos_as_xyz
  1  'x, y, z'
loop_
 _atom_site_type_symbol
 _atom_site_label
 _atom_site_symmetry_multiplicity
 _atom_site_fract_x
 _atom_site_fract_y
 _atom_site_fract_z
 _atom_site_occupancy
  Ca  Ca0  1  0.677211  0.171767  0.104296  1
  Ca  Ca1  1  0.177870  0.670521  0.606506  1
  Ca  Ca2  1  0.322789  0.828233  0.104296  1
  Ca  Ca3  1  0.822130  0.329479  0.606506  1
  Ca  Ca4  1  0.828233  0.677211  0.104296  1
  Ca  Ca5  1  0.329479  0.177870  0.606506  1
  Ca  Ca6  1  0.171767  0.322789  0.104296  1
  Ca  Ca7  1  0.670521  0.822130  0.606506  1
  Ca  Ca8  1  0.828233  0.322789  0.895704  1
  Ca  Ca9  1  0.329479  0.822130  0.393494  1
  Ca  Ca10  1  0.171767  0.677211  0.895704  1
  Ca  Ca11  1  0.670521  0.177870  0.393494  1
  Ca  Ca12  1  0.677211  0.828233  0.895704  1
  Ca  Ca13  1  0.177870  0.329479  0.393494  1
  Ca  Ca14  1  0.322789  0.171767  0.895704  1
  Ca  Ca15  1  0.822130  0.670521  0.393494  1
  Ca  Ca16  1  0.500000  0.500000  0.754724  1
  Ca  Ca17  1  0.000000  0.000000  0.248599  1
  Ca  Ca18  1  0.000000  0.000000  0.751401  1
  Ca  Ca19  1  0.500000  0.500000  0.245276  1
  Ga  Ga20  1  0.500000  0.500000  0.500000  1
  Ga  Ga21  1  0.500000  0.500000  0.000000  1
  Ga  Ga22  1  0.612151  0.112527  0.751325  1
  Ga  Ga23  1  0.112527  0.612151  0.248675  1
  Ga  Ga24  1  0.887473  0.387849  0.248675  1
  Ga  Ga25  1  0.387849  0.887473  0.751325  1
  Ga  Ga26  1  0.887473  0.612151  0.751325  1
  Ga  Ga27  1  0.387849  0.112527  0.248675  1
  Ga  Ga28  1  0.112527  0.387849  0.751325  1
  Ga  Ga29  1  0.612151  0.887473  0.248675  1
  Ga  Ga30  1  0.000000  0.000000  0.000000  1
  Hg  Hg31  1  0.000000  0.000000  0.500000  1
