# generated using pymatgen
data_Yb2PaBi7
_symmetry_space_group_name_H-M   'P 1'
_cell_length_a   14.32601951
_cell_length_b   14.32602038
_cell_length_c   4.35480900
_cell_angle_alpha   90.00000000
_cell_angle_beta   90.00000000
_cell_angle_gamma   159.94672130
_symmetry_Int_Tables_number   1
_chemical_formula_structural   Yb2PaBi7
_chemical_formula_sum   'Yb2 Pa1 Bi7'
_cell_volume   306.46427366
_cell_formula_units_Z   1
loop_
 _symmetry_equiv_pos_site_id
 _symmetry_equiv_pos_as_xyz
  1  'x, y, z'
loop_
 _atom_site_type_symbol
 _atom_site_label
 _atom_site_symmetry_multiplicity
 _atom_site_fract_x
 _atom_site_fract_y
 _atom_site_fract_z
 _atom_site_occupancy
  Yb  Yb0  1  0.811104  0.188896  0.000000  1
  Yb  Yb1  1  0.188896  0.811104  0.000000  1
  Pa  Pa2  1  0.500000  0.500000  0.500000  1
  Bi  Bi3  1  0.000000  0.000000  0.000000  1
  Bi  Bi4  1  0.596741  0.403259  0.000000  1
  Bi  Bi5  1  0.403259  0.596741  0.000000  1
  Bi  Bi6  1  0.904259  0.095740  0.500000  1
  Bi  Bi7  1  0.718557  0.281443  0.500000  1
  Bi  Bi8  1  0.281443  0.718557  0.500000  1
  Bi  Bi9  1  0.095740  0.904259  0.500000  1
