# generated using pymatgen
data_LiHo3TlIn3Ir
_symmetry_space_group_name_H-M   'P 1'
_cell_length_a   8.12468700
_cell_length_b   8.12468696
_cell_length_c   3.66306400
_cell_angle_alpha   90.00000000
_cell_angle_beta   90.00000000
_cell_angle_gamma   120.00000425
_symmetry_Int_Tables_number   1
_chemical_formula_structural   LiHo3TlIn3Ir
_chemical_formula_sum   'Li1 Ho3 Tl1 In3 Ir1'
_cell_volume   209.40565000
_cell_formula_units_Z   1
loop_
 _symmetry_equiv_pos_site_id
 _symmetry_equiv_pos_as_xyz
  1  'x, y, z'
loop_
 _atom_site_type_symbol
 _atom_site_label
 _atom_site_symmetry_multiplicity
 _atom_site_fract_x
 _atom_site_fract_y
 _atom_site_fract_z
 _atom_site_occupancy
  Li  Li0  1  0.000000  0.000000  0.500000  1
  Ho  Ho1  1  0.381665  0.958215  0.500000  1
  Ho  Ho2  1  0.041785  0.423450  0.500000  1
  Ho  Ho3  1  0.576550  0.618335  0.500000  1
  Tl  Tl4  1  0.666667  0.333333  0.000000  1
  In  In5  1  0.740660  0.000502  0.000000  1
  In  In6  1  0.999498  0.740157  0.000000  1
  In  In7  1  0.259843  0.259340  0.000000  1
  Ir  Ir8  1  0.333333  0.666667  0.000000  1
