# generated using pymatgen
data_La3Pr5GePd24
_symmetry_space_group_name_H-M   'P 1'
_cell_length_a   8.53879354
_cell_length_b   8.53879354
_cell_length_c   8.53841212
_cell_angle_alpha   89.98628203
_cell_angle_beta   89.98628203
_cell_angle_gamma   89.96144320
_symmetry_Int_Tables_number   1
_chemical_formula_structural   La3Pr5GePd24
_chemical_formula_sum   'La3 Pr5 Ge1 Pd24'
_cell_volume   622.54394861
_cell_formula_units_Z   1
loop_
 _symmetry_equiv_pos_site_id
 _symmetry_equiv_pos_as_xyz
  1  'x, y, z'
loop_
 _atom_site_type_symbol
 _atom_site_label
 _atom_site_symmetry_multiplicity
 _atom_site_fract_x
 _atom_site_fract_y
 _atom_site_fract_z
 _atom_site_occupancy
  La  La0  1  0.253319  0.253319  0.253297  1
  La  La1  1  0.746731  0.746731  0.746857  1
  La  La2  1  0.746701  0.746701  0.253167  1
  Pr  Pr3  1  0.747063  0.252820  0.747102  1
  Pr  Pr4  1  0.252893  0.252893  0.747260  1
  Pr  Pr5  1  0.252748  0.747276  0.252832  1
  Pr  Pr6  1  0.252820  0.747063  0.747102  1
  Pr  Pr7  1  0.747276  0.252748  0.252832  1
  Ge  Ge8  1  0.000102  0.000102  0.999953  1
  Pd  Pd9  1  0.260441  0.499953  0.000055  1
  Pd  Pd10  1  0.739553  0.500053  0.999951  1
  Pd  Pd11  1  0.000125  0.260437  0.499997  1
  Pd  Pd12  1  0.499953  0.260441  0.000055  1
  Pd  Pd13  1  0.999852  0.739571  0.500027  1
  Pd  Pd14  1  0.500053  0.739553  0.999951  1
  Pd  Pd15  1  0.499983  0.000048  0.260432  1
  Pd  Pd16  1  0.260437  0.000125  0.499997  1
  Pd  Pd17  1  0.500012  0.999946  0.739557  1
  Pd  Pd18  1  0.739571  0.999852  0.500027  1
  Pd  Pd19  1  0.000048  0.499983  0.260432  1
  Pd  Pd20  1  0.999946  0.500012  0.739557  1
  Pd  Pd21  1  0.253338  0.499910  0.499956  1
  Pd  Pd22  1  0.746663  0.500100  0.500028  1
  Pd  Pd23  1  0.499910  0.253338  0.499956  1
  Pd  Pd24  1  0.500100  0.746663  0.500028  1
  Pd  Pd25  1  0.499973  0.499973  0.253319  1
  Pd  Pd26  1  0.500040  0.500040  0.746683  1
  Pd  Pd27  1  0.291412  0.999849  0.999799  1
  Pd  Pd28  1  0.708506  0.000361  0.999956  1
  Pd  Pd29  1  0.999849  0.291412  0.999799  1
  Pd  Pd30  1  0.000361  0.708506  0.999956  1
  Pd  Pd31  1  0.000034  0.000034  0.291485  1
  Pd  Pd32  1  0.000190  0.000190  0.708593  1
