# generated using pymatgen
data_AcCd11
_symmetry_space_group_name_H-M   'P 1'
_cell_length_a   9.59161000
_cell_length_b   9.59161000
_cell_length_c   9.59161000
_cell_angle_alpha   90.00000000
_cell_angle_beta   90.00000000
_cell_angle_gamma   90.00000000
_symmetry_Int_Tables_number   1
_chemical_formula_structural   AcCd11
_chemical_formula_sum   'Ac3 Cd33'
_cell_volume   882.41835950
_cell_formula_units_Z   3
loop_
 _symmetry_equiv_pos_site_id
 _symmetry_equiv_pos_as_xyz
  1  'x, y, z'
loop_
 _atom_site_type_symbol
 _atom_site_label
 _atom_site_symmetry_multiplicity
 _atom_site_fract_x
 _atom_site_fract_y
 _atom_site_fract_z
 _atom_site_occupancy
  Ac  Ac0  1  0.500000  0.000000  0.000000  1
  Ac  Ac1  1  0.000000  0.000000  0.500000  1
  Ac  Ac2  1  0.000000  0.500000  0.000000  1
  Cd  Cd3  1  0.500000  0.500000  0.500000  1
  Cd  Cd4  1  0.156367  0.156367  0.843633  1
  Cd  Cd5  1  0.156367  0.843633  0.156367  1
  Cd  Cd6  1  0.843633  0.156367  0.156367  1
  Cd  Cd7  1  0.843633  0.843633  0.843633  1
  Cd  Cd8  1  0.843633  0.843633  0.156367  1
  Cd  Cd9  1  0.843633  0.156367  0.843633  1
  Cd  Cd10  1  0.156367  0.843633  0.843633  1
  Cd  Cd11  1  0.156367  0.156367  0.156367  1
  Cd  Cd12  1  0.000000  0.344771  0.655229  1
  Cd  Cd13  1  0.344771  0.344771  0.000000  1
  Cd  Cd14  1  0.344771  0.000000  0.655229  1
  Cd  Cd15  1  0.000000  0.655229  0.344771  1
  Cd  Cd16  1  0.344771  0.655229  0.000000  1
  Cd  Cd17  1  0.344771  0.000000  0.344771  1
  Cd  Cd18  1  0.000000  0.344771  0.344771  1
  Cd  Cd19  1  0.655229  0.344771  0.000000  1
  Cd  Cd20  1  0.655229  0.000000  0.344771  1
  Cd  Cd21  1  0.000000  0.655229  0.655229  1
  Cd  Cd22  1  0.655229  0.655229  0.000000  1
  Cd  Cd23  1  0.655229  0.000000  0.655229  1
  Cd  Cd24  1  0.500000  0.265990  0.734010  1
  Cd  Cd25  1  0.265990  0.265990  0.500000  1
  Cd  Cd26  1  0.265990  0.500000  0.734010  1
  Cd  Cd27  1  0.500000  0.734010  0.265990  1
  Cd  Cd28  1  0.265990  0.734010  0.500000  1
  Cd  Cd29  1  0.265990  0.500000  0.265990  1
  Cd  Cd30  1  0.500000  0.265990  0.265990  1
  Cd  Cd31  1  0.734010  0.265990  0.500000  1
  Cd  Cd32  1  0.734010  0.500000  0.265990  1
  Cd  Cd33  1  0.500000  0.734010  0.734010  1
  Cd  Cd34  1  0.734010  0.734010  0.500000  1
  Cd  Cd35  1  0.734010  0.500000  0.734010  1
