# generated using pymatgen
data_Tm12Co2BiRu3
_symmetry_space_group_name_H-M   'P 1'
_cell_length_a   8.25379758
_cell_length_b   8.25379759
_cell_length_c   8.25379735
_cell_angle_alpha   109.96839131
_cell_angle_beta   112.73668309
_cell_angle_gamma   105.78341656
_symmetry_Int_Tables_number   1
_chemical_formula_structural   Tm12Co2BiRu3
_chemical_formula_sum   'Tm12 Co2 Bi1 Ru3'
_cell_volume   431.24832073
_cell_formula_units_Z   1
loop_
 _symmetry_equiv_pos_site_id
 _symmetry_equiv_pos_as_xyz
  1  'x, y, z'
loop_
 _atom_site_type_symbol
 _atom_site_label
 _atom_site_symmetry_multiplicity
 _atom_site_fract_x
 _atom_site_fract_y
 _atom_site_fract_z
 _atom_site_occupancy
  Tm  Tm0  1  0.275572  0.177893  0.453465  1
  Tm  Tm1  1  0.724428  0.822107  0.546535  1
  Tm  Tm2  1  0.275572  0.822107  0.097678  1
  Tm  Tm3  1  0.724428  0.177893  0.902322  1
  Tm  Tm4  1  0.637526  0.318943  0.318582  1
  Tm  Tm5  1  0.362474  0.681057  0.681418  1
  Tm  Tm6  1  0.000362  0.318943  0.681418  1
  Tm  Tm7  1  0.999638  0.681057  0.318582  1
  Tm  Tm8  1  0.226929  0.415986  0.189059  1
  Tm  Tm9  1  0.773071  0.584014  0.810941  1
  Tm  Tm10  1  0.226929  0.037870  0.810941  1
  Tm  Tm11  1  0.773071  0.962130  0.189059  1
  Co  Co12  1  0.389349  0.889349  0.500000  1
  Co  Co13  1  0.610651  0.110651  0.500000  1
  Bi  Bi14  1  0.500000  0.500000  0.000000  1
  Ru  Ru15  1  0.000000  0.338804  0.338804  1
  Ru  Ru16  1  0.000000  0.661196  0.661196  1
  Ru  Ru17  1  0.000000  0.000000  0.000000  1
