# generated using pymatgen
data_Li4Dy3HoSi6
_symmetry_space_group_name_H-M   'P 1'
_cell_length_a   9.26708006
_cell_length_b   9.26708016
_cell_length_c   6.67594200
_cell_angle_alpha   90.00000000
_cell_angle_beta   90.00000000
_cell_angle_gamma   153.49216660
_symmetry_Int_Tables_number   1
_chemical_formula_structural   Li4Dy3HoSi6
_chemical_formula_sum   'Li4 Dy3 Ho1 Si6'
_cell_volume   255.88504019
_cell_formula_units_Z   1
loop_
 _symmetry_equiv_pos_site_id
 _symmetry_equiv_pos_as_xyz
  1  'x, y, z'
loop_
 _atom_site_type_symbol
 _atom_site_label
 _atom_site_symmetry_multiplicity
 _atom_site_fract_x
 _atom_site_fract_y
 _atom_site_fract_z
 _atom_site_occupancy
  Li  Li0  1  0.809819  0.190181  0.559125  1
  Li  Li1  1  0.190123  0.809877  0.441018  1
  Li  Li2  1  0.190123  0.809877  0.058982  1
  Li  Li3  1  0.809819  0.190181  0.940875  1
  Dy  Dy4  1  0.552169  0.447831  0.250000  1
  Dy  Dy5  1  0.447924  0.552076  0.750000  1
  Dy  Dy6  1  0.344218  0.655782  0.250000  1
  Ho  Ho7  1  0.655715  0.344285  0.750000  1
  Si  Si8  1  0.940477  0.059523  0.072261  1
  Si  Si9  1  0.059636  0.940364  0.927589  1
  Si  Si10  1  0.059636  0.940364  0.572411  1
  Si  Si11  1  0.940477  0.059523  0.427739  1
  Si  Si12  1  0.719654  0.280346  0.250000  1
  Si  Si13  1  0.280213  0.719787  0.750000  1
