# generated using pymatgen
data_YThSn5Rh3
_symmetry_space_group_name_H-M   'P 1'
_cell_length_a   13.54602964
_cell_length_b   13.54602946
_cell_length_c   7.31584779
_cell_angle_alpha   90.32350254
_cell_angle_beta   89.67649774
_cell_angle_gamma   160.93469636
_symmetry_Int_Tables_number   1
_chemical_formula_structural   YThSn5Rh3
_chemical_formula_sum   'Y2 Th2 Sn10 Rh6'
_cell_volume   438.48870094
_cell_formula_units_Z   2
loop_
 _symmetry_equiv_pos_site_id
 _symmetry_equiv_pos_as_xyz
  1  'x, y, z'
loop_
 _atom_site_type_symbol
 _atom_site_label
 _atom_site_symmetry_multiplicity
 _atom_site_fract_x
 _atom_site_fract_y
 _atom_site_fract_z
 _atom_site_occupancy
  Y  Y0  1  0.524475  0.475525  0.736757  1
  Y  Y1  1  0.828337  0.171663  0.755467  1
  Th  Th2  1  0.474951  0.525049  0.237355  1
  Th  Th3  1  0.171932  0.828068  0.258564  1
  Sn  Sn4  1  0.705107  0.294893  0.553186  1
  Sn  Sn5  1  0.596416  0.403584  0.106359  1
  Sn  Sn6  1  0.048796  0.951204  0.404163  1
  Sn  Sn7  1  0.952604  0.047396  0.892293  1
  Sn  Sn8  1  0.710480  0.289520  0.974118  1
  Sn  Sn9  1  0.290876  0.709124  0.479913  1
  Sn  Sn10  1  0.295836  0.704164  0.047634  1
  Sn  Sn11  1  0.877572  0.122428  0.231344  1
  Sn  Sn12  1  0.120341  0.879659  0.735763  1
  Sn  Sn13  1  0.402480  0.597520  0.615808  1
  Rh  Rh14  1  0.395866  0.604134  0.987517  1
  Rh  Rh15  1  0.775690  0.224310  0.267914  1
  Rh  Rh16  1  0.223333  0.776667  0.766327  1
  Rh  Rh17  1  0.049999  0.950001  0.019746  1
  Rh  Rh18  1  0.606230  0.393770  0.479954  1
  Rh  Rh19  1  0.948678  0.051322  0.513618  1
