# generated using pymatgen
data_Y2Zn2Ga7Pt3
_symmetry_space_group_name_H-M   'P 1'
_cell_length_a   7.59192096
_cell_length_b   7.63116499
_cell_length_c   9.53938400
_cell_angle_alpha   90.00000000
_cell_angle_beta   90.00000000
_cell_angle_gamma   119.49527413
_symmetry_Int_Tables_number   1
_chemical_formula_structural   Y2Zn2Ga7Pt3
_chemical_formula_sum   'Y4 Zn4 Ga14 Pt6'
_cell_volume   481.03856272
_cell_formula_units_Z   2
loop_
 _symmetry_equiv_pos_site_id
 _symmetry_equiv_pos_as_xyz
  1  'x, y, z'
loop_
 _atom_site_type_symbol
 _atom_site_label
 _atom_site_symmetry_multiplicity
 _atom_site_fract_x
 _atom_site_fract_y
 _atom_site_fract_z
 _atom_site_occupancy
  Y  Y0  1  0.996579  0.670495  0.250000  1
  Y  Y1  1  0.003421  0.329505  0.750000  1
  Y  Y2  1  0.673425  0.998461  0.250000  1
  Y  Y3  1  0.326575  0.001539  0.750000  1
  Zn  Zn4  1  0.139032  0.138621  0.250000  1
  Zn  Zn5  1  0.860968  0.861379  0.750000  1
  Zn  Zn6  1  0.342331  0.544732  0.250000  1
  Zn  Zn7  1  0.657669  0.455268  0.750000  1
  Ga  Ga8  1  0.008089  0.336706  0.086712  1
  Ga  Ga9  1  0.991911  0.663294  0.913288  1
  Ga  Ga10  1  0.991911  0.663294  0.586712  1
  Ga  Ga11  1  0.332836  0.000032  0.414671  1
  Ga  Ga12  1  0.008089  0.336706  0.413288  1
  Ga  Ga13  1  0.667164  0.999968  0.585329  1
  Ga  Ga14  1  0.667164  0.999968  0.914671  1
  Ga  Ga15  1  0.332836  0.000032  0.085329  1
  Ga  Ga16  1  0.335881  0.332424  0.566600  1
  Ga  Ga17  1  0.664119  0.667576  0.433400  1
  Ga  Ga18  1  0.664119  0.667576  0.066600  1
  Ga  Ga19  1  0.335881  0.332424  0.933400  1
  Ga  Ga20  1  0.537050  0.342274  0.250000  1
  Ga  Ga21  1  0.462950  0.657726  0.750000  1
  Pt  Pt22  1  0.674837  0.325936  0.004068  1
  Pt  Pt23  1  0.325163  0.674064  0.995932  1
  Pt  Pt24  1  0.325163  0.674064  0.504068  1
  Pt  Pt25  1  0.674837  0.325936  0.495932  1
  Pt  Pt26  1  0.000000  0.000000  0.000000  1
  Pt  Pt27  1  0.000000  0.000000  0.500000  1
