# generated using pymatgen
data_Dy3Tm13In3HgRh4
_symmetry_space_group_name_H-M   'P 1'
_cell_length_a   9.53666263
_cell_length_b   9.52742049
_cell_length_c   9.53178359
_cell_angle_alpha   60.08888174
_cell_angle_beta   60.03775545
_cell_angle_gamma   60.07519502
_symmetry_Int_Tables_number   1
_chemical_formula_structural   Dy3Tm13In3HgRh4
_chemical_formula_sum   'Dy3 Tm13 In3 Hg1 Rh4'
_cell_volume   613.32745625
_cell_formula_units_Z   1
loop_
 _symmetry_equiv_pos_site_id
 _symmetry_equiv_pos_as_xyz
  1  'x, y, z'
loop_
 _atom_site_type_symbol
 _atom_site_label
 _atom_site_symmetry_multiplicity
 _atom_site_fract_x
 _atom_site_fract_y
 _atom_site_fract_z
 _atom_site_occupancy
  Dy  Dy0  1  0.060958  0.061038  0.438907  1
  Dy  Dy1  1  0.435894  0.067038  0.434791  1
  Dy  Dy2  1  0.062543  0.438434  0.061600  1
  Tm  Tm3  1  0.052141  0.647678  0.648596  1
  Tm  Tm4  1  0.437430  0.436937  0.064613  1
  Tm  Tm5  1  0.647732  0.051423  0.648091  1
  Tm  Tm6  1  0.188832  0.812948  0.188630  1
  Tm  Tm7  1  0.188201  0.188445  0.814009  1
  Tm  Tm8  1  0.810563  0.810512  0.190546  1
  Tm  Tm9  1  0.440189  0.060455  0.059507  1
  Tm  Tm10  1  0.813515  0.188554  0.188205  1
  Tm  Tm11  1  0.064218  0.438314  0.437507  1
  Tm  Tm12  1  0.809883  0.190449  0.811242  1
  Tm  Tm13  1  0.190633  0.809967  0.811361  1
  Tm  Tm14  1  0.648247  0.647834  0.051686  1
  Tm  Tm15  1  0.651806  0.652816  0.652305  1
  In  In16  1  0.746994  0.418095  0.418092  1
  In  In17  1  0.418604  0.746766  0.417487  1
  In  In18  1  0.418338  0.417168  0.747728  1
  Hg  Hg19  1  0.412985  0.414846  0.413412  1
  Rh  Rh20  1  0.859501  0.857639  0.426805  1
  Rh  Rh21  1  0.855900  0.857193  0.856978  1
  Rh  Rh22  1  0.426771  0.858314  0.859731  1
  Rh  Rh23  1  0.858119  0.427134  0.858170  1
