# generated using pymatgen
data_YErFe14(SiC)3
_symmetry_space_group_name_H-M   'P 1'
_cell_length_a   6.43644068
_cell_length_b   6.43644174
_cell_length_c   6.43644060
_cell_angle_alpha   83.64974291
_cell_angle_beta   83.64974780
_cell_angle_gamma   83.64975633
_symmetry_Int_Tables_number   1
_chemical_formula_structural   YErFe14(SiC)3
_chemical_formula_sum   'Y1 Er1 Fe14 Si3 C3'
_cell_volume   262.07591057
_cell_formula_units_Z   1
loop_
 _symmetry_equiv_pos_site_id
 _symmetry_equiv_pos_as_xyz
  1  'x, y, z'
loop_
 _atom_site_type_symbol
 _atom_site_label
 _atom_site_symmetry_multiplicity
 _atom_site_fract_x
 _atom_site_fract_y
 _atom_site_fract_z
 _atom_site_occupancy
  Y  Y0  1  0.652088  0.652088  0.652088  1
  Er  Er1  1  0.347105  0.347105  0.347105  1
  Fe  Fe2  1  0.715398  0.284120  0.000458  1
  Fe  Fe3  1  0.000458  0.715398  0.284120  1
  Fe  Fe4  1  0.284120  0.000458  0.715398  1
  Fe  Fe5  1  0.000458  0.284120  0.715398  1
  Fe  Fe6  1  0.715398  0.000458  0.284120  1
  Fe  Fe7  1  0.284120  0.715398  0.000458  1
  Fe  Fe8  1  0.340097  0.863168  0.340097  1
  Fe  Fe9  1  0.340097  0.340097  0.863168  1
  Fe  Fe10  1  0.863168  0.340097  0.340097  1
  Fe  Fe11  1  0.659379  0.138064  0.659379  1
  Fe  Fe12  1  0.659379  0.659379  0.138064  1
  Fe  Fe13  1  0.138064  0.659379  0.659379  1
  Fe  Fe14  1  0.903175  0.903175  0.903175  1
  Fe  Fe15  1  0.097644  0.097644  0.097644  1
  Si  Si16  1  0.999654  0.999654  0.500093  1
  Si  Si17  1  0.500093  0.999654  0.999654  1
  Si  Si18  1  0.999654  0.500093  0.999654  1
  C  C19  1  0.499170  0.499170  0.002110  1
  C  C20  1  0.002110  0.499170  0.499170  1
  C  C21  1  0.499170  0.002110  0.499170  1
