# generated using pymatgen
data_YCrFe4P3
_symmetry_space_group_name_H-M   'P 1'
_cell_length_a   3.66151300
_cell_length_b   10.38144100
_cell_length_c   11.87593200
_cell_angle_alpha   90.00000000
_cell_angle_beta   90.00000000
_cell_angle_gamma   90.00000000
_symmetry_Int_Tables_number   1
_chemical_formula_structural   YCrFe4P3
_chemical_formula_sum   'Y4 Cr4 Fe16 P12'
_cell_volume   451.42532850
_cell_formula_units_Z   4
loop_
 _symmetry_equiv_pos_site_id
 _symmetry_equiv_pos_as_xyz
  1  'x, y, z'
loop_
 _atom_site_type_symbol
 _atom_site_label
 _atom_site_symmetry_multiplicity
 _atom_site_fract_x
 _atom_site_fract_y
 _atom_site_fract_z
 _atom_site_occupancy
  Y  Y0  1  0.250000  0.581586  0.704785  1
  Y  Y1  1  0.250000  0.918414  0.204785  1
  Y  Y2  1  0.750000  0.418414  0.295215  1
  Y  Y3  1  0.750000  0.081586  0.795215  1
  Cr  Cr4  1  0.250000  0.702801  0.989148  1
  Cr  Cr5  1  0.250000  0.797199  0.489148  1
  Cr  Cr6  1  0.750000  0.297199  0.010852  1
  Cr  Cr7  1  0.750000  0.202801  0.510852  1
  Fe  Fe8  1  0.250000  0.405436  0.491047  1
  Fe  Fe9  1  0.250000  0.094564  0.991047  1
  Fe  Fe10  1  0.750000  0.594564  0.508953  1
  Fe  Fe11  1  0.750000  0.905436  0.008953  1
  Fe  Fe12  1  0.250000  0.218071  0.176055  1
  Fe  Fe13  1  0.250000  0.281929  0.676055  1
  Fe  Fe14  1  0.750000  0.781929  0.823945  1
  Fe  Fe15  1  0.750000  0.718071  0.323945  1
  Fe  Fe16  1  0.250000  0.874863  0.701641  1
  Fe  Fe17  1  0.250000  0.625137  0.201641  1
  Fe  Fe18  1  0.750000  0.125137  0.298359  1
  Fe  Fe19  1  0.750000  0.374863  0.798359  1
  Fe  Fe20  1  0.250000  0.463706  0.932809  1
  Fe  Fe21  1  0.250000  0.036294  0.432809  1
  Fe  Fe22  1  0.750000  0.536294  0.067191  1
  Fe  Fe23  1  0.750000  0.963706  0.567191  1
  P  P24  1  0.250000  0.422896  0.112618  1
  P  P25  1  0.250000  0.077104  0.612618  1
  P  P26  1  0.750000  0.577104  0.887382  1
  P  P27  1  0.750000  0.922896  0.387382  1
  P  P28  1  0.250000  0.265582  0.871188  1
  P  P29  1  0.250000  0.234418  0.371188  1
  P  P30  1  0.750000  0.734418  0.128812  1
  P  P31  1  0.750000  0.765582  0.628812  1
  P  P32  1  0.250000  0.597485  0.394613  1
  P  P33  1  0.250000  0.902515  0.894613  1
  P  P34  1  0.750000  0.402515  0.605387  1
  P  P35  1  0.750000  0.097485  0.105387  1
