# generated using pymatgen
data_Dy5Er3(Tm3Sn4)4
_symmetry_space_group_name_H-M   'P 1'
_cell_length_a   7.96609514
_cell_length_b   8.09584303
_cell_length_c   15.29956324
_cell_angle_alpha   90.00628357
_cell_angle_beta   89.98051733
_cell_angle_gamma   89.99183168
_symmetry_Int_Tables_number   1
_chemical_formula_structural   Dy5Er3(Tm3Sn4)4
_chemical_formula_sum   'Dy5 Er3 Tm12 Sn16'
_cell_volume   986.70327336
_cell_formula_units_Z   1
loop_
 _symmetry_equiv_pos_site_id
 _symmetry_equiv_pos_as_xyz
  1  'x, y, z'
loop_
 _atom_site_type_symbol
 _atom_site_label
 _atom_site_symmetry_multiplicity
 _atom_site_fract_x
 _atom_site_fract_y
 _atom_site_fract_z
 _atom_site_occupancy
  Dy  Dy0  1  0.978497  0.820526  0.097241  1
  Dy  Dy1  1  0.478495  0.679421  0.097150  1
  Dy  Dy2  1  0.978479  0.820520  0.402804  1
  Dy  Dy3  1  0.521502  0.320546  0.597147  1
  Dy  Dy4  1  0.021479  0.179487  0.902823  1
  Er  Er5  1  0.521557  0.320511  0.902717  1
  Er  Er6  1  0.021577  0.179454  0.597307  1
  Er  Er7  1  0.478424  0.679440  0.402769  1
  Tm  Tm8  1  0.367557  0.836515  0.877406  1
  Tm  Tm9  1  0.867586  0.663518  0.622597  1
  Tm  Tm10  1  0.632408  0.163532  0.377410  1
  Tm  Tm11  1  0.132431  0.336445  0.122595  1
  Tm  Tm12  1  0.632390  0.163591  0.122553  1
  Tm  Tm13  1  0.132417  0.336480  0.377448  1
  Tm  Tm14  1  0.367584  0.836495  0.622557  1
  Tm  Tm15  1  0.867532  0.663468  0.877379  1
  Tm  Tm16  1  0.198221  0.503903  0.750025  1
  Tm  Tm17  1  0.698216  0.996110  0.749971  1
  Tm  Tm18  1  0.801726  0.496046  0.250076  1
  Tm  Tm19  1  0.301865  0.003969  0.250018  1
  Sn  Sn20  1  0.293710  0.036683  0.041717  1
  Sn  Sn21  1  0.793436  0.463522  0.458237  1
  Sn  Sn22  1  0.706557  0.963503  0.541747  1
  Sn  Sn23  1  0.206576  0.536471  0.958247  1
  Sn  Sn24  1  0.706151  0.963490  0.958273  1
  Sn  Sn25  1  0.206379  0.536628  0.541622  1
  Sn  Sn26  1  0.293613  0.036614  0.458354  1
  Sn  Sn27  1  0.793507  0.463205  0.041609  1
  Sn  Sn28  1  0.564556  0.620205  0.749996  1
  Sn  Sn29  1  0.064569  0.879769  0.749990  1
  Sn  Sn30  1  0.435410  0.379821  0.249999  1
  Sn  Sn31  1  0.935416  0.120321  0.250017  1
  Sn  Sn32  1  0.330483  0.147824  0.750091  1
  Sn  Sn33  1  0.830497  0.352167  0.749905  1
  Sn  Sn34  1  0.669443  0.852209  0.250141  1
  Sn  Sn35  1  0.169755  0.647593  0.250061  1
