# generated using pymatgen
data_YEr7Sc11Si16Os
_symmetry_space_group_name_H-M   'P 1'
_cell_length_a   6.97668651
_cell_length_b   7.32542419
_cell_length_c   13.80718549
_cell_angle_alpha   90.02790739
_cell_angle_beta   90.01267150
_cell_angle_gamma   90.14794189
_symmetry_Int_Tables_number   1
_chemical_formula_structural   YEr7Sc11Si16Os
_chemical_formula_sum   'Y1 Er7 Sc11 Si16 Os1'
_cell_volume   705.64397335
_cell_formula_units_Z   1
loop_
 _symmetry_equiv_pos_site_id
 _symmetry_equiv_pos_as_xyz
  1  'x, y, z'
loop_
 _atom_site_type_symbol
 _atom_site_label
 _atom_site_symmetry_multiplicity
 _atom_site_fract_x
 _atom_site_fract_y
 _atom_site_fract_z
 _atom_site_occupancy
  Y  Y0  1  0.012374  0.178448  0.092296  1
  Er  Er1  1  0.992784  0.818395  0.900805  1
  Er  Er2  1  0.489476  0.673237  0.903022  1
  Er  Er3  1  0.992831  0.818538  0.599065  1
  Er  Er4  1  0.511905  0.323126  0.094358  1
  Er  Er5  1  0.012540  0.178855  0.407425  1
  Er  Er6  1  0.511942  0.322939  0.405649  1
  Er  Er7  1  0.489422  0.673242  0.596893  1
  Sc  Sc8  1  0.843237  0.496618  0.250140  1
  Sc  Sc9  1  0.343849  0.003571  0.250132  1
  Sc  Sc10  1  0.655704  0.994584  0.749990  1
  Sc  Sc11  1  0.324481  0.175504  0.627461  1
  Sc  Sc12  1  0.673234  0.824988  0.374052  1
  Sc  Sc13  1  0.173579  0.673144  0.377048  1
  Sc  Sc14  1  0.673085  0.824763  0.126022  1
  Sc  Sc15  1  0.823268  0.331714  0.628708  1
  Sc  Sc16  1  0.324600  0.175406  0.872446  1
  Sc  Sc17  1  0.823118  0.331917  0.871173  1
  Sc  Sc18  1  0.173597  0.673011  0.122994  1
  Si  Si19  1  0.026383  0.116782  0.749985  1
  Si  Si20  1  0.975127  0.886755  0.250218  1
  Si  Si21  1  0.470755  0.613667  0.250024  1
  Si  Si22  1  0.511642  0.396630  0.749990  1
  Si  Si23  1  0.285191  0.856873  0.750019  1
  Si  Si24  1  0.717629  0.131658  0.250319  1
  Si  Si25  1  0.216608  0.369755  0.250405  1
  Si  Si26  1  0.794752  0.631721  0.749999  1
  Si  Si27  1  0.156330  0.466508  0.550079  1
  Si  Si28  1  0.842407  0.536180  0.464092  1
  Si  Si29  1  0.345253  0.964830  0.462866  1
  Si  Si30  1  0.842175  0.536949  0.035768  1
  Si  Si31  1  0.659237  0.034340  0.539689  1
  Si  Si32  1  0.156455  0.467090  0.949720  1
  Si  Si33  1  0.658891  0.034181  0.960222  1
  Si  Si34  1  0.346314  0.964276  0.036976  1
  Os  Os35  1  0.149829  0.499803  0.749948  1
