# generated using pymatgen
data_Gd16Zr4(Ir3Rh)3
_symmetry_space_group_name_H-M   'P 1'
_cell_length_a   10.84309800
_cell_length_b   10.84309800
_cell_length_c   6.28037700
_cell_angle_alpha   90.00000000
_cell_angle_beta   90.00000000
_cell_angle_gamma   90.00000000
_symmetry_Int_Tables_number   1
_chemical_formula_structural   Gd16Zr4(Ir3Rh)3
_chemical_formula_sum   'Gd16 Zr4 Ir9 Rh3'
_cell_volume   738.40134715
_cell_formula_units_Z   1
loop_
 _symmetry_equiv_pos_site_id
 _symmetry_equiv_pos_as_xyz
  1  'x, y, z'
loop_
 _atom_site_type_symbol
 _atom_site_label
 _atom_site_symmetry_multiplicity
 _atom_site_fract_x
 _atom_site_fract_y
 _atom_site_fract_z
 _atom_site_occupancy
  Gd  Gd0  1  0.287911  0.087568  0.375711  1
  Gd  Gd1  1  0.288436  0.911078  0.875424  1
  Gd  Gd2  1  0.711564  0.088922  0.875424  1
  Gd  Gd3  1  0.712089  0.912432  0.375711  1
  Gd  Gd4  1  0.588922  0.788436  0.875424  1
  Gd  Gd5  1  0.587568  0.212089  0.375711  1
  Gd  Gd6  1  0.412432  0.787911  0.375711  1
  Gd  Gd7  1  0.411078  0.211564  0.875424  1
  Gd  Gd8  1  0.210648  0.412381  0.622956  1
  Gd  Gd9  1  0.212142  0.588008  0.125612  1
  Gd  Gd10  1  0.787858  0.411992  0.125612  1
  Gd  Gd11  1  0.789352  0.587619  0.622956  1
  Gd  Gd12  1  0.911992  0.712142  0.125612  1
  Gd  Gd13  1  0.912381  0.289352  0.622956  1
  Gd  Gd14  1  0.087619  0.710648  0.622956  1
  Gd  Gd15  1  0.088008  0.287858  0.125612  1
  Zr  Zr16  1  0.000000  0.000000  0.500113  1
  Zr  Zr17  1  0.000000  0.000000  0.000012  1
  Zr  Zr18  1  0.500000  0.500000  0.000012  1
  Zr  Zr19  1  0.500000  0.500000  0.500113  1
  Ir  Ir20  1  0.854562  0.144163  0.250618  1
  Ir  Ir21  1  0.855867  0.855042  0.749548  1
  Ir  Ir22  1  0.144133  0.144958  0.749548  1
  Ir  Ir23  1  0.145438  0.855837  0.250618  1
  Ir  Ir24  1  0.644958  0.355867  0.749548  1
  Ir  Ir25  1  0.644163  0.645438  0.250618  1
  Ir  Ir26  1  0.355837  0.354562  0.250618  1
  Ir  Ir27  1  0.355042  0.644133  0.749548  1
  Ir  Ir28  1  0.000000  0.500000  0.375910  1
  Rh  Rh29  1  0.500000  0.000000  0.124676  1
  Rh  Rh30  1  0.500000  0.000000  0.620335  1
  Rh  Rh31  1  0.000000  0.500000  0.879348  1
