# generated using pymatgen
data_Y3ErNi13Ir
_symmetry_space_group_name_H-M   'P 1'
_cell_length_a   4.94671429
_cell_length_b   4.94671327
_cell_length_c   12.54045235
_cell_angle_alpha   78.62497672
_cell_angle_beta   78.62497824
_cell_angle_gamma   60.00000054
_symmetry_Int_Tables_number   1
_chemical_formula_structural   Y3ErNi13Ir
_chemical_formula_sum   'Y3 Er1 Ni13 Ir1'
_cell_volume   258.76897831
_cell_formula_units_Z   1
loop_
 _symmetry_equiv_pos_site_id
 _symmetry_equiv_pos_as_xyz
  1  'x, y, z'
loop_
 _atom_site_type_symbol
 _atom_site_label
 _atom_site_symmetry_multiplicity
 _atom_site_fract_x
 _atom_site_fract_y
 _atom_site_fract_z
 _atom_site_occupancy
  Y  Y0  1  0.949739  0.949739  0.150785  1
  Y  Y1  1  0.050414  0.050414  0.848758  1
  Y  Y2  1  0.853219  0.853219  0.440345  1
  Er  Er3  1  0.146438  0.146438  0.560686  1
  Ni  Ni4  1  0.720868  0.720868  0.837399  1
  Ni  Ni5  1  0.279177  0.279177  0.162467  1
  Ni  Ni6  1  0.612615  0.612615  0.162153  1
  Ni  Ni7  1  0.387354  0.387354  0.837939  1
  Ni  Ni8  1  0.999822  0.500070  0.000037  1
  Ni  Ni9  1  0.500070  0.999822  0.000037  1
  Ni  Ni10  1  0.500070  0.500070  0.000037  1
  Ni  Ni11  1  0.390818  0.390818  0.323854  1
  Ni  Ni12  1  0.894508  0.390818  0.323854  1
  Ni  Ni13  1  0.390818  0.894508  0.323854  1
  Ni  Ni14  1  0.609304  0.609304  0.675808  1
  Ni  Ni15  1  0.105584  0.609304  0.675808  1
  Ni  Ni16  1  0.609304  0.105584  0.675808  1
  Ir  Ir17  1  0.499876  0.499876  0.500373  1
