# generated using pymatgen
data_Dy3YTm4(ReC2)4
_symmetry_space_group_name_H-M   'P 1'
_cell_length_a   5.07574900
_cell_length_b   6.56426600
_cell_length_c   9.79482800
_cell_angle_alpha   89.99908985
_cell_angle_beta   90.00000000
_cell_angle_gamma   90.00000000
_symmetry_Int_Tables_number   1
_chemical_formula_structural   Dy3YTm4(ReC2)4
_chemical_formula_sum   'Dy3 Y1 Tm4 Re4 C8'
_cell_volume   326.34962889
_cell_formula_units_Z   1
loop_
 _symmetry_equiv_pos_site_id
 _symmetry_equiv_pos_as_xyz
  1  'x, y, z'
loop_
 _atom_site_type_symbol
 _atom_site_label
 _atom_site_symmetry_multiplicity
 _atom_site_fract_x
 _atom_site_fract_y
 _atom_site_fract_z
 _atom_site_occupancy
  Dy  Dy0  1  0.250000  0.966688  0.284327  1
  Dy  Dy1  1  0.750000  0.533301  0.784300  1
  Dy  Dy2  1  0.750000  0.033313  0.715654  1
  Y  Y3  1  0.250000  0.466577  0.215723  1
  Tm  Tm4  1  0.250000  0.823326  0.942377  1
  Tm  Tm5  1  0.250000  0.323064  0.557684  1
  Tm  Tm6  1  0.750000  0.176885  0.057641  1
  Tm  Tm7  1  0.750000  0.676835  0.442353  1
  Re  Re8  1  0.250000  0.278937  0.867104  1
  Re  Re9  1  0.250000  0.779017  0.632880  1
  Re  Re10  1  0.750000  0.721216  0.132821  1
  Re  Re11  1  0.750000  0.220967  0.367190  1
  C  C12  1  0.250000  0.046678  0.740396  1
  C  C13  1  0.250000  0.546727  0.759603  1
  C  C14  1  0.750000  0.953303  0.259601  1
  C  C15  1  0.750000  0.453267  0.240412  1
  C  C16  1  0.250000  0.673129  0.449606  1
  C  C17  1  0.250000  0.172671  0.050307  1
  C  C18  1  0.750000  0.327018  0.550556  1
  C  C19  1  0.750000  0.827082  0.949466  1
