# generated using pymatgen
data_La3GaGeRh2
_symmetry_space_group_name_H-M   'P 1'
_cell_length_a   5.80832000
_cell_length_b   8.30900700
_cell_length_c   13.62029800
_cell_angle_alpha   90.00000000
_cell_angle_beta   90.00000000
_cell_angle_gamma   90.00000000
_symmetry_Int_Tables_number   1
_chemical_formula_structural   La3GaGeRh2
_chemical_formula_sum   'La12 Ga4 Ge4 Rh8'
_cell_volume   657.33426224
_cell_formula_units_Z   4
loop_
 _symmetry_equiv_pos_site_id
 _symmetry_equiv_pos_as_xyz
  1  'x, y, z'
loop_
 _atom_site_type_symbol
 _atom_site_label
 _atom_site_symmetry_multiplicity
 _atom_site_fract_x
 _atom_site_fract_y
 _atom_site_fract_z
 _atom_site_occupancy
  La  La0  1  0.647924  0.250565  0.250000  1
  La  La1  1  0.352076  0.749435  0.750000  1
  La  La2  1  0.352076  0.750565  0.250000  1
  La  La3  1  0.647924  0.249435  0.750000  1
  La  La4  1  0.155565  0.395916  0.097972  1
  La  La5  1  0.844435  0.604084  0.902028  1
  La  La6  1  0.844435  0.604084  0.597972  1
  La  La7  1  0.844435  0.895916  0.402028  1
  La  La8  1  0.155565  0.395916  0.402028  1
  La  La9  1  0.155565  0.104084  0.597972  1
  La  La10  1  0.155565  0.104084  0.902028  1
  La  La11  1  0.844435  0.895916  0.097972  1
  Ga  Ga12  1  0.642642  0.250000  0.000000  1
  Ga  Ga13  1  0.357358  0.750000  0.000000  1
  Ga  Ga14  1  0.357358  0.750000  0.500000  1
  Ga  Ga15  1  0.642642  0.250000  0.500000  1
  Ge  Ge16  1  0.146751  0.105050  0.250000  1
  Ge  Ge17  1  0.853249  0.894950  0.750000  1
  Ge  Ge18  1  0.853249  0.605050  0.250000  1
  Ge  Ge19  1  0.146751  0.394950  0.750000  1
  Rh  Rh20  1  0.380270  0.032279  0.092851  1
  Rh  Rh21  1  0.619730  0.967721  0.907149  1
  Rh  Rh22  1  0.619730  0.967721  0.592851  1
  Rh  Rh23  1  0.619730  0.532279  0.407149  1
  Rh  Rh24  1  0.380270  0.032279  0.407149  1
  Rh  Rh25  1  0.380270  0.467721  0.592851  1
  Rh  Rh26  1  0.380270  0.467721  0.907149  1
  Rh  Rh27  1  0.619730  0.532279  0.092851  1
