# generated using pymatgen
data_Tb3Ho5Sc12Si15Pb
_symmetry_space_group_name_H-M   'P 1'
_cell_length_a   7.13433037
_cell_length_b   7.41484970
_cell_length_c   14.07370464
_cell_angle_alpha   90.01451043
_cell_angle_beta   89.45229026
_cell_angle_gamma   90.07635453
_symmetry_Int_Tables_number   1
_chemical_formula_structural   Tb3Ho5Sc12Si15Pb
_chemical_formula_sum   'Tb3 Ho5 Sc12 Si15 Pb1'
_cell_volume   744.46409873
_cell_formula_units_Z   1
loop_
 _symmetry_equiv_pos_site_id
 _symmetry_equiv_pos_as_xyz
  1  'x, y, z'
loop_
 _atom_site_type_symbol
 _atom_site_label
 _atom_site_symmetry_multiplicity
 _atom_site_fract_x
 _atom_site_fract_y
 _atom_site_fract_z
 _atom_site_occupancy
  Tb  Tb0  1  0.010510  0.175661  0.096688  1
  Tb  Tb1  1  0.988654  0.825745  0.904543  1
  Tb  Tb2  1  0.490341  0.675457  0.904504  1
  Ho  Ho3  1  0.990827  0.831670  0.598572  1
  Ho  Ho4  1  0.509595  0.324228  0.097593  1
  Ho  Ho5  1  0.003104  0.168879  0.398146  1
  Ho  Ho6  1  0.513399  0.318402  0.397995  1
  Ho  Ho7  1  0.505523  0.686809  0.600549  1
  Sc  Sc8  1  0.164390  0.502492  0.756388  1
  Sc  Sc9  1  0.834695  0.497697  0.249321  1
  Sc  Sc10  1  0.335017  0.002411  0.249624  1
  Sc  Sc11  1  0.666735  0.997732  0.751564  1
  Sc  Sc12  1  0.347490  0.158769  0.631387  1
  Sc  Sc13  1  0.661024  0.825356  0.372419  1
  Sc  Sc14  1  0.160398  0.683456  0.368894  1
  Sc  Sc15  1  0.666218  0.822534  0.124324  1
  Sc  Sc16  1  0.823478  0.324488  0.626237  1
  Sc  Sc17  1  0.331889  0.176234  0.875435  1
  Sc  Sc18  1  0.831925  0.323853  0.875492  1
  Sc  Sc19  1  0.167595  0.676258  0.125086  1
  Si  Si20  1  0.037028  0.120372  0.750972  1
  Si  Si21  1  0.960823  0.884153  0.246736  1
  Si  Si22  1  0.462834  0.615287  0.248589  1
  Si  Si23  1  0.534475  0.385095  0.751809  1
  Si  Si24  1  0.288717  0.869973  0.752268  1
  Si  Si25  1  0.709881  0.126099  0.247369  1
  Si  Si26  1  0.210219  0.372826  0.249409  1
  Si  Si27  1  0.792317  0.628147  0.751027  1
  Si  Si28  1  0.825774  0.539939  0.457993  1
  Si  Si29  1  0.335702  0.963453  0.460002  1
  Si  Si30  1  0.840848  0.534520  0.039703  1
  Si  Si31  1  0.665451  0.037900  0.537426  1
  Si  Si32  1  0.156811  0.464467  0.961938  1
  Si  Si33  1  0.656107  0.036997  0.961434  1
  Si  Si34  1  0.342171  0.965783  0.039952  1
  Pb  Pb35  1  0.178035  0.456858  0.538610  1
