# generated using pymatgen
data_Ca7Tb(Si4Mo3)4
_symmetry_space_group_name_H-M   'P 1'
_cell_length_a   6.74410683
_cell_length_b   6.95617171
_cell_length_c   13.09507767
_cell_angle_alpha   89.95458377
_cell_angle_beta   90.04478389
_cell_angle_gamma   89.93242612
_symmetry_Int_Tables_number   1
_chemical_formula_structural   Ca7Tb(Si4Mo3)4
_chemical_formula_sum   'Ca7 Tb1 Si16 Mo12'
_cell_volume   614.33073291
_cell_formula_units_Z   1
loop_
 _symmetry_equiv_pos_site_id
 _symmetry_equiv_pos_as_xyz
  1  'x, y, z'
loop_
 _atom_site_type_symbol
 _atom_site_label
 _atom_site_symmetry_multiplicity
 _atom_site_fract_x
 _atom_site_fract_y
 _atom_site_fract_z
 _atom_site_occupancy
  Ca  Ca0  1  0.498258  0.333518  0.090844  1
  Ca  Ca1  1  0.998306  0.166845  0.408658  1
  Ca  Ca2  1  0.501534  0.666892  0.591628  1
  Ca  Ca3  1  0.001189  0.831023  0.907470  1
  Ca  Ca4  1  0.501098  0.667820  0.908265  1
  Ca  Ca5  1  0.001367  0.832420  0.591499  1
  Ca  Ca6  1  0.498363  0.333502  0.408963  1
  Tb  Tb7  1  0.999840  0.169446  0.093637  1
  Si  Si8  1  0.657137  0.043569  0.546069  1
  Si  Si9  1  0.158146  0.457063  0.954324  1
  Si  Si10  1  0.342333  0.956668  0.045618  1
  Si  Si11  1  0.842637  0.543857  0.453952  1
  Si  Si12  1  0.342837  0.956044  0.453969  1
  Si  Si13  1  0.841507  0.544560  0.045448  1
  Si  Si14  1  0.658675  0.042739  0.954373  1
  Si  Si15  1  0.157276  0.456246  0.546077  1
  Si  Si16  1  0.535172  0.372234  0.750503  1
  Si  Si17  1  0.035136  0.126543  0.749849  1
  Si  Si18  1  0.464775  0.629890  0.248898  1
  Si  Si19  1  0.964816  0.870950  0.250042  1
  Si  Si20  1  0.800633  0.628231  0.750075  1
  Si  Si21  1  0.301034  0.870804  0.750062  1
  Si  Si22  1  0.200079  0.371975  0.250934  1
  Si  Si23  1  0.696481  0.129885  0.250857  1
  Mo  Mo24  1  0.834919  0.330571  0.628244  1
  Mo  Mo25  1  0.333902  0.168510  0.872694  1
  Mo  Mo26  1  0.165280  0.668534  0.126987  1
  Mo  Mo27  1  0.665615  0.830635  0.371399  1
  Mo  Mo28  1  0.165446  0.669216  0.371184  1
  Mo  Mo29  1  0.667905  0.833145  0.127171  1
  Mo  Mo30  1  0.835590  0.329386  0.873006  1
  Mo  Mo31  1  0.334879  0.168616  0.628248  1
  Mo  Mo32  1  0.660977  0.011315  0.750366  1
  Mo  Mo33  1  0.161303  0.488060  0.750478  1
  Mo  Mo34  1  0.337636  0.990140  0.249450  1
  Mo  Mo35  1  0.837920  0.509147  0.248760  1
