# generated using pymatgen
data_Dy3Tm13InAg3Rh4
_symmetry_space_group_name_H-M   'P 1'
_cell_length_a   9.49685263
_cell_length_b   9.47772083
_cell_length_c   9.46448006
_cell_angle_alpha   59.82284355
_cell_angle_beta   59.79874055
_cell_angle_gamma   59.89255586
_symmetry_Int_Tables_number   1
_chemical_formula_structural   Dy3Tm13InAg3Rh4
_chemical_formula_sum   'Dy3 Tm13 In1 Ag3 Rh4'
_cell_volume   600.15786813
_cell_formula_units_Z   1
loop_
 _symmetry_equiv_pos_site_id
 _symmetry_equiv_pos_as_xyz
  1  'x, y, z'
loop_
 _atom_site_type_symbol
 _atom_site_label
 _atom_site_symmetry_multiplicity
 _atom_site_fract_x
 _atom_site_fract_y
 _atom_site_fract_z
 _atom_site_occupancy
  Dy  Dy0  1  0.062690  0.061794  0.439214  1
  Dy  Dy1  1  0.436139  0.062980  0.438039  1
  Dy  Dy2  1  0.062405  0.435679  0.067519  1
  Tm  Tm3  1  0.052402  0.647865  0.649830  1
  Tm  Tm4  1  0.435836  0.435700  0.067370  1
  Tm  Tm5  1  0.648557  0.052179  0.650200  1
  Tm  Tm6  1  0.188316  0.812788  0.187611  1
  Tm  Tm7  1  0.188956  0.189764  0.812325  1
  Tm  Tm8  1  0.811012  0.813527  0.187555  1
  Tm  Tm9  1  0.436733  0.060797  0.066801  1
  Tm  Tm10  1  0.811518  0.188587  0.187414  1
  Tm  Tm11  1  0.062725  0.437584  0.438729  1
  Tm  Tm12  1  0.808687  0.190195  0.812246  1
  Tm  Tm13  1  0.188712  0.809683  0.813318  1
  Tm  Tm14  1  0.649262  0.647981  0.052588  1
  Tm  Tm15  1  0.649575  0.647682  0.649751  1
  In  In16  1  0.420347  0.420949  0.738674  1
  Ag  Ag17  1  0.417923  0.418901  0.413634  1
  Ag  Ag18  1  0.747717  0.418686  0.416101  1
  Ag  Ag19  1  0.419057  0.748772  0.413419  1
  Rh  Rh20  1  0.857968  0.855258  0.428819  1
  Rh  Rh21  1  0.857746  0.857703  0.856590  1
  Rh  Rh22  1  0.428188  0.856810  0.856806  1
  Rh  Rh23  1  0.857530  0.428138  0.855447  1
