# generated using pymatgen
data_Zr3Sc(B5Ir4)3
_symmetry_space_group_name_H-M   'P 1'
_cell_length_a   3.53474406
_cell_length_b   7.59511510
_cell_length_c   13.12265148
_cell_angle_alpha   90.02306890
_cell_angle_beta   90.02972792
_cell_angle_gamma   89.98951432
_symmetry_Int_Tables_number   1
_chemical_formula_structural   Zr3Sc(B5Ir4)3
_chemical_formula_sum   'Zr3 Sc1 B15 Ir12'
_cell_volume   352.30096045
_cell_formula_units_Z   1
loop_
 _symmetry_equiv_pos_site_id
 _symmetry_equiv_pos_as_xyz
  1  'x, y, z'
loop_
 _atom_site_type_symbol
 _atom_site_label
 _atom_site_symmetry_multiplicity
 _atom_site_fract_x
 _atom_site_fract_y
 _atom_site_fract_z
 _atom_site_occupancy
  Zr  Zr0  1  0.258582  0.001144  0.335007  1
  Zr  Zr1  1  0.757247  0.001178  0.665401  1
  Zr  Zr2  1  0.757213  0.499391  0.168387  1
  Sc  Sc3  1  0.257071  0.498362  0.831314  1
  B  B4  1  0.505706  0.999512  0.998840  1
  B  B5  1  0.277668  0.501718  0.501619  1
  B  B6  1  0.006007  0.999413  0.998770  1
  B  B7  1  0.760026  0.330423  0.722512  1
  B  B8  1  0.758347  0.825566  0.225043  1
  B  B9  1  0.756286  0.747553  0.799681  1
  B  B10  1  0.760401  0.252966  0.304406  1
  B  B11  1  0.755621  0.425058  0.972123  1
  B  B12  1  0.762599  0.918491  0.476186  1
  B  B13  1  0.254443  0.175963  0.775411  1
  B  B14  1  0.257527  0.673647  0.277396  1
  B  B15  1  0.257430  0.745727  0.699281  1
  B  B16  1  0.256126  0.249570  0.199860  1
  B  B17  1  0.254274  0.078783  0.525731  1
  B  B18  1  0.257292  0.575212  0.023046  1
  Ir  Ir19  1  0.757918  0.593064  0.664844  1
  Ir  Ir20  1  0.756469  0.091313  0.164666  1
  Ir  Ir21  1  0.757099  0.707849  0.962603  1
  Ir  Ir22  1  0.754944  0.204284  0.464379  1
  Ir  Ir23  1  0.755062  0.201467  0.872436  1
  Ir  Ir24  1  0.758124  0.701416  0.370664  1
  Ir  Ir25  1  0.255859  0.910051  0.836176  1
  Ir  Ir26  1  0.260103  0.410126  0.339099  1
  Ir  Ir27  1  0.261948  0.786045  0.535583  1
  Ir  Ir28  1  0.255634  0.291821  0.037326  1
  Ir  Ir29  1  0.259559  0.303841  0.625180  1
  Ir  Ir30  1  0.257414  0.799044  0.127028  1
