# generated using pymatgen
data_Li4PrNd3Si8
_symmetry_space_group_name_H-M   'P 1'
_cell_length_a   3.88135500
_cell_length_b   7.73564875
_cell_length_c   10.53984186
_cell_angle_alpha   89.98354244
_cell_angle_beta   90.00000000
_cell_angle_gamma   90.00000000
_symmetry_Int_Tables_number   1
_chemical_formula_structural   Li4PrNd3Si8
_chemical_formula_sum   'Li4 Pr1 Nd3 Si8'
_cell_volume   316.45661991
_cell_formula_units_Z   1
loop_
 _symmetry_equiv_pos_site_id
 _symmetry_equiv_pos_as_xyz
  1  'x, y, z'
loop_
 _atom_site_type_symbol
 _atom_site_label
 _atom_site_symmetry_multiplicity
 _atom_site_fract_x
 _atom_site_fract_y
 _atom_site_fract_z
 _atom_site_occupancy
  Li  Li0  1  0.250000  0.993564  0.390382  1
  Li  Li1  1  0.250000  0.494005  0.109149  1
  Li  Li2  1  0.750000  0.006297  0.609916  1
  Li  Li3  1  0.750000  0.506209  0.890433  1
  Pr  Pr4  1  0.750000  0.360358  0.365110  1
  Nd  Nd5  1  0.250000  0.138640  0.865215  1
  Nd  Nd6  1  0.250000  0.638794  0.634925  1
  Nd  Nd7  1  0.750000  0.861496  0.134634  1
  Si  Si8  1  0.250000  0.227505  0.572197  1
  Si  Si9  1  0.250000  0.727837  0.928845  1
  Si  Si10  1  0.750000  0.773051  0.428794  1
  Si  Si11  1  0.750000  0.271714  0.070420  1
  Si  Si12  1  0.250000  0.663487  0.322091  1
  Si  Si13  1  0.250000  0.162072  0.177031  1
  Si  Si14  1  0.750000  0.337294  0.678650  1
  Si  Si15  1  0.750000  0.837677  0.822209  1
