# generated using pymatgen
data_Dy11Y9Cd6RuRh
_symmetry_space_group_name_H-M   'P 1'
_cell_length_a   9.66120300
_cell_length_b   9.66120169
_cell_length_c   9.83064800
_cell_angle_alpha   90.00000000
_cell_angle_beta   90.00000000
_cell_angle_gamma   120.00000108
_symmetry_Int_Tables_number   1
_chemical_formula_structural   Dy11Y9Cd6RuRh
_chemical_formula_sum   'Dy11 Y9 Cd6 Ru1 Rh1'
_cell_volume   794.64861145
_cell_formula_units_Z   1
loop_
 _symmetry_equiv_pos_site_id
 _symmetry_equiv_pos_as_xyz
  1  'x, y, z'
loop_
 _atom_site_type_symbol
 _atom_site_label
 _atom_site_symmetry_multiplicity
 _atom_site_fract_x
 _atom_site_fract_y
 _atom_site_fract_z
 _atom_site_occupancy
  Dy  Dy0  1  0.000000  0.000000  0.499954  1
  Dy  Dy1  1  0.000000  0.000000  0.999959  1
  Dy  Dy2  1  0.209369  0.790631  0.440118  1
  Dy  Dy3  1  0.209369  0.418739  0.440118  1
  Dy  Dy4  1  0.581261  0.790631  0.440118  1
  Dy  Dy5  1  0.790255  0.209745  0.560473  1
  Dy  Dy6  1  0.790255  0.580509  0.560473  1
  Dy  Dy7  1  0.419491  0.209745  0.560473  1
  Dy  Dy8  1  0.790178  0.209822  0.939521  1
  Dy  Dy9  1  0.790178  0.580354  0.939521  1
  Dy  Dy10  1  0.419646  0.209822  0.939521  1
  Y  Y11  1  0.208997  0.791003  0.059486  1
  Y  Y12  1  0.208997  0.417993  0.059486  1
  Y  Y13  1  0.582007  0.791003  0.059486  1
  Y  Y14  1  0.542191  0.457809  0.250182  1
  Y  Y15  1  0.542191  0.084383  0.250182  1
  Y  Y16  1  0.915617  0.457809  0.250182  1
  Y  Y17  1  0.458877  0.541123  0.749777  1
  Y  Y18  1  0.458877  0.917756  0.749777  1
  Y  Y19  1  0.082244  0.541123  0.749777  1
  Cd  Cd20  1  0.885096  0.114904  0.249895  1
  Cd  Cd21  1  0.885096  0.770195  0.249895  1
  Cd  Cd22  1  0.229805  0.114904  0.249895  1
  Cd  Cd23  1  0.114771  0.885229  0.750100  1
  Cd  Cd24  1  0.114771  0.229540  0.750100  1
  Cd  Cd25  1  0.770460  0.885229  0.750100  1
  Ru  Ru26  1  0.666667  0.333333  0.749765  1
  Rh  Rh27  1  0.333333  0.666667  0.251667  1
