# generated using pymatgen
data_La2Sb2RuRhO2
_symmetry_space_group_name_H-M   'P 1'
_cell_length_a   4.26772500
_cell_length_b   4.26772500
_cell_length_c   8.96828000
_cell_angle_alpha   90.00000000
_cell_angle_beta   90.00000000
_cell_angle_gamma   90.00000000
_symmetry_Int_Tables_number   1
_chemical_formula_structural   La2Sb2RuRhO2
_chemical_formula_sum   'La2 Sb2 Ru1 Rh1 O2'
_cell_volume   163.34355860
_cell_formula_units_Z   1
loop_
 _symmetry_equiv_pos_site_id
 _symmetry_equiv_pos_as_xyz
  1  'x, y, z'
loop_
 _atom_site_type_symbol
 _atom_site_label
 _atom_site_symmetry_multiplicity
 _atom_site_fract_x
 _atom_site_fract_y
 _atom_site_fract_z
 _atom_site_occupancy
  La  La0  1  0.250001  0.250001  0.126836  1
  La  La1  1  0.749999  0.749999  0.873166  1
  Sb  Sb2  1  0.749999  0.749999  0.335080  1
  Sb  Sb3  1  0.250001  0.250001  0.664919  1
  Ru  Ru4  1  0.749999  0.250001  0.500000  1
  Rh  Rh5  1  0.250001  0.749999  0.500000  1
  O  O6  1  0.749999  0.250001  0.000000  1
  O  O7  1  0.250001  0.749999  0.000000  1
