# generated using pymatgen
data_Ti14VTcAs12
_symmetry_space_group_name_H-M   'P 1'
_cell_length_a   7.30992319
_cell_length_b   7.30992445
_cell_length_c   18.69724083
_cell_angle_alpha   90.06759314
_cell_angle_beta   89.93240741
_cell_angle_gamma   152.14007404
_symmetry_Int_Tables_number   1
_chemical_formula_structural   Ti14VTcAs12
_chemical_formula_sum   'Ti14 V1 Tc1 As12'
_cell_volume   466.88448233
_cell_formula_units_Z   1
loop_
 _symmetry_equiv_pos_site_id
 _symmetry_equiv_pos_as_xyz
  1  'x, y, z'
loop_
 _atom_site_type_symbol
 _atom_site_label
 _atom_site_symmetry_multiplicity
 _atom_site_fract_x
 _atom_site_fract_y
 _atom_site_fract_z
 _atom_site_occupancy
  Ti  Ti0  1  0.061532  0.938468  0.749103  1
  Ti  Ti1  1  0.938468  0.061532  0.250897  1
  Ti  Ti2  1  0.730592  0.269408  0.161408  1
  Ti  Ti3  1  0.269408  0.730592  0.838592  1
  Ti  Ti4  1  0.268079  0.731921  0.661048  1
  Ti  Ti5  1  0.731921  0.268079  0.338952  1
  Ti  Ti6  1  0.534017  0.465983  0.115860  1
  Ti  Ti7  1  0.465983  0.534017  0.884140  1
  Ti  Ti8  1  0.465752  0.534248  0.614610  1
  Ti  Ti9  1  0.534248  0.465752  0.385390  1
  Ti  Ti10  1  0.664079  0.335921  0.972577  1
  Ti  Ti11  1  0.335921  0.664079  0.027423  1
  Ti  Ti12  1  0.335851  0.664149  0.473248  1
  Ti  Ti13  1  0.664149  0.335851  0.526752  1
  V  V14  1  0.000000  0.000000  0.500000  1
  Tc  Tc15  1  0.000000  0.000000  0.000000  1
  As  As16  1  0.420407  0.579593  0.749399  1
  As  As17  1  0.579593  0.420407  0.250601  1
  As  As18  1  0.700326  0.299674  0.749663  1
  As  As19  1  0.299674  0.700326  0.250337  1
  As  As20  1  0.901039  0.098961  0.117737  1
  As  As21  1  0.098961  0.901039  0.882263  1
  As  As22  1  0.097894  0.902106  0.615487  1
  As  As23  1  0.902106  0.097894  0.384513  1
  As  As24  1  0.839700  0.160300  0.925306  1
  As  As25  1  0.160300  0.839700  0.074694  1
  As  As26  1  0.159211  0.840789  0.425865  1
  As  As27  1  0.840789  0.159211  0.574135  1
