# generated using pymatgen
data_Dy3TmAl15(SiRh2)3
_symmetry_space_group_name_H-M   'P 1'
_cell_length_a   7.53753353
_cell_length_b   7.48947483
_cell_length_c   9.39263528
_cell_angle_alpha   89.98327914
_cell_angle_beta   89.93737005
_cell_angle_gamma   119.82576894
_symmetry_Int_Tables_number   1
_chemical_formula_structural   Dy3TmAl15(SiRh2)3
_chemical_formula_sum   'Dy3 Tm1 Al15 Si3 Rh6'
_cell_volume   460.00023609
_cell_formula_units_Z   1
loop_
 _symmetry_equiv_pos_site_id
 _symmetry_equiv_pos_as_xyz
  1  'x, y, z'
loop_
 _atom_site_type_symbol
 _atom_site_label
 _atom_site_symmetry_multiplicity
 _atom_site_fract_x
 _atom_site_fract_y
 _atom_site_fract_z
 _atom_site_occupancy
  Dy  Dy0  1  0.006089  0.342255  0.254051  1
  Dy  Dy1  1  0.675072  0.001149  0.747674  1
  Dy  Dy2  1  0.319558  0.991873  0.249820  1
  Tm  Tm3  1  0.994605  0.663959  0.747324  1
  Al  Al4  1  0.128239  0.125390  0.749985  1
  Al  Al5  1  0.871799  0.871710  0.249261  1
  Al  Al6  1  0.338275  0.002546  0.923002  1
  Al  Al7  1  0.001412  0.330474  0.929286  1
  Al  Al8  1  0.666276  0.002071  0.075497  1
  Al  Al9  1  0.662183  0.998027  0.422255  1
  Al  Al10  1  0.338128  0.002618  0.577294  1
  Al  Al11  1  0.333312  0.331453  0.055620  1
  Al  Al12  1  0.664178  0.667880  0.945250  1
  Al  Al13  1  0.663736  0.667419  0.556204  1
  Al  Al14  1  0.335718  0.331960  0.444714  1
  Al  Al15  1  0.337433  0.550195  0.750197  1
  Al  Al16  1  0.661744  0.450520  0.250388  1
  Al  Al17  1  0.548820  0.343422  0.749906  1
  Al  Al18  1  0.455258  0.658206  0.249759  1
  Si  Si19  1  0.002444  0.328952  0.576283  1
  Si  Si20  1  0.996966  0.672051  0.430986  1
  Si  Si21  1  0.998157  0.665722  0.064748  1
  Rh  Rh22  1  0.689757  0.337773  0.501770  1
  Rh  Rh23  1  0.310430  0.662928  0.497662  1
  Rh  Rh24  1  0.319233  0.670522  0.002444  1
  Rh  Rh25  1  0.680341  0.336403  0.999243  1
  Rh  Rh26  1  0.999962  0.999798  0.499507  1
  Rh  Rh27  1  0.000872  0.992727  0.999870  1
