# generated using pymatgen
data_Gd3Sn2PdRh
_symmetry_space_group_name_H-M   'P 1'
_cell_length_a   5.77150900
_cell_length_b   8.20190600
_cell_length_c   13.74081900
_cell_angle_alpha   90.00000000
_cell_angle_beta   90.00000000
_cell_angle_gamma   90.00000000
_symmetry_Int_Tables_number   1
_chemical_formula_structural   Gd3Sn2PdRh
_chemical_formula_sum   'Gd12 Sn8 Pd4 Rh4'
_cell_volume   650.45429214
_cell_formula_units_Z   4
loop_
 _symmetry_equiv_pos_site_id
 _symmetry_equiv_pos_as_xyz
  1  'x, y, z'
loop_
 _atom_site_type_symbol
 _atom_site_label
 _atom_site_symmetry_multiplicity
 _atom_site_fract_x
 _atom_site_fract_y
 _atom_site_fract_z
 _atom_site_occupancy
  Gd  Gd0  1  0.159779  0.394404  0.593902  1
  Gd  Gd1  1  0.840221  0.605596  0.093902  1
  Gd  Gd2  1  0.159779  0.105596  0.406098  1
  Gd  Gd3  1  0.840221  0.894404  0.906098  1
  Gd  Gd4  1  0.840463  0.596874  0.401184  1
  Gd  Gd5  1  0.159537  0.403126  0.901184  1
  Gd  Gd6  1  0.840463  0.903126  0.598816  1
  Gd  Gd7  1  0.159537  0.096874  0.098816  1
  Gd  Gd8  1  0.625161  0.264550  0.750141  1
  Gd  Gd9  1  0.374839  0.735450  0.250141  1
  Gd  Gd10  1  0.625161  0.235450  0.249859  1
  Gd  Gd11  1  0.374839  0.764550  0.749859  1
  Sn  Sn12  1  0.683069  0.250000  0.500000  1
  Sn  Sn13  1  0.316931  0.750000  0.000000  1
  Sn  Sn14  1  0.307304  0.750000  0.500000  1
  Sn  Sn15  1  0.692696  0.250000  0.000000  1
  Sn  Sn16  1  0.117094  0.112383  0.750296  1
  Sn  Sn17  1  0.882906  0.887617  0.250296  1
  Sn  Sn18  1  0.117094  0.387617  0.249704  1
  Sn  Sn19  1  0.882906  0.612383  0.749704  1
  Pd  Pd20  1  0.622376  0.952110  0.406707  1
  Pd  Pd21  1  0.377624  0.047890  0.906707  1
  Pd  Pd22  1  0.622376  0.547890  0.593293  1
  Pd  Pd23  1  0.377624  0.452110  0.093293  1
  Rh  Rh24  1  0.380903  0.046106  0.594709  1
  Rh  Rh25  1  0.619097  0.953894  0.094709  1
  Rh  Rh26  1  0.380903  0.453894  0.405291  1
  Rh  Rh27  1  0.619097  0.546106  0.905291  1
