# generated using pymatgen
data_KSr3(Al2Au5)4
_symmetry_space_group_name_H-M   'P 1'
_cell_length_a   7.27566800
_cell_length_b   8.97974247
_cell_length_c   10.11753584
_cell_angle_alpha   89.89968261
_cell_angle_beta   90.00000000
_cell_angle_gamma   90.00000000
_symmetry_Int_Tables_number   1
_chemical_formula_structural   KSr3(Al2Au5)4
_chemical_formula_sum   'K1 Sr3 Al8 Au20'
_cell_volume   661.01427896
_cell_formula_units_Z   1
loop_
 _symmetry_equiv_pos_site_id
 _symmetry_equiv_pos_as_xyz
  1  'x, y, z'
loop_
 _atom_site_type_symbol
 _atom_site_label
 _atom_site_symmetry_multiplicity
 _atom_site_fract_x
 _atom_site_fract_y
 _atom_site_fract_z
 _atom_site_occupancy
  K  K0  1  0.750000  0.246822  0.624786  1
  Sr  Sr1  1  0.250000  0.253339  0.127601  1
  Sr  Sr2  1  0.250000  0.753198  0.373188  1
  Sr  Sr3  1  0.750000  0.746840  0.873589  1
  Al  Al4  1  0.250000  0.050410  0.615606  1
  Al  Al5  1  0.250000  0.549878  0.883170  1
  Al  Al6  1  0.750000  0.949732  0.384642  1
  Al  Al7  1  0.750000  0.450719  0.117235  1
  Al  Al8  1  0.250000  0.349414  0.484745  1
  Al  Al9  1  0.250000  0.852222  0.015977  1
  Al  Al10  1  0.750000  0.646849  0.514173  1
  Al  Al11  1  0.750000  0.148836  0.985175  1
  Au  Au12  1  0.056085  0.105570  0.396255  1
  Au  Au13  1  0.444369  0.609334  0.101909  1
  Au  Au14  1  0.553580  0.889729  0.600417  1
  Au  Au15  1  0.946618  0.390748  0.901074  1
  Au  Au16  1  0.946420  0.889729  0.600417  1
  Au  Au17  1  0.553382  0.390748  0.901074  1
  Au  Au18  1  0.443915  0.105570  0.396255  1
  Au  Au19  1  0.055631  0.609334  0.101909  1
  Au  Au20  1  0.038729  0.057445  0.866375  1
  Au  Au21  1  0.459934  0.558388  0.633614  1
  Au  Au22  1  0.537460  0.943174  0.136223  1
  Au  Au23  1  0.966842  0.444878  0.362896  1
  Au  Au24  1  0.962540  0.943174  0.136223  1
  Au  Au25  1  0.533158  0.444878  0.362896  1
  Au  Au26  1  0.461271  0.057445  0.866375  1
  Au  Au27  1  0.040066  0.558388  0.633614  1
  Au  Au28  1  0.250000  0.298676  0.734632  1
  Au  Au29  1  0.250000  0.799867  0.767078  1
  Au  Au30  1  0.750000  0.701986  0.265522  1
  Au  Au31  1  0.750000  0.202678  0.235357  1
