# generated using pymatgen
data_Nb12Re5Tc6Os
_symmetry_space_group_name_H-M   'P 1'
_cell_length_a   4.53105400
_cell_length_b   6.38466200
_cell_length_c   13.66023900
_cell_angle_alpha   90.00000000
_cell_angle_beta   90.00028590
_cell_angle_gamma   90.00000000
_symmetry_Int_Tables_number   1
_chemical_formula_structural   Nb12Re5Tc6Os
_chemical_formula_sum   'Nb12 Re5 Tc6 Os1'
_cell_volume   395.18044578
_cell_formula_units_Z   1
loop_
 _symmetry_equiv_pos_site_id
 _symmetry_equiv_pos_as_xyz
  1  'x, y, z'
loop_
 _atom_site_type_symbol
 _atom_site_label
 _atom_site_symmetry_multiplicity
 _atom_site_fract_x
 _atom_site_fract_y
 _atom_site_fract_z
 _atom_site_occupancy
  Nb  Nb0  1  0.499999  0.248603  0.000000  1
  Nb  Nb1  1  0.499999  0.751396  0.000000  1
  Nb  Nb2  1  0.999980  0.249287  0.167088  1
  Nb  Nb3  1  0.999980  0.750712  0.167088  1
  Nb  Nb4  1  0.499966  0.249989  0.333385  1
  Nb  Nb5  1  0.499966  0.750010  0.333385  1
  Nb  Nb6  1  0.000000  0.249952  0.500000  1
  Nb  Nb7  1  0.000000  0.750049  0.500000  1
  Nb  Nb8  1  0.500035  0.249989  0.666615  1
  Nb  Nb9  1  0.500035  0.750010  0.666615  1
  Nb  Nb10  1  0.000020  0.249287  0.832912  1
  Nb  Nb11  1  0.000020  0.750712  0.832912  1
  Re  Re12  1  0.499960  0.000000  0.166357  1
  Re  Re13  1  0.999970  0.500000  0.333047  1
  Re  Re14  1  0.499999  0.000000  0.500000  1
  Re  Re15  1  0.000030  0.500000  0.666954  1
  Re  Re16  1  0.500041  0.000000  0.833643  1
  Tc  Tc17  1  0.000000  0.000000  0.000000  1
  Tc  Tc18  1  0.499949  0.500000  0.165862  1
  Tc  Tc19  1  0.999967  0.000000  0.333210  1
  Tc  Tc20  1  0.499999  0.500000  0.500000  1
  Tc  Tc21  1  0.000033  0.000000  0.666790  1
  Tc  Tc22  1  0.500050  0.500000  0.834138  1
  Os  Os23  1  0.000000  0.500000  0.000000  1
