# generated using pymatgen
data_PuMg2N3
_symmetry_space_group_name_H-M   'P 1'
_cell_length_a   5.67652040
_cell_length_b   5.67651864
_cell_length_c   5.50478747
_cell_angle_alpha   99.86853265
_cell_angle_beta   99.86852608
_cell_angle_gamma   119.94924241
_symmetry_Int_Tables_number   1
_chemical_formula_structural   PuMg2N3
_chemical_formula_sum   'Pu2 Mg4 N6'
_cell_volume   144.39766014
_cell_formula_units_Z   2
loop_
 _symmetry_equiv_pos_site_id
 _symmetry_equiv_pos_as_xyz
  1  'x, y, z'
loop_
 _atom_site_type_symbol
 _atom_site_label
 _atom_site_symmetry_multiplicity
 _atom_site_fract_x
 _atom_site_fract_y
 _atom_site_fract_z
 _atom_site_occupancy
  Pu  Pu0  1  0.333313  0.666687  0.000000  1
  Pu  Pu1  1  0.666687  0.333313  0.000000  1
  Mg  Mg2  1  0.838423  0.161577  0.500000  1
  Mg  Mg3  1  0.161577  0.838423  0.500000  1
  Mg  Mg4  1  0.500000  0.500000  0.500000  1
  Mg  Mg5  1  0.000000  0.000000  0.000000  1
  N  N6  1  0.423380  0.080088  0.238568  1
  N  N7  1  0.919912  0.576620  0.761432  1
  N  N8  1  0.576620  0.919912  0.761432  1
  N  N9  1  0.080088  0.423380  0.238568  1
  N  N10  1  0.739527  0.739527  0.245496  1
  N  N11  1  0.260473  0.260473  0.754504  1
