# generated using pymatgen
data_YbTm3(ReN3)4
_symmetry_space_group_name_H-M   'P 1'
_cell_length_a   7.32251053
_cell_length_b   7.32250963
_cell_length_c   6.23361355
_cell_angle_alpha   73.07274289
_cell_angle_beta   73.07273842
_cell_angle_gamma   82.28175055
_symmetry_Int_Tables_number   1
_chemical_formula_structural   YbTm3(ReN3)4
_chemical_formula_sum   'Yb1 Tm3 Re4 N12'
_cell_volume   305.45831955
_cell_formula_units_Z   1
loop_
 _symmetry_equiv_pos_site_id
 _symmetry_equiv_pos_as_xyz
  1  'x, y, z'
loop_
 _atom_site_type_symbol
 _atom_site_label
 _atom_site_symmetry_multiplicity
 _atom_site_fract_x
 _atom_site_fract_y
 _atom_site_fract_z
 _atom_site_occupancy
  Yb  Yb0  1  0.708280  0.291720  0.250000  1
  Tm  Tm1  1  0.911080  0.088920  0.750000  1
  Tm  Tm2  1  0.288381  0.711619  0.750000  1
  Tm  Tm3  1  0.090896  0.909104  0.250000  1
  Re  Re4  1  0.621234  0.795591  0.275032  1
  Re  Re5  1  0.204409  0.378766  0.224968  1
  Re  Re6  1  0.379342  0.201922  0.726310  1
  Re  Re7  1  0.798078  0.620658  0.773690  1
  N  N8  1  0.337906  0.368156  0.921612  1
  N  N9  1  0.011558  0.214085  0.344789  1
  N  N10  1  0.785915  0.988442  0.155211  1
  N  N11  1  0.217725  0.001774  0.842250  1
  N  N12  1  0.658043  0.642121  0.069530  1
  N  N13  1  0.879988  0.375637  0.825198  1
  N  N14  1  0.124090  0.629234  0.159912  1
  N  N15  1  0.998226  0.782275  0.657750  1
  N  N16  1  0.370766  0.875910  0.340088  1
  N  N17  1  0.631844  0.662094  0.578388  1
  N  N18  1  0.624363  0.120012  0.674802  1
  N  N19  1  0.357879  0.341957  0.430470  1
