# generated using pymatgen
data_K2Ca3Cl8
_symmetry_space_group_name_H-M   'P 1'
_cell_length_a   8.60987715
_cell_length_b   8.65444776
_cell_length_c   8.25334567
_cell_angle_alpha   90.28858031
_cell_angle_beta   118.08235929
_cell_angle_gamma   122.90522657
_symmetry_Int_Tables_number   1
_chemical_formula_structural   K2Ca3Cl8
_chemical_formula_sum   'K2 Ca3 Cl8'
_cell_volume   426.37781684
_cell_formula_units_Z   1
loop_
 _symmetry_equiv_pos_site_id
 _symmetry_equiv_pos_as_xyz
  1  'x, y, z'
loop_
 _atom_site_type_symbol
 _atom_site_label
 _atom_site_symmetry_multiplicity
 _atom_site_fract_x
 _atom_site_fract_y
 _atom_site_fract_z
 _atom_site_occupancy
  K  K0  1  0.892063  0.411071  0.442696  1
  K  K1  1  0.507050  0.100117  0.748422  1
  Ca  Ca2  1  0.199936  0.256666  0.096706  1
  Ca  Ca3  1  0.699738  0.755725  0.097654  1
  Ca  Ca4  1  0.701592  0.756006  0.598731  1
  Cl  Cl5  1  0.521994  0.365489  0.027264  1
  Cl  Cl6  1  0.419922  0.688304  0.708875  1
  Cl  Cl7  1  0.000454  0.855213  0.995876  1
  Cl  Cl8  1  0.518695  0.364791  0.486008  1
  Cl  Cl9  1  0.401270  0.657368  0.200253  1
  Cl  Cl10  1  0.981002  0.823573  0.486370  1
  Cl  Cl11  1  0.882280  0.147760  0.706227  1
  Cl  Cl12  1  0.878694  0.146126  0.166861  1
