# generated using pymatgen
data_Sc3Co4MoP4
_symmetry_space_group_name_H-M   'P 1'
_cell_length_a   3.65367700
_cell_length_b   6.18008039
_cell_length_c   6.98161922
_cell_angle_alpha   89.62457089
_cell_angle_beta   90.00000000
_cell_angle_gamma   90.00000000
_symmetry_Int_Tables_number   1
_chemical_formula_structural   Sc3Co4MoP4
_chemical_formula_sum   'Sc3 Co4 Mo1 P4'
_cell_volume   157.64170047
_cell_formula_units_Z   1
loop_
 _symmetry_equiv_pos_site_id
 _symmetry_equiv_pos_as_xyz
  1  'x, y, z'
loop_
 _atom_site_type_symbol
 _atom_site_label
 _atom_site_symmetry_multiplicity
 _atom_site_fract_x
 _atom_site_fract_y
 _atom_site_fract_z
 _atom_site_occupancy
  Sc  Sc0  1  0.250000  0.520252  0.686417  1
  Sc  Sc1  1  0.750000  0.980965  0.179943  1
  Sc  Sc2  1  0.750000  0.474651  0.317635  1
  Co  Co3  1  0.250000  0.139160  0.441979  1
  Co  Co4  1  0.250000  0.646089  0.060216  1
  Co  Co5  1  0.750000  0.855857  0.562653  1
  Co  Co6  1  0.750000  0.364051  0.935942  1
  Mo  Mo7  1  0.250000  0.023255  0.822199  1
  P  P8  1  0.250000  0.274033  0.104987  1
  P  P9  1  0.250000  0.772725  0.383868  1
  P  P10  1  0.750000  0.734342  0.879035  1
  P  P11  1  0.750000  0.214621  0.625125  1
