# generated using pymatgen
data_SrPr(Ga3Pd)2
_symmetry_space_group_name_H-M   'P 1'
_cell_length_a   6.19467556
_cell_length_b   6.19467553
_cell_length_c   5.96947900
_cell_angle_alpha   90.00000000
_cell_angle_beta   90.00000000
_cell_angle_gamma   117.04474401
_symmetry_Int_Tables_number   1
_chemical_formula_structural   SrPr(Ga3Pd)2
_chemical_formula_sum   'Sr1 Pr1 Ga6 Pd2'
_cell_volume   204.02409826
_cell_formula_units_Z   1
loop_
 _symmetry_equiv_pos_site_id
 _symmetry_equiv_pos_as_xyz
  1  'x, y, z'
loop_
 _atom_site_type_symbol
 _atom_site_label
 _atom_site_symmetry_multiplicity
 _atom_site_fract_x
 _atom_site_fract_y
 _atom_site_fract_z
 _atom_site_occupancy
  Sr  Sr0  1  0.766578  0.233422  0.250000  1
  Pr  Pr1  1  0.231866  0.768134  0.750000  1
  Ga  Ga2  1  0.664231  0.335769  0.750000  1
  Ga  Ga3  1  0.337024  0.662976  0.250000  1
  Ga  Ga4  1  0.718562  0.718465  0.996144  1
  Ga  Ga5  1  0.718562  0.718465  0.503856  1
  Ga  Ga6  1  0.281535  0.281438  0.996144  1
  Ga  Ga7  1  0.281535  0.281438  0.503856  1
  Pd  Pd8  1  0.901346  0.098654  0.750000  1
  Pd  Pd9  1  0.098759  0.901241  0.250000  1
