# generated using pymatgen
data_Ti12Ga5Au3O4
_symmetry_space_group_name_H-M   'P 1'
_cell_length_a   6.92193894
_cell_length_b   6.92193894
_cell_length_c   6.92193894
_cell_angle_alpha   90.23407724
_cell_angle_beta   90.23407724
_cell_angle_gamma   90.23407724
_symmetry_Int_Tables_number   1
_chemical_formula_structural   Ti12Ga5Au3O4
_chemical_formula_sum   'Ti12 Ga5 Au3 O4'
_cell_volume   331.64418703
_cell_formula_units_Z   1
loop_
 _symmetry_equiv_pos_site_id
 _symmetry_equiv_pos_as_xyz
  1  'x, y, z'
loop_
 _atom_site_type_symbol
 _atom_site_label
 _atom_site_symmetry_multiplicity
 _atom_site_fract_x
 _atom_site_fract_y
 _atom_site_fract_z
 _atom_site_occupancy
  Ti  Ti0  1  0.787434  0.956844  0.376909  1
  Ti  Ti1  1  0.712186  0.040580  0.874383  1
  Ti  Ti2  1  0.213893  0.457058  0.122231  1
  Ti  Ti3  1  0.289260  0.544638  0.623245  1
  Ti  Ti4  1  0.956844  0.376909  0.787434  1
  Ti  Ti5  1  0.040580  0.874383  0.712186  1
  Ti  Ti6  1  0.457058  0.122231  0.213893  1
  Ti  Ti7  1  0.544638  0.623245  0.289260  1
  Ti  Ti8  1  0.376909  0.787434  0.956844  1
  Ti  Ti9  1  0.874383  0.712186  0.040580  1
  Ti  Ti10  1  0.122231  0.213893  0.457058  1
  Ti  Ti11  1  0.623245  0.289260  0.544638  1
  Ga  Ga12  1  0.680108  0.680108  0.680108  1
  Ga  Ga13  1  0.569689  0.433500  0.930175  1
  Ga  Ga14  1  0.433500  0.930175  0.569689  1
  Ga  Ga15  1  0.930175  0.569689  0.433500  1
  Ga  Ga16  1  0.068928  0.068928  0.068928  1
  Au  Au17  1  0.180935  0.818921  0.318831  1
  Au  Au18  1  0.318831  0.180935  0.818921  1
  Au  Au19  1  0.818921  0.318831  0.180935  1
  O  O20  1  0.876412  0.125434  0.624366  1
  O  O21  1  0.624366  0.876412  0.125434  1
  O  O22  1  0.125434  0.624366  0.876412  1
  O  O23  1  0.374042  0.374042  0.374042  1
