# generated using pymatgen
data_Er5Hf3(ReB6)4
_symmetry_space_group_name_H-M   'P 1'
_cell_length_a   3.60439200
_cell_length_b   9.02244112
_cell_length_c   11.39104925
_cell_angle_alpha   89.97841698
_cell_angle_beta   90.00000000
_cell_angle_gamma   90.00000000
_symmetry_Int_Tables_number   1
_chemical_formula_structural   Er5Hf3(ReB6)4
_chemical_formula_sum   'Er5 Hf3 Re4 B24'
_cell_volume   370.44161826
_cell_formula_units_Z   1
loop_
 _symmetry_equiv_pos_site_id
 _symmetry_equiv_pos_as_xyz
  1  'x, y, z'
loop_
 _atom_site_type_symbol
 _atom_site_label
 _atom_site_symmetry_multiplicity
 _atom_site_fract_x
 _atom_site_fract_y
 _atom_site_fract_z
 _atom_site_occupancy
  Er  Er0  1  0.000000  0.321497  0.412893  1
  Er  Er1  1  0.000000  0.678196  0.586350  1
  Er  Er2  1  0.000000  0.821070  0.086491  1
  Er  Er3  1  0.000000  0.179056  0.914157  1
  Er  Er4  1  0.000000  0.944239  0.372568  1
  Hf  Hf5  1  0.000000  0.056639  0.629583  1
  Hf  Hf6  1  0.000000  0.444236  0.126517  1
  Hf  Hf7  1  0.000000  0.555765  0.873012  1
  Re  Re8  1  0.000000  0.635515  0.317999  1
  Re  Re9  1  0.000000  0.360598  0.682228  1
  Re  Re10  1  0.000000  0.143048  0.177799  1
  Re  Re11  1  0.000000  0.859983  0.820068  1
  B  B12  1  0.500000  0.551929  0.433348  1
  B  B13  1  0.500000  0.445987  0.566812  1
  B  B14  1  0.500000  0.054401  0.066040  1
  B  B15  1  0.500000  0.946485  0.933431  1
  B  B16  1  0.500000  0.749274  0.418321  1
  B  B17  1  0.500000  0.247641  0.582123  1
  B  B18  1  0.500000  0.253423  0.080596  1
  B  B19  1  0.500000  0.747318  0.918849  1
  B  B20  1  0.500000  0.792124  0.263878  1
  B  B21  1  0.500000  0.205729  0.735941  1
  B  B22  1  0.500000  0.295099  0.234246  1
  B  B23  1  0.500000  0.705437  0.764804  1
  B  B24  1  0.500000  0.629232  0.182889  1
  B  B25  1  0.500000  0.370143  0.816991  1
  B  B26  1  0.500000  0.132427  0.315139  1
  B  B27  1  0.500000  0.869744  0.683792  1
  B  B28  1  0.500000  0.983214  0.211960  1
  B  B29  1  0.500000  0.018259  0.786908  1
  B  B30  1  0.500000  0.480430  0.285974  1
  B  B31  1  0.500000  0.518774  0.713593  1
  B  B32  1  0.500000  0.599993  0.026704  1
  B  B33  1  0.500000  0.400595  0.972554  1
  B  B34  1  0.500000  0.102513  0.475338  1
  B  B35  1  0.500000  0.899987  0.530106  1
