# generated using pymatgen
data_Ba6Ca2UAsSe12
_symmetry_space_group_name_H-M   'P 1'
_cell_length_a   8.86035387
_cell_length_b   8.86035427
_cell_length_c   8.86035365
_cell_angle_alpha   91.95489968
_cell_angle_beta   91.95490241
_cell_angle_gamma   91.95491464
_symmetry_Int_Tables_number   1
_chemical_formula_structural   Ba6Ca2UAsSe12
_chemical_formula_sum   'Ba6 Ca2 U1 As1 Se12'
_cell_volume   694.34690878
_cell_formula_units_Z   1
loop_
 _symmetry_equiv_pos_site_id
 _symmetry_equiv_pos_as_xyz
  1  'x, y, z'
loop_
 _atom_site_type_symbol
 _atom_site_label
 _atom_site_symmetry_multiplicity
 _atom_site_fract_x
 _atom_site_fract_y
 _atom_site_fract_z
 _atom_site_occupancy
  Ba  Ba0  1  0.867369  0.623303  0.259933  1
  Ba  Ba1  1  0.259933  0.867369  0.623303  1
  Ba  Ba2  1  0.623303  0.259933  0.867369  1
  Ba  Ba3  1  0.740067  0.132631  0.376697  1
  Ba  Ba4  1  0.376697  0.740067  0.132631  1
  Ba  Ba5  1  0.132631  0.376697  0.740067  1
  Ca  Ca6  1  0.258297  0.258297  0.258297  1
  Ca  Ca7  1  0.741703  0.741703  0.741703  1
  U  U8  1  0.000000  0.000000  0.000000  1
  As  As9  1  0.500000  0.500000  0.500000  1
  Se  Se10  1  0.203146  0.548041  0.413795  1
  Se  Se11  1  0.413795  0.203146  0.548041  1
  Se  Se12  1  0.548041  0.413795  0.203146  1
  Se  Se13  1  0.918163  0.045464  0.702026  1
  Se  Se14  1  0.702026  0.918163  0.045464  1
  Se  Se15  1  0.045464  0.702026  0.918163  1
  Se  Se16  1  0.796854  0.451959  0.586205  1
  Se  Se17  1  0.586205  0.796854  0.451959  1
  Se  Se18  1  0.451959  0.586205  0.796854  1
  Se  Se19  1  0.081837  0.954536  0.297974  1
  Se  Se20  1  0.297974  0.081837  0.954536  1
  Se  Se21  1  0.954536  0.297974  0.081837  1
