# generated using pymatgen
data_La6EuRuI12
_symmetry_space_group_name_H-M   'P 1'
_cell_length_a   10.20727219
_cell_length_b   10.20727093
_cell_length_c   10.20727000
_cell_angle_alpha   106.77546958
_cell_angle_beta   106.77546744
_cell_angle_gamma   106.77545721
_symmetry_Int_Tables_number   1
_chemical_formula_structural   La6EuRuI12
_chemical_formula_sum   'La6 Eu1 Ru1 I12'
_cell_volume   891.04470286
_cell_formula_units_Z   1
loop_
 _symmetry_equiv_pos_site_id
 _symmetry_equiv_pos_as_xyz
  1  'x, y, z'
loop_
 _atom_site_type_symbol
 _atom_site_label
 _atom_site_symmetry_multiplicity
 _atom_site_fract_x
 _atom_site_fract_y
 _atom_site_fract_z
 _atom_site_occupancy
  La  La0  1  0.901434  0.696730  0.976042  1
  La  La1  1  0.976042  0.901434  0.696730  1
  La  La2  1  0.696730  0.976042  0.901434  1
  La  La3  1  0.098566  0.303270  0.023958  1
  La  La4  1  0.023958  0.098566  0.303270  1
  La  La5  1  0.303270  0.023958  0.098566  1
  Eu  Eu6  1  0.500000  0.500000  0.500000  1
  Ru  Ru7  1  0.000000  0.000000  0.000000  1
  I  I8  1  0.621792  0.849006  0.542036  1
  I  I9  1  0.542036  0.621792  0.849006  1
  I  I10  1  0.849006  0.542036  0.621792  1
  I  I11  1  0.378208  0.150994  0.457964  1
  I  I12  1  0.457964  0.378208  0.150994  1
  I  I13  1  0.150994  0.457964  0.378208  1
  I  I14  1  0.679791  0.074336  0.225802  1
  I  I15  1  0.225802  0.679791  0.074336  1
  I  I16  1  0.074336  0.225802  0.679791  1
  I  I17  1  0.320209  0.925664  0.774198  1
  I  I18  1  0.774198  0.320209  0.925664  1
  I  I19  1  0.925664  0.774198  0.320209  1
