# generated using pymatgen
data_Dy4Er2Co2Si5Ge
_symmetry_space_group_name_H-M   'P 1'
_cell_length_a   5.63896254
_cell_length_b   5.63896324
_cell_length_c   13.50679256
_cell_angle_alpha   70.65325571
_cell_angle_beta   70.65325370
_cell_angle_gamma   43.37635109
_symmetry_Int_Tables_number   1
_chemical_formula_structural   Dy4Er2Co2Si5Ge
_chemical_formula_sum   'Dy4 Er2 Co2 Si5 Ge1'
_cell_volume   275.58350806
_cell_formula_units_Z   1
loop_
 _symmetry_equiv_pos_site_id
 _symmetry_equiv_pos_as_xyz
  1  'x, y, z'
loop_
 _atom_site_type_symbol
 _atom_site_label
 _atom_site_symmetry_multiplicity
 _atom_site_fract_x
 _atom_site_fract_y
 _atom_site_fract_z
 _atom_site_occupancy
  Dy  Dy0  1  0.744652  0.744652  0.771551  1
  Dy  Dy1  1  0.398129  0.398129  0.922189  1
  Dy  Dy2  1  0.600359  0.600359  0.081940  1
  Dy  Dy3  1  0.475583  0.475583  0.379215  1
  Er  Er4  1  0.253391  0.253391  0.228860  1
  Er  Er5  1  0.526707  0.526707  0.616858  1
  Co  Co6  1  0.753531  0.753531  0.418274  1
  Co  Co7  1  0.251157  0.251157  0.577668  1
  Si  Si8  1  0.141179  0.141179  0.454492  1
  Si  Si9  1  0.861528  0.861528  0.543830  1
  Si  Si10  1  0.945120  0.945120  0.242389  1
  Si  Si11  1  0.885052  0.885052  0.077716  1
  Si  Si12  1  0.116289  0.116289  0.927281  1
  Ge  Ge13  1  0.047324  0.047324  0.757739  1
