# generated using pymatgen
data_Dy20Si5Bi3Ir4
_symmetry_space_group_name_H-M   'P 1'
_cell_length_a   7.79419805
_cell_length_b   8.85487177
_cell_length_c   12.14300000
_cell_angle_alpha   89.77744530
_cell_angle_beta   89.99354575
_cell_angle_gamma   89.93924892
_symmetry_Int_Tables_number   1
_chemical_formula_structural   Dy20Si5Bi3Ir4
_chemical_formula_sum   'Dy20 Si5 Bi3 Ir4'
_cell_volume   838.06207062
_cell_formula_units_Z   1
loop_
 _symmetry_equiv_pos_site_id
 _symmetry_equiv_pos_as_xyz
  1  'x, y, z'
loop_
 _atom_site_type_symbol
 _atom_site_label
 _atom_site_symmetry_multiplicity
 _atom_site_fract_x
 _atom_site_fract_y
 _atom_site_fract_z
 _atom_site_occupancy
  Dy  Dy0  1  0.667402  0.726137  0.714646  1
  Dy  Dy1  1  0.337801  0.263276  0.282511  1
  Dy  Dy2  1  0.168490  0.272872  0.789566  1
  Dy  Dy3  1  0.825011  0.740826  0.213429  1
  Dy  Dy4  1  0.139898  0.726772  0.802913  1
  Dy  Dy5  1  0.848801  0.260515  0.196436  1
  Dy  Dy6  1  0.639430  0.272510  0.697403  1
  Dy  Dy7  1  0.368278  0.738017  0.297715  1
  Dy  Dy8  1  0.545663  0.739452  0.003703  1
  Dy  Dy9  1  0.460977  0.261093  0.008277  1
  Dy  Dy10  1  0.045837  0.271257  0.500555  1
  Dy  Dy11  1  0.953807  0.728418  0.498106  1
  Dy  Dy12  1  0.817843  0.461740  0.924399  1
  Dy  Dy13  1  0.177215  0.537901  0.080223  1
  Dy  Dy14  1  0.321754  0.540601  0.576286  1
  Dy  Dy15  1  0.190305  0.964231  0.071083  1
  Dy  Dy16  1  0.679201  0.460104  0.420207  1
  Dy  Dy17  1  0.820416  0.036707  0.937195  1
  Dy  Dy18  1  0.670541  0.034693  0.417364  1
  Dy  Dy19  1  0.321830  0.963786  0.568565  1
  Si  Si20  1  0.056818  0.505322  0.326008  1
  Si  Si21  1  0.560011  0.005394  0.168854  1
  Si  Si22  1  0.942843  0.494096  0.672669  1
  Si  Si23  1  0.559841  0.496020  0.171340  1
  Si  Si24  1  0.443530  0.504677  0.831436  1
  Bi  Bi25  1  0.932097  0.006690  0.672624  1
  Bi  Bi26  1  0.067314  0.993774  0.329206  1
  Bi  Bi27  1  0.433725  0.993340  0.826537  1
  Ir  Ir28  1  0.931955  0.747290  0.991623  1
  Ir  Ir29  1  0.069931  0.252098  0.012378  1
  Ir  Ir30  1  0.429921  0.253242  0.508088  1
  Ir  Ir31  1  0.571512  0.747149  0.488655  1
