# generated using pymatgen
data_Tb3HoCo18(P6Os)2
_symmetry_space_group_name_H-M   'P 1'
_cell_length_a   3.68559200
_cell_length_b   10.34119210
_cell_length_c   11.74893111
_cell_angle_alpha   90.01590298
_cell_angle_beta   90.00000000
_cell_angle_gamma   90.00000000
_symmetry_Int_Tables_number   1
_chemical_formula_structural   Tb3HoCo18(P6Os)2
_chemical_formula_sum   'Tb3 Ho1 Co18 P12 Os2'
_cell_volume   447.79186858
_cell_formula_units_Z   1
loop_
 _symmetry_equiv_pos_site_id
 _symmetry_equiv_pos_as_xyz
  1  'x, y, z'
loop_
 _atom_site_type_symbol
 _atom_site_label
 _atom_site_symmetry_multiplicity
 _atom_site_fract_x
 _atom_site_fract_y
 _atom_site_fract_z
 _atom_site_occupancy
  Tb  Tb0  1  0.250000  0.582541  0.701840  1
  Tb  Tb1  1  0.250000  0.917349  0.201781  1
  Tb  Tb2  1  0.750000  0.087064  0.795371  1
  Ho  Ho3  1  0.750000  0.413076  0.295633  1
  Co  Co4  1  0.750000  0.284266  0.009022  1
  Co  Co5  1  0.750000  0.215970  0.508822  1
  Co  Co6  1  0.250000  0.405612  0.487476  1
  Co  Co7  1  0.250000  0.094264  0.988377  1
  Co  Co8  1  0.750000  0.591393  0.509195  1
  Co  Co9  1  0.750000  0.908222  0.009403  1
  Co  Co10  1  0.250000  0.220533  0.177078  1
  Co  Co11  1  0.250000  0.280237  0.676793  1
  Co  Co12  1  0.750000  0.777685  0.822922  1
  Co  Co13  1  0.750000  0.722034  0.322803  1
  Co  Co14  1  0.250000  0.887400  0.701557  1
  Co  Co15  1  0.250000  0.611869  0.202195  1
  Co  Co16  1  0.750000  0.115978  0.301128  1
  Co  Co17  1  0.750000  0.384624  0.801489  1
  Co  Co18  1  0.250000  0.465630  0.933496  1
  Co  Co19  1  0.250000  0.034630  0.432654  1
  Co  Co20  1  0.750000  0.532920  0.069379  1
  Co  Co21  1  0.750000  0.966720  0.568494  1
  P  P22  1  0.250000  0.416149  0.112938  1
  P  P23  1  0.250000  0.084082  0.611787  1
  P  P24  1  0.750000  0.578849  0.887351  1
  P  P25  1  0.750000  0.921200  0.386800  1
  P  P26  1  0.250000  0.271814  0.869660  1
  P  P27  1  0.250000  0.229163  0.369170  1
  P  P28  1  0.750000  0.728410  0.132399  1
  P  P29  1  0.750000  0.771502  0.632243  1
  P  P30  1  0.250000  0.593123  0.390164  1
  P  P31  1  0.250000  0.905966  0.890423  1
  P  P32  1  0.750000  0.396647  0.608349  1
  P  P33  1  0.750000  0.103401  0.108282  1
  Os  Os34  1  0.250000  0.715107  0.991983  1
  Os  Os35  1  0.250000  0.784570  0.491543  1
