# generated using pymatgen
data_Gd9Dy3Ni4
_symmetry_space_group_name_H-M   'P 1'
_cell_length_a   6.47505200
_cell_length_b   6.94664318
_cell_length_c   9.68497100
_cell_angle_alpha   90.00000000
_cell_angle_beta   90.00000000
_cell_angle_gamma   90.03336308
_symmetry_Int_Tables_number   1
_chemical_formula_structural   Gd9Dy3Ni4
_chemical_formula_sum   'Gd9 Dy3 Ni4'
_cell_volume   435.62871886
_cell_formula_units_Z   1
loop_
 _symmetry_equiv_pos_site_id
 _symmetry_equiv_pos_as_xyz
  1  'x, y, z'
loop_
 _atom_site_type_symbol
 _atom_site_label
 _atom_site_symmetry_multiplicity
 _atom_site_fract_x
 _atom_site_fract_y
 _atom_site_fract_z
 _atom_site_occupancy
  Gd  Gd0  1  0.322447  0.675101  0.066232  1
  Gd  Gd1  1  0.176347  0.176332  0.433361  1
  Gd  Gd2  1  0.678063  0.324884  0.565017  1
  Gd  Gd3  1  0.824287  0.823691  0.934642  1
  Gd  Gd4  1  0.678063  0.324884  0.934983  1
  Gd  Gd5  1  0.824287  0.823691  0.565358  1
  Gd  Gd6  1  0.322447  0.675101  0.433768  1
  Gd  Gd7  1  0.176347  0.176332  0.066639  1
  Gd  Gd8  1  0.356945  0.961580  0.750000  1
  Dy  Dy9  1  0.857337  0.537612  0.250000  1
  Dy  Dy10  1  0.643024  0.038655  0.250000  1
  Dy  Dy11  1  0.142193  0.461691  0.750000  1
  Ni  Ni12  1  0.051780  0.889097  0.250000  1
  Ni  Ni13  1  0.447274  0.388736  0.250000  1
  Ni  Ni14  1  0.946079  0.111838  0.750000  1
  Ni  Ni15  1  0.553079  0.610778  0.750000  1
