# generated using pymatgen
data_La5Nd3(CdTc)2
_symmetry_space_group_name_H-M   'P 1'
_cell_length_a   10.02843672
_cell_length_b   10.02722807
_cell_length_c   10.02984624
_cell_angle_alpha   60.11269692
_cell_angle_beta   60.11395016
_cell_angle_gamma   60.10637545
_symmetry_Int_Tables_number   1
_chemical_formula_structural   La5Nd3(CdTc)2
_chemical_formula_sum   'La10 Nd6 Cd4 Tc4'
_cell_volume   714.96421627
_cell_formula_units_Z   2
loop_
 _symmetry_equiv_pos_site_id
 _symmetry_equiv_pos_as_xyz
  1  'x, y, z'
loop_
 _atom_site_type_symbol
 _atom_site_label
 _atom_site_symmetry_multiplicity
 _atom_site_fract_x
 _atom_site_fract_y
 _atom_site_fract_z
 _atom_site_occupancy
  La  La0  1  0.345566  0.345583  0.345585  1
  La  La1  1  0.344647  0.344667  0.966101  1
  La  La2  1  0.344609  0.966209  0.344637  1
  La  La3  1  0.966109  0.344677  0.344698  1
  La  La4  1  0.809339  0.189422  0.189505  1
  La  La5  1  0.186055  0.811912  0.811929  1
  La  La6  1  0.189483  0.809283  0.189477  1
  La  La7  1  0.811965  0.185988  0.811951  1
  La  La8  1  0.189526  0.189460  0.809317  1
  La  La9  1  0.811938  0.811895  0.186054  1
  Nd  Nd10  1  0.933808  0.563398  0.563294  1
  Nd  Nd11  1  0.560456  0.938637  0.938720  1
  Nd  Nd12  1  0.563384  0.933793  0.563335  1
  Nd  Nd13  1  0.938646  0.560526  0.938681  1
  Nd  Nd14  1  0.563320  0.563330  0.933817  1
  Nd  Nd15  1  0.938682  0.938605  0.560463  1
  Cd  Cd16  1  0.579397  0.579407  0.579366  1
  Cd  Cd17  1  0.578396  0.578398  0.264001  1
  Cd  Cd18  1  0.578406  0.263992  0.578374  1
  Cd  Cd19  1  0.264008  0.578403  0.578381  1
  Tc  Tc20  1  0.133089  0.133111  0.133069  1
  Tc  Tc21  1  0.132709  0.132740  0.603786  1
  Tc  Tc22  1  0.132721  0.603815  0.132720  1
  Tc  Tc23  1  0.603737  0.132747  0.132735  1
