# generated using pymatgen
data_Ta6PbCl18
_symmetry_space_group_name_H-M   'P 1'
_cell_length_a   10.36220414
_cell_length_b   10.36220419
_cell_length_c   10.36220472
_cell_angle_alpha   55.80894232
_cell_angle_beta   55.80893473
_cell_angle_gamma   55.80893508
_symmetry_Int_Tables_number   1
_chemical_formula_structural   Ta6PbCl18
_chemical_formula_sum   'Ta6 Pb1 Cl18'
_cell_volume   710.30315941
_cell_formula_units_Z   1
loop_
 _symmetry_equiv_pos_site_id
 _symmetry_equiv_pos_as_xyz
  1  'x, y, z'
loop_
 _atom_site_type_symbol
 _atom_site_label
 _atom_site_symmetry_multiplicity
 _atom_site_fract_x
 _atom_site_fract_y
 _atom_site_fract_z
 _atom_site_occupancy
  Ta  Ta0  1  0.412598  0.299601  0.647754  1
  Ta  Ta1  1  0.352246  0.587402  0.700399  1
  Ta  Ta2  1  0.700399  0.352246  0.587402  1
  Ta  Ta3  1  0.299601  0.647754  0.412598  1
  Ta  Ta4  1  0.647754  0.412598  0.299601  1
  Ta  Ta5  1  0.587402  0.700399  0.352246  1
  Pb  Pb6  1  0.000000  0.000000  0.000000  1
  Cl  Cl7  1  0.569743  0.169605  0.439486  1
  Cl  Cl8  1  0.229529  0.370461  0.899513  1
  Cl  Cl9  1  0.899513  0.229529  0.370461  1
  Cl  Cl10  1  0.370461  0.899513  0.229529  1
  Cl  Cl11  1  0.770471  0.629539  0.100487  1
  Cl  Cl12  1  0.100487  0.770471  0.629539  1
  Cl  Cl13  1  0.683197  0.949655  0.173981  1
  Cl  Cl14  1  0.949655  0.173981  0.683197  1
  Cl  Cl15  1  0.173981  0.683197  0.949655  1
  Cl  Cl16  1  0.316803  0.050345  0.826019  1
  Cl  Cl17  1  0.050345  0.826019  0.316803  1
  Cl  Cl18  1  0.826019  0.316803  0.050345  1
  Cl  Cl19  1  0.560514  0.430257  0.830395  1
  Cl  Cl20  1  0.169605  0.439486  0.569743  1
  Cl  Cl21  1  0.439486  0.569743  0.169605  1
  Cl  Cl22  1  0.430257  0.830395  0.560514  1
  Cl  Cl23  1  0.830395  0.560514  0.430257  1
  Cl  Cl24  1  0.629539  0.100487  0.770471  1
