# generated using pymatgen
data_Rb4Zr5Sn3S16
_symmetry_space_group_name_H-M   'P 1'
_cell_length_a   6.61986530
_cell_length_b   7.54811000
_cell_length_c   16.02691400
_cell_angle_alpha   90.00000000
_cell_angle_beta   90.39872764
_cell_angle_gamma   90.00000000
_symmetry_Int_Tables_number   1
_chemical_formula_structural   Rb4Zr5Sn3S16
_chemical_formula_sum   'Rb4 Zr5 Sn3 S16'
_cell_volume   800.80497608
_cell_formula_units_Z   1
loop_
 _symmetry_equiv_pos_site_id
 _symmetry_equiv_pos_as_xyz
  1  'x, y, z'
loop_
 _atom_site_type_symbol
 _atom_site_label
 _atom_site_symmetry_multiplicity
 _atom_site_fract_x
 _atom_site_fract_y
 _atom_site_fract_z
 _atom_site_occupancy
  Rb  Rb0  1  0.346741  0.000000  0.998123  1
  Rb  Rb1  1  0.645831  0.500000  0.500966  1
  Rb  Rb2  1  0.027660  0.000000  0.501372  1
  Rb  Rb3  1  0.971578  0.500000  0.002201  1
  Zr  Zr4  1  0.998439  0.500000  0.746788  1
  Zr  Zr5  1  0.499936  0.249875  0.250066  1
  Zr  Zr6  1  0.499812  0.750647  0.749764  1
  Zr  Zr7  1  0.499936  0.750125  0.250066  1
  Zr  Zr8  1  0.499812  0.249353  0.749764  1
  Sn  Sn9  1  0.004459  0.000000  0.246677  1
  Sn  Sn10  1  0.004599  0.000000  0.753295  1
  Sn  Sn11  1  0.995165  0.500000  0.253564  1
  S  S12  1  0.817757  0.247979  0.342590  1
  S  S13  1  0.821084  0.737249  0.658724  1
  S  S14  1  0.182292  0.748457  0.157604  1
  S  S15  1  0.180786  0.268119  0.841331  1
  S  S16  1  0.182292  0.251543  0.157604  1
  S  S17  1  0.180786  0.731881  0.841331  1
  S  S18  1  0.817757  0.752021  0.342590  1
  S  S19  1  0.821084  0.262751  0.658724  1
  S  S20  1  0.662565  0.000000  0.160526  1
  S  S21  1  0.648106  0.000000  0.840250  1
  S  S22  1  0.337010  0.500000  0.339337  1
  S  S23  1  0.326000  0.500000  0.659086  1
  S  S24  1  0.340763  0.000000  0.339702  1
  S  S25  1  0.356955  0.000000  0.658674  1
  S  S26  1  0.658336  0.500000  0.160643  1
  S  S27  1  0.672459  0.500000  0.838640  1
