# generated using pymatgen
data_Hf4In2CoPdPt2
_symmetry_space_group_name_H-M   'P 1'
_cell_length_a   7.55172386
_cell_length_b   7.53789132
_cell_length_c   3.28843700
_cell_angle_alpha   90.00000000
_cell_angle_beta   90.00000000
_cell_angle_gamma   89.91127774
_symmetry_Int_Tables_number   1
_chemical_formula_structural   Hf4In2CoPdPt2
_chemical_formula_sum   'Hf4 In2 Co1 Pd1 Pt2'
_cell_volume   187.19100589
_cell_formula_units_Z   1
loop_
 _symmetry_equiv_pos_site_id
 _symmetry_equiv_pos_as_xyz
  1  'x, y, z'
loop_
 _atom_site_type_symbol
 _atom_site_label
 _atom_site_symmetry_multiplicity
 _atom_site_fract_x
 _atom_site_fract_y
 _atom_site_fract_z
 _atom_site_occupancy
  Hf  Hf0  1  0.183518  0.311558  0.000000  1
  Hf  Hf1  1  0.834836  0.659409  0.000000  1
  Hf  Hf2  1  0.644335  0.174561  0.000000  1
  Hf  Hf3  1  0.328761  0.860578  0.000000  1
  In  In4  1  0.998464  0.997980  0.500000  1
  In  In5  1  0.495765  0.501903  0.500000  1
  Co  Co6  1  0.372430  0.128337  0.500000  1
  Pd  Pd7  1  0.137352  0.627871  0.500000  1
  Pt  Pt8  1  0.628993  0.871614  0.500000  1
  Pt  Pt9  1  0.875546  0.366189  0.500000  1
