# generated using pymatgen
data_LiLu3(Co4P3)2
_symmetry_space_group_name_H-M   'P 1'
_cell_length_a   3.67434700
_cell_length_b   10.49487500
_cell_length_c   12.06007100
_cell_angle_alpha   90.00000000
_cell_angle_beta   90.00000000
_cell_angle_gamma   90.00000000
_symmetry_Int_Tables_number   1
_chemical_formula_structural   LiLu3(Co4P3)2
_chemical_formula_sum   'Li2 Lu6 Co16 P12'
_cell_volume   465.05819630
_cell_formula_units_Z   2
loop_
 _symmetry_equiv_pos_site_id
 _symmetry_equiv_pos_as_xyz
  1  'x, y, z'
loop_
 _atom_site_type_symbol
 _atom_site_label
 _atom_site_symmetry_multiplicity
 _atom_site_fract_x
 _atom_site_fract_y
 _atom_site_fract_z
 _atom_site_occupancy
  Li  Li0  1  0.500000  0.500000  0.153830  1
  Li  Li1  1  0.000000  0.000000  0.846170  1
  Lu  Lu2  1  0.000000  0.500000  0.523895  1
  Lu  Lu3  1  0.500000  0.000000  0.476105  1
  Lu  Lu4  1  0.500000  0.820737  0.206035  1
  Lu  Lu5  1  0.500000  0.179263  0.206035  1
  Lu  Lu6  1  0.000000  0.679263  0.793965  1
  Lu  Lu7  1  0.000000  0.320737  0.793965  1
  Co  Co8  1  0.500000  0.500000  0.703965  1
  Co  Co9  1  0.000000  0.000000  0.296035  1
  Co  Co10  1  0.000000  0.500000  0.987335  1
  Co  Co11  1  0.500000  0.000000  0.012665  1
  Co  Co12  1  0.500000  0.332798  0.997042  1
  Co  Co13  1  0.500000  0.667202  0.997042  1
  Co  Co14  1  0.000000  0.167202  0.002958  1
  Co  Co15  1  0.000000  0.832798  0.002958  1
  Co  Co16  1  0.500000  0.296778  0.431472  1
  Co  Co17  1  0.500000  0.703222  0.431472  1
  Co  Co18  1  0.000000  0.203222  0.568528  1
  Co  Co19  1  0.000000  0.796778  0.568528  1
  Co  Co20  1  0.500000  0.877699  0.706164  1
  Co  Co21  1  0.500000  0.122301  0.706164  1
  Co  Co22  1  0.000000  0.622301  0.293836  1
  Co  Co23  1  0.000000  0.377699  0.293836  1
  P  P24  1  0.500000  0.500000  0.884173  1
  P  P25  1  0.000000  0.000000  0.115827  1
  P  P26  1  0.500000  0.500000  0.348041  1
  P  P27  1  0.000000  0.000000  0.651959  1
  P  P28  1  0.500000  0.311808  0.616853  1
  P  P29  1  0.500000  0.688192  0.616853  1
  P  P30  1  0.000000  0.188192  0.383147  1
  P  P31  1  0.000000  0.811808  0.383147  1
  P  P32  1  0.500000  0.842335  0.891424  1
  P  P33  1  0.500000  0.157665  0.891424  1
  P  P34  1  0.000000  0.657665  0.108576  1
  P  P35  1  0.000000  0.342335  0.108576  1
