# generated using pymatgen
data_Dy2Lu6Ti11Si16Ag
_symmetry_space_group_name_H-M   'P 1'
_cell_length_a   7.01753907
_cell_length_b   7.01880718
_cell_length_c   12.81400301
_cell_angle_alpha   89.91219673
_cell_angle_beta   90.00276979
_cell_angle_gamma   89.68930551
_symmetry_Int_Tables_number   1
_chemical_formula_structural   Dy2Lu6Ti11Si16Ag
_chemical_formula_sum   'Dy2 Lu6 Ti11 Si16 Ag1'
_cell_volume   631.14053872
_cell_formula_units_Z   1
loop_
 _symmetry_equiv_pos_site_id
 _symmetry_equiv_pos_as_xyz
  1  'x, y, z'
loop_
 _atom_site_type_symbol
 _atom_site_label
 _atom_site_symmetry_multiplicity
 _atom_site_fract_x
 _atom_site_fract_y
 _atom_site_fract_z
 _atom_site_occupancy
  Dy  Dy0  1  0.498388  0.841190  0.714721  1
  Dy  Dy1  1  0.343176  0.999883  0.468231  1
  Lu  Lu2  1  0.997961  0.658991  0.033354  1
  Lu  Lu3  1  0.998941  0.343630  0.531551  1
  Lu  Lu4  1  0.659319  0.998000  0.966939  1
  Lu  Lu5  1  0.159577  0.502091  0.783475  1
  Lu  Lu6  1  0.842182  0.498942  0.284747  1
  Lu  Lu7  1  0.502369  0.159755  0.216603  1
  Ti  Ti8  1  0.349312  0.504329  0.376169  1
  Ti  Ti9  1  0.851822  0.992635  0.376664  1
  Ti  Ti10  1  0.007148  0.150052  0.125374  1
  Ti  Ti11  1  0.992258  0.851789  0.623194  1
  Ti  Ti12  1  0.504813  0.349468  0.623821  1
  Ti  Ti13  1  0.149881  0.007726  0.874952  1
  Ti  Ti14  1  0.826646  0.173743  0.750214  1
  Ti  Ti15  1  0.173180  0.825940  0.249751  1
  Ti  Ti16  1  0.327216  0.327380  0.000164  1
  Ti  Ti17  1  0.492536  0.649149  0.125310  1
  Ti  Ti18  1  0.649883  0.492494  0.874856  1
  Si  Si19  1  0.058970  0.710730  0.433569  1
  Si  Si20  1  0.953022  0.292899  0.935743  1
  Si  Si21  1  0.715214  0.063250  0.566054  1
  Si  Si22  1  0.207023  0.453918  0.185248  1
  Si  Si23  1  0.795456  0.543527  0.690961  1
  Si  Si24  1  0.453093  0.208707  0.815312  1
  Si  Si25  1  0.545392  0.793328  0.308431  1
  Si  Si26  1  0.292789  0.952959  0.064582  1
  Si  Si27  1  0.797843  0.866071  0.183096  1
  Si  Si28  1  0.278684  0.624125  0.571405  1
  Si  Si29  1  0.705675  0.367366  0.068412  1
  Si  Si30  1  0.629021  0.283118  0.427942  1
  Si  Si31  1  0.367425  0.705290  0.932237  1
  Si  Si32  1  0.132390  0.203814  0.317182  1
  Si  Si33  1  0.201071  0.135191  0.682567  1
  Si  Si34  1  0.868056  0.797015  0.817347  1
  Ag  Ag35  1  0.672265  0.671502  0.499821  1
