# generated using pymatgen
data_YbLu7(B6Ru)4
_symmetry_space_group_name_H-M   'P 1'
_cell_length_a   3.59685500
_cell_length_b   9.03805954
_cell_length_c   11.41387594
_cell_angle_alpha   89.93314267
_cell_angle_beta   90.00000000
_cell_angle_gamma   90.00000000
_symmetry_Int_Tables_number   1
_chemical_formula_structural   YbLu7(B6Ru)4
_chemical_formula_sum   'Yb1 Lu7 B24 Ru4'
_cell_volume   371.04875662
_cell_formula_units_Z   1
loop_
 _symmetry_equiv_pos_site_id
 _symmetry_equiv_pos_as_xyz
  1  'x, y, z'
loop_
 _atom_site_type_symbol
 _atom_site_label
 _atom_site_symmetry_multiplicity
 _atom_site_fract_x
 _atom_site_fract_y
 _atom_site_fract_z
 _atom_site_occupancy
  Yb  Yb0  1  0.000000  0.323049  0.413545  1
  Lu  Lu1  1  0.000000  0.676768  0.585137  1
  Lu  Lu2  1  0.000000  0.821770  0.086430  1
  Lu  Lu3  1  0.000000  0.178844  0.914536  1
  Lu  Lu4  1  0.000000  0.944075  0.371786  1
  Lu  Lu5  1  0.000000  0.057314  0.627653  1
  Lu  Lu6  1  0.000000  0.443421  0.128650  1
  Lu  Lu7  1  0.000000  0.555901  0.872545  1
  B  B8  1  0.500000  0.554146  0.433219  1
  B  B9  1  0.500000  0.446408  0.567158  1
  B  B10  1  0.500000  0.052946  0.065856  1
  B  B11  1  0.500000  0.946275  0.933403  1
  B  B12  1  0.500000  0.749214  0.420233  1
  B  B13  1  0.500000  0.250985  0.580756  1
  B  B14  1  0.500000  0.248625  0.079603  1
  B  B15  1  0.500000  0.750901  0.920387  1
  B  B16  1  0.500000  0.792637  0.265607  1
  B  B17  1  0.500000  0.208252  0.734757  1
  B  B18  1  0.500000  0.291059  0.233485  1
  B  B19  1  0.500000  0.707984  0.765869  1
  B  B20  1  0.500000  0.631818  0.184808  1
  B  B21  1  0.500000  0.368717  0.815904  1
  B  B22  1  0.500000  0.130644  0.314561  1
  B  B23  1  0.500000  0.868598  0.684451  1
  B  B24  1  0.500000  0.981884  0.212074  1
  B  B25  1  0.500000  0.017936  0.787247  1
  B  B26  1  0.500000  0.483097  0.287106  1
  B  B27  1  0.500000  0.517982  0.712951  1
  B  B28  1  0.500000  0.606655  0.029501  1
  B  B29  1  0.500000  0.393556  0.970814  1
  B  B30  1  0.500000  0.102746  0.471593  1
  B  B31  1  0.500000  0.895115  0.528985  1
  Ru  Ru32  1  0.000000  0.640115  0.320116  1
  Ru  Ru33  1  0.000000  0.361797  0.680720  1
  Ru  Ru34  1  0.000000  0.136739  0.177608  1
  Ru  Ru35  1  0.000000  0.862026  0.820942  1
