# generated using pymatgen
data_Er16AlCd3Pt4
_symmetry_space_group_name_H-M   'P 1'
_cell_length_a   9.55026421
_cell_length_b   9.55026452
_cell_length_c   9.55026355
_cell_angle_alpha   60.37444755
_cell_angle_beta   60.37444812
_cell_angle_gamma   60.37444603
_symmetry_Int_Tables_number   1
_chemical_formula_structural   Er16AlCd3Pt4
_chemical_formula_sum   'Er16 Al1 Cd3 Pt4'
_cell_volume   621.14624167
_cell_formula_units_Z   1
loop_
 _symmetry_equiv_pos_site_id
 _symmetry_equiv_pos_as_xyz
  1  'x, y, z'
loop_
 _atom_site_type_symbol
 _atom_site_label
 _atom_site_symmetry_multiplicity
 _atom_site_fract_x
 _atom_site_fract_y
 _atom_site_fract_z
 _atom_site_occupancy
  Er  Er0  1  0.348454  0.348454  0.348454  1
  Er  Er1  1  0.356904  0.356904  0.936219  1
  Er  Er2  1  0.356904  0.936219  0.356904  1
  Er  Er3  1  0.936219  0.356904  0.356904  1
  Er  Er4  1  0.810077  0.190437  0.190437  1
  Er  Er5  1  0.194530  0.808406  0.808406  1
  Er  Er6  1  0.190437  0.810077  0.190437  1
  Er  Er7  1  0.808406  0.194530  0.808406  1
  Er  Er8  1  0.190437  0.190437  0.810077  1
  Er  Er9  1  0.808406  0.808406  0.194530  1
  Er  Er10  1  0.931826  0.567304  0.567304  1
  Er  Er11  1  0.563739  0.937324  0.937324  1
  Er  Er12  1  0.567304  0.931826  0.567304  1
  Er  Er13  1  0.937324  0.563739  0.937324  1
  Er  Er14  1  0.567304  0.567304  0.931826  1
  Er  Er15  1  0.937324  0.937324  0.563739  1
  Al  Al16  1  0.581439  0.581439  0.581439  1
  Cd  Cd17  1  0.580659  0.580659  0.255229  1
  Cd  Cd18  1  0.580659  0.255229  0.580659  1
  Cd  Cd19  1  0.255229  0.580659  0.580659  1
  Pt  Pt20  1  0.145033  0.145033  0.145033  1
  Pt  Pt21  1  0.139812  0.139812  0.571762  1
  Pt  Pt22  1  0.139812  0.571762  0.139812  1
  Pt  Pt23  1  0.571762  0.139812  0.139812  1
