# generated using pymatgen
data_Ho3Er7Pt18
_symmetry_space_group_name_H-M   'P 1'
_cell_length_a   9.73037350
_cell_length_b   9.72726750
_cell_length_c   5.75674600
_cell_angle_alpha   90.00000000
_cell_angle_beta   90.00000000
_cell_angle_gamma   90.03673735
_symmetry_Int_Tables_number   1
_chemical_formula_structural   Ho3Er7Pt18
_chemical_formula_sum   'Ho3 Er7 Pt18'
_cell_volume   544.87558551
_cell_formula_units_Z   1
loop_
 _symmetry_equiv_pos_site_id
 _symmetry_equiv_pos_as_xyz
  1  'x, y, z'
loop_
 _atom_site_type_symbol
 _atom_site_label
 _atom_site_symmetry_multiplicity
 _atom_site_fract_x
 _atom_site_fract_y
 _atom_site_fract_z
 _atom_site_occupancy
  Ho  Ho0  1  0.452573  0.809026  0.000000  1
  Ho  Ho1  1  0.547471  0.191012  0.000000  1
  Ho  Ho2  1  0.190938  0.547415  0.000000  1
  Er  Er3  1  0.809023  0.452573  0.000000  1
  Er  Er4  1  0.500035  0.500014  0.500000  1
  Er  Er5  1  0.308972  0.047474  0.500000  1
  Er  Er6  1  0.691049  0.952528  0.500000  1
  Er  Er7  1  0.952475  0.690999  0.500000  1
  Er  Er8  1  0.047422  0.308971  0.500000  1
  Er  Er9  1  0.999971  0.000008  0.000000  1
  Pt  Pt10  1  0.191608  0.808385  0.250757  1
  Pt  Pt11  1  0.808395  0.191789  0.749370  1
  Pt  Pt12  1  0.808395  0.191789  0.250630  1
  Pt  Pt13  1  0.191608  0.808385  0.749243  1
  Pt  Pt14  1  0.440902  0.782062  0.500000  1
  Pt  Pt15  1  0.559104  0.217920  0.500000  1
  Pt  Pt16  1  0.217925  0.559104  0.500000  1
  Pt  Pt17  1  0.782103  0.440906  0.500000  1
  Pt  Pt18  1  0.308132  0.308142  0.249761  1
  Pt  Pt19  1  0.691926  0.691707  0.750347  1
  Pt  Pt20  1  0.691926  0.691707  0.249653  1
  Pt  Pt21  1  0.308132  0.308142  0.750239  1
  Pt  Pt22  1  0.281826  0.059149  0.000000  1
  Pt  Pt23  1  0.718164  0.940872  0.000000  1
  Pt  Pt24  1  0.940802  0.717988  0.000000  1
  Pt  Pt25  1  0.059006  0.281946  0.000000  1
  Pt  Pt26  1  0.999998  0.000007  0.500000  1
  Pt  Pt27  1  0.500119  0.499981  0.000000  1
