# generated using pymatgen
data_Sc6NbMoH16
_symmetry_space_group_name_H-M   'P 1'
_cell_length_a   6.64353245
_cell_length_b   6.64353172
_cell_length_c   6.64353200
_cell_angle_alpha   59.99999863
_cell_angle_beta   60.00000223
_cell_angle_gamma   60.00000363
_symmetry_Int_Tables_number   1
_chemical_formula_structural   Sc6NbMoH16
_chemical_formula_sum   'Sc6 Nb1 Mo1 H16'
_cell_volume   207.33953575
_cell_formula_units_Z   1
loop_
 _symmetry_equiv_pos_site_id
 _symmetry_equiv_pos_as_xyz
  1  'x, y, z'
loop_
 _atom_site_type_symbol
 _atom_site_label
 _atom_site_symmetry_multiplicity
 _atom_site_fract_x
 _atom_site_fract_y
 _atom_site_fract_z
 _atom_site_occupancy
  Sc  Sc0  1  0.000000  0.000000  0.500000  1
  Sc  Sc1  1  0.500000  0.000000  0.500000  1
  Sc  Sc2  1  0.000000  0.500000  0.500000  1
  Sc  Sc3  1  0.500000  0.500000  0.000000  1
  Sc  Sc4  1  0.000000  0.500000  0.000000  1
  Sc  Sc5  1  0.500000  0.000000  0.000000  1
  Nb  Nb6  1  0.000000  0.000000  0.000000  1
  Mo  Mo7  1  0.500000  0.500000  0.500000  1
  H  H8  1  0.879190  0.879190  0.362431  1
  H  H9  1  0.879190  0.362431  0.879190  1
  H  H10  1  0.362431  0.879190  0.879190  1
  H  H11  1  0.879190  0.879190  0.879190  1
  H  H12  1  0.120810  0.120810  0.637569  1
  H  H13  1  0.120810  0.637569  0.120810  1
  H  H14  1  0.637569  0.120810  0.120810  1
  H  H15  1  0.120810  0.120810  0.120810  1
  H  H16  1  0.616905  0.616905  0.149284  1
  H  H17  1  0.616905  0.149284  0.616905  1
  H  H18  1  0.149284  0.616905  0.616905  1
  H  H19  1  0.616905  0.616905  0.616905  1
  H  H20  1  0.383095  0.383095  0.850716  1
  H  H21  1  0.383095  0.850716  0.383095  1
  H  H22  1  0.850716  0.383095  0.383095  1
  H  H23  1  0.383095  0.383095  0.383095  1
