# generated using pymatgen
data_Nb6VCoS12
_symmetry_space_group_name_H-M   'P 1'
_cell_length_a   5.81223000
_cell_length_b   5.81223014
_cell_length_c   12.09640500
_cell_angle_alpha   90.00000000
_cell_angle_beta   90.00000000
_cell_angle_gamma   119.99999918
_symmetry_Int_Tables_number   1
_chemical_formula_structural   Nb6VCoS12
_chemical_formula_sum   'Nb6 V1 Co1 S12'
_cell_volume   353.89346959
_cell_formula_units_Z   1
loop_
 _symmetry_equiv_pos_site_id
 _symmetry_equiv_pos_as_xyz
  1  'x, y, z'
loop_
 _atom_site_type_symbol
 _atom_site_label
 _atom_site_symmetry_multiplicity
 _atom_site_fract_x
 _atom_site_fract_y
 _atom_site_fract_z
 _atom_site_occupancy
  Nb  Nb0  1  0.333333  0.666667  0.000215  1
  Nb  Nb1  1  0.666667  0.333333  0.495612  1
  Nb  Nb2  1  0.333333  0.666667  0.499785  1
  Nb  Nb3  1  0.000000  0.000000  0.002182  1
  Nb  Nb4  1  0.666667  0.333333  0.004388  1
  Nb  Nb5  1  0.000000  0.000000  0.497818  1
  V  V6  1  0.666667  0.333333  0.750000  1
  Co  Co7  1  0.333333  0.666667  0.250000  1
  S  S8  1  0.002095  0.668164  0.131894  1
  S  S9  1  0.667838  0.665073  0.628469  1
  S  S10  1  0.002095  0.333931  0.368106  1
  S  S11  1  0.331836  0.333931  0.131894  1
  S  S12  1  0.334927  0.002765  0.628469  1
  S  S13  1  0.334927  0.332162  0.871531  1
  S  S14  1  0.666069  0.668164  0.368106  1
  S  S15  1  0.997235  0.665073  0.871531  1
  S  S16  1  0.667838  0.002765  0.871531  1
  S  S17  1  0.331836  0.997905  0.368106  1
  S  S18  1  0.666069  0.997905  0.131894  1
  S  S19  1  0.997235  0.332162  0.628469  1
