# generated using pymatgen
data_CeNd5ErHfSb10
_symmetry_space_group_name_H-M   'P 1'
_cell_length_a   9.51567546
_cell_length_b   9.51567561
_cell_length_c   6.42532811
_cell_angle_alpha   89.98943481
_cell_angle_beta   89.98943647
_cell_angle_gamma   119.84760237
_symmetry_Int_Tables_number   1
_chemical_formula_structural   CeNd5ErHfSb10
_chemical_formula_sum   'Ce1 Nd5 Er1 Hf1 Sb10'
_cell_volume   504.62648907
_cell_formula_units_Z   1
loop_
 _symmetry_equiv_pos_site_id
 _symmetry_equiv_pos_as_xyz
  1  'x, y, z'
loop_
 _atom_site_type_symbol
 _atom_site_label
 _atom_site_symmetry_multiplicity
 _atom_site_fract_x
 _atom_site_fract_y
 _atom_site_fract_z
 _atom_site_occupancy
  Ce  Ce0  1  0.615597  0.615597  0.749671  1
  Nd  Nd1  1  0.616851  0.999619  0.249291  1
  Nd  Nd2  1  0.382488  0.001132  0.751040  1
  Nd  Nd3  1  0.999619  0.616851  0.249291  1
  Nd  Nd4  1  0.001132  0.382488  0.751040  1
  Nd  Nd5  1  0.382023  0.382023  0.248687  1
  Er  Er6  1  0.000315  0.000315  0.000696  1
  Hf  Hf7  1  0.001138  0.001138  0.499394  1
  Sb  Sb8  1  0.266175  0.999935  0.258109  1
  Sb  Sb9  1  0.734226  0.998130  0.742032  1
  Sb  Sb10  1  0.999935  0.266175  0.258109  1
  Sb  Sb11  1  0.998130  0.734226  0.742032  1
  Sb  Sb12  1  0.732691  0.732691  0.258785  1
  Sb  Sb13  1  0.267469  0.267469  0.741787  1
  Sb  Sb14  1  0.334603  0.666743  0.000087  1
  Sb  Sb15  1  0.666743  0.334603  0.000087  1
  Sb  Sb16  1  0.666572  0.334292  0.499931  1
  Sb  Sb17  1  0.334292  0.666572  0.499931  1
