# generated using pymatgen
data_Ta8Nb2Si5Ge
_symmetry_space_group_name_H-M   'P 1'
_cell_length_a   7.57453127
_cell_length_b   7.56624627
_cell_length_c   7.56609382
_cell_angle_alpha   128.23804536
_cell_angle_beta   128.27080741
_cell_angle_gamma   76.18696423
_symmetry_Int_Tables_number   1
_chemical_formula_structural   Ta8Nb2Si5Ge
_chemical_formula_sum   'Ta8 Nb2 Si5 Ge1'
_cell_volume   259.93459793
_cell_formula_units_Z   1
loop_
 _symmetry_equiv_pos_site_id
 _symmetry_equiv_pos_as_xyz
  1  'x, y, z'
loop_
 _atom_site_type_symbol
 _atom_site_label
 _atom_site_symmetry_multiplicity
 _atom_site_fract_x
 _atom_site_fract_y
 _atom_site_fract_z
 _atom_site_occupancy
  Ta  Ta0  1  0.182924  0.687984  0.170640  1
  Ta  Ta1  1  0.487737  0.982653  0.171195  1
  Ta  Ta2  1  0.688358  0.517557  0.505648  1
  Ta  Ta3  1  0.982362  0.811075  0.494183  1
  Ta  Ta4  1  0.316128  0.487578  0.505077  1
  Ta  Ta5  1  0.810755  0.316458  0.828522  1
  Ta  Ta6  1  0.500870  0.501287  0.000379  1
  Ta  Ta7  1  0.999724  0.999315  0.999633  1
  Nb  Nb8  1  0.013362  0.183537  0.495184  1
  Nb  Nb9  1  0.518349  0.013060  0.829712  1
  Si  Si10  1  0.130227  0.630423  0.760644  1
  Si  Si11  1  0.630257  0.869615  0.499946  1
  Si  Si12  1  0.369673  0.130037  0.499824  1
  Si  Si13  1  0.869677  0.369747  0.239619  1
  Si  Si14  1  0.749771  0.749596  0.999651  1
  Ge  Ge15  1  0.249826  0.250079  0.000142  1
