# generated using pymatgen
data_TbEr2Al3ZnGePd
_symmetry_space_group_name_H-M   'P 1'
_cell_length_a   6.94364945
_cell_length_b   6.96063626
_cell_length_c   4.26304600
_cell_angle_alpha   90.00000000
_cell_angle_beta   90.00000000
_cell_angle_gamma   119.82315629
_symmetry_Int_Tables_number   1
_chemical_formula_structural   TbEr2Al3ZnGePd
_chemical_formula_sum   'Tb1 Er2 Al3 Zn1 Ge1 Pd1'
_cell_volume   178.75513786
_cell_formula_units_Z   1
loop_
 _symmetry_equiv_pos_site_id
 _symmetry_equiv_pos_as_xyz
  1  'x, y, z'
loop_
 _atom_site_type_symbol
 _atom_site_label
 _atom_site_symmetry_multiplicity
 _atom_site_fract_x
 _atom_site_fract_y
 _atom_site_fract_z
 _atom_site_occupancy
  Tb  Tb0  1  0.420294  0.000461  0.000000  1
  Er  Er1  1  0.999759  0.418882  0.000000  1
  Er  Er2  1  0.582187  0.580630  0.000000  1
  Al  Al3  1  0.768701  0.007968  0.500001  1
  Al  Al4  1  0.240024  0.232485  0.500001  1
  Al  Al5  1  0.991626  0.759794  0.500001  1
  Zn  Zn6  1  0.668238  0.335593  0.500001  1
  Ge  Ge7  1  0.332335  0.664051  0.500001  1
  Pd  Pd8  1  0.996836  0.000137  0.000000  1
