# generated using pymatgen
data_Tb2Pa(Co3P2)3
_symmetry_space_group_name_H-M   'P 1'
_cell_length_a   3.71471500
_cell_length_b   10.52650700
_cell_length_c   12.14406200
_cell_angle_alpha   90.00000000
_cell_angle_beta   90.00000000
_cell_angle_gamma   90.00000000
_symmetry_Int_Tables_number   1
_chemical_formula_structural   Tb2Pa(Co3P2)3
_chemical_formula_sum   'Tb4 Pa2 Co18 P12'
_cell_volume   474.86893397
_cell_formula_units_Z   2
loop_
 _symmetry_equiv_pos_site_id
 _symmetry_equiv_pos_as_xyz
  1  'x, y, z'
loop_
 _atom_site_type_symbol
 _atom_site_label
 _atom_site_symmetry_multiplicity
 _atom_site_fract_x
 _atom_site_fract_y
 _atom_site_fract_z
 _atom_site_occupancy
  Tb  Tb0  1  0.500000  0.815237  0.205207  1
  Tb  Tb1  1  0.500000  0.184763  0.205207  1
  Tb  Tb2  1  0.000000  0.684763  0.794793  1
  Tb  Tb3  1  0.000000  0.315237  0.794793  1
  Pa  Pa4  1  0.000000  0.500000  0.528772  1
  Pa  Pa5  1  0.500000  0.000000  0.471228  1
  Co  Co6  1  0.500000  0.500000  0.158803  1
  Co  Co7  1  0.000000  0.000000  0.841197  1
  Co  Co8  1  0.500000  0.500000  0.696270  1
  Co  Co9  1  0.000000  0.000000  0.303730  1
  Co  Co10  1  0.000000  0.500000  0.985204  1
  Co  Co11  1  0.500000  0.000000  0.014796  1
  Co  Co12  1  0.500000  0.334079  0.994248  1
  Co  Co13  1  0.500000  0.665921  0.994248  1
  Co  Co14  1  0.000000  0.165921  0.005752  1
  Co  Co15  1  0.000000  0.834079  0.005752  1
  Co  Co16  1  0.500000  0.301428  0.431745  1
  Co  Co17  1  0.500000  0.698572  0.431745  1
  Co  Co18  1  0.000000  0.198572  0.568255  1
  Co  Co19  1  0.000000  0.801428  0.568255  1
  Co  Co20  1  0.500000  0.880524  0.710119  1
  Co  Co21  1  0.500000  0.119476  0.710119  1
  Co  Co22  1  0.000000  0.619476  0.289881  1
  Co  Co23  1  0.000000  0.380524  0.289881  1
  P  P24  1  0.500000  0.500000  0.879834  1
  P  P25  1  0.000000  0.000000  0.120166  1
  P  P26  1  0.500000  0.500000  0.343540  1
  P  P27  1  0.000000  0.000000  0.656460  1
  P  P28  1  0.500000  0.306797  0.616586  1
  P  P29  1  0.500000  0.693203  0.616586  1
  P  P30  1  0.000000  0.193203  0.383414  1
  P  P31  1  0.000000  0.806797  0.383414  1
  P  P32  1  0.500000  0.847593  0.894625  1
  P  P33  1  0.500000  0.152407  0.894625  1
  P  P34  1  0.000000  0.652407  0.105375  1
  P  P35  1  0.000000  0.347593  0.105375  1
