# generated using pymatgen
data_Ho8SiPtI12
_symmetry_space_group_name_H-M   'P 1'
_cell_length_a   4.18370700
_cell_length_b   14.00641613
_cell_length_c   14.77935560
_cell_angle_alpha   90.48203964
_cell_angle_beta   90.00000000
_cell_angle_gamma   90.00000000
_symmetry_Int_Tables_number   1
_chemical_formula_structural   Ho8SiPtI12
_chemical_formula_sum   'Ho8 Si1 Pt1 I12'
_cell_volume   866.02098419
_cell_formula_units_Z   1
loop_
 _symmetry_equiv_pos_site_id
 _symmetry_equiv_pos_as_xyz
  1  'x, y, z'
loop_
 _atom_site_type_symbol
 _atom_site_label
 _atom_site_symmetry_multiplicity
 _atom_site_fract_x
 _atom_site_fract_y
 _atom_site_fract_z
 _atom_site_occupancy
  Ho  Ho0  1  0.500000  0.115793  0.346204  1
  Ho  Ho1  1  0.500000  0.884207  0.653796  1
  Ho  Ho2  1  0.500000  0.614520  0.152400  1
  Ho  Ho3  1  0.500000  0.385480  0.847600  1
  Ho  Ho4  1  0.000000  0.105890  0.571778  1
  Ho  Ho5  1  0.000000  0.894110  0.428222  1
  Ho  Ho6  1  0.000000  0.609273  0.926602  1
  Ho  Ho7  1  0.000000  0.390727  0.073398  1
  Si  Si8  1  0.500000  0.500000  0.000000  1
  Pt  Pt9  1  0.500000  0.000000  0.500000  1
  I  I10  1  0.500000  0.249177  0.162288  1
  I  I11  1  0.500000  0.750823  0.837712  1
  I  I12  1  0.500000  0.746539  0.334270  1
  I  I13  1  0.500000  0.253461  0.665730  1
  I  I14  1  0.000000  0.263299  0.413993  1
  I  I15  1  0.000000  0.736701  0.586007  1
  I  I16  1  0.000000  0.757781  0.084822  1
  I  I17  1  0.000000  0.242219  0.915178  1
  I  I18  1  0.000000  0.000728  0.235094  1
  I  I19  1  0.000000  0.999272  0.764906  1
  I  I20  1  0.000000  0.500164  0.258032  1
  I  I21  1  0.000000  0.499836  0.741968  1
