# generated using pymatgen
data_CaNp(Ni2As)4
_symmetry_space_group_name_H-M   'P 1'
_cell_length_a   7.16112911
_cell_length_b   7.16112984
_cell_length_c   3.77126300
_cell_angle_alpha   90.00000000
_cell_angle_beta   90.00000000
_cell_angle_gamma   90.42149146
_symmetry_Int_Tables_number   1
_chemical_formula_structural   CaNp(Ni2As)4
_chemical_formula_sum   'Ca1 Np1 Ni8 As4'
_cell_volume   193.39182907
_cell_formula_units_Z   1
loop_
 _symmetry_equiv_pos_site_id
 _symmetry_equiv_pos_as_xyz
  1  'x, y, z'
loop_
 _atom_site_type_symbol
 _atom_site_label
 _atom_site_symmetry_multiplicity
 _atom_site_fract_x
 _atom_site_fract_y
 _atom_site_fract_z
 _atom_site_occupancy
  Ca  Ca0  1  0.000000  0.000000  0.500000  1
  Np  Np1  1  0.500000  0.500000  0.000000  1
  Ni  Ni2  1  0.589751  0.153426  0.500000  1
  Ni  Ni3  1  0.410249  0.846574  0.500000  1
  Ni  Ni4  1  0.089117  0.345788  0.000000  1
  Ni  Ni5  1  0.910883  0.654212  0.000000  1
  Ni  Ni6  1  0.153426  0.589751  0.500000  1
  Ni  Ni7  1  0.846574  0.410249  0.500000  1
  Ni  Ni8  1  0.345788  0.089117  0.000000  1
  Ni  Ni9  1  0.654212  0.910883  0.000000  1
  As  As10  1  0.715937  0.715937  0.500000  1
  As  As11  1  0.284063  0.284063  0.500000  1
  As  As12  1  0.218100  0.781900  0.000000  1
  As  As13  1  0.781900  0.218100  0.000000  1
