# generated using pymatgen
data_YAlAu3
_symmetry_space_group_name_H-M   'P 1'
_cell_length_a   9.19762800
_cell_length_b   9.19762800
_cell_length_c   9.19762800
_cell_angle_alpha   90.00000000
_cell_angle_beta   90.00000000
_cell_angle_gamma   90.00000000
_symmetry_Int_Tables_number   1
_chemical_formula_structural   YAlAu3
_chemical_formula_sum   'Y8 Al8 Au24'
_cell_volume   778.08585703
_cell_formula_units_Z   8
loop_
 _symmetry_equiv_pos_site_id
 _symmetry_equiv_pos_as_xyz
  1  'x, y, z'
loop_
 _atom_site_type_symbol
 _atom_site_label
 _atom_site_symmetry_multiplicity
 _atom_site_fract_x
 _atom_site_fract_y
 _atom_site_fract_z
 _atom_site_occupancy
  Y  Y0  1  0.890772  0.390773  0.109227  1
  Y  Y1  1  0.609228  0.890772  0.109227  1
  Y  Y2  1  0.390773  0.390773  0.390773  1
  Y  Y3  1  0.109227  0.890772  0.390773  1
  Y  Y4  1  0.890772  0.109227  0.609228  1
  Y  Y5  1  0.609228  0.609228  0.609228  1
  Y  Y6  1  0.390773  0.109227  0.890772  1
  Y  Y7  1  0.109227  0.609228  0.890772  1
  Al  Al8  1  0.103711  0.103711  0.103711  1
  Al  Al9  1  0.396289  0.603711  0.103711  1
  Al  Al10  1  0.603711  0.103711  0.396289  1
  Al  Al11  1  0.896289  0.603711  0.396289  1
  Al  Al12  1  0.103711  0.396289  0.603711  1
  Al  Al13  1  0.396289  0.896289  0.603711  1
  Al  Al14  1  0.603711  0.396289  0.896289  1
  Al  Al15  1  0.896289  0.896289  0.896289  1
  Au  Au16  1  0.262524  0.357224  0.078234  1
  Au  Au17  1  0.237476  0.857223  0.078234  1
  Au  Au18  1  0.578235  0.262524  0.142776  1
  Au  Au19  1  0.921765  0.762524  0.142776  1
  Au  Au20  1  0.857223  0.078234  0.237476  1
  Au  Au21  1  0.642776  0.578235  0.237476  1
  Au  Au22  1  0.357224  0.078234  0.262524  1
  Au  Au23  1  0.142776  0.578235  0.262524  1
  Au  Au24  1  0.078234  0.262524  0.357224  1
  Au  Au25  1  0.421765  0.762524  0.357224  1
  Au  Au26  1  0.762524  0.357224  0.421765  1
  Au  Au27  1  0.737476  0.857223  0.421765  1
  Au  Au28  1  0.262524  0.142776  0.578235  1
  Au  Au29  1  0.237476  0.642776  0.578235  1
  Au  Au30  1  0.578235  0.237476  0.642776  1
  Au  Au31  1  0.921765  0.737476  0.642776  1
  Au  Au32  1  0.857223  0.421765  0.737476  1
  Au  Au33  1  0.642776  0.921765  0.737476  1
  Au  Au34  1  0.357224  0.421765  0.762524  1
  Au  Au35  1  0.142776  0.921765  0.762524  1
  Au  Au36  1  0.078234  0.237476  0.857223  1
  Au  Au37  1  0.421765  0.737476  0.857223  1
  Au  Au38  1  0.762524  0.142776  0.921765  1
  Au  Au39  1  0.737476  0.642776  0.921765  1
