# generated using pymatgen
data_Al4TcPd2Ru
_symmetry_space_group_name_H-M   'P 1'
_cell_length_a   5.98206300
_cell_length_b   5.98206200
_cell_length_c   6.29570100
_cell_angle_alpha   90.00000000
_cell_angle_beta   90.00000000
_cell_angle_gamma   90.00000000
_symmetry_Int_Tables_number   1
_chemical_formula_structural   Al4TcPd2Ru
_chemical_formula_sum   'Al8 Tc2 Pd4 Ru2'
_cell_volume   225.29211203
_cell_formula_units_Z   2
loop_
 _symmetry_equiv_pos_site_id
 _symmetry_equiv_pos_as_xyz
  1  'x, y, z'
loop_
 _atom_site_type_symbol
 _atom_site_label
 _atom_site_symmetry_multiplicity
 _atom_site_fract_x
 _atom_site_fract_y
 _atom_site_fract_z
 _atom_site_occupancy
  Al  Al0  1  0.000000  0.000000  0.250239  1
  Al  Al1  1  0.000000  0.499999  0.250239  1
  Al  Al2  1  0.500002  0.000000  0.250257  1
  Al  Al3  1  0.500002  0.500001  0.250257  1
  Al  Al4  1  0.499997  0.000000  0.749743  1
  Al  Al5  1  0.499997  0.499999  0.749743  1
  Al  Al6  1  0.000000  0.000000  0.749761  1
  Al  Al7  1  0.000000  0.500001  0.749761  1
  Tc  Tc8  1  0.250010  0.250000  0.000000  1
  Tc  Tc9  1  0.749991  0.750001  0.000000  1
  Pd  Pd10  1  0.749996  0.250000  0.000000  1
  Pd  Pd11  1  0.250005  0.750001  0.000000  1
  Pd  Pd12  1  0.249994  0.750001  0.499999  1
  Pd  Pd13  1  0.750006  0.250000  0.500001  1
  Ru  Ru14  1  0.750006  0.750001  0.499999  1
  Ru  Ru15  1  0.249993  0.250000  0.500001  1
