# generated using pymatgen
data_Nb6VRe4Si6Mo
_symmetry_space_group_name_H-M   'P 1'
_cell_length_a   7.63647715
_cell_length_b   7.63632018
_cell_length_c   7.63631962
_cell_angle_alpha   126.30736148
_cell_angle_beta   128.32176120
_cell_angle_gamma   77.74856231
_symmetry_Int_Tables_number   1
_chemical_formula_structural   Nb6VRe4Si6Mo
_chemical_formula_sum   'Nb6 V1 Re4 Si6 Mo1'
_cell_volume   272.94775686
_cell_formula_units_Z   1
loop_
 _symmetry_equiv_pos_site_id
 _symmetry_equiv_pos_as_xyz
  1  'x, y, z'
loop_
 _atom_site_type_symbol
 _atom_site_label
 _atom_site_symmetry_multiplicity
 _atom_site_fract_x
 _atom_site_fract_y
 _atom_site_fract_z
 _atom_site_occupancy
  Nb  Nb0  1  0.555100  0.095188  0.042253  1
  Nb  Nb1  1  0.444900  0.487153  0.540089  1
  Nb  Nb2  1  0.947010  0.487108  0.042261  1
  Nb  Nb3  1  0.052990  0.095250  0.540098  1
  Nb  Nb4  1  0.751564  0.907102  0.658721  1
  Nb  Nb5  1  0.248436  0.907156  0.155538  1
  V  V6  1  0.000000  0.241451  0.241451  1
  Re  Re7  1  0.128931  0.756247  0.626958  1
  Re  Re8  1  0.871069  0.498026  0.627315  1
  Re  Re9  1  0.628155  0.753896  0.126008  1
  Re  Re10  1  0.371845  0.497854  0.125742  1
  Si  Si11  1  0.753528  0.498590  0.252289  1
  Si  Si12  1  0.246472  0.498761  0.745061  1
  Si  Si13  1  0.331595  0.824541  0.492875  1
  Si  Si14  1  0.668405  0.161280  0.492946  1
  Si  Si15  1  0.832200  0.827051  0.994918  1
  Si  Si16  1  0.167800  0.162718  0.994850  1
  Mo  Mo17  1  0.500000  0.242827  0.742827  1
