# generated using pymatgen
data_NdMnCo4As3
_symmetry_space_group_name_H-M   'P 1'
_cell_length_a   3.86168900
_cell_length_b   10.86643500
_cell_length_c   12.40994700
_cell_angle_alpha   90.00000000
_cell_angle_beta   90.00000000
_cell_angle_gamma   90.00000000
_symmetry_Int_Tables_number   1
_chemical_formula_structural   NdMnCo4As3
_chemical_formula_sum   'Nd4 Mn4 Co16 As12'
_cell_volume   520.75603101
_cell_formula_units_Z   4
loop_
 _symmetry_equiv_pos_site_id
 _symmetry_equiv_pos_as_xyz
  1  'x, y, z'
loop_
 _atom_site_type_symbol
 _atom_site_label
 _atom_site_symmetry_multiplicity
 _atom_site_fract_x
 _atom_site_fract_y
 _atom_site_fract_z
 _atom_site_occupancy
  Nd  Nd0  1  0.250000  0.919970  0.202517  1
  Nd  Nd1  1  0.750000  0.080030  0.797483  1
  Nd  Nd2  1  0.750000  0.419970  0.297483  1
  Nd  Nd3  1  0.250000  0.580030  0.702517  1
  Mn  Mn4  1  0.250000  0.800178  0.490943  1
  Mn  Mn5  1  0.750000  0.199822  0.509057  1
  Mn  Mn6  1  0.750000  0.300178  0.009057  1
  Mn  Mn7  1  0.250000  0.699822  0.990943  1
  Co  Co8  1  0.250000  0.094541  0.988837  1
  Co  Co9  1  0.750000  0.905459  0.011163  1
  Co  Co10  1  0.750000  0.594541  0.511163  1
  Co  Co11  1  0.250000  0.405459  0.488837  1
  Co  Co12  1  0.250000  0.282619  0.674854  1
  Co  Co13  1  0.750000  0.717381  0.325146  1
  Co  Co14  1  0.750000  0.782619  0.825146  1
  Co  Co15  1  0.250000  0.217381  0.174854  1
  Co  Co16  1  0.250000  0.617972  0.197213  1
  Co  Co17  1  0.750000  0.382028  0.802787  1
  Co  Co18  1  0.750000  0.117972  0.302787  1
  Co  Co19  1  0.250000  0.882028  0.697213  1
  Co  Co20  1  0.250000  0.033164  0.433445  1
  Co  Co21  1  0.750000  0.966836  0.566555  1
  Co  Co22  1  0.750000  0.533164  0.066555  1
  Co  Co23  1  0.250000  0.466836  0.933445  1
  As  As24  1  0.250000  0.080842  0.614256  1
  As  As25  1  0.750000  0.919158  0.385744  1
  As  As26  1  0.750000  0.580842  0.885744  1
  As  As27  1  0.250000  0.419158  0.114256  1
  As  As28  1  0.250000  0.228799  0.365431  1
  As  As29  1  0.750000  0.771201  0.634569  1
  As  As30  1  0.750000  0.728799  0.134569  1
  As  As31  1  0.250000  0.271201  0.865431  1
  As  As32  1  0.250000  0.899104  0.892667  1
  As  As33  1  0.750000  0.100896  0.107333  1
  As  As34  1  0.750000  0.399104  0.607333  1
  As  As35  1  0.250000  0.600896  0.392667  1
