# generated using pymatgen
data_Pr12Ir2PdRh
_symmetry_space_group_name_H-M   'P 1'
_cell_length_a   6.61103201
_cell_length_b   7.43749828
_cell_length_c   10.07574100
_cell_angle_alpha   90.00000000
_cell_angle_beta   90.00000000
_cell_angle_gamma   90.36067670
_symmetry_Int_Tables_number   1
_chemical_formula_structural   Pr12Ir2PdRh
_chemical_formula_sum   'Pr12 Ir2 Pd1 Rh1'
_cell_volume   495.40972654
_cell_formula_units_Z   1
loop_
 _symmetry_equiv_pos_site_id
 _symmetry_equiv_pos_as_xyz
  1  'x, y, z'
loop_
 _atom_site_type_symbol
 _atom_site_label
 _atom_site_symmetry_multiplicity
 _atom_site_fract_x
 _atom_site_fract_y
 _atom_site_fract_z
 _atom_site_occupancy
  Pr  Pr0  1  0.335697  0.671089  0.063249  1
  Pr  Pr1  1  0.170224  0.181308  0.436583  1
  Pr  Pr2  1  0.671218  0.325686  0.566066  1
  Pr  Pr3  1  0.830871  0.824529  0.931795  1
  Pr  Pr4  1  0.671218  0.325686  0.933934  1
  Pr  Pr5  1  0.830871  0.824529  0.568205  1
  Pr  Pr6  1  0.335697  0.671089  0.436751  1
  Pr  Pr7  1  0.170224  0.181308  0.063417  1
  Pr  Pr8  1  0.853628  0.524833  0.250000  1
  Pr  Pr9  1  0.632211  0.036888  0.250000  1
  Pr  Pr10  1  0.143981  0.466217  0.750000  1
  Pr  Pr11  1  0.359709  0.963257  0.750000  1
  Ir  Ir12  1  0.430325  0.381134  0.250000  1
  Ir  Ir13  1  0.563528  0.619095  0.750000  1
  Pd  Pd14  1  0.070065  0.883889  0.250000  1
  Rh  Rh15  1  0.930532  0.119459  0.750000  1
