# generated using pymatgen
data_HoNb5(B2Ru5)2
_symmetry_space_group_name_H-M   'P 1'
_cell_length_a   9.51722765
_cell_length_b   9.51722765
_cell_length_c   3.05840100
_cell_angle_alpha   90.00000000
_cell_angle_beta   90.00000000
_cell_angle_gamma   90.31803645
_symmetry_Int_Tables_number   1
_chemical_formula_structural   HoNb5(B2Ru5)2
_chemical_formula_sum   'Ho1 Nb5 B4 Ru10'
_cell_volume   277.01842272
_cell_formula_units_Z   1
loop_
 _symmetry_equiv_pos_site_id
 _symmetry_equiv_pos_as_xyz
  1  'x, y, z'
loop_
 _atom_site_type_symbol
 _atom_site_label
 _atom_site_symmetry_multiplicity
 _atom_site_fract_x
 _atom_site_fract_y
 _atom_site_fract_z
 _atom_site_occupancy
  Ho  Ho0  1  0.824360  0.675640  0.000000  1
  Nb  Nb1  1  0.178270  0.321730  0.000000  1
  Nb  Nb2  1  0.324524  0.823126  0.000000  1
  Nb  Nb3  1  0.676874  0.175476  0.000000  1
  Nb  Nb4  1  0.500551  0.500534  0.000000  1
  Nb  Nb5  1  0.999466  0.999449  0.000000  1
  B  B6  1  0.619362  0.880638  0.000000  1
  B  B7  1  0.377794  0.122206  0.000000  1
  B  B8  1  0.122536  0.620410  0.000000  1
  B  B9  1  0.879590  0.377464  0.000000  1
  Ru  Ru10  1  0.559562  0.724168  0.500000  1
  Ru  Ru11  1  0.426934  0.282661  0.500000  1
  Ru  Ru12  1  0.081529  0.782988  0.500000  1
  Ru  Ru13  1  0.930390  0.216761  0.500000  1
  Ru  Ru14  1  0.283239  0.569610  0.500000  1
  Ru  Ru15  1  0.717012  0.418471  0.500000  1
  Ru  Ru16  1  0.217339  0.073066  0.500000  1
  Ru  Ru17  1  0.775832  0.940438  0.500000  1
  Ru  Ru18  1  0.496554  0.003446  0.500000  1
  Ru  Ru19  1  0.008284  0.491716  0.500000  1
