# generated using pymatgen
data_Ho4Er4Si8PdPt7
_symmetry_space_group_name_H-M   'P 1'
_cell_length_a   4.26366800
_cell_length_b   7.47407287
_cell_length_c   13.96841100
_cell_angle_alpha   89.94998284
_cell_angle_beta   90.00000000
_cell_angle_gamma   90.00000000
_symmetry_Int_Tables_number   1
_chemical_formula_structural   Ho4Er4Si8PdPt7
_chemical_formula_sum   'Ho4 Er4 Si8 Pd1 Pt7'
_cell_volume   445.13069918
_cell_formula_units_Z   1
loop_
 _symmetry_equiv_pos_site_id
 _symmetry_equiv_pos_as_xyz
  1  'x, y, z'
loop_
 _atom_site_type_symbol
 _atom_site_label
 _atom_site_symmetry_multiplicity
 _atom_site_fract_x
 _atom_site_fract_y
 _atom_site_fract_z
 _atom_site_occupancy
  Ho  Ho0  1  0.000000  0.300528  0.999818  1
  Ho  Ho1  1  0.500000  0.699885  0.499799  1
  Ho  Ho2  1  0.000000  0.293879  0.500077  1
  Ho  Ho3  1  0.500000  0.705287  0.000266  1
  Er  Er4  1  0.000000  0.203800  0.249484  1
  Er  Er5  1  0.500000  0.795981  0.250199  1
  Er  Er6  1  0.000000  0.203223  0.750153  1
  Er  Er7  1  0.500000  0.795719  0.750127  1
  Si  Si8  1  0.000000  0.907393  0.591937  1
  Si  Si9  1  0.500000  0.094585  0.907024  1
  Si  Si10  1  0.000000  0.906321  0.407363  1
  Si  Si11  1  0.500000  0.094021  0.092519  1
  Si  Si12  1  0.000000  0.593862  0.147071  1
  Si  Si13  1  0.500000  0.405977  0.351743  1
  Si  Si14  1  0.000000  0.594137  0.855890  1
  Si  Si15  1  0.500000  0.403372  0.645851  1
  Pd  Pd16  1  0.000000  0.580744  0.656935  1
  Pt  Pt17  1  0.500000  0.074551  0.608690  1
  Pt  Pt18  1  0.000000  0.924307  0.890975  1
  Pt  Pt19  1  0.500000  0.075900  0.391245  1
  Pt  Pt20  1  0.000000  0.924100  0.108617  1
  Pt  Pt21  1  0.500000  0.420250  0.155359  1
  Pt  Pt22  1  0.000000  0.579953  0.346531  1
  Pt  Pt23  1  0.500000  0.422227  0.842325  1
