# generated using pymatgen
data_Hf18MnRe6AsW2
_symmetry_space_group_name_H-M   'P 1'
_cell_length_a   8.61512423
_cell_length_b   8.61512561
_cell_length_c   8.58267300
_cell_angle_alpha   90.00000000
_cell_angle_beta   90.00000000
_cell_angle_gamma   120.02362968
_symmetry_Int_Tables_number   1
_chemical_formula_structural   Hf18MnRe6AsW2
_chemical_formula_sum   'Hf18 Mn1 Re6 As1 W2'
_cell_volume   551.53477111
_cell_formula_units_Z   1
loop_
 _symmetry_equiv_pos_site_id
 _symmetry_equiv_pos_as_xyz
  1  'x, y, z'
loop_
 _atom_site_type_symbol
 _atom_site_label
 _atom_site_symmetry_multiplicity
 _atom_site_fract_x
 _atom_site_fract_y
 _atom_site_fract_z
 _atom_site_occupancy
  Hf  Hf0  1  0.798063  0.596100  0.556945  1
  Hf  Hf1  1  0.797959  0.202041  0.556897  1
  Hf  Hf2  1  0.403900  0.201937  0.556945  1
  Hf  Hf3  1  0.193387  0.386960  0.453681  1
  Hf  Hf4  1  0.193567  0.806433  0.453790  1
  Hf  Hf5  1  0.613040  0.806613  0.453681  1
  Hf  Hf6  1  0.193387  0.386960  0.046319  1
  Hf  Hf7  1  0.193567  0.806433  0.046210  1
  Hf  Hf8  1  0.613040  0.806613  0.046319  1
  Hf  Hf9  1  0.798063  0.596100  0.943055  1
  Hf  Hf10  1  0.797959  0.202041  0.943103  1
  Hf  Hf11  1  0.403900  0.201937  0.943055  1
  Hf  Hf12  1  0.461418  0.922908  0.750000  1
  Hf  Hf13  1  0.461359  0.538641  0.750000  1
  Hf  Hf14  1  0.077092  0.538582  0.750000  1
  Hf  Hf15  1  0.541396  0.082893  0.250000  1
  Hf  Hf16  1  0.541421  0.458579  0.250000  1
  Hf  Hf17  1  0.917107  0.458604  0.250000  1
  Mn  Mn18  1  0.666693  0.333307  0.750000  1
  Re  Re19  1  0.111154  0.222055  0.750000  1
  Re  Re20  1  0.111141  0.888859  0.750000  1
  Re  Re21  1  0.777945  0.888846  0.750000  1
  Re  Re22  1  0.888681  0.777244  0.250000  1
  Re  Re23  1  0.888706  0.111294  0.250000  1
  Re  Re24  1  0.222756  0.111319  0.250000  1
  As  As25  1  0.333358  0.666642  0.250000  1
  W  W26  1  0.999970  0.000030  0.500465  1
  W  W27  1  0.999970  0.000030  0.999535  1
