# generated using pymatgen
data_ZrNb3(GaRh5)2
_symmetry_space_group_name_H-M   'P 1'
_cell_length_a   5.52896603
_cell_length_b   5.52896657
_cell_length_c   8.04525610
_cell_angle_alpha   89.98816530
_cell_angle_beta   89.98816112
_cell_angle_gamma   96.86865570
_symmetry_Int_Tables_number   1
_chemical_formula_structural   ZrNb3(GaRh5)2
_chemical_formula_sum   'Zr1 Nb3 Ga2 Rh10'
_cell_volume   244.17406327
_cell_formula_units_Z   1
loop_
 _symmetry_equiv_pos_site_id
 _symmetry_equiv_pos_as_xyz
  1  'x, y, z'
loop_
 _atom_site_type_symbol
 _atom_site_label
 _atom_site_symmetry_multiplicity
 _atom_site_fract_x
 _atom_site_fract_y
 _atom_site_fract_z
 _atom_site_occupancy
  Zr  Zr0  1  0.775517  0.224483  0.000000  1
  Nb  Nb1  1  0.778536  0.221464  0.500000  1
  Nb  Nb2  1  0.218200  0.781800  0.000000  1
  Nb  Nb3  1  0.219553  0.780447  0.500000  1
  Ga  Ga4  1  0.499579  0.502122  0.749570  1
  Ga  Ga5  1  0.497878  0.500421  0.250430  1
  Rh  Rh6  1  0.723623  0.722136  0.000332  1
  Rh  Rh7  1  0.721587  0.719756  0.499693  1
  Rh  Rh8  1  0.277864  0.276377  0.999668  1
  Rh  Rh9  1  0.280244  0.278413  0.500307  1
  Rh  Rh10  1  0.497458  0.995545  0.746251  1
  Rh  Rh11  1  0.497262  0.995260  0.253718  1
  Rh  Rh12  1  0.001886  0.998380  0.255209  1
  Rh  Rh13  1  0.001620  0.998114  0.744791  1
  Rh  Rh14  1  0.004740  0.502738  0.746282  1
  Rh  Rh15  1  0.004455  0.502542  0.253749  1
