# generated using pymatgen
data_Dy5Tc3(Ni4P3)4
_symmetry_space_group_name_H-M   'P 1'
_cell_length_a   12.17150900
_cell_length_b   12.17150925
_cell_length_c   3.73639800
_cell_angle_alpha   90.00000000
_cell_angle_beta   90.00000000
_cell_angle_gamma   120.00000203
_symmetry_Int_Tables_number   1
_chemical_formula_structural   Dy5Tc3(Ni4P3)4
_chemical_formula_sum   'Dy5 Tc3 Ni16 P12'
_cell_volume   479.37194314
_cell_formula_units_Z   1
loop_
 _symmetry_equiv_pos_site_id
 _symmetry_equiv_pos_as_xyz
  1  'x, y, z'
loop_
 _atom_site_type_symbol
 _atom_site_label
 _atom_site_symmetry_multiplicity
 _atom_site_fract_x
 _atom_site_fract_y
 _atom_site_fract_z
 _atom_site_occupancy
  Dy  Dy0  1  0.666667  0.333333  0.000000  1
  Dy  Dy1  1  0.333333  0.666667  0.000000  1
  Dy  Dy2  1  0.815539  0.815539  0.500000  1
  Dy  Dy3  1  0.184461  0.000000  0.500000  1
  Dy  Dy4  1  0.000000  0.184461  0.500000  1
  Tc  Tc5  1  0.443503  0.443503  0.000000  1
  Tc  Tc6  1  0.556497  0.000000  0.000000  1
  Tc  Tc7  1  0.000000  0.556497  0.000000  1
  Ni  Ni8  1  0.873461  0.357192  0.500000  1
  Ni  Ni9  1  0.642808  0.516270  0.500000  1
  Ni  Ni10  1  0.483730  0.126539  0.500000  1
  Ni  Ni11  1  0.357192  0.873461  0.500000  1
  Ni  Ni12  1  0.516270  0.642808  0.500000  1
  Ni  Ni13  1  0.126539  0.483730  0.500000  1
  Ni  Ni14  1  0.806629  0.183595  0.000000  1
  Ni  Ni15  1  0.816405  0.623033  0.000000  1
  Ni  Ni16  1  0.376967  0.193371  0.000000  1
  Ni  Ni17  1  0.183595  0.806629  0.000000  1
  Ni  Ni18  1  0.623033  0.816405  0.000000  1
  Ni  Ni19  1  0.193371  0.376967  0.000000  1
  Ni  Ni20  1  0.281521  0.281521  0.500000  1
  Ni  Ni21  1  0.718479  0.000000  0.500000  1
  Ni  Ni22  1  0.000000  0.718479  0.500000  1
  Ni  Ni23  1  0.000000  0.000000  0.000000  1
  P  P24  1  0.684090  0.163285  0.500000  1
  P  P25  1  0.836715  0.520805  0.500000  1
  P  P26  1  0.479195  0.315910  0.500000  1
  P  P27  1  0.163285  0.684090  0.500000  1
  P  P28  1  0.520805  0.836715  0.500000  1
  P  P29  1  0.315910  0.479195  0.500000  1
  P  P30  1  0.178838  0.178838  0.000000  1
  P  P31  1  0.821162  0.000000  0.000000  1
  P  P32  1  0.000000  0.821162  0.000000  1
  P  P33  1  0.635036  0.635036  0.000000  1
  P  P34  1  0.364964  0.000000  0.000000  1
  P  P35  1  0.000000  0.364964  0.000000  1
