# generated using pymatgen
data_LaPa(PS3)4
_symmetry_space_group_name_H-M   'P 1'
_cell_length_a   7.08078200
_cell_length_b   7.08078200
_cell_length_c   9.74227300
_cell_angle_alpha   90.00000000
_cell_angle_beta   90.00000000
_cell_angle_gamma   90.00000000
_symmetry_Int_Tables_number   1
_chemical_formula_structural   LaPa(PS3)4
_chemical_formula_sum   'La1 Pa1 P4 S12'
_cell_volume   488.45295662
_cell_formula_units_Z   1
loop_
 _symmetry_equiv_pos_site_id
 _symmetry_equiv_pos_as_xyz
  1  'x, y, z'
loop_
 _atom_site_type_symbol
 _atom_site_label
 _atom_site_symmetry_multiplicity
 _atom_site_fract_x
 _atom_site_fract_y
 _atom_site_fract_z
 _atom_site_occupancy
  La  La0  1  0.000000  0.000000  0.250000  1
  Pa  Pa1  1  0.000000  0.000000  0.750000  1
  P  P2  1  0.060373  0.349823  0.501861  1
  P  P3  1  0.939627  0.650177  0.501861  1
  P  P4  1  0.349823  0.939627  0.998139  1
  P  P5  1  0.650177  0.060373  0.998139  1
  S  S6  1  0.205786  0.310538  0.680623  1
  S  S7  1  0.669244  0.215562  0.167960  1
  S  S8  1  0.176858  0.173300  0.989590  1
  S  S9  1  0.826700  0.176858  0.510410  1
  S  S10  1  0.173300  0.823142  0.510410  1
  S  S11  1  0.823142  0.826700  0.989590  1
  S  S12  1  0.215562  0.330756  0.332040  1
  S  S13  1  0.689462  0.205786  0.819377  1
  S  S14  1  0.310538  0.794214  0.819377  1
  S  S15  1  0.784438  0.669244  0.332040  1
  S  S16  1  0.794214  0.689462  0.680623  1
  S  S17  1  0.330756  0.784438  0.167960  1
