# generated using pymatgen
data_Tb20Ir9RuRh2
_symmetry_space_group_name_H-M   'P 1'
_cell_length_a   10.92024400
_cell_length_b   10.92024400
_cell_length_c   6.44198600
_cell_angle_alpha   90.00000000
_cell_angle_beta   90.00000000
_cell_angle_gamma   90.00000000
_symmetry_Int_Tables_number   1
_chemical_formula_structural   Tb20Ir9RuRh2
_chemical_formula_sum   'Tb20 Ir9 Ru1 Rh2'
_cell_volume   768.21796882
_cell_formula_units_Z   1
loop_
 _symmetry_equiv_pos_site_id
 _symmetry_equiv_pos_as_xyz
  1  'x, y, z'
loop_
 _atom_site_type_symbol
 _atom_site_label
 _atom_site_symmetry_multiplicity
 _atom_site_fract_x
 _atom_site_fract_y
 _atom_site_fract_z
 _atom_site_occupancy
  Tb  Tb0  1  0.292355  0.087505  0.377671  1
  Tb  Tb1  1  0.292652  0.912430  0.880549  1
  Tb  Tb2  1  0.707348  0.087570  0.880549  1
  Tb  Tb3  1  0.707645  0.912495  0.377671  1
  Tb  Tb4  1  0.587570  0.792652  0.880549  1
  Tb  Tb5  1  0.587505  0.207645  0.377671  1
  Tb  Tb6  1  0.412495  0.792355  0.377671  1
  Tb  Tb7  1  0.412430  0.207348  0.880549  1
  Tb  Tb8  1  0.209672  0.411193  0.620769  1
  Tb  Tb9  1  0.209640  0.588603  0.120424  1
  Tb  Tb10  1  0.790360  0.411397  0.120424  1
  Tb  Tb11  1  0.790328  0.588807  0.620769  1
  Tb  Tb12  1  0.911397  0.709640  0.120424  1
  Tb  Tb13  1  0.911193  0.290328  0.620769  1
  Tb  Tb14  1  0.088807  0.709672  0.620769  1
  Tb  Tb15  1  0.088603  0.290360  0.120424  1
  Tb  Tb16  1  0.000000  0.000000  0.499189  1
  Tb  Tb17  1  0.000000  0.000000  0.999187  1
  Tb  Tb18  1  0.500000  0.500000  0.999187  1
  Tb  Tb19  1  0.500000  0.500000  0.499189  1
  Ir  Ir20  1  0.847267  0.154512  0.250390  1
  Ir  Ir21  1  0.847382  0.845871  0.750122  1
  Ir  Ir22  1  0.152618  0.154129  0.750122  1
  Ir  Ir23  1  0.152733  0.845488  0.250390  1
  Ir  Ir24  1  0.654129  0.347382  0.750122  1
  Ir  Ir25  1  0.654512  0.652733  0.250390  1
  Ir  Ir26  1  0.345488  0.347267  0.250390  1
  Ir  Ir27  1  0.345871  0.652618  0.750122  1
  Ir  Ir28  1  0.500000  0.000000  0.622974  1
  Ru  Ru29  1  0.500000  0.000000  0.123181  1
  Rh  Rh30  1  0.000000  0.500000  0.878581  1
  Rh  Rh31  1  0.000000  0.500000  0.378809  1
