# generated using pymatgen
data_DyY(Co3Si2)2
_symmetry_space_group_name_H-M   'P 1'
_cell_length_a   6.26704200
_cell_length_b   6.26704267
_cell_length_c   6.26704196
_cell_angle_alpha   130.57856552
_cell_angle_beta   113.05969123
_cell_angle_gamma   87.58254399
_symmetry_Int_Tables_number   1
_chemical_formula_structural   DyY(Co3Si2)2
_chemical_formula_sum   'Dy1 Y1 Co6 Si4'
_cell_volume   163.85755523
_cell_formula_units_Z   1
loop_
 _symmetry_equiv_pos_site_id
 _symmetry_equiv_pos_as_xyz
  1  'x, y, z'
loop_
 _atom_site_type_symbol
 _atom_site_label
 _atom_site_symmetry_multiplicity
 _atom_site_fract_x
 _atom_site_fract_y
 _atom_site_fract_z
 _atom_site_occupancy
  Dy  Dy0  1  0.250000  0.529835  0.279835  1
  Y  Y1  1  0.750000  0.469512  0.719512  1
  Co  Co2  1  0.000447  0.000086  0.500532  1
  Co  Co3  1  0.499553  0.000086  0.999639  1
  Co  Co4  1  0.724429  0.000436  0.724392  1
  Co  Co5  1  0.223955  0.499963  0.724392  1
  Co  Co6  1  0.276045  0.000436  0.276007  1
  Co  Co7  1  0.775571  0.499963  0.276007  1
  Si  Si8  1  0.080462  0.873385  0.792923  1
  Si  Si9  1  0.918691  0.125612  0.206920  1
  Si  Si10  1  0.581309  0.788229  0.206920  1
  Si  Si11  1  0.419538  0.212460  0.792923  1
