# generated using pymatgen
data_Hf2Mn3Re
_symmetry_space_group_name_H-M   'P 1'
_cell_length_a   5.03501200
_cell_length_b   5.03501261
_cell_length_c   8.20323000
_cell_angle_alpha   90.00000000
_cell_angle_beta   90.00000000
_cell_angle_gamma   119.99999602
_symmetry_Int_Tables_number   1
_chemical_formula_structural   Hf2Mn3Re
_chemical_formula_sum   'Hf4 Mn6 Re2'
_cell_volume   180.10120130
_cell_formula_units_Z   2
loop_
 _symmetry_equiv_pos_site_id
 _symmetry_equiv_pos_as_xyz
  1  'x, y, z'
loop_
 _atom_site_type_symbol
 _atom_site_label
 _atom_site_symmetry_multiplicity
 _atom_site_fract_x
 _atom_site_fract_y
 _atom_site_fract_z
 _atom_site_occupancy
  Hf  Hf0  1  0.333333  0.666667  0.062618  1
  Hf  Hf1  1  0.666667  0.333333  0.562618  1
  Hf  Hf2  1  0.666667  0.333333  0.937382  1
  Hf  Hf3  1  0.333333  0.666667  0.437382  1
  Mn  Mn4  1  0.825368  0.650738  0.250000  1
  Mn  Mn5  1  0.174632  0.825368  0.750000  1
  Mn  Mn6  1  0.650738  0.825368  0.750000  1
  Mn  Mn7  1  0.349262  0.174632  0.250000  1
  Mn  Mn8  1  0.825368  0.174632  0.250000  1
  Mn  Mn9  1  0.174632  0.349262  0.750000  1
  Re  Re10  1  0.000000  0.000000  0.000000  1
  Re  Re11  1  0.000000  0.000000  0.500000  1
