# generated using pymatgen
data_Dy5B(OsC3)2
_symmetry_space_group_name_H-M   'P 1'
_cell_length_a   8.12356600
_cell_length_b   8.12356647
_cell_length_c   3.47357900
_cell_angle_alpha   90.00000000
_cell_angle_beta   90.00000000
_cell_angle_gamma   121.57373401
_symmetry_Int_Tables_number   1
_chemical_formula_structural   Dy5B(OsC3)2
_chemical_formula_sum   'Dy5 B1 Os2 C6'
_cell_volume   195.29603822
_cell_formula_units_Z   1
loop_
 _symmetry_equiv_pos_site_id
 _symmetry_equiv_pos_as_xyz
  1  'x, y, z'
loop_
 _atom_site_type_symbol
 _atom_site_label
 _atom_site_symmetry_multiplicity
 _atom_site_fract_x
 _atom_site_fract_y
 _atom_site_fract_z
 _atom_site_occupancy
  Dy  Dy0  1  0.500000  0.500000  0.000000  1
  Dy  Dy1  1  0.077149  0.331186  0.500000  1
  Dy  Dy2  1  0.922851  0.668814  0.500000  1
  Dy  Dy3  1  0.668814  0.922851  0.500000  1
  Dy  Dy4  1  0.331186  0.077149  0.500000  1
  B  B5  1  0.000000  0.000000  0.000000  1
  Os  Os6  1  0.714231  0.285769  0.000000  1
  Os  Os7  1  0.285769  0.714231  0.000000  1
  C  C8  1  0.632965  0.367035  0.500000  1
  C  C9  1  0.367035  0.632965  0.500000  1
  C  C10  1  0.184524  0.184524  0.000000  1
  C  C11  1  0.815476  0.815476  0.000000  1
  C  C12  1  0.000000  0.500000  0.000000  1
  C  C13  1  0.500000  0.000000  0.000000  1
