# generated using pymatgen
data_Li3Pr3AgSn4
_symmetry_space_group_name_H-M   'P 1'
_cell_length_a   8.91368298
_cell_length_b   8.92644876
_cell_length_c   8.92644973
_cell_angle_alpha   149.22632214
_cell_angle_beta   131.99050086
_cell_angle_gamma   58.12952336
_symmetry_Int_Tables_number   1
_chemical_formula_structural   Li3Pr3AgSn4
_chemical_formula_sum   'Li3 Pr3 Ag1 Sn4'
_cell_volume   268.04611231
_cell_formula_units_Z   1
loop_
 _symmetry_equiv_pos_site_id
 _symmetry_equiv_pos_as_xyz
  1  'x, y, z'
loop_
 _atom_site_type_symbol
 _atom_site_label
 _atom_site_symmetry_multiplicity
 _atom_site_fract_x
 _atom_site_fract_y
 _atom_site_fract_z
 _atom_site_occupancy
  Li  Li0  1  0.481589  0.671680  0.809910  1
  Li  Li1  1  0.860567  0.671852  0.188715  1
  Li  Li2  1  0.141206  0.330120  0.811087  1
  Pr  Pr3  1  0.498546  0.998327  0.500218  1
  Pr  Pr4  1  0.869269  0.868984  0.000285  1
  Pr  Pr5  1  0.134848  0.131113  0.003735  1
  Ag  Ag6  1  0.517706  0.328249  0.189456  1
  Sn  Sn7  1  0.277647  0.785320  0.492327  1
  Sn  Sn8  1  0.714692  0.211947  0.502744  1
  Sn  Sn9  1  0.805716  0.502005  0.303712  1
  Sn  Sn10  1  0.198214  0.500403  0.697811  1
