# generated using pymatgen
data_TbY3Sn3Sb3Rh7
_symmetry_space_group_name_H-M   'P 1'
_cell_length_a   7.61781071
_cell_length_b   7.62344451
_cell_length_c   7.62344412
_cell_angle_alpha   109.48881520
_cell_angle_beta   109.45883128
_cell_angle_gamma   109.45883238
_symmetry_Int_Tables_number   1
_chemical_formula_structural   TbY3Sn3Sb3Rh7
_chemical_formula_sum   'Tb1 Y3 Sn3 Sb3 Rh7'
_cell_volume   340.83894737
_cell_formula_units_Z   1
loop_
 _symmetry_equiv_pos_site_id
 _symmetry_equiv_pos_as_xyz
  1  'x, y, z'
loop_
 _atom_site_type_symbol
 _atom_site_label
 _atom_site_symmetry_multiplicity
 _atom_site_fract_x
 _atom_site_fract_y
 _atom_site_fract_z
 _atom_site_occupancy
  Tb  Tb0  1  0.494920  0.497144  0.497144  1
  Y  Y1  1  0.487356  0.000022  0.000022  1
  Y  Y2  1  0.997859  0.502885  0.999972  1
  Y  Y3  1  0.997859  0.999972  0.502885  1
  Sn  Sn4  1  0.993045  0.307537  0.307537  1
  Sn  Sn5  1  0.685501  0.000004  0.692463  1
  Sn  Sn6  1  0.685501  0.692463  0.000004  1
  Sb  Sb7  1  0.995112  0.674138  0.674138  1
  Sb  Sb8  1  0.320961  0.999985  0.325854  1
  Sb  Sb9  1  0.320961  0.325854  0.999985  1
  Rh  Rh10  1  0.016926  0.999990  0.999990  1
  Rh  Rh11  1  0.502857  0.753294  0.253299  1
  Rh  Rh12  1  0.749556  0.499987  0.246705  1
  Rh  Rh13  1  0.249586  0.746705  0.500016  1
  Rh  Rh14  1  0.249586  0.500016  0.746705  1
  Rh  Rh15  1  0.502857  0.253299  0.753294  1
  Rh  Rh16  1  0.749556  0.246705  0.499987  1
