# generated using pymatgen
data_ReS2BrO9
_symmetry_space_group_name_H-M   'P 1'
_cell_length_a   7.47019418
_cell_length_b   8.22076432
_cell_length_c   8.48558291
_cell_angle_alpha   89.91115422
_cell_angle_beta   101.61129170
_cell_angle_gamma   112.23433481
_symmetry_Int_Tables_number   1
_chemical_formula_structural   ReS2BrO9
_chemical_formula_sum   'Re2 S4 Br2 O18'
_cell_volume   470.88478685
_cell_formula_units_Z   2
loop_
 _symmetry_equiv_pos_site_id
 _symmetry_equiv_pos_as_xyz
  1  'x, y, z'
loop_
 _atom_site_type_symbol
 _atom_site_label
 _atom_site_symmetry_multiplicity
 _atom_site_fract_x
 _atom_site_fract_y
 _atom_site_fract_z
 _atom_site_occupancy
  Re  Re0  1  0.768255  0.307860  0.700844  1
  Re  Re1  1  0.231745  0.692140  0.299156  1
  S  S2  1  0.088103  0.725395  0.881578  1
  S  S3  1  0.911897  0.274605  0.118422  1
  S  S4  1  0.666753  0.644859  0.784293  1
  S  S5  1  0.333247  0.355141  0.215707  1
  Br  Br6  1  0.009118  0.185234  0.687761  1
  Br  Br7  1  0.990882  0.814766  0.312239  1
  O  O8  1  0.556797  0.122368  0.650951  1
  O  O9  1  0.443203  0.877632  0.349049  1
  O  O10  1  0.776044  0.410314  0.525564  1
  O  O11  1  0.223956  0.589686  0.474436  1
  O  O12  1  0.162742  0.845082  0.766905  1
  O  O13  1  0.837258  0.154918  0.233095  1
  O  O14  1  0.211651  0.772015  0.046577  1
  O  O15  1  0.788349  0.227985  0.953423  1
  O  O16  1  0.029966  0.535894  0.832028  1
  O  O17  1  0.970034  0.464106  0.167972  1
  O  O18  1  0.883513  0.740604  0.913587  1
  O  O19  1  0.116487  0.259396  0.086413  1
  O  O20  1  0.531967  0.676073  0.865006  1
  O  O21  1  0.468033  0.323927  0.134994  1
  O  O22  1  0.690663  0.702333  0.627747  1
  O  O23  1  0.309337  0.297667  0.372253  1
  O  O24  1  0.636857  0.446880  0.792684  1
  O  O25  1  0.363143  0.553120  0.207316  1
