# generated using pymatgen
data_Hf4Al4Cr3Pd
_symmetry_space_group_name_H-M   'P 1'
_cell_length_a   5.14027371
_cell_length_b   5.14027618
_cell_length_c   8.50803900
_cell_angle_alpha   90.00000000
_cell_angle_beta   90.00000000
_cell_angle_gamma   60.70588501
_symmetry_Int_Tables_number   1
_chemical_formula_structural   Hf4Al4Cr3Pd
_chemical_formula_sum   'Hf4 Al4 Cr3 Pd1'
_cell_volume   196.05511847
_cell_formula_units_Z   1
loop_
 _symmetry_equiv_pos_site_id
 _symmetry_equiv_pos_as_xyz
  1  'x, y, z'
loop_
 _atom_site_type_symbol
 _atom_site_label
 _atom_site_symmetry_multiplicity
 _atom_site_fract_x
 _atom_site_fract_y
 _atom_site_fract_z
 _atom_site_occupancy
  Hf  Hf0  1  0.334123  0.334132  0.548761  1
  Hf  Hf1  1  0.666317  0.666326  0.424688  1
  Hf  Hf2  1  0.666317  0.666326  0.075312  1
  Hf  Hf3  1  0.334123  0.334132  0.951239  1
  Al  Al4  1  0.997435  0.997441  0.488196  1
  Al  Al5  1  0.997435  0.997441  0.011804  1
  Al  Al6  1  0.831368  0.345077  0.750000  1
  Al  Al7  1  0.345114  0.831357  0.750000  1
  Cr  Cr8  1  0.176881  0.638235  0.250000  1
  Cr  Cr9  1  0.638267  0.176901  0.250000  1
  Cr  Cr10  1  0.176547  0.176598  0.250000  1
  Pd  Pd11  1  0.836073  0.836034  0.750000  1
