# generated using pymatgen
data_LiLaPrZnPd2
_symmetry_space_group_name_H-M   'P 1'
_cell_length_a   7.38128100
_cell_length_b   4.17852600
_cell_length_c   8.56708800
_cell_angle_alpha   90.00000000
_cell_angle_beta   90.00000000
_cell_angle_gamma   90.00000000
_symmetry_Int_Tables_number   1
_chemical_formula_structural   LiLaPrZnPd2
_chemical_formula_sum   'Li2 La2 Pr2 Zn2 Pd4'
_cell_volume   264.23362063
_cell_formula_units_Z   2
loop_
 _symmetry_equiv_pos_site_id
 _symmetry_equiv_pos_as_xyz
  1  'x, y, z'
loop_
 _atom_site_type_symbol
 _atom_site_label
 _atom_site_symmetry_multiplicity
 _atom_site_fract_x
 _atom_site_fract_y
 _atom_site_fract_z
 _atom_site_occupancy
  Li  Li0  1  0.625469  0.250000  0.557000  1
  Li  Li1  1  0.125469  0.250000  0.943000  1
  La  La2  1  0.049255  0.250000  0.311274  1
  La  La3  1  0.549255  0.250000  0.188726  1
  Pr  Pr4  1  0.954993  0.750000  0.693209  1
  Pr  Pr5  1  0.454993  0.750000  0.806791  1
  Zn  Zn6  1  0.368784  0.750000  0.439111  1
  Zn  Zn7  1  0.868784  0.750000  0.060889  1
  Pd  Pd8  1  0.252034  0.250000  0.613903  1
  Pd  Pd9  1  0.752034  0.250000  0.886097  1
  Pd  Pd10  1  0.749465  0.750000  0.380340  1
  Pd  Pd11  1  0.249465  0.750000  0.119660  1
