# generated using pymatgen
data_Pr16Y4(Ir3Ru)3
_symmetry_space_group_name_H-M   'P 1'
_cell_length_a   11.25225500
_cell_length_b   11.25225500
_cell_length_c   6.57525100
_cell_angle_alpha   90.00000000
_cell_angle_beta   90.00000000
_cell_angle_gamma   90.00000000
_symmetry_Int_Tables_number   1
_chemical_formula_structural   Pr16Y4(Ir3Ru)3
_chemical_formula_sum   'Pr16 Y4 Ir9 Ru3'
_cell_volume   832.51384992
_cell_formula_units_Z   1
loop_
 _symmetry_equiv_pos_site_id
 _symmetry_equiv_pos_as_xyz
  1  'x, y, z'
loop_
 _atom_site_type_symbol
 _atom_site_label
 _atom_site_symmetry_multiplicity
 _atom_site_fract_x
 _atom_site_fract_y
 _atom_site_fract_z
 _atom_site_occupancy
  Pr  Pr0  1  0.291459  0.086750  0.382317  1
  Pr  Pr1  1  0.291488  0.914033  0.882954  1
  Pr  Pr2  1  0.708512  0.085967  0.882954  1
  Pr  Pr3  1  0.708541  0.913250  0.382317  1
  Pr  Pr4  1  0.585967  0.791488  0.882954  1
  Pr  Pr5  1  0.586750  0.208541  0.382317  1
  Pr  Pr6  1  0.413250  0.791459  0.382317  1
  Pr  Pr7  1  0.414033  0.208512  0.882954  1
  Pr  Pr8  1  0.210257  0.412261  0.619908  1
  Pr  Pr9  1  0.210000  0.587859  0.117195  1
  Pr  Pr10  1  0.790000  0.412141  0.117195  1
  Pr  Pr11  1  0.789743  0.587739  0.619908  1
  Pr  Pr12  1  0.912141  0.710000  0.117195  1
  Pr  Pr13  1  0.912261  0.289743  0.619908  1
  Pr  Pr14  1  0.087739  0.710257  0.619908  1
  Pr  Pr15  1  0.087859  0.290000  0.117195  1
  Y  Y16  1  0.000000  0.000000  0.498015  1
  Y  Y17  1  0.000000  0.000000  0.998210  1
  Y  Y18  1  0.500000  0.500000  0.998210  1
  Y  Y19  1  0.500000  0.500000  0.498015  1
  Ir  Ir20  1  0.852448  0.148858  0.249796  1
  Ir  Ir21  1  0.851906  0.851066  0.749123  1
  Ir  Ir22  1  0.148094  0.148934  0.749123  1
  Ir  Ir23  1  0.147552  0.851142  0.249796  1
  Ir  Ir24  1  0.648934  0.351906  0.749123  1
  Ir  Ir25  1  0.648858  0.647552  0.249796  1
  Ir  Ir26  1  0.351142  0.352448  0.249796  1
  Ir  Ir27  1  0.351066  0.648094  0.749123  1
  Ir  Ir28  1  0.000000  0.500000  0.382751  1
  Ru  Ru29  1  0.500000  0.000000  0.117655  1
  Ru  Ru30  1  0.500000  0.000000  0.616823  1
  Ru  Ru31  1  0.000000  0.500000  0.885151  1
