# generated using pymatgen
data_TbHo19Sn16
_symmetry_space_group_name_H-M   'P 1'
_cell_length_a   8.01019898
_cell_length_b   8.14640922
_cell_length_c   15.39900601
_cell_angle_alpha   90.00411069
_cell_angle_beta   89.94502588
_cell_angle_gamma   89.95964748
_symmetry_Int_Tables_number   1
_chemical_formula_structural   TbHo19Sn16
_chemical_formula_sum   'Tb1 Ho19 Sn16'
_cell_volume   1004.85154847
_cell_formula_units_Z   1
loop_
 _symmetry_equiv_pos_site_id
 _symmetry_equiv_pos_as_xyz
  1  'x, y, z'
loop_
 _atom_site_type_symbol
 _atom_site_label
 _atom_site_symmetry_multiplicity
 _atom_site_fract_x
 _atom_site_fract_y
 _atom_site_fract_z
 _atom_site_occupancy
  Tb  Tb0  1  0.020364  0.179900  0.902802  1
  Ho  Ho1  1  0.367696  0.836237  0.877759  1
  Ho  Ho2  1  0.867829  0.663805  0.622021  1
  Ho  Ho3  1  0.632106  0.163682  0.377836  1
  Ho  Ho4  1  0.132490  0.336460  0.122302  1
  Ho  Ho5  1  0.632510  0.163675  0.122242  1
  Ho  Ho6  1  0.132165  0.336283  0.377830  1
  Ho  Ho7  1  0.367924  0.836180  0.622095  1
  Ho  Ho8  1  0.867756  0.663661  0.877812  1
  Ho  Ho9  1  0.520961  0.320430  0.902619  1
  Ho  Ho10  1  0.021146  0.179808  0.597577  1
  Ho  Ho11  1  0.478950  0.679710  0.402534  1
  Ho  Ho12  1  0.979246  0.820025  0.097452  1
  Ho  Ho13  1  0.479155  0.679854  0.097416  1
  Ho  Ho14  1  0.978954  0.820274  0.402554  1
  Ho  Ho15  1  0.521046  0.320360  0.597279  1
  Ho  Ho16  1  0.198383  0.502947  0.749855  1
  Ho  Ho17  1  0.698173  0.996988  0.749799  1
  Ho  Ho18  1  0.801701  0.497108  0.250053  1
  Ho  Ho19  1  0.301741  0.002809  0.250038  1
  Sn  Sn20  1  0.293175  0.035032  0.042104  1
  Sn  Sn21  1  0.792261  0.464561  0.458321  1
  Sn  Sn22  1  0.707779  0.964736  0.541653  1
  Sn  Sn23  1  0.208046  0.536384  0.958568  1
  Sn  Sn24  1  0.706390  0.963406  0.958586  1
  Sn  Sn25  1  0.207663  0.535452  0.541620  1
  Sn  Sn26  1  0.292308  0.035354  0.458347  1
  Sn  Sn27  1  0.792434  0.464529  0.041664  1
  Sn  Sn28  1  0.564889  0.618893  0.749956  1
  Sn  Sn29  1  0.064919  0.880758  0.749933  1
  Sn  Sn30  1  0.435134  0.381086  0.250016  1
  Sn  Sn31  1  0.935138  0.119014  0.250065  1
  Sn  Sn32  1  0.330186  0.147645  0.749825  1
  Sn  Sn33  1  0.828954  0.352951  0.749491  1
  Sn  Sn34  1  0.670245  0.852325  0.249968  1
  Sn  Sn35  1  0.170187  0.647682  0.250011  1
