# generated using pymatgen
data_Ba5SrAl4(SbAs)4
_symmetry_space_group_name_H-M   'P 1'
_cell_length_a   9.22647975
_cell_length_b   9.22648091
_cell_length_c   7.24979352
_cell_angle_alpha   88.13815779
_cell_angle_beta   88.13815739
_cell_angle_gamma   75.21350476
_symmetry_Int_Tables_number   1
_chemical_formula_structural   Ba5SrAl4(SbAs)4
_chemical_formula_sum   'Ba5 Sr1 Al4 Sb4 As4'
_cell_volume   596.21982534
_cell_formula_units_Z   1
loop_
 _symmetry_equiv_pos_site_id
 _symmetry_equiv_pos_as_xyz
  1  'x, y, z'
loop_
 _atom_site_type_symbol
 _atom_site_label
 _atom_site_symmetry_multiplicity
 _atom_site_fract_x
 _atom_site_fract_y
 _atom_site_fract_z
 _atom_site_occupancy
  Ba  Ba0  1  0.004062  0.738585  0.533513  1
  Ba  Ba1  1  0.261415  0.995938  0.966487  1
  Ba  Ba2  1  0.995421  0.262997  0.467875  1
  Ba  Ba3  1  0.737003  0.004579  0.032125  1
  Ba  Ba4  1  0.413102  0.586898  0.250000  1
  Sr  Sr5  1  0.588066  0.411934  0.750000  1
  Al  Al6  1  0.812792  0.588379  0.088594  1
  Al  Al7  1  0.411621  0.187208  0.411406  1
  Al  Al8  1  0.185170  0.409868  0.912903  1
  Al  Al9  1  0.590132  0.814830  0.587097  1
  Sb  Sb10  1  0.060661  0.699613  0.025355  1
  Sb  Sb11  1  0.300387  0.939339  0.474645  1
  Sb  Sb12  1  0.934032  0.300236  0.972717  1
  Sb  Sb13  1  0.699764  0.065968  0.527283  1
  As  As14  1  0.736578  0.581217  0.427636  1
  As  As15  1  0.418783  0.263422  0.072364  1
  As  As16  1  0.268826  0.417817  0.581109  1
  As  As17  1  0.582183  0.731174  0.918891  1
