# generated using pymatgen
data_Hf7Zr3AlSn6Sb
_symmetry_space_group_name_H-M   'P 1'
_cell_length_a   8.74441501
_cell_length_b   8.74390384
_cell_length_c   5.88974201
_cell_angle_alpha   89.99723106
_cell_angle_beta   90.00554411
_cell_angle_gamma   120.00193764
_symmetry_Int_Tables_number   1
_chemical_formula_structural   Hf7Zr3AlSn6Sb
_chemical_formula_sum   'Hf7 Zr3 Al1 Sn6 Sb1'
_cell_volume   389.99097354
_cell_formula_units_Z   1
loop_
 _symmetry_equiv_pos_site_id
 _symmetry_equiv_pos_as_xyz
  1  'x, y, z'
loop_
 _atom_site_type_symbol
 _atom_site_label
 _atom_site_symmetry_multiplicity
 _atom_site_fract_x
 _atom_site_fract_y
 _atom_site_fract_z
 _atom_site_occupancy
  Hf  Hf0  1  0.332543  0.666691  0.999823  1
  Hf  Hf1  1  0.665942  0.333331  0.500120  1
  Hf  Hf2  1  0.665853  0.333309  0.999823  1
  Hf  Hf3  1  0.332611  0.666669  0.500120  1
  Hf  Hf4  1  0.276425  0.000000  0.263085  1
  Hf  Hf5  1  0.277463  0.277305  0.737695  1
  Hf  Hf6  1  0.000158  0.722695  0.737695  1
  Zr  Zr7  1  0.000119  0.275672  0.261191  1
  Zr  Zr8  1  0.724447  0.724328  0.261191  1
  Zr  Zr9  1  0.723451  0.000000  0.739616  1
  Al  Al10  1  0.000810  0.000000  0.501145  1
  Sn  Sn11  1  0.610682  0.000000  0.247936  1
  Sn  Sn12  1  0.611639  0.611297  0.752249  1
  Sn  Sn13  1  0.000342  0.388703  0.752249  1
  Sn  Sn14  1  0.000309  0.612248  0.247637  1
  Sn  Sn15  1  0.388061  0.387752  0.247637  1
  Sn  Sn16  1  0.387255  0.000000  0.752443  1
  Sb  Sb17  1  0.001889  0.000000  0.998342  1
