# generated using pymatgen
data_Ce(YCo)4
_symmetry_space_group_name_H-M   'P 1'
_cell_length_a   5.85334404
_cell_length_b   5.85334287
_cell_length_c   9.20811800
_cell_angle_alpha   71.75956465
_cell_angle_beta   71.75956742
_cell_angle_gamma   39.33854048
_symmetry_Int_Tables_number   1
_chemical_formula_structural   Ce(YCo)4
_chemical_formula_sum   'Ce1 Y4 Co4'
_cell_volume   188.61486489
_cell_formula_units_Z   1
loop_
 _symmetry_equiv_pos_site_id
 _symmetry_equiv_pos_as_xyz
  1  'x, y, z'
loop_
 _atom_site_type_symbol
 _atom_site_label
 _atom_site_symmetry_multiplicity
 _atom_site_fract_x
 _atom_site_fract_y
 _atom_site_fract_z
 _atom_site_occupancy
  Ce  Ce0  1  0.500000  0.500000  0.500000  1
  Y  Y1  1  0.729164  0.729164  0.680007  1
  Y  Y2  1  0.270836  0.270836  0.319993  1
  Y  Y3  1  0.390668  0.390668  0.899017  1
  Y  Y4  1  0.609332  0.609332  0.100983  1
  Co  Co5  1  0.031320  0.031320  0.644361  1
  Co  Co6  1  0.968680  0.968680  0.355639  1
  Co  Co7  1  0.086993  0.086993  0.880359  1
  Co  Co8  1  0.913007  0.913007  0.119641  1
