# generated using pymatgen
data_Er5Sc(P2Ir3)6
_symmetry_space_group_name_H-M   'P 1'
_cell_length_a   12.68922369
_cell_length_b   12.88474410
_cell_length_c   3.96143300
_cell_angle_alpha   90.00000000
_cell_angle_beta   90.00000000
_cell_angle_gamma   120.51103396
_symmetry_Int_Tables_number   1
_chemical_formula_structural   Er5Sc(P2Ir3)6
_chemical_formula_sum   'Er5 Sc1 P12 Ir18'
_cell_volume   558.00010211
_cell_formula_units_Z   1
loop_
 _symmetry_equiv_pos_site_id
 _symmetry_equiv_pos_as_xyz
  1  'x, y, z'
loop_
 _atom_site_type_symbol
 _atom_site_label
 _atom_site_symmetry_multiplicity
 _atom_site_fract_x
 _atom_site_fract_y
 _atom_site_fract_z
 _atom_site_occupancy
  Er  Er0  1  0.329775  0.664354  0.500000  1
  Er  Er1  1  0.670225  0.334578  0.500000  1
  Er  Er2  1  0.000000  0.814664  0.000000  1
  Er  Er3  1  0.184767  0.187547  0.000000  1
  Er  Er4  1  0.815233  0.002778  0.000000  1
  Sc  Sc5  1  0.000000  0.444685  0.500000  1
  P  P6  1  0.000000  0.645862  0.500000  1
  P  P7  1  0.357141  0.352809  0.500000  1
  P  P8  1  0.642859  0.995668  0.500000  1
  P  P9  1  0.514647  0.688824  0.000000  1
  P  P10  1  0.311755  0.830175  0.000000  1
  P  P11  1  0.168286  0.484328  0.000000  1
  P  P12  1  0.485353  0.174178  0.000000  1
  P  P13  1  0.688245  0.518420  0.000000  1
  P  P14  1  0.831714  0.316041  0.000000  1
  P  P15  1  0.000000  0.175576  0.500000  1
  P  P16  1  0.820355  0.822103  0.500000  1
  P  P17  1  0.179645  0.001748  0.500000  1
  Ir  Ir18  1  0.507411  0.868431  0.000000  1
  Ir  Ir19  1  0.132298  0.643514  0.000000  1
  Ir  Ir20  1  0.359816  0.495548  0.000000  1
  Ir  Ir21  1  0.492589  0.361019  0.000000  1
  Ir  Ir22  1  0.867702  0.511215  0.000000  1
  Ir  Ir23  1  0.640184  0.135731  0.000000  1
  Ir  Ir24  1  0.536113  0.534700  0.500000  1
  Ir  Ir25  1  0.463887  0.998587  0.500000  1
  Ir  Ir26  1  0.000000  0.279353  0.000000  1
  Ir  Ir27  1  0.714694  0.716704  0.000000  1
  Ir  Ir28  1  0.285306  0.002010  0.000000  1
  Ir  Ir29  1  0.620257  0.801504  0.500000  1
  Ir  Ir30  1  0.198230  0.826115  0.500000  1
  Ir  Ir31  1  0.184103  0.373858  0.500000  1
  Ir  Ir32  1  0.379743  0.181247  0.500000  1
  Ir  Ir33  1  0.801770  0.627886  0.500000  1
  Ir  Ir34  1  0.815897  0.189755  0.500000  1
  Ir  Ir35  1  0.000000  0.998484  0.500000  1
