# generated using pymatgen
data_Ho2MnCo2Si5
_symmetry_space_group_name_H-M   'P 1'
_cell_length_a   7.96937684
_cell_length_b   7.96937719
_cell_length_c   7.96937666
_cell_angle_alpha   140.25243357
_cell_angle_beta   106.94868892
_cell_angle_gamma   86.53814377
_symmetry_Int_Tables_number   1
_chemical_formula_structural   Ho2MnCo2Si5
_chemical_formula_sum   'Ho4 Mn2 Co4 Si10'
_cell_volume   298.27308947
_cell_formula_units_Z   2
loop_
 _symmetry_equiv_pos_site_id
 _symmetry_equiv_pos_as_xyz
  1  'x, y, z'
loop_
 _atom_site_type_symbol
 _atom_site_label
 _atom_site_symmetry_multiplicity
 _atom_site_fract_x
 _atom_site_fract_y
 _atom_site_fract_z
 _atom_site_occupancy
  Ho  Ho0  1  0.597898  0.864984  0.732913  1
  Ho  Ho1  1  0.132072  0.364984  0.767087  1
  Ho  Ho2  1  0.867928  0.635016  0.232913  1
  Ho  Ho3  1  0.402102  0.135016  0.267087  1
  Mn  Mn4  1  0.000000  0.250000  0.250000  1
  Mn  Mn5  1  0.000000  0.750000  0.750000  1
  Co  Co6  1  0.261010  0.859781  0.401230  1
  Co  Co7  1  0.541449  0.640219  0.901230  1
  Co  Co8  1  0.458551  0.359781  0.098770  1
  Co  Co9  1  0.738990  0.140219  0.598770  1
  Si  Si10  1  0.780582  0.030582  0.250000  1
  Si  Si11  1  0.219418  0.969418  0.750000  1
  Si  Si12  1  0.780582  0.530582  0.750000  1
  Si  Si13  1  0.932122  0.099851  0.832271  1
  Si  Si14  1  0.067878  0.900149  0.167729  1
  Si  Si15  1  0.500000  0.250000  0.750000  1
  Si  Si16  1  0.500000  0.750000  0.250000  1
  Si  Si17  1  0.732420  0.400149  0.332271  1
  Si  Si18  1  0.267580  0.599851  0.667729  1
  Si  Si19  1  0.219418  0.469418  0.250000  1
