# generated using pymatgen
data_YHo3Mn4F28
_symmetry_space_group_name_H-M   'P 1'
_cell_length_a   5.42767212
_cell_length_b   8.69091666
_cell_length_c   11.67970500
_cell_angle_alpha   62.42359618
_cell_angle_beta   89.98772310
_cell_angle_gamma   89.99846998
_symmetry_Int_Tables_number   1
_chemical_formula_structural   YHo3Mn4F28
_chemical_formula_sum   'Y1 Ho3 Mn4 F28'
_cell_volume   488.35766576
_cell_formula_units_Z   1
loop_
 _symmetry_equiv_pos_site_id
 _symmetry_equiv_pos_as_xyz
  1  'x, y, z'
loop_
 _atom_site_type_symbol
 _atom_site_label
 _atom_site_symmetry_multiplicity
 _atom_site_fract_x
 _atom_site_fract_y
 _atom_site_fract_z
 _atom_site_occupancy
  Y  Y0  1  0.761726  0.811076  0.764351  1
  Ho  Ho1  1  0.262224  0.189704  0.735670  1
  Ho  Ho2  1  0.237925  0.188936  0.235774  1
  Ho  Ho3  1  0.737967  0.811136  0.264313  1
  Mn  Mn4  1  0.759022  0.273472  0.957011  1
  Mn  Mn5  1  0.258478  0.725596  0.542689  1
  Mn  Mn6  1  0.241235  0.725643  0.043979  1
  Mn  Mn7  1  0.740822  0.274893  0.456315  1
  F  F8  1  0.433575  0.704849  0.922896  1
  F  F9  1  0.934490  0.295205  0.577231  1
  F  F10  1  0.565729  0.294634  0.077713  1
  F  F11  1  0.065799  0.704935  0.421731  1
  F  F12  1  0.456308  0.282518  0.541045  1
  F  F13  1  0.956700  0.717371  0.960072  1
  F  F14  1  0.543887  0.717833  0.458681  1
  F  F15  1  0.043894  0.281466  0.041403  1
  F  F16  1  0.772655  0.511775  0.861737  1
  F  F17  1  0.271615  0.486953  0.638283  1
  F  F18  1  0.228467  0.486849  0.138930  1
  F  F19  1  0.727856  0.513360  0.361085  1
  F  F20  1  0.758793  0.036345  0.047490  1
  F  F21  1  0.258683  0.962940  0.452447  1
  F  F22  1  0.241016  0.962878  0.953075  1
  F  F23  1  0.740632  0.037806  0.546579  1
  F  F24  1  0.981071  0.727518  0.632604  1
  F  F25  1  0.481861  0.272062  0.866381  1
  F  F26  1  0.017688  0.272261  0.365809  1
  F  F27  1  0.518453  0.727924  0.134134  1
  F  F28  1  0.050122  0.742270  0.169609  1
  F  F29  1  0.549205  0.257844  0.330852  1
  F  F30  1  0.950389  0.257035  0.831205  1
  F  F31  1  0.447919  0.741816  0.668829  1
  F  F32  1  0.407711  0.969697  0.228423  1
  F  F33  1  0.907580  0.030361  0.271649  1
  F  F34  1  0.592900  0.032653  0.772058  1
  F  F35  1  0.095603  0.970386  0.727949  1
