# generated using pymatgen
data_Pr2Nd5Er13Si16
_symmetry_space_group_name_H-M   'P 1'
_cell_length_a   7.72149989
_cell_length_b   7.72634209
_cell_length_c   14.27979232
_cell_angle_alpha   89.98859221
_cell_angle_beta   89.85452372
_cell_angle_gamma   90.03112117
_symmetry_Int_Tables_number   1
_chemical_formula_structural   Pr2Nd5Er13Si16
_chemical_formula_sum   'Pr2 Nd5 Er13 Si16'
_cell_volume   851.91452149
_cell_formula_units_Z   1
loop_
 _symmetry_equiv_pos_site_id
 _symmetry_equiv_pos_as_xyz
  1  'x, y, z'
loop_
 _atom_site_type_symbol
 _atom_site_label
 _atom_site_symmetry_multiplicity
 _atom_site_fract_x
 _atom_site_fract_y
 _atom_site_fract_z
 _atom_site_occupancy
  Pr  Pr0  1  0.358052  0.007724  0.958352  1
  Pr  Pr1  1  0.992083  0.643281  0.540517  1
  Nd  Nd2  1  0.490613  0.858516  0.209657  1
  Nd  Nd3  1  0.509464  0.139640  0.707118  1
  Nd  Nd4  1  0.859676  0.490359  0.791569  1
  Nd  Nd5  1  0.139823  0.508711  0.292899  1
  Nd  Nd6  1  0.007504  0.358243  0.042536  1
  Er  Er7  1  0.491277  0.360788  0.124947  1
  Er  Er8  1  0.991809  0.136940  0.624303  1
  Er  Er9  1  0.861695  0.008324  0.874543  1
  Er  Er10  1  0.137435  0.993247  0.375126  1
  Er  Er11  1  0.510929  0.639716  0.622928  1
  Er  Er12  1  0.361220  0.491362  0.875161  1
  Er  Er13  1  0.639710  0.509920  0.376301  1
  Er  Er14  1  0.006441  0.861203  0.126647  1
  Er  Er15  1  0.636358  0.996042  0.456071  1
  Er  Er16  1  0.318388  0.316737  0.499827  1
  Er  Er17  1  0.184247  0.816521  0.749124  1
  Er  Er18  1  0.815118  0.182735  0.250591  1
  Er  Er19  1  0.682802  0.681559  0.000317  1
  Si  Si20  1  0.294261  0.938997  0.560169  1
  Si  Si21  1  0.710046  0.063315  0.061996  1
  Si  Si22  1  0.933535  0.287466  0.438016  1
  Si  Si23  1  0.438137  0.209193  0.312978  1
  Si  Si24  1  0.564890  0.788107  0.811394  1
  Si  Si25  1  0.212015  0.435920  0.687883  1
  Si  Si26  1  0.788235  0.564921  0.189006  1
  Si  Si27  1  0.063956  0.709926  0.938627  1
  Si  Si28  1  0.798772  0.845314  0.690961  1
  Si  Si29  1  0.202483  0.152975  0.189949  1
  Si  Si30  1  0.843285  0.801648  0.314104  1
  Si  Si31  1  0.351118  0.707021  0.437797  1
  Si  Si32  1  0.653512  0.296436  0.939716  1
  Si  Si33  1  0.701334  0.342190  0.558821  1
  Si  Si34  1  0.295982  0.652572  0.060886  1
  Si  Si35  1  0.153791  0.202434  0.809160  1
