# generated using pymatgen
data_GeH4F8
_symmetry_space_group_name_H-M   'P 1'
_cell_length_a   4.26698357
_cell_length_b   6.10213296
_cell_length_c   7.98859997
_cell_angle_alpha   79.97515265
_cell_angle_beta   91.12669988
_cell_angle_gamma   98.28077901
_symmetry_Int_Tables_number   1
_chemical_formula_structural   GeH4F8
_chemical_formula_sum   'Ge1 H4 F8'
_cell_volume   202.69039925
_cell_formula_units_Z   1
loop_
 _symmetry_equiv_pos_site_id
 _symmetry_equiv_pos_as_xyz
  1  'x, y, z'
loop_
 _atom_site_type_symbol
 _atom_site_label
 _atom_site_symmetry_multiplicity
 _atom_site_fract_x
 _atom_site_fract_y
 _atom_site_fract_z
 _atom_site_occupancy
  Ge  Ge0  1  0.656349  0.701328  0.785477  1
  H  H1  1  0.851857  0.952470  0.484970  1
  H  H2  1  0.123412  0.144906  0.072029  1
  H  H3  1  0.791579  0.132485  0.878841  1
  H  H4  1  0.146604  0.118283  0.316169  1
  F  F5  1  0.611851  0.992786  0.770811  1
  F  F6  1  0.916835  0.230446  0.949866  1
  F  F7  1  0.485641  0.454945  0.722712  1
  F  F8  1  0.070902  0.723850  0.784721  1
  F  F9  1  0.693190  0.804191  0.527456  1
  F  F10  1  0.045951  0.130174  0.429310  1
  F  F11  1  0.581738  0.635821  0.003231  1
  F  F12  1  0.265474  0.091452  0.168315  1
