# generated using pymatgen
data_MnNb(SnRu2)2
_symmetry_space_group_name_H-M   'P 1'
_cell_length_a   4.48762916
_cell_length_b   6.35054800
_cell_length_c   13.42435216
_cell_angle_alpha   90.00000000
_cell_angle_beta   90.02413455
_cell_angle_gamma   90.00000000
_symmetry_Int_Tables_number   1
_chemical_formula_structural   MnNb(SnRu2)2
_chemical_formula_sum   'Mn3 Nb3 Sn6 Ru12'
_cell_volume   382.57929472
_cell_formula_units_Z   3
loop_
 _symmetry_equiv_pos_site_id
 _symmetry_equiv_pos_as_xyz
  1  'x, y, z'
loop_
 _atom_site_type_symbol
 _atom_site_label
 _atom_site_symmetry_multiplicity
 _atom_site_fract_x
 _atom_site_fract_y
 _atom_site_fract_z
 _atom_site_occupancy
  Mn  Mn0  1  0.999901  0.000000  0.003456  1
  Mn  Mn1  1  0.500022  0.500001  0.166599  1
  Mn  Mn2  1  0.000009  0.000000  0.329899  1
  Nb  Nb3  1  0.499861  0.500001  0.492543  1
  Nb  Nb4  1  0.000074  0.000000  0.666658  1
  Nb  Nb5  1  0.500163  0.500001  0.840933  1
  Sn  Sn6  1  0.999999  0.500001  0.006622  1
  Sn  Sn7  1  0.500035  0.000000  0.166699  1
  Sn  Sn8  1  0.999877  0.500001  0.326698  1
  Sn  Sn9  1  0.500019  0.000000  0.494856  1
  Sn  Sn10  1  0.000027  0.500001  0.666666  1
  Sn  Sn11  1  0.500036  0.000000  0.838377  1
  Ru  Ru12  1  0.500018  0.251802  0.999348  1
  Ru  Ru13  1  0.500018  0.748199  0.999348  1
  Ru  Ru14  1  0.000011  0.246805  0.166670  1
  Ru  Ru15  1  0.000011  0.753195  0.166670  1
  Ru  Ru16  1  0.499932  0.252216  0.334065  1
  Ru  Ru17  1  0.499932  0.747783  0.334065  1
  Ru  Ru18  1  0.999953  0.250526  0.501069  1
  Ru  Ru19  1  0.999953  0.749474  0.501069  1
  Ru  Ru20  1  0.500035  0.247148  0.666619  1
  Ru  Ru21  1  0.500035  0.752851  0.666619  1
  Ru  Ru22  1  0.000040  0.250428  0.832228  1
  Ru  Ru23  1  0.000040  0.749572  0.832228  1
