# generated using pymatgen
data_Lu16Sc4Bi7Te5
_symmetry_space_group_name_H-M   'P 1'
_cell_length_a   7.91417357
_cell_length_b   9.23043219
_cell_length_c   11.58190750
_cell_angle_alpha   90.10956977
_cell_angle_beta   89.97918979
_cell_angle_gamma   89.89340578
_symmetry_Int_Tables_number   1
_chemical_formula_structural   Lu16Sc4Bi7Te5
_chemical_formula_sum   'Lu16 Sc4 Bi7 Te5'
_cell_volume   846.06966477
_cell_formula_units_Z   1
loop_
 _symmetry_equiv_pos_site_id
 _symmetry_equiv_pos_as_xyz
  1  'x, y, z'
loop_
 _atom_site_type_symbol
 _atom_site_label
 _atom_site_symmetry_multiplicity
 _atom_site_fract_x
 _atom_site_fract_y
 _atom_site_fract_z
 _atom_site_occupancy
  Lu  Lu0  1  0.355658  0.249736  0.284460  1
  Lu  Lu1  1  0.643821  0.748617  0.715825  1
  Lu  Lu2  1  0.143115  0.750785  0.784371  1
  Lu  Lu3  1  0.860048  0.246479  0.215867  1
  Lu  Lu4  1  0.175808  0.250327  0.783132  1
  Lu  Lu5  1  0.823355  0.750996  0.217644  1
  Lu  Lu6  1  0.322621  0.753470  0.283121  1
  Lu  Lu7  1  0.675571  0.250652  0.716918  1
  Lu  Lu8  1  0.189068  0.065553  0.058866  1
  Lu  Lu9  1  0.810628  0.934108  0.943310  1
  Lu  Lu10  1  0.310271  0.934705  0.556683  1
  Lu  Lu11  1  0.811733  0.566463  0.942288  1
  Lu  Lu12  1  0.689828  0.064632  0.441308  1
  Lu  Lu13  1  0.188050  0.432274  0.058708  1
  Lu  Lu14  1  0.689506  0.433469  0.441375  1
  Lu  Lu15  1  0.309932  0.566738  0.556889  1
  Sc  Sc16  1  0.018904  0.248565  0.509733  1
  Sc  Sc17  1  0.981999  0.752050  0.487809  1
  Sc  Sc18  1  0.482193  0.749139  0.011663  1
  Sc  Sc19  1  0.518632  0.250962  0.988946  1
  Bi  Bi20  1  0.929083  0.996607  0.670050  1
  Bi  Bi21  1  0.429232  0.996141  0.829336  1
  Bi  Bi22  1  0.929715  0.503618  0.669509  1
  Bi  Bi23  1  0.570816  0.004022  0.171217  1
  Bi  Bi24  1  0.069980  0.496668  0.329014  1
  Bi  Bi25  1  0.570169  0.495750  0.171541  1
  Bi  Bi26  1  0.428483  0.503845  0.829549  1
  Te  Te27  1  0.393279  0.249925  0.543319  1
  Te  Te28  1  0.607394  0.749519  0.455639  1
  Te  Te29  1  0.107419  0.749763  0.045561  1
  Te  Te30  1  0.892025  0.249961  0.955528  1
  Te  Te31  1  0.071664  0.004462  0.330823  1
