# generated using pymatgen
data_Y3BeB5Ir8
_symmetry_space_group_name_H-M   'P 1'
_cell_length_a   10.09709063
_cell_length_b   9.24883183
_cell_length_c   5.57690077
_cell_angle_alpha   80.98949808
_cell_angle_beta   65.04687075
_cell_angle_gamma   33.14074892
_symmetry_Int_Tables_number   1
_chemical_formula_structural   Y3BeB5Ir8
_chemical_formula_sum   'Y3 Be1 B5 Ir8'
_cell_volume   236.96320818
_cell_formula_units_Z   1
loop_
 _symmetry_equiv_pos_site_id
 _symmetry_equiv_pos_as_xyz
  1  'x, y, z'
loop_
 _atom_site_type_symbol
 _atom_site_label
 _atom_site_symmetry_multiplicity
 _atom_site_fract_x
 _atom_site_fract_y
 _atom_site_fract_z
 _atom_site_occupancy
  Y  Y0  1  0.000241  0.000860  0.999140  1
  Y  Y1  1  0.179142  0.177964  0.822036  1
  Y  Y2  1  0.825115  0.822214  0.177786  1
  Be  Be3  1  0.816714  0.536276  0.463724  1
  B  B4  1  0.173565  0.477687  0.522313  1
  B  B5  1  0.481492  0.170939  0.829061  1
  B  B6  1  0.671398  0.330336  0.669664  1
  B  B7  1  0.526217  0.821153  0.178847  1
  B  B8  1  0.326467  0.673195  0.326805  1
  Ir  Ir9  1  0.412802  0.411816  0.588184  1
  Ir  Ir10  1  0.583323  0.587726  0.914809  1
  Ir  Ir11  1  0.085859  0.085191  0.412274  1
  Ir  Ir12  1  0.914615  0.914333  0.586262  1
  Ir  Ir13  1  0.574703  0.583117  0.416883  1
  Ir  Ir14  1  0.260164  0.243131  0.249676  1
  Ir  Ir15  1  0.415211  0.413738  0.085667  1
  Ir  Ir16  1  0.752971  0.750324  0.756869  1
