# generated using pymatgen
data_KRb3Ba4Y4(Si2O7)4
_symmetry_space_group_name_H-M   'P 1'
_cell_length_a   5.78733300
_cell_length_b   9.88554093
_cell_length_c   14.40485700
_cell_angle_alpha   63.00460321
_cell_angle_beta   90.00000000
_cell_angle_gamma   90.00000000
_symmetry_Int_Tables_number   1
_chemical_formula_structural   KRb3Ba4Y4(Si2O7)4
_chemical_formula_sum   'K1 Rb3 Ba4 Y4 Si8 O28'
_cell_volume   734.32197091
_cell_formula_units_Z   1
loop_
 _symmetry_equiv_pos_site_id
 _symmetry_equiv_pos_as_xyz
  1  'x, y, z'
loop_
 _atom_site_type_symbol
 _atom_site_label
 _atom_site_symmetry_multiplicity
 _atom_site_fract_x
 _atom_site_fract_y
 _atom_site_fract_z
 _atom_site_occupancy
  K  K0  1  0.236980  0.994567  0.636953  1
  Rb  Rb1  1  0.764692  0.008628  0.357392  1
  Rb  Rb2  1  0.264589  0.991454  0.142602  1
  Rb  Rb3  1  0.735505  0.008546  0.856830  1
  Ba  Ba4  1  0.269173  0.533589  0.328992  1
  Ba  Ba5  1  0.230790  0.534159  0.828830  1
  Ba  Ba6  1  0.731513  0.466532  0.670980  1
  Ba  Ba7  1  0.769232  0.466480  0.171098  1
  Y  Y8  1  0.240228  0.739673  0.019792  1
  Y  Y9  1  0.759794  0.260337  0.979580  1
  Y  Y10  1  0.259583  0.739711  0.520760  1
  Y  Y11  1  0.740179  0.260442  0.480033  1
  Si  Si12  1  0.227887  0.327440  0.621331  1
  Si  Si13  1  0.745225  0.828190  0.645829  1
  Si  Si14  1  0.254923  0.173826  0.355336  1
  Si  Si15  1  0.754970  0.826515  0.145174  1
  Si  Si16  1  0.771584  0.670221  0.379250  1
  Si  Si17  1  0.728953  0.670069  0.879116  1
  Si  Si18  1  0.244811  0.172627  0.854152  1
  Si  Si19  1  0.271616  0.329490  0.121312  1
  O  O20  1  0.002593  0.262098  0.850268  1
  O  O21  1  0.243428  0.481648  0.637291  1
  O  O22  1  0.466034  0.698609  0.908073  1
  O  O23  1  0.761521  0.007776  0.066880  1
  O  O24  1  0.742085  0.516563  0.862573  1
  O  O25  1  0.534214  0.301382  0.091585  1
  O  O26  1  0.498067  0.262421  0.350846  1
  O  O27  1  0.799612  0.816069  0.764036  1
  O  O28  1  0.579232  0.675410  0.460137  1
  O  O29  1  0.260873  0.993089  0.435600  1
  O  O30  1  0.704006  0.815667  0.263546  1
  O  O31  1  0.499194  0.742480  0.649341  1
  O  O32  1  0.293054  0.179627  0.736500  1
  O  O33  1  0.079022  0.324318  0.040589  1
  O  O34  1  0.461974  0.264010  0.873644  1
  O  O35  1  0.960524  0.737049  0.624707  1
  O  O36  1  0.034282  0.698717  0.408736  1
  O  O37  1  0.964627  0.300705  0.591883  1
  O  O38  1  0.920782  0.674490  0.960280  1
  O  O39  1  0.538476  0.735817  0.124733  1
  O  O40  1  0.204717  0.183470  0.237301  1
  O  O41  1  0.038136  0.265054  0.374936  1
  O  O42  1  0.997800  0.737795  0.149066  1
  O  O43  1  0.419408  0.322211  0.540363  1
  O  O44  1  0.257803  0.483451  0.137207  1
  O  O45  1  0.757695  0.516507  0.363200  1
  O  O46  1  0.740261  0.009238  0.567616  1
  O  O47  1  0.238352  0.991834  0.933720  1
