# generated using pymatgen
data_Dy4Er8InCo4Cu
_symmetry_space_group_name_H-M   'P 1'
_cell_length_a   8.25499503
_cell_length_b   8.25499502
_cell_length_c   8.25499517
_cell_angle_alpha   110.92398987
_cell_angle_beta   110.86052944
_cell_angle_gamma   106.66506815
_symmetry_Int_Tables_number   1
_chemical_formula_structural   Dy4Er8InCo4Cu
_chemical_formula_sum   'Dy4 Er8 In1 Co4 Cu1'
_cell_volume   432.26618983
_cell_formula_units_Z   1
loop_
 _symmetry_equiv_pos_site_id
 _symmetry_equiv_pos_as_xyz
  1  'x, y, z'
loop_
 _atom_site_type_symbol
 _atom_site_label
 _atom_site_symmetry_multiplicity
 _atom_site_fract_x
 _atom_site_fract_y
 _atom_site_fract_z
 _atom_site_occupancy
  Dy  Dy0  1  0.185901  0.288493  0.474393  1
  Dy  Dy1  1  0.814099  0.711507  0.525607  1
  Dy  Dy2  1  0.185901  0.711507  0.897407  1
  Dy  Dy3  1  0.814099  0.288493  0.102593  1
  Er  Er4  1  0.315654  0.620570  0.304918  1
  Er  Er5  1  0.684346  0.379430  0.695082  1
  Er  Er6  1  0.315654  0.010736  0.695082  1
  Er  Er7  1  0.684346  0.989264  0.304918  1
  Er  Er8  1  0.418689  0.219374  0.199315  1
  Er  Er9  1  0.581311  0.780626  0.800685  1
  Er  Er10  1  0.020059  0.219374  0.800685  1
  Er  Er11  1  0.979941  0.780626  0.199315  1
  In  In12  1  0.500000  0.500000  0.000000  1
  Co  Co13  1  0.113269  0.613269  0.500000  1
  Co  Co14  1  0.886731  0.386731  0.500000  1
  Co  Co15  1  0.376025  0.000000  0.376025  1
  Co  Co16  1  0.623975  0.000000  0.623975  1
  Cu  Cu17  1  0.000000  0.000000  0.000000  1
