# generated using pymatgen
data_La8Tm12Sn15Ir
_symmetry_space_group_name_H-M   'P 1'
_cell_length_a   8.03909700
_cell_length_b   8.34666153
_cell_length_c   15.72250800
_cell_angle_alpha   90.00000000
_cell_angle_beta   90.00000000
_cell_angle_gamma   90.17181906
_symmetry_Int_Tables_number   1
_chemical_formula_structural   La8Tm12Sn15Ir
_chemical_formula_sum   'La8 Tm12 Sn15 Ir1'
_cell_volume   1054.96959484
_cell_formula_units_Z   1
loop_
 _symmetry_equiv_pos_site_id
 _symmetry_equiv_pos_as_xyz
  1  'x, y, z'
loop_
 _atom_site_type_symbol
 _atom_site_label
 _atom_site_symmetry_multiplicity
 _atom_site_fract_x
 _atom_site_fract_y
 _atom_site_fract_z
 _atom_site_occupancy
  La  La0  1  0.508135  0.326542  0.902848  1
  La  La1  1  0.012787  0.175765  0.597558  1
  La  La2  1  0.488942  0.682093  0.404528  1
  La  La3  1  0.988181  0.825499  0.095024  1
  La  La4  1  0.488942  0.682093  0.095472  1
  La  La5  1  0.988181  0.825499  0.404976  1
  La  La6  1  0.508135  0.326542  0.597152  1
  La  La7  1  0.012787  0.175765  0.902442  1
  Tm  Tm8  1  0.372754  0.816427  0.867846  1
  Tm  Tm9  1  0.822452  0.662318  0.631635  1
  Tm  Tm10  1  0.651956  0.165717  0.376409  1
  Tm  Tm11  1  0.152717  0.336182  0.125571  1
  Tm  Tm12  1  0.651956  0.165717  0.123591  1
  Tm  Tm13  1  0.152717  0.336182  0.374429  1
  Tm  Tm14  1  0.372754  0.816427  0.632154  1
  Tm  Tm15  1  0.822452  0.662318  0.868365  1
  Tm  Tm16  1  0.204256  0.508080  0.750000  1
  Tm  Tm17  1  0.681758  0.984319  0.750000  1
  Tm  Tm18  1  0.816470  0.499904  0.250000  1
  Tm  Tm19  1  0.315513  0.001604  0.250000  1
  Sn  Sn20  1  0.314658  0.042592  0.039035  1
  Sn  Sn21  1  0.820059  0.461627  0.459304  1
  Sn  Sn22  1  0.689423  0.964533  0.541414  1
  Sn  Sn23  1  0.175730  0.543252  0.958034  1
  Sn  Sn24  1  0.689423  0.964533  0.958586  1
  Sn  Sn25  1  0.175730  0.543252  0.541966  1
  Sn  Sn26  1  0.314658  0.042592  0.460965  1
  Sn  Sn27  1  0.820059  0.461627  0.040696  1
  Sn  Sn28  1  0.051629  0.875833  0.750000  1
  Sn  Sn29  1  0.455058  0.371188  0.250000  1
  Sn  Sn30  1  0.951650  0.127810  0.250000  1
  Sn  Sn31  1  0.313381  0.134491  0.750000  1
  Sn  Sn32  1  0.805203  0.362038  0.750000  1
  Sn  Sn33  1  0.682179  0.859108  0.250000  1
  Sn  Sn34  1  0.178395  0.644772  0.250000  1
  Ir  Ir35  1  0.548920  0.625762  0.750000  1
