# generated using pymatgen
data_Pr10Sn3Pb3Br2
_symmetry_space_group_name_H-M   'P 1'
_cell_length_a   9.63322388
_cell_length_b   9.64309456
_cell_length_c   6.92144800
_cell_angle_alpha   90.00000000
_cell_angle_beta   90.00000000
_cell_angle_gamma   119.89816518
_symmetry_Int_Tables_number   1
_chemical_formula_structural   Pr10Sn3Pb3Br2
_chemical_formula_sum   'Pr10 Sn3 Pb3 Br2'
_cell_volume   557.39158840
_cell_formula_units_Z   1
loop_
 _symmetry_equiv_pos_site_id
 _symmetry_equiv_pos_as_xyz
  1  'x, y, z'
loop_
 _atom_site_type_symbol
 _atom_site_label
 _atom_site_symmetry_multiplicity
 _atom_site_fract_x
 _atom_site_fract_y
 _atom_site_fract_z
 _atom_site_occupancy
  Pr  Pr0  1  0.266041  0.002364  0.750000  1
  Pr  Pr1  1  0.736457  0.000629  0.250000  1
  Pr  Pr2  1  0.001736  0.266760  0.750000  1
  Pr  Pr3  1  0.998089  0.732565  0.250000  1
  Pr  Pr4  1  0.731115  0.731497  0.750000  1
  Pr  Pr5  1  0.266691  0.268947  0.250000  1
  Pr  Pr6  1  0.333377  0.662664  0.498853  1
  Pr  Pr7  1  0.666530  0.335939  0.498801  1
  Pr  Pr8  1  0.666530  0.335939  0.001199  1
  Pr  Pr9  1  0.333377  0.662664  0.001147  1
  Sn  Sn10  1  0.999125  0.386542  0.250000  1
  Sn  Sn11  1  0.386474  0.385907  0.750000  1
  Sn  Sn12  1  0.613934  0.613984  0.250000  1
  Pb  Pb13  1  0.612798  0.000201  0.750000  1
  Pb  Pb14  1  0.387050  0.999628  0.250000  1
  Pb  Pb15  1  0.000475  0.613869  0.750000  1
  Br  Br16  1  0.000101  0.999950  0.500209  1
  Br  Br17  1  0.000101  0.999950  0.999791  1
