# generated using pymatgen
data_Dy4Y12In4PtRh3
_symmetry_space_group_name_H-M   'P 1'
_cell_length_a   9.69842662
_cell_length_b   9.69842639
_cell_length_c   9.68951183
_cell_angle_alpha   59.96635044
_cell_angle_beta   59.96634995
_cell_angle_gamma   60.09319673
_symmetry_Int_Tables_number   1
_chemical_formula_structural   Dy4Y12In4PtRh3
_chemical_formula_sum   'Dy4 Y12 In4 Pt1 Rh3'
_cell_volume   644.57435703
_cell_formula_units_Z   1
loop_
 _symmetry_equiv_pos_site_id
 _symmetry_equiv_pos_as_xyz
  1  'x, y, z'
loop_
 _atom_site_type_symbol
 _atom_site_label
 _atom_site_symmetry_multiplicity
 _atom_site_fract_x
 _atom_site_fract_y
 _atom_site_fract_z
 _atom_site_occupancy
  Dy  Dy0  1  0.146552  0.552156  0.146549  1
  Dy  Dy1  1  0.310577  0.689858  0.689450  1
  Dy  Dy2  1  0.689858  0.310577  0.689450  1
  Dy  Dy3  1  0.552156  0.146552  0.146549  1
  Y  Y4  1  0.694346  0.309229  0.309109  1
  Y  Y5  1  0.690399  0.690399  0.309599  1
  Y  Y6  1  0.309229  0.694346  0.309109  1
  Y  Y7  1  0.937314  0.937314  0.562433  1
  Y  Y8  1  0.145721  0.145721  0.555231  1
  Y  Y9  1  0.560447  0.937519  0.560258  1
  Y  Y10  1  0.152239  0.152239  0.151914  1
  Y  Y11  1  0.309417  0.309417  0.693790  1
  Y  Y12  1  0.937519  0.560447  0.560258  1
  Y  Y13  1  0.559884  0.559884  0.937848  1
  Y  Y14  1  0.562520  0.937491  0.937224  1
  Y  Y15  1  0.937491  0.562520  0.937224  1
  In  In16  1  0.917429  0.917429  0.248839  1
  In  In17  1  0.249161  0.917298  0.917721  1
  In  In18  1  0.917298  0.249161  0.917721  1
  In  In19  1  0.916432  0.916432  0.917257  1
  Pt  Pt20  1  0.357011  0.357011  0.355400  1
  Rh  Rh21  1  0.926647  0.359389  0.360431  1
  Rh  Rh22  1  0.360962  0.360962  0.926202  1
  Rh  Rh23  1  0.359389  0.926647  0.360431  1
