# generated using pymatgen
data_LiLa4Zn3Pd3Ru
_symmetry_space_group_name_H-M   'P 1'
_cell_length_a   7.36251638
_cell_length_b   4.20254200
_cell_length_c   8.49573308
_cell_angle_alpha   90.00000000
_cell_angle_beta   90.47599982
_cell_angle_gamma   90.00000000
_symmetry_Int_Tables_number   1
_chemical_formula_structural   LiLa4Zn3Pd3Ru
_chemical_formula_sum   'Li1 La4 Zn3 Pd3 Ru1'
_cell_volume   262.85982132
_cell_formula_units_Z   1
loop_
 _symmetry_equiv_pos_site_id
 _symmetry_equiv_pos_as_xyz
  1  'x, y, z'
loop_
 _atom_site_type_symbol
 _atom_site_label
 _atom_site_symmetry_multiplicity
 _atom_site_fract_x
 _atom_site_fract_y
 _atom_site_fract_z
 _atom_site_occupancy
  Li  Li0  1  0.619752  0.250000  0.551673  1
  La  La1  1  0.050469  0.250000  0.321159  1
  La  La2  1  0.541052  0.250000  0.184699  1
  La  La3  1  0.971212  0.750000  0.693749  1
  La  La4  1  0.450508  0.750000  0.796811  1
  Zn  Zn5  1  0.144446  0.250000  0.937307  1
  Zn  Zn6  1  0.362649  0.750000  0.438280  1
  Zn  Zn7  1  0.866493  0.750000  0.064496  1
  Pd  Pd8  1  0.762609  0.250000  0.890520  1
  Pd  Pd9  1  0.742086  0.750000  0.376579  1
  Pd  Pd10  1  0.241572  0.750000  0.119815  1
  Ru  Ru11  1  0.247152  0.250000  0.624915  1
