# generated using pymatgen
data_La4CuPd(SeO3)8
_symmetry_space_group_name_H-M   'P 1'
_cell_length_a   7.19043719
_cell_length_b   8.45731017
_cell_length_c   11.00565263
_cell_angle_alpha   70.13354947
_cell_angle_beta   89.38712693
_cell_angle_gamma   89.99519733
_symmetry_Int_Tables_number   1
_chemical_formula_structural   La4CuPd(SeO3)8
_chemical_formula_sum   'La4 Cu1 Pd1 Se8 O24'
_cell_volume   629.40231825
_cell_formula_units_Z   1
loop_
 _symmetry_equiv_pos_site_id
 _symmetry_equiv_pos_as_xyz
  1  'x, y, z'
loop_
 _atom_site_type_symbol
 _atom_site_label
 _atom_site_symmetry_multiplicity
 _atom_site_fract_x
 _atom_site_fract_y
 _atom_site_fract_z
 _atom_site_occupancy
  La  La0  1  0.665541  0.761331  0.084541  1
  La  La1  1  0.166998  0.738868  0.915249  1
  La  La2  1  0.334459  0.238669  0.915459  1
  La  La3  1  0.833002  0.261132  0.084751  1
  Cu  Cu4  1  0.500000  0.500000  0.500000  1
  Pd  Pd5  1  0.000000  0.000000  0.500000  1
  Se  Se6  1  0.681407  0.630134  0.818499  1
  Se  Se7  1  0.177441  0.870746  0.180954  1
  Se  Se8  1  0.318593  0.369866  0.181501  1
  Se  Se9  1  0.822559  0.129254  0.819046  1
  Se  Se10  1  0.325132  0.130650  0.629339  1
  Se  Se11  1  0.823495  0.375669  0.367709  1
  Se  Se12  1  0.674868  0.869350  0.370661  1
  Se  Se13  1  0.176505  0.624331  0.632291  1
  O  O14  1  0.379643  0.325054  0.645468  1
  O  O15  1  0.880602  0.181725  0.348419  1
  O  O16  1  0.620357  0.674946  0.354532  1
  O  O17  1  0.119398  0.818275  0.651581  1
  O  O18  1  0.615280  0.426506  0.847951  1
  O  O19  1  0.112750  0.075465  0.147334  1
  O  O20  1  0.384720  0.573494  0.152049  1
  O  O21  1  0.887250  0.924535  0.852666  1
  O  O22  1  0.842785  0.589151  0.944726  1
  O  O23  1  0.342437  0.909272  0.054580  1
  O  O24  1  0.157215  0.410849  0.055274  1
  O  O25  1  0.657563  0.090728  0.945420  1
  O  O26  1  0.101988  0.179387  0.566978  1
  O  O27  1  0.604603  0.328434  0.438093  1
  O  O28  1  0.898012  0.820613  0.433022  1
  O  O29  1  0.395397  0.671566  0.561907  1
  O  O30  1  0.511384  0.718417  0.888303  1
  O  O31  1  0.009513  0.779773  0.113551  1
  O  O32  1  0.488616  0.281583  0.111697  1
  O  O33  1  0.990487  0.220227  0.886449  1
  O  O34  1  0.287612  0.032525  0.792720  1
  O  O35  1  0.781208  0.468595  0.205357  1
  O  O36  1  0.712388  0.967475  0.207280  1
  O  O37  1  0.218792  0.531405  0.794643  1
