# generated using pymatgen
data_Er20(Ir3Rh)3
_symmetry_space_group_name_H-M   'P 1'
_cell_length_a   10.78046400
_cell_length_b   10.78046400
_cell_length_c   6.34388100
_cell_angle_alpha   90.00000000
_cell_angle_beta   90.00000000
_cell_angle_gamma   90.00000000
_symmetry_Int_Tables_number   1
_chemical_formula_structural   Er20(Ir3Rh)3
_chemical_formula_sum   'Er20 Ir9 Rh3'
_cell_volume   737.27572534
_cell_formula_units_Z   1
loop_
 _symmetry_equiv_pos_site_id
 _symmetry_equiv_pos_as_xyz
  1  'x, y, z'
loop_
 _atom_site_type_symbol
 _atom_site_label
 _atom_site_symmetry_multiplicity
 _atom_site_fract_x
 _atom_site_fract_y
 _atom_site_fract_z
 _atom_site_occupancy
  Er  Er0  1  0.290462  0.088071  0.377717  1
  Er  Er1  1  0.290413  0.911735  0.877577  1
  Er  Er2  1  0.709587  0.088265  0.877577  1
  Er  Er3  1  0.709538  0.911929  0.377717  1
  Er  Er4  1  0.588265  0.790413  0.877577  1
  Er  Er5  1  0.588071  0.209538  0.377717  1
  Er  Er6  1  0.411929  0.790462  0.377717  1
  Er  Er7  1  0.411735  0.209587  0.877577  1
  Er  Er8  1  0.208929  0.411988  0.621396  1
  Er  Er9  1  0.209165  0.588199  0.123466  1
  Er  Er10  1  0.790835  0.411801  0.123466  1
  Er  Er11  1  0.791071  0.588012  0.621396  1
  Er  Er12  1  0.911801  0.709165  0.123466  1
  Er  Er13  1  0.911988  0.291071  0.621396  1
  Er  Er14  1  0.088012  0.708929  0.621396  1
  Er  Er15  1  0.088199  0.290835  0.123466  1
  Er  Er16  1  0.000000  0.000000  0.500287  1
  Er  Er17  1  0.000000  0.000000  0.000121  1
  Er  Er18  1  0.500000  0.500000  0.000121  1
  Er  Er19  1  0.500000  0.500000  0.500287  1
  Ir  Ir20  1  0.845632  0.153461  0.249712  1
  Ir  Ir21  1  0.845753  0.846348  0.749960  1
  Ir  Ir22  1  0.154247  0.153652  0.749960  1
  Ir  Ir23  1  0.154368  0.846539  0.249712  1
  Ir  Ir24  1  0.653652  0.345753  0.749960  1
  Ir  Ir25  1  0.653461  0.654368  0.249712  1
  Ir  Ir26  1  0.346539  0.345632  0.249712  1
  Ir  Ir27  1  0.346348  0.654247  0.749960  1
  Ir  Ir28  1  0.000000  0.500000  0.377025  1
  Rh  Rh29  1  0.500000  0.000000  0.122579  1
  Rh  Rh30  1  0.500000  0.000000  0.622623  1
  Rh  Rh31  1  0.000000  0.500000  0.877646  1
