# generated using pymatgen
data_Pr17Ho3(BiPb)8
_symmetry_space_group_name_H-M   'P 1'
_cell_length_a   8.49315165
_cell_length_b   16.25062300
_cell_length_c   8.56842790
_cell_angle_alpha   90.00000000
_cell_angle_beta   89.87259651
_cell_angle_gamma   90.00000000
_symmetry_Int_Tables_number   1
_chemical_formula_structural   Pr17Ho3(BiPb)8
_chemical_formula_sum   'Pr17 Ho3 Bi8 Pb8'
_cell_volume   1182.60297508
_cell_formula_units_Z   1
loop_
 _symmetry_equiv_pos_site_id
 _symmetry_equiv_pos_as_xyz
  1  'x, y, z'
loop_
 _atom_site_type_symbol
 _atom_site_label
 _atom_site_symmetry_multiplicity
 _atom_site_fract_x
 _atom_site_fract_y
 _atom_site_fract_z
 _atom_site_occupancy
  Pr  Pr0  1  0.620891  0.619571  0.159055  1
  Pr  Pr1  1  0.121163  0.879773  0.340372  1
  Pr  Pr2  1  0.377839  0.120036  0.841984  1
  Pr  Pr3  1  0.878456  0.378225  0.659374  1
  Pr  Pr4  1  0.377839  0.379964  0.841984  1
  Pr  Pr5  1  0.878456  0.121775  0.659374  1
  Pr  Pr6  1  0.620891  0.880429  0.159055  1
  Pr  Pr7  1  0.121163  0.620227  0.340372  1
  Pr  Pr8  1  0.458286  0.604040  0.673891  1
  Pr  Pr9  1  0.957876  0.895989  0.824095  1
  Pr  Pr10  1  0.543069  0.105322  0.326872  1
  Pr  Pr11  1  0.042287  0.396179  0.174702  1
  Pr  Pr12  1  0.543069  0.394678  0.326872  1
  Pr  Pr13  1  0.042287  0.103821  0.174702  1
  Pr  Pr14  1  0.458286  0.895960  0.673891  1
  Pr  Pr15  1  0.957876  0.604011  0.824095  1
  Pr  Pr16  1  0.791807  0.750000  0.504630  1
  Ho  Ho17  1  0.290210  0.750000  0.996225  1
  Ho  Ho18  1  0.209894  0.250000  0.495706  1
  Ho  Ho19  1  0.709774  0.250000  0.005046  1
  Bi  Bi20  1  0.724225  0.450723  0.975869  1
  Bi  Bi21  1  0.223944  0.048873  0.524663  1
  Bi  Bi22  1  0.275520  0.950784  0.023254  1
  Bi  Bi23  1  0.775393  0.544952  0.473543  1
  Bi  Bi24  1  0.275520  0.549216  0.023254  1
  Bi  Bi25  1  0.775393  0.955048  0.473543  1
  Bi  Bi26  1  0.724225  0.049277  0.975869  1
  Bi  Bi27  1  0.223944  0.451127  0.524663  1
  Pb  Pb28  1  0.423903  0.750000  0.371022  1
  Pb  Pb29  1  0.927796  0.750000  0.123610  1
  Pb  Pb30  1  0.571304  0.250000  0.628106  1
  Pb  Pb31  1  0.072987  0.250000  0.874503  1
  Pb  Pb32  1  0.647145  0.750000  0.855731  1
  Pb  Pb33  1  0.155170  0.750000  0.650472  1
  Pb  Pb34  1  0.350327  0.250000  0.149446  1
  Pb  Pb35  1  0.851791  0.250000  0.350157  1
