# generated using pymatgen
data_K3Ba4Tl(VSe4)4
_symmetry_space_group_name_H-M   'P 1'
_cell_length_a   7.04375800
_cell_length_b   10.25285709
_cell_length_c   12.59678228
_cell_angle_alpha   89.87596921
_cell_angle_beta   90.00000000
_cell_angle_gamma   90.00000000
_symmetry_Int_Tables_number   1
_chemical_formula_structural   K3Ba4Tl(VSe4)4
_chemical_formula_sum   'K3 Ba4 Tl1 V4 Se16'
_cell_volume   909.72040509
_cell_formula_units_Z   1
loop_
 _symmetry_equiv_pos_site_id
 _symmetry_equiv_pos_as_xyz
  1  'x, y, z'
loop_
 _atom_site_type_symbol
 _atom_site_label
 _atom_site_symmetry_multiplicity
 _atom_site_fract_x
 _atom_site_fract_y
 _atom_site_fract_z
 _atom_site_occupancy
  K  K0  1  0.500001  0.836682  0.392861  1
  K  K1  1  0.000000  0.163869  0.608810  1
  K  K2  1  0.500001  0.662357  0.892336  1
  Ba  Ba3  1  0.000000  0.887981  0.142479  1
  Ba  Ba4  1  0.500001  0.387253  0.356586  1
  Ba  Ba5  1  0.000000  0.613238  0.643778  1
  Ba  Ba6  1  0.500001  0.112600  0.856091  1
  Tl  Tl7  1  0.000000  0.332369  0.116765  1
  V  V8  1  0.500001  0.104009  0.173639  1
  V  V9  1  0.000000  0.603289  0.325520  1
  V  V10  1  0.500001  0.396454  0.673848  1
  V  V11  1  0.000000  0.896502  0.825176  1
  Se  Se12  1  0.500001  0.918702  0.072357  1
  Se  Se13  1  0.500001  0.291613  0.074217  1
  Se  Se14  1  0.256340  0.606522  0.214663  1
  Se  Se15  1  0.743661  0.606522  0.214663  1
  Se  Se16  1  0.242029  0.111033  0.283306  1
  Se  Se17  1  0.757973  0.111033  0.283306  1
  Se  Se18  1  0.000000  0.791702  0.423595  1
  Se  Se19  1  0.000000  0.419455  0.429552  1
  Se  Se20  1  0.500001  0.581312  0.570811  1
  Se  Se21  1  0.500001  0.208404  0.574795  1
  Se  Se22  1  0.257185  0.891826  0.715037  1
  Se  Se23  1  0.742816  0.891826  0.715037  1
  Se  Se24  1  0.243212  0.391672  0.784069  1
  Se  Se25  1  0.756790  0.391672  0.784069  1
  Se  Se26  1  0.000000  0.708795  0.924953  1
  Se  Se27  1  0.000000  0.081296  0.927669  1
