# generated using pymatgen
data_LiSc2V3ZnO12
_symmetry_space_group_name_H-M   'P 1'
_cell_length_a   6.97885536
_cell_length_b   8.38317452
_cell_length_c   10.10723505
_cell_angle_alpha   105.04946352
_cell_angle_beta   105.72742827
_cell_angle_gamma   101.89857076
_symmetry_Int_Tables_number   1
_chemical_formula_structural   LiSc2V3ZnO12
_chemical_formula_sum   'Li2 Sc4 V6 Zn2 O24'
_cell_volume   524.77194771
_cell_formula_units_Z   2
loop_
 _symmetry_equiv_pos_site_id
 _symmetry_equiv_pos_as_xyz
  1  'x, y, z'
loop_
 _atom_site_type_symbol
 _atom_site_label
 _atom_site_symmetry_multiplicity
 _atom_site_fract_x
 _atom_site_fract_y
 _atom_site_fract_z
 _atom_site_occupancy
  Li  Li0  1  0.224906  0.019108  0.052006  1
  Li  Li1  1  0.727455  0.977858  0.941574  1
  Sc  Sc2  1  0.947857  0.283583  0.481414  1
  Sc  Sc3  1  0.608682  0.548795  0.886265  1
  Sc  Sc4  1  0.372325  0.449371  0.109427  1
  Sc  Sc5  1  0.033375  0.714518  0.514123  1
  V  V6  1  0.223721  0.159360  0.770114  1
  V  V7  1  0.398019  0.213751  0.374916  1
  V  V8  1  0.888259  0.412398  0.166450  1
  V  V9  1  0.092607  0.584942  0.828496  1
  V  V10  1  0.581974  0.784323  0.620679  1
  V  V11  1  0.756761  0.838836  0.225609  1
  Zn  Zn12  1  0.709459  0.215095  0.706052  1
  Zn  Zn13  1  0.270813  0.783169  0.288913  1
  O  O14  1  0.795107  0.052164  0.309559  1
  O  O15  1  0.241319  0.194509  0.953642  1
  O  O16  1  0.011399  0.216618  0.672690  1
  O  O17  1  0.295194  0.002207  0.250077  1
  O  O18  1  0.462403  0.276324  0.766375  1
  O  O19  1  0.642372  0.242938  0.507271  1
  O  O20  1  0.851619  0.204910  0.080687  1
  O  O21  1  0.858699  0.467974  0.840988  1
  O  O22  1  0.225295  0.259770  0.460401  1
  O  O23  1  0.920536  0.447250  0.353481  1
  O  O24  1  0.314401  0.527223  0.916512  1
  O  O25  1  0.426637  0.341998  0.268575  1
  O  O26  1  0.552284  0.657550  0.728109  1
  O  O27  1  0.666516  0.470500  0.079047  1
  O  O28  1  0.060644  0.550315  0.641531  1
  O  O29  1  0.756776  0.738980  0.536987  1
  O  O30  1  0.121439  0.530047  0.153583  1
  O  O31  1  0.129429  0.792357  0.913880  1
  O  O32  1  0.338095  0.753926  0.487287  1
  O  O33  1  0.518241  0.722084  0.229759  1
  O  O34  1  0.681221  0.996094  0.744869  1
  O  O35  1  0.968735  0.781138  0.322812  1
  O  O36  1  0.737989  0.803932  0.041883  1
  O  O37  1  0.186433  0.946182  0.686058  1
