# generated using pymatgen
data_Ti4CoMo5
_symmetry_space_group_name_H-M   'P 1'
_cell_length_a   4.41131271
_cell_length_b   8.20211157
_cell_length_c   4.40220200
_cell_angle_alpha   90.00000000
_cell_angle_beta   90.00000000
_cell_angle_gamma   74.28428666
_symmetry_Int_Tables_number   1
_chemical_formula_structural   Ti4CoMo5
_chemical_formula_sum   'Ti4 Co1 Mo5'
_cell_volume   153.32650486
_cell_formula_units_Z   1
loop_
 _symmetry_equiv_pos_site_id
 _symmetry_equiv_pos_as_xyz
  1  'x, y, z'
loop_
 _atom_site_type_symbol
 _atom_site_label
 _atom_site_symmetry_multiplicity
 _atom_site_fract_x
 _atom_site_fract_y
 _atom_site_fract_z
 _atom_site_occupancy
  Ti  Ti0  1  0.087052  0.991952  0.000000  1
  Ti  Ti1  1  0.280091  0.608061  0.000000  1
  Ti  Ti2  1  0.588643  0.990598  0.500001  1
  Ti  Ti3  1  0.778171  0.609396  0.500001  1
  Co  Co4  1  0.183143  0.800003  0.500001  1
  Mo  Mo5  1  0.481139  0.204980  0.000000  1
  Mo  Mo6  1  0.884881  0.395004  0.000000  1
  Mo  Mo7  1  0.683883  0.800016  0.000000  1
  Mo  Mo8  1  0.980663  0.204367  0.500001  1
  Mo  Mo9  1  0.385512  0.395623  0.500001  1
