# generated using pymatgen
data_TbZn3PdRh
_symmetry_space_group_name_H-M   'P 1'
_cell_length_a   5.31061700
_cell_length_b   5.31061568
_cell_length_c   4.24267300
_cell_angle_alpha   90.00000000
_cell_angle_beta   90.00000000
_cell_angle_gamma   120.00000197
_symmetry_Int_Tables_number   1
_chemical_formula_structural   TbZn3PdRh
_chemical_formula_sum   'Tb1 Zn3 Pd1 Rh1'
_cell_volume   103.62392504
_cell_formula_units_Z   1
loop_
 _symmetry_equiv_pos_site_id
 _symmetry_equiv_pos_as_xyz
  1  'x, y, z'
loop_
 _atom_site_type_symbol
 _atom_site_label
 _atom_site_symmetry_multiplicity
 _atom_site_fract_x
 _atom_site_fract_y
 _atom_site_fract_z
 _atom_site_occupancy
  Tb  Tb0  1  0.000000  0.000000  0.000000  1
  Zn  Zn1  1  0.501597  0.003194  0.499999  1
  Zn  Zn2  1  0.996806  0.498402  0.499999  1
  Zn  Zn3  1  0.501596  0.498402  0.499999  1
  Pd  Pd4  1  0.333333  0.666667  0.000000  1
  Rh  Rh5  1  0.666668  0.333334  0.000000  1
