# generated using pymatgen
data_Tm17Hf2InIr12
_symmetry_space_group_name_H-M   'P 1'
_cell_length_a   10.71036300
_cell_length_b   10.71036300
_cell_length_c   6.20985800
_cell_angle_alpha   90.00000000
_cell_angle_beta   90.00000000
_cell_angle_gamma   90.00000000
_symmetry_Int_Tables_number   1
_chemical_formula_structural   Tm17Hf2InIr12
_chemical_formula_sum   'Tm17 Hf2 In1 Ir12'
_cell_volume   712.34445834
_cell_formula_units_Z   1
loop_
 _symmetry_equiv_pos_site_id
 _symmetry_equiv_pos_as_xyz
  1  'x, y, z'
loop_
 _atom_site_type_symbol
 _atom_site_label
 _atom_site_symmetry_multiplicity
 _atom_site_fract_x
 _atom_site_fract_y
 _atom_site_fract_z
 _atom_site_occupancy
  Tm  Tm0  1  0.285538  0.083642  0.377374  1
  Tm  Tm1  1  0.292291  0.912274  0.877245  1
  Tm  Tm2  1  0.707709  0.087726  0.877245  1
  Tm  Tm3  1  0.714462  0.916358  0.377374  1
  Tm  Tm4  1  0.587049  0.789520  0.877162  1
  Tm  Tm5  1  0.586283  0.210343  0.374259  1
  Tm  Tm6  1  0.413717  0.789657  0.374259  1
  Tm  Tm7  1  0.412951  0.210480  0.877162  1
  Tm  Tm8  1  0.210343  0.413717  0.625741  1
  Tm  Tm9  1  0.210480  0.587049  0.122838  1
  Tm  Tm10  1  0.789520  0.412951  0.122838  1
  Tm  Tm11  1  0.789657  0.586283  0.625741  1
  Tm  Tm12  1  0.912274  0.707709  0.122755  1
  Tm  Tm13  1  0.916358  0.285538  0.622626  1
  Tm  Tm14  1  0.083642  0.714462  0.622626  1
  Tm  Tm15  1  0.087726  0.292291  0.122755  1
  Tm  Tm16  1  0.000000  0.000000  0.000000  1
  Hf  Hf17  1  0.500000  0.500000  0.000000  1
  Hf  Hf18  1  0.500000  0.500000  0.500000  1
  In  In19  1  0.000000  0.000000  0.500000  1
  Ir  Ir20  1  0.844013  0.158379  0.243803  1
  Ir  Ir21  1  0.841621  0.844013  0.756197  1
  Ir  Ir22  1  0.158379  0.155987  0.756197  1
  Ir  Ir23  1  0.155987  0.841621  0.243803  1
  Ir  Ir24  1  0.644518  0.356785  0.747550  1
  Ir  Ir25  1  0.643215  0.644518  0.252450  1
  Ir  Ir26  1  0.356785  0.355482  0.252450  1
  Ir  Ir27  1  0.355482  0.643215  0.747550  1
  Ir  Ir28  1  0.500000  0.000000  0.126190  1
  Ir  Ir29  1  0.500000  0.000000  0.621298  1
  Ir  Ir30  1  0.000000  0.500000  0.873810  1
  Ir  Ir31  1  0.000000  0.500000  0.378702  1
