# generated using pymatgen
data_Pa5Mn6Re
_symmetry_space_group_name_H-M   'P 1'
_cell_length_a   5.40763000
_cell_length_b   5.40763004
_cell_length_c   7.93040200
_cell_angle_alpha   90.00000000
_cell_angle_beta   90.00000000
_cell_angle_gamma   119.99999976
_symmetry_Int_Tables_number   1
_chemical_formula_structural   Pa5Mn6Re
_chemical_formula_sum   'Pa5 Mn6 Re1'
_cell_volume   200.83517363
_cell_formula_units_Z   1
loop_
 _symmetry_equiv_pos_site_id
 _symmetry_equiv_pos_as_xyz
  1  'x, y, z'
loop_
 _atom_site_type_symbol
 _atom_site_label
 _atom_site_symmetry_multiplicity
 _atom_site_fract_x
 _atom_site_fract_y
 _atom_site_fract_z
 _atom_site_occupancy
  Pa  Pa0  1  0.666667  0.333333  0.078568  1
  Pa  Pa1  1  0.333333  0.666667  0.921432  1
  Pa  Pa2  1  0.333333  0.666667  0.551575  1
  Pa  Pa3  1  0.666667  0.333333  0.448425  1
  Pa  Pa4  1  0.000000  0.000000  0.000000  1
  Mn  Mn5  1  0.661285  0.830642  0.249986  1
  Mn  Mn6  1  0.169358  0.830642  0.249986  1
  Mn  Mn7  1  0.169358  0.338715  0.249986  1
  Mn  Mn8  1  0.338715  0.169358  0.750014  1
  Mn  Mn9  1  0.830642  0.169358  0.750014  1
  Mn  Mn10  1  0.830642  0.661285  0.750014  1
  Re  Re11  1  0.000000  0.000000  0.500000  1
