# generated using pymatgen
data_LaNd5Cd23Se
_symmetry_space_group_name_H-M   'P 1'
_cell_length_a   10.05845560
_cell_length_b   10.05845612
_cell_length_c   10.11659800
_cell_angle_alpha   59.80860103
_cell_angle_beta   59.80859932
_cell_angle_gamma   60.38279669
_symmetry_Int_Tables_number   1
_chemical_formula_structural   LaNd5Cd23Se
_chemical_formula_sum   'La1 Nd5 Cd23 Se1'
_cell_volume   723.69058366
_cell_formula_units_Z   1
loop_
 _symmetry_equiv_pos_site_id
 _symmetry_equiv_pos_as_xyz
  1  'x, y, z'
loop_
 _atom_site_type_symbol
 _atom_site_label
 _atom_site_symmetry_multiplicity
 _atom_site_fract_x
 _atom_site_fract_y
 _atom_site_fract_z
 _atom_site_occupancy
  La  La0  1  0.788204  0.788204  0.211796  1
  Nd  Nd1  1  0.208494  0.792078  0.207922  1
  Nd  Nd2  1  0.792078  0.208494  0.207922  1
  Nd  Nd3  1  0.211390  0.211390  0.788610  1
  Nd  Nd4  1  0.792078  0.208494  0.791506  1
  Nd  Nd5  1  0.208494  0.792078  0.791506  1
  Cd  Cd6  1  0.832929  0.832929  0.501408  1
  Cd  Cd7  1  0.835338  0.498005  0.833328  1
  Cd  Cd8  1  0.498005  0.835338  0.833328  1
  Cd  Cd9  1  0.832929  0.832929  0.832733  1
  Cd  Cd10  1  0.166672  0.166672  0.501995  1
  Cd  Cd11  1  0.167267  0.498592  0.167071  1
  Cd  Cd12  1  0.498592  0.167267  0.167071  1
  Cd  Cd13  1  0.166672  0.166672  0.164662  1
  Cd  Cd14  1  0.619758  0.619758  0.134921  1
  Cd  Cd15  1  0.622487  0.136393  0.620560  1
  Cd  Cd16  1  0.136393  0.622487  0.620560  1
  Cd  Cd17  1  0.619758  0.619758  0.625560  1
  Cd  Cd18  1  0.379440  0.379440  0.863607  1
  Cd  Cd19  1  0.374440  0.865079  0.380242  1
  Cd  Cd20  1  0.865079  0.374440  0.380242  1
  Cd  Cd21  1  0.379440  0.379440  0.377513  1
  Cd  Cd22  1  0.000403  0.000403  0.499597  1
  Cd  Cd23  1  0.500019  0.000502  0.499981  1
  Cd  Cd24  1  0.000502  0.500019  0.499981  1
  Cd  Cd25  1  0.500403  0.500403  0.999597  1
  Cd  Cd26  1  0.000502  0.500019  0.999498  1
  Cd  Cd27  1  0.500019  0.000502  0.999498  1
  Cd  Cd28  1  0.500796  0.500796  0.499204  1
  Se  Se29  1  0.001422  0.001422  0.998578  1
