# generated using pymatgen
data_TbErCCl
_symmetry_space_group_name_H-M   'P 1'
_cell_length_a   3.63139800
_cell_length_b   3.63139907
_cell_length_c   13.60730400
_cell_angle_alpha   90.00000000
_cell_angle_beta   90.00000000
_cell_angle_gamma   120.00002669
_symmetry_Int_Tables_number   1
_chemical_formula_structural   TbErCCl
_chemical_formula_sum   'Tb2 Er2 C2 Cl2'
_cell_volume   155.39979101
_cell_formula_units_Z   2
loop_
 _symmetry_equiv_pos_site_id
 _symmetry_equiv_pos_as_xyz
  1  'x, y, z'
loop_
 _atom_site_type_symbol
 _atom_site_label
 _atom_site_symmetry_multiplicity
 _atom_site_fract_x
 _atom_site_fract_y
 _atom_site_fract_z
 _atom_site_occupancy
  Tb  Tb0  1  0.666667  0.333333  0.906078  1
  Tb  Tb1  1  0.333333  0.666667  0.406078  1
  Er  Er2  1  0.333333  0.666667  0.093826  1
  Er  Er3  1  0.666667  0.333333  0.593826  1
  C  C4  1  0.000000  0.000000  0.003498  1
  C  C5  1  0.000000  0.000000  0.503498  1
  Cl  Cl6  1  0.666667  0.333333  0.246598  1
  Cl  Cl7  1  0.333333  0.666667  0.746598  1
