# generated using pymatgen
data_Ta4Be3BW2
_symmetry_space_group_name_H-M   'P 1'
_cell_length_a   6.34827811
_cell_length_b   6.34827877
_cell_length_c   3.29715500
_cell_angle_alpha   90.00000000
_cell_angle_beta   90.00000000
_cell_angle_gamma   89.97498154
_symmetry_Int_Tables_number   1
_chemical_formula_structural   Ta4Be3BW2
_chemical_formula_sum   'Ta4 Be3 B1 W2'
_cell_volume   132.87744126
_cell_formula_units_Z   1
loop_
 _symmetry_equiv_pos_site_id
 _symmetry_equiv_pos_as_xyz
  1  'x, y, z'
loop_
 _atom_site_type_symbol
 _atom_site_label
 _atom_site_symmetry_multiplicity
 _atom_site_fract_x
 _atom_site_fract_y
 _atom_site_fract_z
 _atom_site_occupancy
  Ta  Ta0  1  0.681339  0.181339  0.500000  1
  Ta  Ta1  1  0.312791  0.812791  0.500000  1
  Ta  Ta2  1  0.177906  0.328397  0.500000  1
  Ta  Ta3  1  0.828397  0.677906  0.500000  1
  Be  Be4  1  0.888958  0.388958  0.000000  1
  Be  Be5  1  0.615061  0.883025  0.000000  1
  Be  Be6  1  0.383025  0.115061  0.000000  1
  B  B7  1  0.113597  0.613597  0.000000  1
  W  W8  1  0.497712  0.501215  0.000000  1
  W  W9  1  0.001215  0.997712  0.000000  1
