# generated using pymatgen
data_Tm10In3Os
_symmetry_space_group_name_H-M   'P 1'
_cell_length_a   9.56448800
_cell_length_b   9.56448836
_cell_length_c   9.68218400
_cell_angle_alpha   90.00000000
_cell_angle_beta   90.00000000
_cell_angle_gamma   119.99999875
_symmetry_Int_Tables_number   1
_chemical_formula_structural   Tm10In3Os
_chemical_formula_sum   'Tm20 In6 Os2'
_cell_volume   767.05664847
_cell_formula_units_Z   2
loop_
 _symmetry_equiv_pos_site_id
 _symmetry_equiv_pos_as_xyz
  1  'x, y, z'
loop_
 _atom_site_type_symbol
 _atom_site_label
 _atom_site_symmetry_multiplicity
 _atom_site_fract_x
 _atom_site_fract_y
 _atom_site_fract_z
 _atom_site_occupancy
  Tm  Tm0  1  0.000000  0.000000  0.500000  1
  Tm  Tm1  1  0.000000  0.000000  0.000000  1
  Tm  Tm2  1  0.209848  0.790152  0.439662  1
  Tm  Tm3  1  0.209848  0.419698  0.439662  1
  Tm  Tm4  1  0.580302  0.790152  0.439662  1
  Tm  Tm5  1  0.790152  0.209848  0.560338  1
  Tm  Tm6  1  0.790152  0.580302  0.560338  1
  Tm  Tm7  1  0.419698  0.209848  0.560338  1
  Tm  Tm8  1  0.790152  0.209848  0.939662  1
  Tm  Tm9  1  0.790152  0.580302  0.939662  1
  Tm  Tm10  1  0.419698  0.209848  0.939662  1
  Tm  Tm11  1  0.209848  0.790152  0.060338  1
  Tm  Tm12  1  0.209848  0.419698  0.060338  1
  Tm  Tm13  1  0.580302  0.790152  0.060338  1
  Tm  Tm14  1  0.536727  0.463273  0.250000  1
  Tm  Tm15  1  0.536727  0.073451  0.250000  1
  Tm  Tm16  1  0.926549  0.463273  0.250000  1
  Tm  Tm17  1  0.463273  0.536727  0.750000  1
  Tm  Tm18  1  0.463273  0.926549  0.750000  1
  Tm  Tm19  1  0.073451  0.536727  0.750000  1
  In  In20  1  0.884576  0.115424  0.250000  1
  In  In21  1  0.884576  0.769153  0.250000  1
  In  In22  1  0.230847  0.115424  0.250000  1
  In  In23  1  0.115424  0.884576  0.750000  1
  In  In24  1  0.115424  0.230847  0.750000  1
  In  In25  1  0.769153  0.884576  0.750000  1
  Os  Os26  1  0.333333  0.666667  0.250000  1
  Os  Os27  1  0.666667  0.333333  0.750000  1
