# generated using pymatgen
data_Sc12Mn3Si12Au
_symmetry_space_group_name_H-M   'P 1'
_cell_length_a   3.97234100
_cell_length_b   10.32656710
_cell_length_c   11.73965731
_cell_angle_alpha   89.94644591
_cell_angle_beta   89.99991770
_cell_angle_gamma   90.00005102
_symmetry_Int_Tables_number   1
_chemical_formula_structural   Sc12Mn3Si12Au
_chemical_formula_sum   'Sc12 Mn3 Si12 Au1'
_cell_volume   481.56811507
_cell_formula_units_Z   1
loop_
 _symmetry_equiv_pos_site_id
 _symmetry_equiv_pos_as_xyz
  1  'x, y, z'
loop_
 _atom_site_type_symbol
 _atom_site_label
 _atom_site_symmetry_multiplicity
 _atom_site_fract_x
 _atom_site_fract_y
 _atom_site_fract_z
 _atom_site_occupancy
  Sc  Sc0  1  0.250000  0.878089  0.024342  1
  Sc  Sc1  1  0.250001  0.620924  0.520969  1
  Sc  Sc2  1  0.749998  0.126761  0.981975  1
  Sc  Sc3  1  0.750000  0.379091  0.478125  1
  Sc  Sc4  1  0.250003  0.922576  0.600826  1
  Sc  Sc5  1  0.249999  0.577352  0.103072  1
  Sc  Sc6  1  0.749999  0.077358  0.398730  1
  Sc  Sc7  1  0.750000  0.423666  0.898709  1
  Sc  Sc8  1  0.250000  0.652908  0.798624  1
  Sc  Sc9  1  0.250001  0.838856  0.299074  1
  Sc  Sc10  1  0.750001  0.341084  0.200792  1
  Sc  Sc11  1  0.750000  0.165515  0.698323  1
  Mn  Mn12  1  0.250000  0.387759  0.676301  1
  Mn  Mn13  1  0.250000  0.112706  0.177213  1
  Mn  Mn14  1  0.750000  0.614018  0.323125  1
  Si  Si15  1  0.250000  0.027826  0.826517  1
  Si  Si16  1  0.249999  0.484790  0.323162  1
  Si  Si17  1  0.750000  0.983583  0.175223  1
  Si  Si18  1  0.750000  0.512004  0.677485  1
  Si  Si19  1  0.250000  0.256924  0.840402  1
  Si  Si20  1  0.250000  0.247770  0.341603  1
  Si  Si21  1  0.750000  0.747153  0.158915  1
  Si  Si22  1  0.750002  0.744698  0.650538  1
  Si  Si23  1  0.249999  0.196262  0.543268  1
  Si  Si24  1  0.250000  0.306434  0.044484  1
  Si  Si25  1  0.750000  0.806028  0.454071  1
  Si  Si26  1  0.750000  0.683313  0.961237  1
  Au  Au27  1  0.750000  0.884554  0.822892  1
