# generated using pymatgen
data_YbPuB6Os
_symmetry_space_group_name_H-M   'P 1'
_cell_length_a   3.62831100
_cell_length_b   9.24025300
_cell_length_c   11.44126600
_cell_angle_alpha   90.00000000
_cell_angle_beta   90.00000000
_cell_angle_gamma   90.00000000
_symmetry_Int_Tables_number   1
_chemical_formula_structural   YbPuB6Os
_chemical_formula_sum   'Yb4 Pu4 B24 Os4'
_cell_volume   383.58573730
_cell_formula_units_Z   4
loop_
 _symmetry_equiv_pos_site_id
 _symmetry_equiv_pos_as_xyz
  1  'x, y, z'
loop_
 _atom_site_type_symbol
 _atom_site_label
 _atom_site_symmetry_multiplicity
 _atom_site_fract_x
 _atom_site_fract_y
 _atom_site_fract_z
 _atom_site_occupancy
  Yb  Yb0  1  0.000000  0.949929  0.382574  1
  Yb  Yb1  1  0.000000  0.050071  0.617426  1
  Yb  Yb2  1  0.000000  0.449929  0.117426  1
  Yb  Yb3  1  0.000000  0.550071  0.882574  1
  Pu  Pu4  1  0.000000  0.330198  0.410495  1
  Pu  Pu5  1  0.000000  0.669802  0.589505  1
  Pu  Pu6  1  0.000000  0.830198  0.089505  1
  Pu  Pu7  1  0.000000  0.169802  0.910495  1
  B  B8  1  0.500000  0.552629  0.431728  1
  B  B9  1  0.500000  0.447371  0.568272  1
  B  B10  1  0.500000  0.052629  0.068272  1
  B  B11  1  0.500000  0.947371  0.931728  1
  B  B12  1  0.500000  0.745694  0.422152  1
  B  B13  1  0.500000  0.254306  0.577848  1
  B  B14  1  0.500000  0.245694  0.077848  1
  B  B15  1  0.500000  0.754306  0.922152  1
  B  B16  1  0.500000  0.797602  0.270605  1
  B  B17  1  0.500000  0.202398  0.729395  1
  B  B18  1  0.500000  0.297602  0.229395  1
  B  B19  1  0.500000  0.702398  0.770605  1
  B  B20  1  0.500000  0.639228  0.187610  1
  B  B21  1  0.500000  0.360772  0.812390  1
  B  B22  1  0.500000  0.139228  0.312390  1
  B  B23  1  0.500000  0.860772  0.687610  1
  B  B24  1  0.500000  0.985775  0.216125  1
  B  B25  1  0.500000  0.014225  0.783875  1
  B  B26  1  0.500000  0.485775  0.283875  1
  B  B27  1  0.500000  0.514225  0.716125  1
  B  B28  1  0.500000  0.638184  0.038519  1
  B  B29  1  0.500000  0.361816  0.961481  1
  B  B30  1  0.500000  0.138184  0.461481  1
  B  B31  1  0.500000  0.861816  0.538519  1
  Os  Os32  1  0.000000  0.641508  0.321259  1
  Os  Os33  1  0.000000  0.358492  0.678741  1
  Os  Os34  1  0.000000  0.141508  0.178741  1
  Os  Os35  1  0.000000  0.858492  0.821259  1
