# generated using pymatgen
data_La4HfSn15Ir8
_symmetry_space_group_name_H-M   'P 1'
_cell_length_a   4.56432300
_cell_length_b   7.29234132
_cell_length_c   18.61496934
_cell_angle_alpha   89.44506300
_cell_angle_beta   90.00000000
_cell_angle_gamma   90.00000000
_symmetry_Int_Tables_number   1
_chemical_formula_structural   La4HfSn15Ir8
_chemical_formula_sum   'La4 Hf1 Sn15 Ir8'
_cell_volume   619.56276976
_cell_formula_units_Z   1
loop_
 _symmetry_equiv_pos_site_id
 _symmetry_equiv_pos_as_xyz
  1  'x, y, z'
loop_
 _atom_site_type_symbol
 _atom_site_label
 _atom_site_symmetry_multiplicity
 _atom_site_fract_x
 _atom_site_fract_y
 _atom_site_fract_z
 _atom_site_occupancy
  La  La0  1  0.250000  0.991210  0.858471  1
  La  La1  1  0.250000  0.509722  0.359208  1
  La  La2  1  0.750000  0.003951  0.141298  1
  La  La3  1  0.750000  0.495927  0.641514  1
  Hf  Hf4  1  0.250000  0.324634  0.184082  1
  Sn  Sn5  1  0.250000  0.194667  0.681976  1
  Sn  Sn6  1  0.750000  0.692097  0.818448  1
  Sn  Sn7  1  0.750000  0.813787  0.317401  1
  Sn  Sn8  1  0.250000  0.729347  0.193739  1
  Sn  Sn9  1  0.250000  0.776002  0.693824  1
  Sn  Sn10  1  0.750000  0.274484  0.805867  1
  Sn  Sn11  1  0.750000  0.228302  0.299707  1
  Sn  Sn12  1  0.250000  0.854063  0.033642  1
  Sn  Sn13  1  0.250000  0.636307  0.531195  1
  Sn  Sn14  1  0.750000  0.129992  0.968778  1
  Sn  Sn15  1  0.750000  0.364433  0.466348  1
  Sn  Sn16  1  0.250000  0.510604  0.933455  1
  Sn  Sn17  1  0.250000  0.984178  0.429948  1
  Sn  Sn18  1  0.750000  0.467919  0.071783  1
  Sn  Sn19  1  0.750000  0.019525  0.566861  1
  Ir  Ir20  1  0.250000  0.240302  0.040796  1
  Ir  Ir21  1  0.250000  0.249336  0.533712  1
  Ir  Ir22  1  0.750000  0.739763  0.966975  1
  Ir  Ir23  1  0.750000  0.751438  0.464960  1
  Ir  Ir24  1  0.250000  0.029606  0.280339  1
  Ir  Ir25  1  0.250000  0.479694  0.786050  1
  Ir  Ir26  1  0.750000  0.980851  0.713469  1
  Ir  Ir27  1  0.750000  0.527856  0.216154  1
