# generated using pymatgen
data_Y12Ir6Pd5Rh
_symmetry_space_group_name_H-M   'P 1'
_cell_length_a   4.85951900
_cell_length_b   7.03997700
_cell_length_c   14.65403500
_cell_angle_alpha   89.99987233
_cell_angle_beta   89.99793023
_cell_angle_gamma   90.00002807
_symmetry_Int_Tables_number   1
_chemical_formula_structural   Y12Ir6Pd5Rh
_chemical_formula_sum   'Y12 Ir6 Pd5 Rh1'
_cell_volume   501.32775499
_cell_formula_units_Z   1
loop_
 _symmetry_equiv_pos_site_id
 _symmetry_equiv_pos_as_xyz
  1  'x, y, z'
loop_
 _atom_site_type_symbol
 _atom_site_label
 _atom_site_symmetry_multiplicity
 _atom_site_fract_x
 _atom_site_fract_y
 _atom_site_fract_z
 _atom_site_occupancy
  Y  Y0  1  0.500000  0.253124  0.999999  1
  Y  Y1  1  0.499999  0.746875  0.000000  1
  Y  Y2  1  0.999960  0.251782  0.163846  1
  Y  Y3  1  0.999961  0.748220  0.163846  1
  Y  Y4  1  0.499967  0.250182  0.332981  1
  Y  Y5  1  0.499967  0.749817  0.332981  1
  Y  Y6  1  0.000001  0.249698  0.500001  1
  Y  Y7  1  0.000001  0.750302  0.500001  1
  Y  Y8  1  0.500033  0.250182  0.667021  1
  Y  Y9  1  0.500034  0.749817  0.667020  1
  Y  Y10  1  0.000041  0.251781  0.836153  1
  Y  Y11  1  0.000036  0.748218  0.836154  1
  Ir  Ir12  1  0.000000  0.000000  0.000000  1
  Ir  Ir13  1  0.499965  0.500000  0.167096  1
  Ir  Ir14  1  0.999944  0.000001  0.333400  1
  Ir  Ir15  1  0.499999  0.500000  0.500002  1
  Ir  Ir16  1  0.000057  0.000000  0.666602  1
  Ir  Ir17  1  0.500036  0.500000  0.832903  1
  Pd  Pd18  1  0.499950  0.000000  0.166786  1
  Pd  Pd19  1  0.999959  0.500000  0.332312  1
  Pd  Pd20  1  0.500000  0.000000  0.500001  1
  Pd  Pd21  1  0.000042  0.500000  0.667688  1
  Pd  Pd22  1  0.500050  0.000000  0.833213  1
  Rh  Rh23  1  0.999997  0.500003  0.999998  1
