# generated using pymatgen
data_Ca3Al12OsRh3
_symmetry_space_group_name_H-M   'P 1'
_cell_length_a   8.87206400
_cell_length_b   8.87206503
_cell_length_c   9.61254600
_cell_angle_alpha   90.00000000
_cell_angle_beta   90.00000000
_cell_angle_gamma   119.99999615
_symmetry_Int_Tables_number   1
_chemical_formula_structural   Ca3Al12OsRh3
_chemical_formula_sum   'Ca6 Al24 Os2 Rh6'
_cell_volume   655.26724930
_cell_formula_units_Z   2
loop_
 _symmetry_equiv_pos_site_id
 _symmetry_equiv_pos_as_xyz
  1  'x, y, z'
loop_
 _atom_site_type_symbol
 _atom_site_label
 _atom_site_symmetry_multiplicity
 _atom_site_fract_x
 _atom_site_fract_y
 _atom_site_fract_z
 _atom_site_occupancy
  Ca  Ca0  1  0.192697  0.385394  0.250000  1
  Ca  Ca1  1  0.807303  0.614606  0.750000  1
  Ca  Ca2  1  0.614606  0.807303  0.250000  1
  Ca  Ca3  1  0.385394  0.192697  0.750000  1
  Ca  Ca4  1  0.192697  0.807303  0.250000  1
  Ca  Ca5  1  0.807303  0.192697  0.750000  1
  Al  Al6  1  0.333333  0.666667  0.003094  1
  Al  Al7  1  0.666667  0.333333  0.996906  1
  Al  Al8  1  0.666667  0.333333  0.503094  1
  Al  Al9  1  0.333333  0.666667  0.496906  1
  Al  Al10  1  0.161719  0.323438  0.577346  1
  Al  Al11  1  0.838281  0.676562  0.422654  1
  Al  Al12  1  0.676562  0.838281  0.577346  1
  Al  Al13  1  0.838281  0.676562  0.077346  1
  Al  Al14  1  0.323438  0.161719  0.422654  1
  Al  Al15  1  0.161719  0.323438  0.922654  1
  Al  Al16  1  0.161719  0.838281  0.577346  1
  Al  Al17  1  0.323438  0.161719  0.077346  1
  Al  Al18  1  0.838281  0.161719  0.422654  1
  Al  Al19  1  0.676562  0.838281  0.922654  1
  Al  Al20  1  0.838281  0.161719  0.077346  1
  Al  Al21  1  0.161719  0.838281  0.922654  1
  Al  Al22  1  0.562299  0.124599  0.250000  1
  Al  Al23  1  0.437701  0.875401  0.750000  1
  Al  Al24  1  0.875401  0.437701  0.250000  1
  Al  Al25  1  0.124599  0.562299  0.750000  1
  Al  Al26  1  0.562299  0.437701  0.250000  1
  Al  Al27  1  0.437701  0.562299  0.750000  1
  Al  Al28  1  0.000000  0.000000  0.250000  1
  Al  Al29  1  0.000000  0.000000  0.750000  1
  Os  Os30  1  0.000000  0.000000  0.000000  1
  Os  Os31  1  0.000000  0.000000  0.500000  1
  Rh  Rh32  1  0.500000  0.000000  0.000000  1
  Rh  Rh33  1  0.000000  0.500000  0.000000  1
  Rh  Rh34  1  0.500000  0.000000  0.500000  1
  Rh  Rh35  1  0.500000  0.500000  0.000000  1
  Rh  Rh36  1  0.000000  0.500000  0.500000  1
  Rh  Rh37  1  0.500000  0.500000  0.500000  1
