# generated using pymatgen
data_DyHo4Si6P6Ir19
_symmetry_space_group_name_H-M   'P 1'
_cell_length_a   12.79960700
_cell_length_b   12.79960604
_cell_length_c   3.94995300
_cell_angle_alpha   90.00000000
_cell_angle_beta   90.00000000
_cell_angle_gamma   119.99999990
_symmetry_Int_Tables_number   1
_chemical_formula_structural   DyHo4Si6P6Ir19
_chemical_formula_sum   'Dy1 Ho4 Si6 P6 Ir19'
_cell_volume   560.42280317
_cell_formula_units_Z   1
loop_
 _symmetry_equiv_pos_site_id
 _symmetry_equiv_pos_as_xyz
  1  'x, y, z'
loop_
 _atom_site_type_symbol
 _atom_site_label
 _atom_site_symmetry_multiplicity
 _atom_site_fract_x
 _atom_site_fract_y
 _atom_site_fract_z
 _atom_site_occupancy
  Dy  Dy0  1  0.666667  0.333333  0.500000  1
  Ho  Ho1  1  0.333333  0.666667  0.500000  1
  Ho  Ho2  1  0.001577  0.816065  0.000000  1
  Ho  Ho3  1  0.183935  0.185512  0.000000  1
  Ho  Ho4  1  0.814488  0.998423  0.000000  1
  Si  Si5  1  0.000731  0.635994  0.500000  1
  Si  Si6  1  0.364006  0.364739  0.500000  1
  Si  Si7  1  0.635261  0.999269  0.500000  1
  Si  Si8  1  0.519425  0.682171  0.000000  1
  Si  Si9  1  0.317829  0.837254  0.000000  1
  Si  Si10  1  0.162746  0.480575  0.000000  1
  P  P11  1  0.483705  0.177632  0.000000  1
  P  P12  1  0.693927  0.516295  0.000000  1
  P  P13  1  0.822368  0.306073  0.000000  1
  P  P14  1  0.996275  0.176249  0.500000  1
  P  P15  1  0.823751  0.820025  0.500000  1
  P  P16  1  0.179975  0.003725  0.500000  1
  Ir  Ir17  1  0.515301  0.868887  0.000000  1
  Ir  Ir18  1  0.131113  0.646415  0.000000  1
  Ir  Ir19  1  0.353585  0.484699  0.000000  1
  Ir  Ir20  1  0.494369  0.368371  0.000000  1
  Ir  Ir21  1  0.874002  0.505631  0.000000  1
  Ir  Ir22  1  0.631629  0.125998  0.000000  1
  Ir  Ir23  1  0.014625  0.457581  0.500000  1
  Ir  Ir24  1  0.542419  0.557044  0.500000  1
  Ir  Ir25  1  0.442956  0.985375  0.500000  1
  Ir  Ir26  1  0.993641  0.277646  0.000000  1
  Ir  Ir27  1  0.722354  0.715995  0.000000  1
  Ir  Ir28  1  0.284005  0.006359  0.000000  1
  Ir  Ir29  1  0.632833  0.808954  0.500000  1
  Ir  Ir30  1  0.191046  0.823879  0.500000  1
  Ir  Ir31  1  0.176121  0.367167  0.500000  1
  Ir  Ir32  1  0.381713  0.182697  0.500000  1
  Ir  Ir33  1  0.800984  0.618287  0.500000  1
  Ir  Ir34  1  0.817303  0.199016  0.500000  1
  Ir  Ir35  1  0.000000  0.000000  0.500000  1
