# generated using pymatgen
data_Y7Er(CdNi)2
_symmetry_space_group_name_H-M   'P 1'
_cell_length_a   9.58140311
_cell_length_b   9.58140367
_cell_length_c   9.58635600
_cell_angle_alpha   59.98290064
_cell_angle_beta   59.98289870
_cell_angle_gamma   59.96678808
_symmetry_Int_Tables_number   1
_chemical_formula_structural   Y7Er(CdNi)2
_chemical_formula_sum   'Y14 Er2 Cd4 Ni4'
_cell_volume   621.97858792
_cell_formula_units_Z   2
loop_
 _symmetry_equiv_pos_site_id
 _symmetry_equiv_pos_as_xyz
  1  'x, y, z'
loop_
 _atom_site_type_symbol
 _atom_site_label
 _atom_site_symmetry_multiplicity
 _atom_site_fract_x
 _atom_site_fract_y
 _atom_site_fract_z
 _atom_site_occupancy
  Y  Y0  1  0.599238  0.203114  0.598824  1
  Y  Y1  1  0.203114  0.599238  0.598824  1
  Y  Y2  1  0.060160  0.439306  0.439528  1
  Y  Y3  1  0.439306  0.060160  0.061006  1
  Y  Y4  1  0.439306  0.060160  0.439528  1
  Y  Y5  1  0.060160  0.439306  0.061006  1
  Y  Y6  1  0.439747  0.439747  0.060253  1
  Y  Y7  1  0.060913  0.060913  0.439087  1
  Y  Y8  1  0.186979  0.813322  0.813333  1
  Y  Y9  1  0.813322  0.186979  0.186367  1
  Y  Y10  1  0.813322  0.186979  0.813333  1
  Y  Y11  1  0.186979  0.813322  0.186367  1
  Y  Y12  1  0.812989  0.812989  0.187011  1
  Y  Y13  1  0.186342  0.186342  0.813658  1
  Er  Er14  1  0.598083  0.598083  0.597623  1
  Er  Er15  1  0.598083  0.598083  0.206210  1
  Cd  Cd16  1  0.830782  0.830782  0.831294  1
  Cd  Cd17  1  0.830782  0.830782  0.507141  1
  Cd  Cd18  1  0.830588  0.507217  0.831097  1
  Cd  Cd19  1  0.507217  0.830588  0.831097  1
  Ni  Ni20  1  0.394096  0.394096  0.391332  1
  Ni  Ni21  1  0.394096  0.394096  0.820476  1
  Ni  Ni22  1  0.395732  0.818663  0.392803  1
  Ni  Ni23  1  0.818663  0.395732  0.392803  1
