# generated using pymatgen
data_Tb2Dy2CoSi12Ni19
_symmetry_space_group_name_H-M   'P 1'
_cell_length_a   3.80145700
_cell_length_b   6.59698210
_cell_length_c   18.77480475
_cell_angle_alpha   90.16263517
_cell_angle_beta   90.00000000
_cell_angle_gamma   90.00000000
_symmetry_Int_Tables_number   1
_chemical_formula_structural   Tb2Dy2CoSi12Ni19
_chemical_formula_sum   'Tb2 Dy2 Co1 Si12 Ni19'
_cell_volume   470.83535648
_cell_formula_units_Z   1
loop_
 _symmetry_equiv_pos_site_id
 _symmetry_equiv_pos_as_xyz
  1  'x, y, z'
loop_
 _atom_site_type_symbol
 _atom_site_label
 _atom_site_symmetry_multiplicity
 _atom_site_fract_x
 _atom_site_fract_y
 _atom_site_fract_z
 _atom_site_occupancy
  Tb  Tb0  1  0.250000  0.875020  0.356286  1
  Tb  Tb1  1  0.750000  0.124377  0.643895  1
  Dy  Dy2  1  0.750000  0.375899  0.144122  1
  Dy  Dy3  1  0.250000  0.624148  0.856155  1
  Co  Co4  1  0.250000  0.064622  0.205258  1
  Si  Si5  1  0.250000  0.080613  0.086360  1
  Si  Si6  1  0.750000  0.921501  0.913766  1
  Si  Si7  1  0.750000  0.577236  0.413942  1
  Si  Si8  1  0.250000  0.422072  0.586474  1
  Si  Si9  1  0.250000  0.657649  0.074751  1
  Si  Si10  1  0.750000  0.345314  0.926118  1
  Si  Si11  1  0.750000  0.156982  0.425682  1
  Si  Si12  1  0.250000  0.843610  0.573841  1
  Si  Si13  1  0.250000  0.373271  0.261202  1
  Si  Si14  1  0.750000  0.620485  0.737310  1
  Si  Si15  1  0.750000  0.880597  0.237331  1
  Si  Si16  1  0.250000  0.120589  0.762952  1
  Ni  Ni17  1  0.750000  0.928961  0.793277  1
  Ni  Ni18  1  0.750000  0.569150  0.293392  1
  Ni  Ni19  1  0.250000  0.429570  0.707450  1
  Ni  Ni20  1  0.250000  0.613874  0.484058  1
  Ni  Ni21  1  0.750000  0.385644  0.515948  1
  Ni  Ni22  1  0.750000  0.115638  0.015559  1
  Ni  Ni23  1  0.250000  0.886181  0.984296  1
  Ni  Ni24  1  0.250000  0.683070  0.199860  1
  Ni  Ni25  1  0.750000  0.314537  0.801010  1
  Ni  Ni26  1  0.750000  0.185189  0.299988  1
  Ni  Ni27  1  0.250000  0.814449  0.699180  1
  Ni  Ni28  1  0.250000  0.355144  0.383339  1
  Ni  Ni29  1  0.750000  0.645732  0.615472  1
  Ni  Ni30  1  0.750000  0.859992  0.116676  1
  Ni  Ni31  1  0.250000  0.145584  0.884612  1
  Ni  Ni32  1  0.250000  0.366722  0.005543  1
  Ni  Ni33  1  0.750000  0.636046  0.995321  1
  Ni  Ni34  1  0.750000  0.865790  0.494563  1
  Ni  Ni35  1  0.250000  0.134741  0.505011  1
