# generated using pymatgen
data_Y19Ho(Cd3Os)2
_symmetry_space_group_name_H-M   'P 1'
_cell_length_a   9.63590358
_cell_length_b   9.63590339
_cell_length_c   9.89942183
_cell_angle_alpha   90.06033956
_cell_angle_beta   89.93966181
_cell_angle_gamma   119.97412891
_symmetry_Int_Tables_number   1
_chemical_formula_structural   Y19Ho(Cd3Os)2
_chemical_formula_sum   'Y19 Ho1 Cd6 Os2'
_cell_volume   796.22935126
_cell_formula_units_Z   1
loop_
 _symmetry_equiv_pos_site_id
 _symmetry_equiv_pos_as_xyz
  1  'x, y, z'
loop_
 _atom_site_type_symbol
 _atom_site_label
 _atom_site_symmetry_multiplicity
 _atom_site_fract_x
 _atom_site_fract_y
 _atom_site_fract_z
 _atom_site_occupancy
  Y  Y0  1  0.000139  0.999861  0.499902  1
  Y  Y1  1  0.999996  0.000004  0.000026  1
  Y  Y2  1  0.209530  0.419314  0.440344  1
  Y  Y3  1  0.580686  0.790470  0.440344  1
  Y  Y4  1  0.790437  0.209563  0.559669  1
  Y  Y5  1  0.790585  0.580908  0.559593  1
  Y  Y6  1  0.419092  0.209415  0.559593  1
  Y  Y7  1  0.790424  0.209576  0.940334  1
  Y  Y8  1  0.790487  0.580865  0.940337  1
  Y  Y9  1  0.419135  0.209513  0.940337  1
  Y  Y10  1  0.209583  0.790417  0.059788  1
  Y  Y11  1  0.209546  0.419148  0.059648  1
  Y  Y12  1  0.580852  0.790454  0.059648  1
  Y  Y13  1  0.540276  0.459724  0.249978  1
  Y  Y14  1  0.540065  0.080321  0.250097  1
  Y  Y15  1  0.919679  0.459935  0.250097  1
  Y  Y16  1  0.459725  0.540275  0.750009  1
  Y  Y17  1  0.459626  0.919388  0.749864  1
  Y  Y18  1  0.080612  0.540374  0.749864  1
  Ho  Ho19  1  0.210059  0.789941  0.439777  1
  Cd  Cd20  1  0.885480  0.114520  0.249995  1
  Cd  Cd21  1  0.885481  0.770956  0.249995  1
  Cd  Cd22  1  0.229044  0.114519  0.249995  1
  Cd  Cd23  1  0.114539  0.885461  0.750032  1
  Cd  Cd24  1  0.114543  0.229091  0.749996  1
  Cd  Cd25  1  0.770909  0.885457  0.749996  1
  Os  Os26  1  0.332823  0.667177  0.250755  1
  Os  Os27  1  0.666650  0.333350  0.749987  1
