# generated using pymatgen
data_Nd2YGa6Ni8Ir
_symmetry_space_group_name_H-M   'P 1'
_cell_length_a   8.82074700
_cell_length_b   8.96400494
_cell_length_c   4.12624000
_cell_angle_alpha   90.00000000
_cell_angle_beta   90.00000000
_cell_angle_gamma   119.47272696
_symmetry_Int_Tables_number   1
_chemical_formula_structural   Nd2YGa6Ni8Ir
_chemical_formula_sum   'Nd2 Y1 Ga6 Ni8 Ir1'
_cell_volume   284.03745236
_cell_formula_units_Z   1
loop_
 _symmetry_equiv_pos_site_id
 _symmetry_equiv_pos_as_xyz
  1  'x, y, z'
loop_
 _atom_site_type_symbol
 _atom_site_label
 _atom_site_symmetry_multiplicity
 _atom_site_fract_x
 _atom_site_fract_y
 _atom_site_fract_z
 _atom_site_occupancy
  Nd  Nd0  1  0.334188  0.666340  0.500000  1
  Nd  Nd1  1  0.667849  0.333660  0.500000  1
  Y  Y2  1  0.009077  0.000000  0.000000  1
  Ga  Ga3  1  0.472277  0.000000  0.000000  1
  Ga  Ga4  1  0.993449  0.468633  0.000000  1
  Ga  Ga5  1  0.524815  0.531367  0.000000  1
  Ga  Ga6  1  0.732525  0.000000  0.500000  1
  Ga  Ga7  1  0.994863  0.722709  0.500000  1
  Ga  Ga8  1  0.272153  0.277291  0.500000  1
  Ni  Ni9  1  0.198727  0.370106  0.000000  1
  Ni  Ni10  1  0.634007  0.834123  0.000000  1
  Ni  Ni11  1  0.162297  0.782120  0.000000  1
  Ni  Ni12  1  0.828623  0.629894  0.000000  1
  Ni  Ni13  1  0.799884  0.165877  0.000000  1
  Ni  Ni14  1  0.380177  0.217880  0.000000  1
  Ni  Ni15  1  0.996790  0.284349  0.500000  1
  Ni  Ni16  1  0.712440  0.715651  0.500000  1
  Ir  Ir17  1  0.285858  0.000000  0.500000  1
