# generated using pymatgen
data_La8MgAgPd23
_symmetry_space_group_name_H-M   'P 1'
_cell_length_a   8.52136800
_cell_length_b   8.56201300
_cell_length_c   8.58335600
_cell_angle_alpha   90.00000000
_cell_angle_beta   90.00000000
_cell_angle_gamma   90.00000000
_symmetry_Int_Tables_number   1
_chemical_formula_structural   La8MgAgPd23
_chemical_formula_sum   'La8 Mg1 Ag1 Pd23'
_cell_volume   626.24219961
_cell_formula_units_Z   1
loop_
 _symmetry_equiv_pos_site_id
 _symmetry_equiv_pos_as_xyz
  1  'x, y, z'
loop_
 _atom_site_type_symbol
 _atom_site_label
 _atom_site_symmetry_multiplicity
 _atom_site_fract_x
 _atom_site_fract_y
 _atom_site_fract_z
 _atom_site_occupancy
  La  La0  1  0.250961  0.246213  0.257377  1
  La  La1  1  0.748448  0.747825  0.749087  1
  La  La2  1  0.748448  0.747825  0.250913  1
  La  La3  1  0.748448  0.252175  0.749087  1
  La  La4  1  0.250961  0.246213  0.742623  1
  La  La5  1  0.250961  0.753787  0.257377  1
  La  La6  1  0.250961  0.753787  0.742623  1
  La  La7  1  0.748448  0.252175  0.250913  1
  Mg  Mg8  1  0.999053  0.000000  0.000000  1
  Ag  Ag9  1  0.268438  0.500000  0.000000  1
  Pd  Pd10  1  0.736511  0.500000  0.000000  1
  Pd  Pd11  1  0.998273  0.263692  0.500000  1
  Pd  Pd12  1  0.498586  0.262255  0.000000  1
  Pd  Pd13  1  0.998273  0.736308  0.500000  1
  Pd  Pd14  1  0.498586  0.737745  0.000000  1
  Pd  Pd15  1  0.500670  0.000000  0.263160  1
  Pd  Pd16  1  0.263696  0.000000  0.500000  1
  Pd  Pd17  1  0.500670  0.000000  0.736840  1
  Pd  Pd18  1  0.735553  0.000000  0.500000  1
  Pd  Pd19  1  0.001966  0.500000  0.263640  1
  Pd  Pd20  1  0.001966  0.500000  0.736360  1
  Pd  Pd21  1  0.253961  0.500000  0.500000  1
  Pd  Pd22  1  0.746034  0.500000  0.500000  1
  Pd  Pd23  1  0.501089  0.254639  0.500000  1
  Pd  Pd24  1  0.501089  0.745361  0.500000  1
  Pd  Pd25  1  0.498481  0.500000  0.255552  1
  Pd  Pd26  1  0.498481  0.500000  0.744448  1
  Pd  Pd27  1  0.302305  0.000000  0.000000  1
  Pd  Pd28  1  0.695691  0.000000  0.000000  1
  Pd  Pd29  1  0.003096  0.303404  0.000000  1
  Pd  Pd30  1  0.003096  0.696596  0.000000  1
  Pd  Pd31  1  0.998400  0.000000  0.303312  1
  Pd  Pd32  1  0.998400  0.000000  0.696688  1
