# generated using pymatgen
data_Li4Sm2ThSn4
_symmetry_space_group_name_H-M   'P 1'
_cell_length_a   8.76480160
_cell_length_b   8.76480126
_cell_length_c   8.76480356
_cell_angle_alpha   148.89277649
_cell_angle_beta   131.82062450
_cell_angle_gamma   58.46611329
_symmetry_Int_Tables_number   1
_chemical_formula_structural   Li4Sm2ThSn4
_chemical_formula_sum   'Li4 Sm2 Th1 Sn4'
_cell_volume   257.22914453
_cell_formula_units_Z   1
loop_
 _symmetry_equiv_pos_site_id
 _symmetry_equiv_pos_as_xyz
  1  'x, y, z'
loop_
 _atom_site_type_symbol
 _atom_site_label
 _atom_site_symmetry_multiplicity
 _atom_site_fract_x
 _atom_site_fract_y
 _atom_site_fract_z
 _atom_site_occupancy
  Li  Li0  1  0.481426  0.671209  0.810218  1
  Li  Li1  1  0.860991  0.671209  0.189782  1
  Li  Li2  1  0.140877  0.328013  0.812862  1
  Li  Li3  1  0.515152  0.328013  0.187138  1
  Sm  Sm4  1  0.500906  0.000906  0.500000  1
  Sm  Sm5  1  0.128607  0.128607  0.000000  1
  Th  Th6  1  0.872121  0.872121  0.000000  1
  Sn  Sn7  1  0.286448  0.786448  0.500000  1
  Sn  Sn8  1  0.714862  0.214862  0.500000  1
  Sn  Sn9  1  0.798961  0.499306  0.299655  1
  Sn  Sn10  1  0.199651  0.499306  0.700345  1
