# generated using pymatgen
data_Dy4Cd2Pd3Au
_symmetry_space_group_name_H-M   'P 1'
_cell_length_a   7.76038250
_cell_length_b   7.76038250
_cell_length_c   3.76356000
_cell_angle_alpha   90.00000000
_cell_angle_beta   90.00000000
_cell_angle_gamma   90.29945940
_symmetry_Int_Tables_number   1
_chemical_formula_structural   Dy4Cd2Pd3Au
_chemical_formula_sum   'Dy4 Cd2 Pd3 Au1'
_cell_volume   226.65179738
_cell_formula_units_Z   1
loop_
 _symmetry_equiv_pos_site_id
 _symmetry_equiv_pos_as_xyz
  1  'x, y, z'
loop_
 _atom_site_type_symbol
 _atom_site_label
 _atom_site_symmetry_multiplicity
 _atom_site_fract_x
 _atom_site_fract_y
 _atom_site_fract_z
 _atom_site_occupancy
  Dy  Dy0  1  0.331159  0.821707  0.500000  1
  Dy  Dy1  1  0.828668  0.671332  0.500000  1
  Dy  Dy2  1  0.163646  0.336354  0.500000  1
  Dy  Dy3  1  0.678293  0.168841  0.500000  1
  Cd  Cd4  1  0.997139  0.998624  0.000000  1
  Cd  Cd5  1  0.501376  0.502861  0.000000  1
  Pd  Pd6  1  0.869531  0.372453  0.000000  1
  Pd  Pd7  1  0.127547  0.630469  0.000000  1
  Pd  Pd8  1  0.630656  0.869344  0.000000  1
  Au  Au9  1  0.371986  0.128014  0.000000  1
