# generated using pymatgen
data_AgOs(SeF3)2
_symmetry_space_group_name_H-M   'P 1'
_cell_length_a   12.54601847
_cell_length_b   12.54601845
_cell_length_c   10.95627000
_cell_angle_alpha   64.30321257
_cell_angle_beta   64.30321262
_cell_angle_gamma   52.57067726
_symmetry_Int_Tables_number   1
_chemical_formula_structural   AgOs(SeF3)2
_chemical_formula_sum   'Ag6 Os6 Se12 F36'
_cell_volume   1198.66923503
_cell_formula_units_Z   6
loop_
 _symmetry_equiv_pos_site_id
 _symmetry_equiv_pos_as_xyz
  1  'x, y, z'
loop_
 _atom_site_type_symbol
 _atom_site_label
 _atom_site_symmetry_multiplicity
 _atom_site_fract_x
 _atom_site_fract_y
 _atom_site_fract_z
 _atom_site_occupancy
  Ag  Ag0  1  0.516683  0.483317  0.250000  1
  Ag  Ag1  1  0.483317  0.516683  0.750000  1
  Ag  Ag2  1  0.810106  0.854158  0.654641  1
  Ag  Ag3  1  0.145842  0.189894  0.845359  1
  Ag  Ag4  1  0.189894  0.145842  0.345359  1
  Ag  Ag5  1  0.854158  0.810106  0.154641  1
  Os  Os6  1  0.000000  0.500000  0.000000  1
  Os  Os7  1  0.500000  0.000000  0.500000  1
  Os  Os8  1  0.018700  0.981300  0.750000  1
  Os  Os9  1  0.981300  0.018700  0.250000  1
  Os  Os10  1  0.000000  0.500000  0.500000  1
  Os  Os11  1  0.500000  0.000000  0.000000  1
  Se  Se12  1  0.714004  0.376991  0.896512  1
  Se  Se13  1  0.623009  0.285996  0.603488  1
  Se  Se14  1  0.285996  0.623009  0.103488  1
  Se  Se15  1  0.376991  0.714004  0.396512  1
  Se  Se16  1  0.627388  0.579204  0.962191  1
  Se  Se17  1  0.420796  0.372612  0.537809  1
  Se  Se18  1  0.372612  0.420796  0.037809  1
  Se  Se19  1  0.579204  0.627388  0.462191  1
  Se  Se20  1  0.408151  0.720604  0.906787  1
  Se  Se21  1  0.279396  0.591849  0.593213  1
  Se  Se22  1  0.591849  0.279396  0.093213  1
  Se  Se23  1  0.720604  0.408151  0.406787  1
  F  F24  1  0.912074  0.636638  0.849530  1
  F  F25  1  0.363362  0.087926  0.650470  1
  F  F26  1  0.087926  0.363362  0.150470  1
  F  F27  1  0.636638  0.912074  0.349530  1
  F  F28  1  0.044372  0.619998  0.005334  1
  F  F29  1  0.380002  0.955628  0.494666  1
  F  F30  1  0.955628  0.380002  0.994666  1
  F  F31  1  0.619998  0.044372  0.505334  1
  F  F32  1  0.828697  0.582383  0.131430  1
  F  F33  1  0.417617  0.171303  0.368570  1
  F  F34  1  0.171303  0.417617  0.868570  1
  F  F35  1  0.582383  0.828697  0.631430  1
  F  F36  1  0.936373  0.897904  0.739639  1
  F  F37  1  0.102096  0.063627  0.760361  1
  F  F38  1  0.063627  0.102096  0.260361  1
  F  F39  1  0.897904  0.936373  0.239639  1
  F  F40  1  0.845885  0.154115  0.750000  1
  F  F41  1  0.154115  0.845885  0.250000  1
  F  F42  1  0.190879  0.809121  0.750000  1
  F  F43  1  0.809121  0.190879  0.250000  1
  F  F44  1  0.965936  0.929092  0.950017  1
  F  F45  1  0.070908  0.034064  0.549983  1
  F  F46  1  0.034064  0.070908  0.049983  1
  F  F47  1  0.929092  0.965936  0.450017  1
  F  F48  1  0.929431  0.677151  0.523680  1
  F  F49  1  0.322849  0.070569  0.976320  1
  F  F50  1  0.070569  0.322849  0.476320  1
  F  F51  1  0.677151  0.929431  0.023680  1
  F  F52  1  0.824185  0.515477  0.597460  1
  F  F53  1  0.484523  0.175815  0.902540  1
  F  F54  1  0.175815  0.484523  0.402540  1
  F  F55  1  0.515477  0.824185  0.097460  1
  F  F56  1  0.943672  0.590676  0.326881  1
  F  F57  1  0.409324  0.056328  0.173119  1
  F  F58  1  0.056328  0.409324  0.673119  1
  F  F59  1  0.590676  0.943672  0.826881  1
