# generated using pymatgen
data_Ce9GdS20
_symmetry_space_group_name_H-M   'P 1'
_cell_length_a   8.05574277
_cell_length_b   9.29783811
_cell_length_c   10.41984650
_cell_angle_alpha   102.90572846
_cell_angle_beta   97.47835791
_cell_angle_gamma   106.85877410
_symmetry_Int_Tables_number   1
_chemical_formula_structural   Ce9GdS20
_chemical_formula_sum   'Ce9 Gd1 S20'
_cell_volume   711.97498709
_cell_formula_units_Z   1
loop_
 _symmetry_equiv_pos_site_id
 _symmetry_equiv_pos_as_xyz
  1  'x, y, z'
loop_
 _atom_site_type_symbol
 _atom_site_label
 _atom_site_symmetry_multiplicity
 _atom_site_fract_x
 _atom_site_fract_y
 _atom_site_fract_z
 _atom_site_occupancy
  Ce  Ce0  1  0.800299  0.600491  0.600553  1
  Ce  Ce1  1  0.599763  0.199398  0.199466  1
  Ce  Ce2  1  0.000000  0.500000  0.000000  1
  Ce  Ce3  1  0.800199  0.100055  0.600804  1
  Ce  Ce4  1  0.199701  0.399509  0.399447  1
  Ce  Ce5  1  0.601072  0.700596  0.199849  1
  Ce  Ce6  1  0.398928  0.299404  0.800151  1
  Ce  Ce7  1  0.199801  0.899945  0.399196  1
  Ce  Ce8  1  0.400237  0.800602  0.800534  1
  Gd  Gd9  1  0.000000  0.000000  0.000000  1
  S  S10  1  0.850043  0.325038  0.450281  1
  S  S11  1  0.647656  0.924326  0.050574  1
  S  S12  1  0.949721  0.773422  0.151099  1
  S  S13  1  0.449741  0.524705  0.649970  1
  S  S14  1  0.850057  0.825050  0.450033  1
  S  S15  1  0.251645  0.125762  0.251608  1
  S  S16  1  0.749517  0.374878  0.749994  1
  S  S17  1  0.649778  0.425066  0.049903  1
  S  S18  1  0.550197  0.974902  0.350318  1
  S  S19  1  0.449803  0.025098  0.649682  1
  S  S20  1  0.050457  0.723174  0.848986  1
  S  S21  1  0.949543  0.276826  0.151014  1
  S  S22  1  0.350222  0.574934  0.950097  1
  S  S23  1  0.250483  0.625122  0.250006  1
  S  S24  1  0.748355  0.874238  0.748392  1
  S  S25  1  0.550259  0.475295  0.350030  1
  S  S26  1  0.149943  0.174950  0.549967  1
  S  S27  1  0.050279  0.226578  0.848901  1
  S  S28  1  0.352344  0.075674  0.949426  1
  S  S29  1  0.149957  0.674962  0.549719  1
