# generated using pymatgen
data_CeTm(NiP)2
_symmetry_space_group_name_H-M   'P 1'
_cell_length_a   3.92588433
_cell_length_b   3.92879230
_cell_length_c   15.26256200
_cell_angle_alpha   90.00000000
_cell_angle_beta   90.00000000
_cell_angle_gamma   119.92749349
_symmetry_Int_Tables_number   1
_chemical_formula_structural   CeTm(NiP)2
_chemical_formula_sum   'Ce2 Tm2 Ni4 P4'
_cell_volume   204.01940912
_cell_formula_units_Z   2
loop_
 _symmetry_equiv_pos_site_id
 _symmetry_equiv_pos_as_xyz
  1  'x, y, z'
loop_
 _atom_site_type_symbol
 _atom_site_label
 _atom_site_symmetry_multiplicity
 _atom_site_fract_x
 _atom_site_fract_y
 _atom_site_fract_z
 _atom_site_occupancy
  Ce  Ce0  1  0.000000  0.000000  0.500000  1
  Ce  Ce1  1  0.000000  0.000000  0.000000  1
  Tm  Tm2  1  0.000045  0.001121  0.250000  1
  Tm  Tm3  1  0.999955  0.998879  0.750000  1
  Ni  Ni4  1  0.332234  0.667982  0.363875  1
  Ni  Ni5  1  0.667766  0.332018  0.636125  1
  Ni  Ni6  1  0.667766  0.332018  0.863875  1
  Ni  Ni7  1  0.332234  0.667982  0.136125  1
  P  P8  1  0.334060  0.666438  0.875887  1
  P  P9  1  0.665940  0.333562  0.124113  1
  P  P10  1  0.665940  0.333562  0.375887  1
  P  P11  1  0.334060  0.666438  0.624113  1
