# generated using pymatgen
data_SmYCo2Br
_symmetry_space_group_name_H-M   'P 1'
_cell_length_a   3.93504100
_cell_length_b   3.93504048
_cell_length_c   16.65319700
_cell_angle_alpha   90.00000000
_cell_angle_beta   90.00000000
_cell_angle_gamma   120.00002962
_symmetry_Int_Tables_number   1
_chemical_formula_structural   SmYCo2Br
_chemical_formula_sum   'Sm2 Y2 Co4 Br2'
_cell_volume   223.31946938
_cell_formula_units_Z   2
loop_
 _symmetry_equiv_pos_site_id
 _symmetry_equiv_pos_as_xyz
  1  'x, y, z'
loop_
 _atom_site_type_symbol
 _atom_site_label
 _atom_site_symmetry_multiplicity
 _atom_site_fract_x
 _atom_site_fract_y
 _atom_site_fract_z
 _atom_site_occupancy
  Sm  Sm0  1  0.000000  0.000000  0.109859  1
  Sm  Sm1  1  0.000000  0.000000  0.890141  1
  Y  Y2  1  0.000000  0.000000  0.606346  1
  Y  Y3  1  0.000000  0.000000  0.393654  1
  Co  Co4  1  0.333333  0.666667  0.502736  1
  Co  Co5  1  0.666667  0.333333  0.497264  1
  Co  Co6  1  0.666667  0.333333  0.001738  1
  Co  Co7  1  0.333333  0.666667  0.998262  1
  Br  Br8  1  0.333333  0.666667  0.254737  1
  Br  Br9  1  0.666667  0.333333  0.745263  1
