# generated using pymatgen
data_Sc4UTiCo6
_symmetry_space_group_name_H-M   'P 1'
_cell_length_a   5.19314300
_cell_length_b   5.19314432
_cell_length_c   7.75243100
_cell_angle_alpha   90.00000000
_cell_angle_beta   90.00000000
_cell_angle_gamma   119.99999796
_symmetry_Int_Tables_number   1
_chemical_formula_structural   Sc4UTiCo6
_chemical_formula_sum   'Sc4 U1 Ti1 Co6'
_cell_volume   181.06279656
_cell_formula_units_Z   1
loop_
 _symmetry_equiv_pos_site_id
 _symmetry_equiv_pos_as_xyz
  1  'x, y, z'
loop_
 _atom_site_type_symbol
 _atom_site_label
 _atom_site_symmetry_multiplicity
 _atom_site_fract_x
 _atom_site_fract_y
 _atom_site_fract_z
 _atom_site_occupancy
  Sc  Sc0  1  0.333333  0.666667  0.584417  1
  Sc  Sc1  1  0.666667  0.333333  0.415583  1
  Sc  Sc2  1  0.666667  0.333333  0.040370  1
  Sc  Sc3  1  0.333333  0.666667  0.959630  1
  U  U4  1  0.000000  0.000000  0.500000  1
  Ti  Ti5  1  0.000000  0.000000  0.000000  1
  Co  Co6  1  0.826974  0.173026  0.741393  1
  Co  Co7  1  0.653950  0.826974  0.258607  1
  Co  Co8  1  0.173026  0.826974  0.258607  1
  Co  Co9  1  0.826974  0.653950  0.741393  1
  Co  Co10  1  0.173026  0.346050  0.258607  1
  Co  Co11  1  0.346050  0.173026  0.741393  1
