# generated using pymatgen
data_TbEr3Al2(CdPt2)2
_symmetry_space_group_name_H-M   'P 1'
_cell_length_a   4.35099200
_cell_length_b   6.92860032
_cell_length_c   8.20062696
_cell_angle_alpha   92.73170169
_cell_angle_beta   90.00000000
_cell_angle_gamma   90.00000000
_symmetry_Int_Tables_number   1
_chemical_formula_structural   TbEr3Al2(CdPt2)2
_chemical_formula_sum   'Tb1 Er3 Al2 Cd2 Pt4'
_cell_volume   246.93750956
_cell_formula_units_Z   1
loop_
 _symmetry_equiv_pos_site_id
 _symmetry_equiv_pos_as_xyz
  1  'x, y, z'
loop_
 _atom_site_type_symbol
 _atom_site_label
 _atom_site_symmetry_multiplicity
 _atom_site_fract_x
 _atom_site_fract_y
 _atom_site_fract_z
 _atom_site_occupancy
  Tb  Tb0  1  0.250000  0.466634  0.186725  1
  Er  Er1  1  0.750000  0.533187  0.812961  1
  Er  Er2  1  0.750000  0.034183  0.677405  1
  Er  Er3  1  0.250000  0.965837  0.323171  1
  Al  Al4  1  0.750000  0.641366  0.442758  1
  Al  Al5  1  0.250000  0.358919  0.558193  1
  Cd  Cd6  1  0.250000  0.855401  0.933833  1
  Cd  Cd7  1  0.750000  0.143960  0.065329  1
  Pt  Pt8  1  0.250000  0.732163  0.598443  1
  Pt  Pt9  1  0.750000  0.266746  0.402555  1
  Pt  Pt10  1  0.750000  0.741001  0.142293  1
  Pt  Pt11  1  0.250000  0.260603  0.856333  1
