# generated using pymatgen
data_Pr4Nd3Y3Sn8
_symmetry_space_group_name_H-M   'P 1'
_cell_length_a   8.23078200
_cell_length_b   8.39484015
_cell_length_c   15.93635692
_cell_angle_alpha   89.90097281
_cell_angle_beta   90.00000000
_cell_angle_gamma   90.00000000
_symmetry_Int_Tables_number   1
_chemical_formula_structural   Pr4Nd3Y3Sn8
_chemical_formula_sum   'Pr8 Nd6 Y6 Sn16'
_cell_volume   1101.13845407
_cell_formula_units_Z   2
loop_
 _symmetry_equiv_pos_site_id
 _symmetry_equiv_pos_as_xyz
  1  'x, y, z'
loop_
 _atom_site_type_symbol
 _atom_site_label
 _atom_site_symmetry_multiplicity
 _atom_site_fract_x
 _atom_site_fract_y
 _atom_site_fract_z
 _atom_site_occupancy
  Pr  Pr0  1  0.514917  0.320381  0.901098  1
  Pr  Pr1  1  0.014917  0.179619  0.598902  1
  Pr  Pr2  1  0.484854  0.680599  0.403508  1
  Pr  Pr3  1  0.984854  0.819401  0.096492  1
  Pr  Pr4  1  0.484859  0.681109  0.097249  1
  Pr  Pr5  1  0.984859  0.818891  0.402751  1
  Pr  Pr6  1  0.515885  0.320033  0.598527  1
  Pr  Pr7  1  0.015885  0.179967  0.901473  1
  Nd  Nd8  1  0.363483  0.837054  0.878636  1
  Nd  Nd9  1  0.863483  0.662946  0.621364  1
  Nd  Nd10  1  0.637792  0.164120  0.378382  1
  Nd  Nd11  1  0.137792  0.335880  0.121618  1
  Nd  Nd12  1  0.638635  0.163228  0.119506  1
  Nd  Nd13  1  0.138635  0.336772  0.380494  1
  Y  Y14  1  0.360459  0.837682  0.624892  1
  Y  Y15  1  0.860459  0.662318  0.875108  1
  Y  Y16  1  0.194649  0.502383  0.749565  1
  Y  Y17  1  0.694649  0.997617  0.750435  1
  Y  Y18  1  0.805610  0.498519  0.249664  1
  Y  Y19  1  0.305610  0.001481  0.250336  1
  Sn  Sn20  1  0.297350  0.035156  0.043738  1
  Sn  Sn21  1  0.797350  0.464844  0.456262  1
  Sn  Sn22  1  0.694007  0.962179  0.544417  1
  Sn  Sn23  1  0.194007  0.537821  0.955583  1
  Sn  Sn24  1  0.707068  0.959145  0.955463  1
  Sn  Sn25  1  0.207068  0.540855  0.544537  1
  Sn  Sn26  1  0.299357  0.033093  0.460101  1
  Sn  Sn27  1  0.799357  0.466907  0.039899  1
  Sn  Sn28  1  0.559540  0.620835  0.750261  1
  Sn  Sn29  1  0.059540  0.879165  0.749739  1
  Sn  Sn30  1  0.440295  0.382064  0.249739  1
  Sn  Sn31  1  0.940295  0.117936  0.250261  1
  Sn  Sn32  1  0.323041  0.144274  0.749122  1
  Sn  Sn33  1  0.823041  0.355726  0.750878  1
  Sn  Sn34  1  0.678200  0.854493  0.249845  1
  Sn  Sn35  1  0.178200  0.645507  0.250155  1
