# generated using pymatgen
data_PrCoSi3Rh4
_symmetry_space_group_name_H-M   'P 1'
_cell_length_a   3.90623300
_cell_length_b   11.06366000
_cell_length_c   12.61565000
_cell_angle_alpha   90.00000000
_cell_angle_beta   90.00000000
_cell_angle_gamma   90.00000000
_symmetry_Int_Tables_number   1
_chemical_formula_structural   PrCoSi3Rh4
_chemical_formula_sum   'Pr4 Co4 Si12 Rh16'
_cell_volume   545.21349550
_cell_formula_units_Z   4
loop_
 _symmetry_equiv_pos_site_id
 _symmetry_equiv_pos_as_xyz
  1  'x, y, z'
loop_
 _atom_site_type_symbol
 _atom_site_label
 _atom_site_symmetry_multiplicity
 _atom_site_fract_x
 _atom_site_fract_y
 _atom_site_fract_z
 _atom_site_occupancy
  Pr  Pr0  1  0.250000  0.586686  0.706834  1
  Pr  Pr1  1  0.250000  0.913314  0.206834  1
  Pr  Pr2  1  0.750000  0.413314  0.293166  1
  Pr  Pr3  1  0.750000  0.086686  0.793166  1
  Co  Co4  1  0.250000  0.471649  0.932931  1
  Co  Co5  1  0.250000  0.028351  0.432931  1
  Co  Co6  1  0.750000  0.528351  0.067069  1
  Co  Co7  1  0.750000  0.971649  0.567069  1
  Si  Si8  1  0.250000  0.418770  0.102081  1
  Si  Si9  1  0.250000  0.081230  0.602081  1
  Si  Si10  1  0.750000  0.581230  0.897919  1
  Si  Si11  1  0.750000  0.918770  0.397919  1
  Si  Si12  1  0.250000  0.280113  0.875730  1
  Si  Si13  1  0.250000  0.219887  0.375730  1
  Si  Si14  1  0.750000  0.719887  0.124270  1
  Si  Si15  1  0.750000  0.780113  0.624270  1
  Si  Si16  1  0.250000  0.605732  0.393455  1
  Si  Si17  1  0.250000  0.894268  0.893455  1
  Si  Si18  1  0.750000  0.394268  0.606545  1
  Si  Si19  1  0.750000  0.105732  0.106545  1
  Rh  Rh20  1  0.250000  0.706454  0.987964  1
  Rh  Rh21  1  0.250000  0.793546  0.487964  1
  Rh  Rh22  1  0.750000  0.293546  0.012036  1
  Rh  Rh23  1  0.750000  0.206454  0.512036  1
  Rh  Rh24  1  0.250000  0.405227  0.487232  1
  Rh  Rh25  1  0.250000  0.094773  0.987232  1
  Rh  Rh26  1  0.750000  0.594773  0.512768  1
  Rh  Rh27  1  0.750000  0.905227  0.012768  1
  Rh  Rh28  1  0.250000  0.222875  0.178395  1
  Rh  Rh29  1  0.250000  0.277125  0.678395  1
  Rh  Rh30  1  0.750000  0.777125  0.821605  1
  Rh  Rh31  1  0.750000  0.722875  0.321605  1
  Rh  Rh32  1  0.250000  0.889940  0.698221  1
  Rh  Rh33  1  0.250000  0.610060  0.198221  1
  Rh  Rh34  1  0.750000  0.110060  0.301779  1
  Rh  Rh35  1  0.750000  0.389940  0.801779  1
