# generated using pymatgen
data_Cs4Si8W2O23
_symmetry_space_group_name_H-M   'P 1'
_cell_length_a   7.09938786
_cell_length_b   7.91675542
_cell_length_c   11.26003655
_cell_angle_alpha   103.17081691
_cell_angle_beta   89.72932250
_cell_angle_gamma   107.41514205
_symmetry_Int_Tables_number   1
_chemical_formula_structural   Cs4Si8W2O23
_chemical_formula_sum   'Cs4 Si8 W2 O23'
_cell_volume   586.59294117
_cell_formula_units_Z   1
loop_
 _symmetry_equiv_pos_site_id
 _symmetry_equiv_pos_as_xyz
  1  'x, y, z'
loop_
 _atom_site_type_symbol
 _atom_site_label
 _atom_site_symmetry_multiplicity
 _atom_site_fract_x
 _atom_site_fract_y
 _atom_site_fract_z
 _atom_site_occupancy
  Cs  Cs0  1  0.325531  0.279450  0.635547  1
  Cs  Cs1  1  0.674469  0.720550  0.364453  1
  Cs  Cs2  1  0.297647  0.209532  0.985360  1
  Cs  Cs3  1  0.702353  0.790468  0.014640  1
  Si  Si4  1  0.507993  0.189911  0.295322  1
  Si  Si5  1  0.492007  0.810089  0.704678  1
  Si  Si6  1  0.929893  0.857724  0.714322  1
  Si  Si7  1  0.070107  0.142276  0.285678  1
  Si  Si8  1  0.851873  0.296597  0.497898  1
  Si  Si9  1  0.148127  0.703403  0.502102  1
  Si  Si10  1  0.157831  0.668432  0.870677  1
  Si  Si11  1  0.842169  0.331568  0.129323  1
  W  W12  1  0.794809  0.255150  0.812335  1
  W  W13  1  0.205191  0.744850  0.187665  1
  O  O14  1  0.455648  0.973961  0.243137  1
  O  O15  1  0.544352  0.026039  0.756863  1
  O  O16  1  0.632083  0.302636  0.199384  1
  O  O17  1  0.367917  0.697364  0.800616  1
  O  O18  1  0.636884  0.269383  0.428659  1
  O  O19  1  0.363116  0.730617  0.571341  1
  O  O20  1  0.307450  0.254720  0.320557  1
  O  O21  1  0.692550  0.745280  0.679443  1
  O  O22  1  0.957916  0.067785  0.779068  1
  O  O23  1  0.042084  0.932215  0.220932  1
  O  O24  1  0.017658  0.757881  0.802992  1
  O  O25  1  0.982342  0.242119  0.197008  1
  O  O26  1  0.045625  0.847719  0.586691  1
  O  O27  1  0.954375  0.152281  0.413309  1
  O  O28  1  0.000000  0.500000  0.500000  1
  O  O29  1  0.819873  0.257971  0.630293  1
  O  O30  1  0.180127  0.742029  0.369707  1
  O  O31  1  0.062579  0.450543  0.852622  1
  O  O32  1  0.937421  0.549457  0.147378  1
  O  O33  1  0.204730  0.783541  0.011704  1
  O  O34  1  0.795270  0.216459  0.988296  1
  O  O35  1  0.639012  0.398489  0.845666  1
  O  O36  1  0.360988  0.601511  0.154334  1
