# generated using pymatgen
data_CeEr3InIr
_symmetry_space_group_name_H-M   'P 1'
_cell_length_a   9.65981459
_cell_length_b   9.65981417
_cell_length_c   9.65981400
_cell_angle_alpha   60.00000059
_cell_angle_beta   60.00000202
_cell_angle_gamma   59.99999597
_symmetry_Int_Tables_number   1
_chemical_formula_structural   CeEr3InIr
_chemical_formula_sum   'Ce4 Er12 In4 Ir4'
_cell_volume   637.36956875
_cell_formula_units_Z   4
loop_
 _symmetry_equiv_pos_site_id
 _symmetry_equiv_pos_as_xyz
  1  'x, y, z'
loop_
 _atom_site_type_symbol
 _atom_site_label
 _atom_site_symmetry_multiplicity
 _atom_site_fract_x
 _atom_site_fract_y
 _atom_site_fract_z
 _atom_site_occupancy
  Ce  Ce0  1  0.598707  0.598707  0.598707  1
  Ce  Ce1  1  0.598707  0.598707  0.203880  1
  Ce  Ce2  1  0.598707  0.203880  0.598707  1
  Ce  Ce3  1  0.203880  0.598707  0.598707  1
  Er  Er4  1  0.061548  0.438452  0.438452  1
  Er  Er5  1  0.438452  0.061548  0.061548  1
  Er  Er6  1  0.438452  0.061548  0.438452  1
  Er  Er7  1  0.061548  0.438452  0.061548  1
  Er  Er8  1  0.438452  0.438452  0.061548  1
  Er  Er9  1  0.061548  0.061548  0.438452  1
  Er  Er10  1  0.188992  0.811008  0.811008  1
  Er  Er11  1  0.811008  0.188992  0.188992  1
  Er  Er12  1  0.811008  0.188992  0.811008  1
  Er  Er13  1  0.188992  0.811008  0.188992  1
  Er  Er14  1  0.811008  0.811008  0.188992  1
  Er  Er15  1  0.188992  0.188992  0.811008  1
  In  In16  1  0.834469  0.834469  0.834469  1
  In  In17  1  0.834469  0.834469  0.496593  1
  In  In18  1  0.834469  0.496593  0.834469  1
  In  In19  1  0.496593  0.834469  0.834469  1
  Ir  Ir20  1  0.392497  0.392497  0.392497  1
  Ir  Ir21  1  0.392497  0.392497  0.822508  1
  Ir  Ir22  1  0.392497  0.822508  0.392497  1
  Ir  Ir23  1  0.822508  0.392497  0.392497  1
