# generated using pymatgen
data_Rb3Ga3As4
_symmetry_space_group_name_H-M   'P 1'
_cell_length_a   6.77687000
_cell_length_b   15.89068700
_cell_length_c   10.97830100
_cell_angle_alpha   90.00000000
_cell_angle_beta   90.00000000
_cell_angle_gamma   90.00000000
_symmetry_Int_Tables_number   1
_chemical_formula_structural   Rb3Ga3As4
_chemical_formula_sum   'Rb12 Ga12 As16'
_cell_volume   1182.24357389
_cell_formula_units_Z   4
loop_
 _symmetry_equiv_pos_site_id
 _symmetry_equiv_pos_as_xyz
  1  'x, y, z'
loop_
 _atom_site_type_symbol
 _atom_site_label
 _atom_site_symmetry_multiplicity
 _atom_site_fract_x
 _atom_site_fract_y
 _atom_site_fract_z
 _atom_site_occupancy
  Rb  Rb0  1  0.750000  0.500001  0.079067  1
  Rb  Rb1  1  0.061465  0.093819  0.119449  1
  Rb  Rb2  1  0.438534  0.906181  0.119449  1
  Rb  Rb3  1  0.061465  0.406181  0.380551  1
  Rb  Rb4  1  0.438534  0.593819  0.380551  1
  Rb  Rb5  1  0.750000  0.000000  0.420933  1
  Rb  Rb6  1  0.250000  0.000000  0.579067  1
  Rb  Rb7  1  0.561465  0.406181  0.619449  1
  Rb  Rb8  1  0.938534  0.593819  0.619449  1
  Rb  Rb9  1  0.561465  0.093819  0.880552  1
  Rb  Rb10  1  0.938534  0.906181  0.880552  1
  Rb  Rb11  1  0.250000  0.500001  0.920933  1
  Ga  Ga12  1  0.402783  0.282085  0.110900  1
  Ga  Ga13  1  0.097217  0.717915  0.110900  1
  Ga  Ga14  1  0.809222  0.250000  0.249999  1
  Ga  Ga15  1  0.690779  0.750000  0.249999  1
  Ga  Ga16  1  0.402783  0.217915  0.389100  1
  Ga  Ga17  1  0.097217  0.782086  0.389100  1
  Ga  Ga18  1  0.902781  0.217915  0.610901  1
  Ga  Ga19  1  0.597219  0.782086  0.610901  1
  Ga  Ga20  1  0.309221  0.250000  0.750000  1
  Ga  Ga21  1  0.190778  0.750000  0.750000  1
  Ga  Ga22  1  0.902781  0.282085  0.889099  1
  Ga  Ga23  1  0.597219  0.717915  0.889099  1
  As  As24  1  0.041154  0.320068  0.094069  1
  As  As25  1  0.458844  0.679932  0.094069  1
  As  As26  1  0.541321  0.142520  0.197186  1
  As  As27  1  0.958679  0.857480  0.197186  1
  As  As28  1  0.541321  0.357480  0.302813  1
  As  As29  1  0.958679  0.642520  0.302813  1
  As  As30  1  0.041154  0.179932  0.405932  1
  As  As31  1  0.458844  0.820068  0.405932  1
  As  As32  1  0.541156  0.179932  0.594068  1
  As  As33  1  0.958844  0.820068  0.594068  1
  As  As34  1  0.041320  0.357480  0.697186  1
  As  As35  1  0.458680  0.642520  0.697186  1
  As  As36  1  0.041320  0.142520  0.802813  1
  As  As37  1  0.458680  0.857480  0.802813  1
  As  As38  1  0.541156  0.320068  0.905932  1
  As  As39  1  0.958844  0.679932  0.905932  1
