# generated using pymatgen
data_Tm3Ti2(Co2Si5)2
_symmetry_space_group_name_H-M   'P 1'
_cell_length_a   12.02350200
_cell_length_b   12.02350200
_cell_length_c   3.94784200
_cell_angle_alpha   90.00000000
_cell_angle_beta   90.00000000
_cell_angle_gamma   90.00000000
_symmetry_Int_Tables_number   1
_chemical_formula_structural   Tm3Ti2(Co2Si5)2
_chemical_formula_sum   'Tm6 Ti4 Co8 Si20'
_cell_volume   570.71820095
_cell_formula_units_Z   2
loop_
 _symmetry_equiv_pos_site_id
 _symmetry_equiv_pos_as_xyz
  1  'x, y, z'
loop_
 _atom_site_type_symbol
 _atom_site_label
 _atom_site_symmetry_multiplicity
 _atom_site_fract_x
 _atom_site_fract_y
 _atom_site_fract_z
 _atom_site_occupancy
  Tm  Tm0  1  0.000000  0.000000  0.000000  1
  Tm  Tm1  1  0.500000  0.500000  0.000000  1
  Tm  Tm2  1  0.886490  0.386490  0.500000  1
  Tm  Tm3  1  0.386490  0.113510  0.500000  1
  Tm  Tm4  1  0.613510  0.886490  0.500000  1
  Tm  Tm5  1  0.113510  0.613510  0.500000  1
  Ti  Ti6  1  0.674230  0.174230  0.500000  1
  Ti  Ti7  1  0.174230  0.325770  0.500000  1
  Ti  Ti8  1  0.825770  0.674230  0.500000  1
  Ti  Ti9  1  0.325770  0.825770  0.500000  1
  Co  Co10  1  0.522597  0.253467  0.000000  1
  Co  Co11  1  0.253467  0.477403  0.000000  1
  Co  Co12  1  0.746533  0.522597  0.000000  1
  Co  Co13  1  0.477403  0.746533  0.000000  1
  Co  Co14  1  0.977403  0.753467  0.000000  1
  Co  Co15  1  0.022597  0.246533  0.000000  1
  Co  Co16  1  0.753467  0.022597  0.000000  1
  Co  Co17  1  0.246533  0.977403  0.000000  1
  Si  Si18  1  0.570715  0.070715  0.000000  1
  Si  Si19  1  0.070715  0.429285  0.000000  1
  Si  Si20  1  0.929285  0.570715  0.000000  1
  Si  Si21  1  0.429285  0.929285  0.000000  1
  Si  Si22  1  0.195498  0.161323  0.000000  1
  Si  Si23  1  0.161323  0.804502  0.000000  1
  Si  Si24  1  0.838677  0.195498  0.000000  1
  Si  Si25  1  0.804502  0.838677  0.000000  1
  Si  Si26  1  0.304502  0.661323  0.000000  1
  Si  Si27  1  0.695498  0.338677  0.000000  1
  Si  Si28  1  0.661323  0.695498  0.000000  1
  Si  Si29  1  0.338677  0.304502  0.000000  1
  Si  Si30  1  0.012603  0.166957  0.500000  1
  Si  Si31  1  0.166957  0.987397  0.500000  1
  Si  Si32  1  0.833043  0.012603  0.500000  1
  Si  Si33  1  0.987397  0.833043  0.500000  1
  Si  Si34  1  0.487397  0.666957  0.500000  1
  Si  Si35  1  0.512603  0.333043  0.500000  1
  Si  Si36  1  0.666957  0.512603  0.500000  1
  Si  Si37  1  0.333043  0.487397  0.500000  1
