# generated using pymatgen
data_Hg2Ir3Rh(PbO7)2
_symmetry_space_group_name_H-M   'P 1'
_cell_length_a   7.32260364
_cell_length_b   7.32260337
_cell_length_c   7.24142397
_cell_angle_alpha   60.43469157
_cell_angle_beta   60.43468893
_cell_angle_gamma   60.83131432
_symmetry_Int_Tables_number   1
_chemical_formula_structural   Hg2Ir3Rh(PbO7)2
_chemical_formula_sum   'Hg2 Ir3 Rh1 Pb2 O14'
_cell_volume   278.06908217
_cell_formula_units_Z   1
loop_
 _symmetry_equiv_pos_site_id
 _symmetry_equiv_pos_as_xyz
  1  'x, y, z'
loop_
 _atom_site_type_symbol
 _atom_site_label
 _atom_site_symmetry_multiplicity
 _atom_site_fract_x
 _atom_site_fract_y
 _atom_site_fract_z
 _atom_site_occupancy
  Hg  Hg0  1  0.125000  0.125000  0.625000  1
  Hg  Hg1  1  0.125000  0.125000  0.125000  1
  Ir  Ir2  1  0.125000  0.625000  0.625000  1
  Ir  Ir3  1  0.625000  0.125000  0.625000  1
  Ir  Ir4  1  0.625000  0.625000  0.625000  1
  Rh  Rh5  1  0.625000  0.625000  0.125000  1
  Pb  Pb6  1  0.625000  0.125000  0.125000  1
  Pb  Pb7  1  0.125000  0.625000  0.125000  1
  O  O8  1  0.706062  0.706062  0.295955  1
  O  O9  1  0.311963  0.311963  0.680363  1
  O  O10  1  0.689663  0.304308  0.706810  1
  O  O11  1  0.296243  0.694536  0.299801  1
  O  O12  1  0.304308  0.689663  0.706810  1
  O  O13  1  0.694536  0.296243  0.299801  1
  O  O14  1  0.543938  0.543938  0.954045  1
  O  O15  1  0.938037  0.938037  0.569637  1
  O  O16  1  0.560337  0.945692  0.543190  1
  O  O17  1  0.953757  0.555464  0.950199  1
  O  O18  1  0.945692  0.560337  0.543190  1
  O  O19  1  0.555464  0.953757  0.950199  1
  O  O20  1  0.234771  0.234771  0.267699  1
  O  O21  1  0.015229  0.015229  0.982301  1
