# generated using pymatgen
data_La7Yb13Pb16
_symmetry_space_group_name_H-M   'P 1'
_cell_length_a   8.14336610
_cell_length_b   8.65615542
_cell_length_c   16.39951173
_cell_angle_alpha   90.06653007
_cell_angle_beta   89.79639398
_cell_angle_gamma   89.98212310
_symmetry_Int_Tables_number   1
_chemical_formula_structural   La7Yb13Pb16
_chemical_formula_sum   'La7 Yb13 Pb16'
_cell_volume   1155.99742450
_cell_formula_units_Z   1
loop_
 _symmetry_equiv_pos_site_id
 _symmetry_equiv_pos_as_xyz
  1  'x, y, z'
loop_
 _atom_site_type_symbol
 _atom_site_label
 _atom_site_symmetry_multiplicity
 _atom_site_fract_x
 _atom_site_fract_y
 _atom_site_fract_z
 _atom_site_occupancy
  La  La0  1  0.493741  0.313191  0.403350  1
  La  La1  1  0.504517  0.683488  0.904378  1
  La  La2  1  0.004973  0.815561  0.594883  1
  La  La3  1  0.003597  0.818826  0.905601  1
  La  La4  1  0.504732  0.684324  0.595702  1
  La  La5  1  0.497351  0.315713  0.097365  1
  La  La6  1  0.994019  0.185544  0.405315  1
  Yb  Yb7  1  0.830725  0.665645  0.124704  1
  Yb  Yb8  1  0.331247  0.835174  0.375640  1
  Yb  Yb9  1  0.667467  0.167038  0.876432  1
  Yb  Yb10  1  0.169094  0.334522  0.623479  1
  Yb  Yb11  1  0.167161  0.332546  0.877275  1
  Yb  Yb12  1  0.668811  0.165931  0.623386  1
  Yb  Yb13  1  0.331227  0.834418  0.125289  1
  Yb  Yb14  1  0.831076  0.663979  0.375457  1
  Yb  Yb15  1  0.000086  0.183807  0.095668  1
  Yb  Yb16  1  0.661832  0.997695  0.247977  1
  Yb  Yb17  1  0.158532  0.501707  0.248472  1
  Yb  Yb18  1  0.840355  0.496020  0.750069  1
  Yb  Yb19  1  0.339885  0.004157  0.749885  1
  Pb  Pb20  1  0.027561  0.889649  0.250919  1
  Pb  Pb21  1  0.526072  0.607766  0.251457  1
  Pb  Pb22  1  0.472107  0.391293  0.749880  1
  Pb  Pb23  1  0.972154  0.109704  0.749802  1
  Pb  Pb24  1  0.791421  0.354157  0.248965  1
  Pb  Pb25  1  0.289023  0.144027  0.250669  1
  Pb  Pb26  1  0.709862  0.855066  0.748958  1
  Pb  Pb27  1  0.208829  0.645198  0.749802  1
  Pb  Pb28  1  0.824662  0.465651  0.959860  1
  Pb  Pb29  1  0.327518  0.038176  0.540381  1
  Pb  Pb30  1  0.675414  0.964733  0.039977  1
  Pb  Pb31  1  0.173604  0.538125  0.459146  1
  Pb  Pb32  1  0.174224  0.539043  0.039136  1
  Pb  Pb33  1  0.673819  0.961197  0.459329  1
  Pb  Pb34  1  0.326094  0.035261  0.961096  1
  Pb  Pb35  1  0.827207  0.461667  0.540297  1
