# generated using pymatgen
data_DyY2Mg3NiGe2
_symmetry_space_group_name_H-M   'P 1'
_cell_length_a   7.22975316
_cell_length_b   7.21632358
_cell_length_c   4.27971200
_cell_angle_alpha   90.00000000
_cell_angle_beta   90.00000000
_cell_angle_gamma   119.93855815
_symmetry_Int_Tables_number   1
_chemical_formula_structural   DyY2Mg3NiGe2
_chemical_formula_sum   'Dy1 Y2 Mg3 Ni1 Ge2'
_cell_volume   193.48762594
_cell_formula_units_Z   1
loop_
 _symmetry_equiv_pos_site_id
 _symmetry_equiv_pos_as_xyz
  1  'x, y, z'
loop_
 _atom_site_type_symbol
 _atom_site_label
 _atom_site_symmetry_multiplicity
 _atom_site_fract_x
 _atom_site_fract_y
 _atom_site_fract_z
 _atom_site_occupancy
  Dy  Dy0  1  0.000000  0.591039  0.000000  1
  Y  Y1  1  0.409625  0.410072  0.000000  1
  Y  Y2  1  0.590375  0.000447  0.000000  1
  Mg  Mg3  1  0.238608  0.000116  0.500000  1
  Mg  Mg4  1  0.761392  0.761507  0.500000  1
  Mg  Mg5  1  0.000000  0.238425  0.500000  1
  Ni  Ni6  1  0.000000  0.998430  0.000000  1
  Ge  Ge7  1  0.667376  0.333669  0.500000  1
  Ge  Ge8  1  0.332624  0.666295  0.500000  1
