# generated using pymatgen
data_Dy5Er15(Bi2Te)4
_symmetry_space_group_name_H-M   'P 1'
_cell_length_a   8.13661786
_cell_length_b   9.41546331
_cell_length_c   11.90789200
_cell_angle_alpha   89.98890044
_cell_angle_beta   90.02630082
_cell_angle_gamma   90.00952857
_symmetry_Int_Tables_number   1
_chemical_formula_structural   Dy5Er15(Bi2Te)4
_chemical_formula_sum   'Dy5 Er15 Bi8 Te4'
_cell_volume   912.26380032
_cell_formula_units_Z   1
loop_
 _symmetry_equiv_pos_site_id
 _symmetry_equiv_pos_as_xyz
  1  'x, y, z'
loop_
 _atom_site_type_symbol
 _atom_site_label
 _atom_site_symmetry_multiplicity
 _atom_site_fract_x
 _atom_site_fract_y
 _atom_site_fract_z
 _atom_site_occupancy
  Dy  Dy0  1  0.189110  0.562523  0.441780  1
  Dy  Dy1  1  0.318502  0.249991  0.216716  1
  Dy  Dy2  1  0.818620  0.250092  0.283152  1
  Dy  Dy3  1  0.681513  0.750163  0.783335  1
  Dy  Dy4  1  0.181642  0.750263  0.717053  1
  Er  Er5  1  0.354076  0.750359  0.214215  1
  Er  Er6  1  0.853169  0.750188  0.285403  1
  Er  Er7  1  0.646536  0.250232  0.785665  1
  Er  Er8  1  0.146738  0.250307  0.714536  1
  Er  Er9  1  0.689199  0.563965  0.058061  1
  Er  Er10  1  0.189302  0.935855  0.441669  1
  Er  Er11  1  0.310757  0.063948  0.941916  1
  Er  Er12  1  0.810851  0.435946  0.558224  1
  Er  Er13  1  0.310887  0.436179  0.941837  1
  Er  Er14  1  0.810248  0.063619  0.558401  1
  Er  Er15  1  0.689263  0.936251  0.058058  1
  Er  Er16  1  0.476177  0.250037  0.488907  1
  Er  Er17  1  0.976231  0.250116  0.011013  1
  Er  Er18  1  0.523963  0.750149  0.511152  1
  Er  Er19  1  0.023740  0.750109  0.988853  1
  Bi  Bi20  1  0.567708  0.995539  0.325816  1
  Bi  Bi21  1  0.067506  0.504908  0.173915  1
  Bi  Bi22  1  0.432467  0.495455  0.674316  1
  Bi  Bi23  1  0.932339  0.004964  0.825852  1
  Bi  Bi24  1  0.432373  0.004870  0.674198  1
  Bi  Bi25  1  0.932201  0.495407  0.825892  1
  Bi  Bi26  1  0.568038  0.504776  0.325742  1
  Bi  Bi27  1  0.067671  0.995354  0.173977  1
  Te  Te28  1  0.405161  0.750053  0.958289  1
  Te  Te29  1  0.905154  0.750162  0.541639  1
  Te  Te30  1  0.594786  0.250085  0.041595  1
  Te  Te31  1  0.094073  0.248132  0.458824  1
