# generated using pymatgen
data_Y4Ga16Ir2Ru
_symmetry_space_group_name_H-M   'P 1'
_cell_length_a   6.14577500
_cell_length_b   6.14577500
_cell_length_c   11.26871000
_cell_angle_alpha   90.00000000
_cell_angle_beta   90.00000000
_cell_angle_gamma   90.00000000
_symmetry_Int_Tables_number   1
_chemical_formula_structural   Y4Ga16Ir2Ru
_chemical_formula_sum   'Y4 Ga16 Ir2 Ru1'
_cell_volume   425.62537844
_cell_formula_units_Z   1
loop_
 _symmetry_equiv_pos_site_id
 _symmetry_equiv_pos_as_xyz
  1  'x, y, z'
loop_
 _atom_site_type_symbol
 _atom_site_label
 _atom_site_symmetry_multiplicity
 _atom_site_fract_x
 _atom_site_fract_y
 _atom_site_fract_z
 _atom_site_occupancy
  Y  Y0  1  0.500000  0.000000  0.806149  1
  Y  Y1  1  0.000000  0.500000  0.806149  1
  Y  Y2  1  0.500000  0.000000  0.193851  1
  Y  Y3  1  0.000000  0.500000  0.193851  1
  Ga  Ga4  1  0.247381  0.247381  0.620204  1
  Ga  Ga5  1  0.752619  0.752619  0.620204  1
  Ga  Ga6  1  0.752619  0.247381  0.620204  1
  Ga  Ga7  1  0.247381  0.752619  0.620204  1
  Ga  Ga8  1  0.752619  0.752619  0.379796  1
  Ga  Ga9  1  0.247381  0.247381  0.379796  1
  Ga  Ga10  1  0.247381  0.752619  0.379796  1
  Ga  Ga11  1  0.752619  0.247381  0.379796  1
  Ga  Ga12  1  0.286502  0.286502  0.000000  1
  Ga  Ga13  1  0.713498  0.713498  0.000000  1
  Ga  Ga14  1  0.713498  0.286502  0.000000  1
  Ga  Ga15  1  0.286502  0.713498  0.000000  1
  Ga  Ga16  1  0.500000  0.500000  0.803015  1
  Ga  Ga17  1  0.500000  0.500000  0.196985  1
  Ga  Ga18  1  0.000000  0.000000  0.778507  1
  Ga  Ga19  1  0.000000  0.000000  0.221493  1
  Ir  Ir20  1  0.500000  0.000000  0.500000  1
  Ir  Ir21  1  0.000000  0.500000  0.500000  1
  Ru  Ru22  1  0.000000  0.000000  0.000000  1
