# generated using pymatgen
data_Lu6Al6NiAu5
_symmetry_space_group_name_H-M   'P 1'
_cell_length_a   7.22763500
_cell_length_b   7.22763380
_cell_length_c   7.85162000
_cell_angle_alpha   90.00000000
_cell_angle_beta   90.00000000
_cell_angle_gamma   119.99999176
_symmetry_Int_Tables_number   1
_chemical_formula_structural   Lu6Al6NiAu5
_chemical_formula_sum   'Lu6 Al6 Ni1 Au5'
_cell_volume   355.20763561
_cell_formula_units_Z   1
loop_
 _symmetry_equiv_pos_site_id
 _symmetry_equiv_pos_as_xyz
  1  'x, y, z'
loop_
 _atom_site_type_symbol
 _atom_site_label
 _atom_site_symmetry_multiplicity
 _atom_site_fract_x
 _atom_site_fract_y
 _atom_site_fract_z
 _atom_site_occupancy
  Lu  Lu0  1  0.590975  0.990703  0.750000  1
  Lu  Lu1  1  0.009297  0.600270  0.750000  1
  Lu  Lu2  1  0.399730  0.409025  0.750000  1
  Lu  Lu3  1  0.991537  0.579983  0.250000  1
  Lu  Lu4  1  0.588446  0.008463  0.250000  1
  Lu  Lu5  1  0.420017  0.411554  0.250000  1
  Al  Al6  1  0.764144  0.762480  0.985765  1
  Al  Al7  1  0.237520  0.001663  0.985765  1
  Al  Al8  1  0.998337  0.235856  0.985765  1
  Al  Al9  1  0.764144  0.762480  0.514235  1
  Al  Al10  1  0.237520  0.001663  0.514235  1
  Al  Al11  1  0.998337  0.235856  0.514235  1
  Ni  Ni12  1  0.000000  0.000000  0.750000  1
  Au  Au13  1  0.000000  0.000000  0.250000  1
  Au  Au14  1  0.666667  0.333333  0.988184  1
  Au  Au15  1  0.666667  0.333333  0.511816  1
  Au  Au16  1  0.333333  0.666667  0.488279  1
  Au  Au17  1  0.333333  0.666667  0.011721  1
