# generated using pymatgen
data_Y2LuHf(Al3Rh)6
_symmetry_space_group_name_H-M   'P 1'
_cell_length_a   7.52504562
_cell_length_b   7.51134488
_cell_length_c   9.39510600
_cell_angle_alpha   90.00000000
_cell_angle_beta   90.00000000
_cell_angle_gamma   119.47665867
_symmetry_Int_Tables_number   1
_chemical_formula_structural   Y2LuHf(Al3Rh)6
_chemical_formula_sum   'Y2 Lu1 Hf1 Al18 Rh6'
_cell_volume   462.30155227
_cell_formula_units_Z   1
loop_
 _symmetry_equiv_pos_site_id
 _symmetry_equiv_pos_as_xyz
  1  'x, y, z'
loop_
 _atom_site_type_symbol
 _atom_site_label
 _atom_site_symmetry_multiplicity
 _atom_site_fract_x
 _atom_site_fract_y
 _atom_site_fract_z
 _atom_site_occupancy
  Y  Y0  1  0.006156  0.327456  0.750000  1
  Y  Y1  1  0.328415  0.006364  0.750000  1
  Lu  Lu2  1  0.672943  0.995866  0.250000  1
  Hf  Hf3  1  0.996095  0.672723  0.250000  1
  Al  Al4  1  0.124104  0.121820  0.250000  1
  Al  Al5  1  0.870004  0.869144  0.750000  1
  Al  Al6  1  0.999232  0.338394  0.081895  1
  Al  Al7  1  0.998901  0.664690  0.929591  1
  Al  Al8  1  0.998901  0.664690  0.570409  1
  Al  Al9  1  0.332966  0.997102  0.418001  1
  Al  Al10  1  0.999232  0.338394  0.418105  1
  Al  Al11  1  0.664298  0.997885  0.573112  1
  Al  Al12  1  0.664298  0.997885  0.926888  1
  Al  Al13  1  0.332966  0.997102  0.081999  1
  Al  Al14  1  0.334075  0.334063  0.546844  1
  Al  Al15  1  0.669786  0.667785  0.441817  1
  Al  Al16  1  0.669786  0.667785  0.058183  1
  Al  Al17  1  0.334075  0.334063  0.953156  1
  Al  Al18  1  0.336715  0.552786  0.250000  1
  Al  Al19  1  0.660877  0.451553  0.750000  1
  Al  Al20  1  0.557535  0.344373  0.250000  1
  Al  Al21  1  0.450281  0.659344  0.750000  1
  Rh  Rh22  1  0.673217  0.328223  0.001725  1
  Rh  Rh23  1  0.327447  0.672935  0.002377  1
  Rh  Rh24  1  0.327447  0.672935  0.497623  1
  Rh  Rh25  1  0.673217  0.328223  0.498275  1
  Rh  Rh26  1  0.998516  0.998209  0.002159  1
  Rh  Rh27  1  0.998516  0.998209  0.497841  1
