# generated using pymatgen
data_Ca4Ga2Ir3Pd
_symmetry_space_group_name_H-M   'P 1'
_cell_length_a   5.78414958
_cell_length_b   5.78085924
_cell_length_c   7.67638863
_cell_angle_alpha   79.12973537
_cell_angle_beta   79.27382574
_cell_angle_gamma   59.22031368
_symmetry_Int_Tables_number   1
_chemical_formula_structural   Ca4Ga2Ir3Pd
_chemical_formula_sum   'Ca4 Ga2 Ir3 Pd1'
_cell_volume   215.34102956
_cell_formula_units_Z   1
loop_
 _symmetry_equiv_pos_site_id
 _symmetry_equiv_pos_as_xyz
  1  'x, y, z'
loop_
 _atom_site_type_symbol
 _atom_site_label
 _atom_site_symmetry_multiplicity
 _atom_site_fract_x
 _atom_site_fract_y
 _atom_site_fract_z
 _atom_site_occupancy
  Ca  Ca0  1  0.786149  0.510921  0.354107  1
  Ca  Ca1  1  0.492398  0.212208  0.143394  1
  Ca  Ca2  1  0.215227  0.491227  0.646673  1
  Ca  Ca3  1  0.502808  0.784586  0.856050  1
  Ga  Ga4  1  0.107548  0.899550  0.242264  1
  Ga  Ga5  1  0.912882  0.095543  0.755475  1
  Ir  Ir6  1  0.004798  0.716302  0.009806  1
  Ir  Ir7  1  0.268663  0.993002  0.489526  1
  Ir  Ir8  1  0.989191  0.289685  0.992841  1
  Pd  Pd9  1  0.720336  0.006977  0.509862  1
