# generated using pymatgen
data_Tb3DyCo3SiI2
_symmetry_space_group_name_H-M   'P 1'
_cell_length_a   3.99828500
_cell_length_b   3.99828529
_cell_length_c   16.90107200
_cell_angle_alpha   90.00000000
_cell_angle_beta   90.00000000
_cell_angle_gamma   119.99998936
_symmetry_Int_Tables_number   1
_chemical_formula_structural   Tb3DyCo3SiI2
_chemical_formula_sum   'Tb3 Dy1 Co3 Si1 I2'
_cell_volume   233.98739178
_cell_formula_units_Z   1
loop_
 _symmetry_equiv_pos_site_id
 _symmetry_equiv_pos_as_xyz
  1  'x, y, z'
loop_
 _atom_site_type_symbol
 _atom_site_label
 _atom_site_symmetry_multiplicity
 _atom_site_fract_x
 _atom_site_fract_y
 _atom_site_fract_z
 _atom_site_occupancy
  Tb  Tb0  1  0.000000  0.000000  0.103494  1
  Tb  Tb1  1  0.000000  0.000000  0.896594  1
  Tb  Tb2  1  0.000000  0.000000  0.605730  1
  Dy  Dy3  1  0.000000  0.000000  0.397033  1
  Co  Co4  1  0.666667  0.333333  0.494573  1
  Co  Co5  1  0.666667  0.333333  0.001224  1
  Co  Co6  1  0.333333  0.666667  0.998598  1
  Si  Si7  1  0.333333  0.666667  0.503507  1
  I  I8  1  0.333333  0.666667  0.250783  1
  I  I9  1  0.666667  0.333333  0.748463  1
