# generated using pymatgen
data_Hf18Ta5Re3P2
_symmetry_space_group_name_H-M   'P 1'
_cell_length_a   8.65923117
_cell_length_b   8.72081446
_cell_length_c   8.73411000
_cell_angle_alpha   90.00000000
_cell_angle_beta   90.00000000
_cell_angle_gamma   120.23553458
_symmetry_Int_Tables_number   1
_chemical_formula_structural   Hf18Ta5Re3P2
_chemical_formula_sum   'Hf18 Ta5 Re3 P2'
_cell_volume   569.83617131
_cell_formula_units_Z   1
loop_
 _symmetry_equiv_pos_site_id
 _symmetry_equiv_pos_as_xyz
  1  'x, y, z'
loop_
 _atom_site_type_symbol
 _atom_site_label
 _atom_site_symmetry_multiplicity
 _atom_site_fract_x
 _atom_site_fract_y
 _atom_site_fract_z
 _atom_site_occupancy
  Hf  Hf0  1  0.198290  0.802382  0.451886  1
  Hf  Hf1  1  0.198290  0.395907  0.451886  1
  Hf  Hf2  1  0.606569  0.803284  0.454075  1
  Hf  Hf3  1  0.802212  0.196974  0.551182  1
  Hf  Hf4  1  0.802212  0.605239  0.551182  1
  Hf  Hf5  1  0.395405  0.197703  0.549837  1
  Hf  Hf6  1  0.802212  0.196974  0.948818  1
  Hf  Hf7  1  0.802212  0.605239  0.948818  1
  Hf  Hf8  1  0.395405  0.197703  0.950163  1
  Hf  Hf9  1  0.198290  0.802382  0.048114  1
  Hf  Hf10  1  0.198290  0.395907  0.048114  1
  Hf  Hf11  1  0.606569  0.803284  0.045925  1
  Hf  Hf12  1  0.538500  0.462408  0.250000  1
  Hf  Hf13  1  0.538500  0.076092  0.250000  1
  Hf  Hf14  1  0.923165  0.461583  0.250000  1
  Hf  Hf15  1  0.463477  0.541744  0.750000  1
  Hf  Hf16  1  0.463477  0.921732  0.750000  1
  Hf  Hf17  1  0.076924  0.538462  0.750000  1
  Ta  Ta18  1  0.888911  0.110284  0.250000  1
  Ta  Ta19  1  0.888911  0.778625  0.250000  1
  Ta  Ta20  1  0.221871  0.110935  0.250000  1
  Ta  Ta21  1  0.106122  0.887720  0.750000  1
  Ta  Ta22  1  0.106122  0.218402  0.750000  1
  Re  Re23  1  0.777598  0.888799  0.750000  1
  Re  Re24  1  0.999211  0.999605  0.499324  1
  Re  Re25  1  0.999211  0.999605  0.000676  1
  P  P26  1  0.334122  0.667062  0.250000  1
  P  P27  1  0.667924  0.333961  0.750000  1
