# generated using pymatgen
data_Dy11Th5(InRu)4
_symmetry_space_group_name_H-M   'P 1'
_cell_length_a   9.69467810
_cell_length_b   9.78220975
_cell_length_c   9.78220943
_cell_angle_alpha   59.98955160
_cell_angle_beta   60.29555187
_cell_angle_gamma   60.29555859
_symmetry_Int_Tables_number   1
_chemical_formula_structural   Dy11Th5(InRu)4
_chemical_formula_sum   'Dy11 Th5 In4 Ru4'
_cell_volume   658.84532472
_cell_formula_units_Z   1
loop_
 _symmetry_equiv_pos_site_id
 _symmetry_equiv_pos_as_xyz
  1  'x, y, z'
loop_
 _atom_site_type_symbol
 _atom_site_label
 _atom_site_symmetry_multiplicity
 _atom_site_fract_x
 _atom_site_fract_y
 _atom_site_fract_z
 _atom_site_occupancy
  Dy  Dy0  1  0.188723  0.811277  0.811277  1
  Dy  Dy1  1  0.193689  0.806892  0.187681  1
  Dy  Dy2  1  0.811738  0.187681  0.806892  1
  Dy  Dy3  1  0.193689  0.187681  0.806892  1
  Dy  Dy4  1  0.811738  0.806892  0.187681  1
  Dy  Dy5  1  0.935222  0.564778  0.564778  1
  Dy  Dy6  1  0.561199  0.938801  0.938801  1
  Dy  Dy7  1  0.560132  0.939396  0.561412  1
  Dy  Dy8  1  0.939059  0.561412  0.939396  1
  Dy  Dy9  1  0.560132  0.561412  0.939396  1
  Dy  Dy10  1  0.939059  0.939396  0.561412  1
  Th  Th11  1  0.342523  0.349843  0.349843  1
  Th  Th12  1  0.347076  0.348482  0.957365  1
  Th  Th13  1  0.347076  0.957365  0.348482  1
  Th  Th14  1  0.957791  0.349843  0.349843  1
  Th  Th15  1  0.815583  0.184417  0.184417  1
  In  In16  1  0.583522  0.583404  0.583404  1
  In  In17  1  0.582597  0.586415  0.248389  1
  In  In18  1  0.582597  0.248389  0.586415  1
  In  In19  1  0.249668  0.583404  0.583404  1
  Ru  Ru20  1  0.127590  0.147090  0.147090  1
  Ru  Ru21  1  0.145684  0.141251  0.567383  1
  Ru  Ru22  1  0.145684  0.567383  0.141251  1
  Ru  Ru23  1  0.578230  0.147090  0.147090  1
