# generated using pymatgen
data_Tb3Dy(ErSb5)4
_symmetry_space_group_name_H-M   'P 1'
_cell_length_a   4.23882800
_cell_length_b   13.15185784
_cell_length_c   14.63737844
_cell_angle_alpha   77.71064157
_cell_angle_beta   90.00000000
_cell_angle_gamma   90.00000000
_symmetry_Int_Tables_number   1
_chemical_formula_structural   Tb3Dy(ErSb5)4
_chemical_formula_sum   'Tb3 Dy1 Er4 Sb20'
_cell_volume   797.31255528
_cell_formula_units_Z   1
loop_
 _symmetry_equiv_pos_site_id
 _symmetry_equiv_pos_as_xyz
  1  'x, y, z'
loop_
 _atom_site_type_symbol
 _atom_site_label
 _atom_site_symmetry_multiplicity
 _atom_site_fract_x
 _atom_site_fract_y
 _atom_site_fract_z
 _atom_site_occupancy
  Tb  Tb0  1  0.250000  0.669352  0.577145  1
  Tb  Tb1  1  0.750000  0.330656  0.422895  1
  Tb  Tb2  1  0.250000  0.952687  0.359890  1
  Dy  Dy3  1  0.750000  0.047288  0.639935  1
  Er  Er4  1  0.250000  0.394356  0.771860  1
  Er  Er5  1  0.750000  0.605656  0.228106  1
  Er  Er6  1  0.250000  0.662267  0.855832  1
  Er  Er7  1  0.750000  0.337759  0.144158  1
  Sb  Sb8  1  0.250000  0.143351  0.779947  1
  Sb  Sb9  1  0.750000  0.856533  0.219956  1
  Sb  Sb10  1  0.250000  0.142693  0.482886  1
  Sb  Sb11  1  0.750000  0.857230  0.517427  1
  Sb  Sb12  1  0.250000  0.153666  0.171896  1
  Sb  Sb13  1  0.750000  0.846419  0.828052  1
  Sb  Sb14  1  0.250000  0.420324  0.975740  1
  Sb  Sb15  1  0.750000  0.579673  0.024267  1
  Sb  Sb16  1  0.750000  0.030033  0.906473  1
  Sb  Sb17  1  0.250000  0.969993  0.093536  1
  Sb  Sb18  1  0.750000  0.139389  0.321585  1
  Sb  Sb19  1  0.250000  0.860920  0.678366  1
  Sb  Sb20  1  0.750000  0.279782  0.938590  1
  Sb  Sb21  1  0.250000  0.720202  0.061417  1
  Sb  Sb22  1  0.750000  0.287258  0.654013  1
  Sb  Sb23  1  0.250000  0.712541  0.346025  1
  Sb  Sb24  1  0.750000  0.575376  0.736265  1
  Sb  Sb25  1  0.250000  0.424639  0.263739  1
  Sb  Sb26  1  0.750000  0.574364  0.446318  1
  Sb  Sb27  1  0.250000  0.425592  0.553683  1
