# generated using pymatgen
data_Ba2UPa3Te10
_symmetry_space_group_name_H-M   'P 1'
_cell_length_a   9.61463594
_cell_length_b   9.61463583
_cell_length_c   9.63103906
_cell_angle_alpha   128.22627787
_cell_angle_beta   128.22627663
_cell_angle_gamma   76.13418909
_symmetry_Int_Tables_number   1
_chemical_formula_structural   Ba2UPa3Te10
_chemical_formula_sum   'Ba2 U1 Pa3 Te10'
_cell_volume   534.42770629
_cell_formula_units_Z   1
loop_
 _symmetry_equiv_pos_site_id
 _symmetry_equiv_pos_as_xyz
  1  'x, y, z'
loop_
 _atom_site_type_symbol
 _atom_site_label
 _atom_site_symmetry_multiplicity
 _atom_site_fract_x
 _atom_site_fract_y
 _atom_site_fract_z
 _atom_site_occupancy
  Ba  Ba0  1  0.749623  0.750377  0.000000  1
  Ba  Ba1  1  0.249623  0.250377  0.000000  1
  U  U2  1  0.850257  0.649743  0.500000  1
  Pa  Pa3  1  0.652219  0.148835  0.801054  1
  Pa  Pa4  1  0.351165  0.847781  0.198946  1
  Pa  Pa5  1  0.147724  0.352276  0.500000  1
  Te  Te6  1  0.018089  0.516266  0.801696  1
  Te  Te7  1  0.716393  0.214570  0.198304  1
  Te  Te8  1  0.514198  0.719151  0.500000  1
  Te  Te9  1  0.217571  0.016803  0.500000  1
  Te  Te10  1  0.983734  0.481911  0.198304  1
  Te  Te11  1  0.285430  0.783607  0.801696  1
  Te  Te12  1  0.483197  0.282429  0.500000  1
  Te  Te13  1  0.780849  0.985802  0.500000  1
  Te  Te14  1  0.002241  0.002312  0.004553  1
  Te  Te15  1  0.497688  0.497759  0.995447  1
