# generated using pymatgen
data_La2Pr2PtAu3
_symmetry_space_group_name_H-M   'P 1'
_cell_length_a   4.79622400
_cell_length_b   5.97852058
_cell_length_c   7.53530262
_cell_angle_alpha   90.51681204
_cell_angle_beta   90.00000000
_cell_angle_gamma   90.00000000
_symmetry_Int_Tables_number   1
_chemical_formula_structural   La2Pr2PtAu3
_chemical_formula_sum   'La2 Pr2 Pt1 Au3'
_cell_volume   216.06091806
_cell_formula_units_Z   1
loop_
 _symmetry_equiv_pos_site_id
 _symmetry_equiv_pos_as_xyz
  1  'x, y, z'
loop_
 _atom_site_type_symbol
 _atom_site_label
 _atom_site_symmetry_multiplicity
 _atom_site_fract_x
 _atom_site_fract_y
 _atom_site_fract_z
 _atom_site_occupancy
  La  La0  1  0.250000  0.358414  0.695307  1
  La  La1  1  0.250000  0.148072  0.175360  1
  Pr  Pr2  1  0.750000  0.636814  0.311489  1
  Pr  Pr3  1  0.750000  0.862028  0.819542  1
  Pt  Pt4  1  0.750000  0.345644  0.957309  1
  Au  Au5  1  0.250000  0.851477  0.539951  1
  Au  Au6  1  0.250000  0.651743  0.043176  1
  Au  Au7  1  0.750000  0.145807  0.457866  1
