# generated using pymatgen
data_LaGd3Mg4(SnH)4
_symmetry_space_group_name_H-M   'P 1'
_cell_length_a   4.39055600
_cell_length_b   8.01762227
_cell_length_c   9.13658255
_cell_angle_alpha   90.35765456
_cell_angle_beta   90.00000000
_cell_angle_gamma   90.00000000
_symmetry_Int_Tables_number   1
_chemical_formula_structural   LaGd3Mg4(SnH)4
_chemical_formula_sum   'La1 Gd3 Mg4 Sn4 H4'
_cell_volume   321.61806409
_cell_formula_units_Z   1
loop_
 _symmetry_equiv_pos_site_id
 _symmetry_equiv_pos_as_xyz
  1  'x, y, z'
loop_
 _atom_site_type_symbol
 _atom_site_label
 _atom_site_symmetry_multiplicity
 _atom_site_fract_x
 _atom_site_fract_y
 _atom_site_fract_z
 _atom_site_occupancy
  La  La0  1  0.750000  0.981600  0.665946  1
  Gd  Gd1  1  0.750000  0.479731  0.841345  1
  Gd  Gd2  1  0.250000  0.519796  0.160817  1
  Gd  Gd3  1  0.250000  0.020980  0.337284  1
  Mg  Mg4  1  0.750000  0.345286  0.430947  1
  Mg  Mg5  1  0.250000  0.656443  0.566408  1
  Mg  Mg6  1  0.250000  0.158642  0.933229  1
  Mg  Mg7  1  0.750000  0.841108  0.071186  1
  Sn  Sn8  1  0.750000  0.208883  0.126096  1
  Sn  Sn9  1  0.250000  0.785819  0.877657  1
  Sn  Sn10  1  0.250000  0.295156  0.627359  1
  Sn  Sn11  1  0.750000  0.708969  0.370931  1
  H  H12  1  0.250000  0.924797  0.563779  1
  H  H13  1  0.750000  0.075875  0.424542  1
  H  H14  1  0.750000  0.568745  0.070324  1
  H  H15  1  0.250000  0.428170  0.932150  1
