# generated using pymatgen
data_Eu3YGa18(Ir2Pd)2
_symmetry_space_group_name_H-M   'P 1'
_cell_length_a   7.64902145
_cell_length_b   7.64418748
_cell_length_c   9.66304400
_cell_angle_alpha   90.00000000
_cell_angle_beta   90.00000000
_cell_angle_gamma   119.55787223
_symmetry_Int_Tables_number   1
_chemical_formula_structural   Eu3YGa18(Ir2Pd)2
_chemical_formula_sum   'Eu3 Y1 Ga18 Ir4 Pd2'
_cell_volume   491.47277473
_cell_formula_units_Z   1
loop_
 _symmetry_equiv_pos_site_id
 _symmetry_equiv_pos_as_xyz
  1  'x, y, z'
loop_
 _atom_site_type_symbol
 _atom_site_label
 _atom_site_symmetry_multiplicity
 _atom_site_fract_x
 _atom_site_fract_y
 _atom_site_fract_z
 _atom_site_occupancy
  Eu  Eu0  1  0.996695  0.670396  0.250000  1
  Eu  Eu1  1  0.002416  0.328777  0.750000  1
  Eu  Eu2  1  0.671602  0.997969  0.250000  1
  Y  Y3  1  0.329922  0.002001  0.750000  1
  Ga  Ga4  1  0.131918  0.132118  0.250000  1
  Ga  Ga5  1  0.870067  0.868248  0.750000  1
  Ga  Ga6  1  0.001198  0.338232  0.077352  1
  Ga  Ga7  1  0.999799  0.663040  0.920802  1
  Ga  Ga8  1  0.999799  0.663040  0.579198  1
  Ga  Ga9  1  0.338048  0.000824  0.422534  1
  Ga  Ga10  1  0.001198  0.338232  0.422648  1
  Ga  Ga11  1  0.661627  0.999078  0.579424  1
  Ga  Ga12  1  0.661627  0.999078  0.920576  1
  Ga  Ga13  1  0.338048  0.000824  0.077466  1
  Ga  Ga14  1  0.336938  0.336214  0.565184  1
  Ga  Ga15  1  0.661692  0.662199  0.438062  1
  Ga  Ga16  1  0.661692  0.662199  0.061938  1
  Ga  Ga17  1  0.336938  0.336214  0.934816  1
  Ga  Ga18  1  0.337296  0.545994  0.250000  1
  Ga  Ga19  1  0.661549  0.453057  0.750000  1
  Ga  Ga20  1  0.545060  0.336870  0.250000  1
  Ga  Ga21  1  0.455018  0.664638  0.750000  1
  Ir  Ir22  1  0.669375  0.328564  0.998572  1
  Ir  Ir23  1  0.329093  0.671384  0.998259  1
  Ir  Ir24  1  0.329093  0.671384  0.501741  1
  Ir  Ir25  1  0.669375  0.328564  0.501428  1
  Pd  Pd26  1  0.001459  0.000431  0.998471  1
  Pd  Pd27  1  0.001459  0.000431  0.501529  1
