# generated using pymatgen
data_TmLuNi2Hg
_symmetry_space_group_name_H-M   'P 1'
_cell_length_a   7.17314538
_cell_length_b   7.17314560
_cell_length_c   3.57334300
_cell_angle_alpha   90.00000000
_cell_angle_beta   90.00000000
_cell_angle_gamma   148.18759805
_symmetry_Int_Tables_number   1
_chemical_formula_structural   TmLuNi2Hg
_chemical_formula_sum   'Tm1 Lu1 Ni2 Hg1'
_cell_volume   96.92141544
_cell_formula_units_Z   1
loop_
 _symmetry_equiv_pos_site_id
 _symmetry_equiv_pos_as_xyz
  1  'x, y, z'
loop_
 _atom_site_type_symbol
 _atom_site_label
 _atom_site_symmetry_multiplicity
 _atom_site_fract_x
 _atom_site_fract_y
 _atom_site_fract_z
 _atom_site_occupancy
  Tm  Tm0  1  0.362477  0.637523  0.500000  1
  Lu  Lu1  1  0.638177  0.361823  0.500000  1
  Ni  Ni2  1  0.800575  0.199425  0.000000  1
  Ni  Ni3  1  0.198339  0.801661  0.000000  1
  Hg  Hg4  1  0.000431  0.999569  0.000000  1
