# generated using pymatgen
data_Si12P12Ir3Au
_symmetry_space_group_name_H-M   'P 1'
_cell_length_a   5.98677584
_cell_length_b   6.17772017
_cell_length_c   13.05680746
_cell_angle_alpha   89.16904862
_cell_angle_beta   90.95716703
_cell_angle_gamma   90.62209725
_symmetry_Int_Tables_number   1
_chemical_formula_structural   Si12P12Ir3Au
_chemical_formula_sum   'Si12 P12 Ir3 Au1'
_cell_volume   482.75576515
_cell_formula_units_Z   1
loop_
 _symmetry_equiv_pos_site_id
 _symmetry_equiv_pos_as_xyz
  1  'x, y, z'
loop_
 _atom_site_type_symbol
 _atom_site_label
 _atom_site_symmetry_multiplicity
 _atom_site_fract_x
 _atom_site_fract_y
 _atom_site_fract_z
 _atom_site_occupancy
  Si  Si0  1  0.963304  0.140253  0.312911  1
  Si  Si1  1  0.460372  0.843713  0.681992  1
  Si  Si2  1  0.938081  0.622968  0.205913  1
  Si  Si3  1  0.429476  0.369848  0.788161  1
  Si  Si4  1  0.341789  0.914522  0.949921  1
  Si  Si5  1  0.843871  0.074771  0.048802  1
  Si  Si6  1  0.911011  0.535008  0.674341  1
  Si  Si7  1  0.438604  0.475034  0.322563  1
  Si  Si8  1  0.985655  0.070753  0.572404  1
  Si  Si9  1  0.482828  0.947196  0.430943  1
  Si  Si10  1  0.908898  0.619481  0.927290  1
  Si  Si11  1  0.411489  0.373036  0.072300  1
  P  P12  1  0.578269  0.028180  0.826061  1
  P  P13  1  0.089509  0.962668  0.173258  1
  P  P14  1  0.519942  0.559790  0.930073  1
  P  P15  1  0.025010  0.426209  0.068792  1
  P  P16  1  0.603177  0.120582  0.574767  1
  P  P17  1  0.099001  0.902104  0.430435  1
  P  P18  1  0.556036  0.645984  0.177702  1
  P  P19  1  0.044733  0.353152  0.819749  1
  P  P20  1  0.578966  0.133871  0.289027  1
  P  P21  1  0.075792  0.870426  0.711111  1
  P  P22  1  0.151411  0.406157  0.560413  1
  P  P23  1  0.639303  0.616333  0.450945  1
  Ir  Ir24  1  0.965787  0.981911  0.879248  1
  Ir  Ir25  1  0.472441  0.012525  0.119952  1
  Ir  Ir26  1  0.532336  0.489741  0.622100  1
  Au  Au27  1  0.046711  0.503784  0.378822  1
