# generated using pymatgen
data_Dy(ErSi2)5
_symmetry_space_group_name_H-M   'P 1'
_cell_length_a   6.63033300
_cell_length_b   6.62651341
_cell_length_c   8.20869511
_cell_angle_alpha   89.97888978
_cell_angle_beta   90.00000000
_cell_angle_gamma   120.01906435
_symmetry_Int_Tables_number   1
_chemical_formula_structural   Dy(ErSi2)5
_chemical_formula_sum   'Dy1 Er5 Si10'
_cell_volume   312.27820722
_cell_formula_units_Z   1
loop_
 _symmetry_equiv_pos_site_id
 _symmetry_equiv_pos_as_xyz
  1  'x, y, z'
loop_
 _atom_site_type_symbol
 _atom_site_label
 _atom_site_symmetry_multiplicity
 _atom_site_fract_x
 _atom_site_fract_y
 _atom_site_fract_z
 _atom_site_occupancy
  Dy  Dy0  1  0.330797  0.000000  0.000000  1
  Er  Er1  1  0.330939  0.000000  0.500000  1
  Er  Er2  1  0.999933  0.330902  0.500038  1
  Er  Er3  1  0.000053  0.330963  0.999925  1
  Er  Er4  1  0.669090  0.669037  0.000075  1
  Er  Er5  1  0.669031  0.669098  0.499962  1
  Si  Si6  1  0.383873  0.331702  0.250165  1
  Si  Si7  1  0.669007  0.052555  0.250129  1
  Si  Si8  1  0.947652  0.616271  0.250039  1
  Si  Si9  1  0.616452  0.947445  0.749871  1
  Si  Si10  1  0.999722  0.000052  0.250098  1
  Si  Si11  1  0.666863  0.333497  0.750039  1
  Si  Si12  1  0.052172  0.668298  0.749835  1
  Si  Si13  1  0.331381  0.383729  0.749961  1
  Si  Si14  1  0.333365  0.666503  0.249961  1
  Si  Si15  1  0.999670  0.999948  0.749902  1
