# generated using pymatgen
data_Tm4Co9B4Ir
_symmetry_space_group_name_H-M   'P 1'
_cell_length_a   10.56809591
_cell_length_b   10.56809581
_cell_length_c   10.56809700
_cell_angle_alpha   27.66819688
_cell_angle_beta   27.66819794
_cell_angle_gamma   27.66819557
_symmetry_Int_Tables_number   1
_chemical_formula_structural   Tm4Co9B4Ir
_chemical_formula_sum   'Tm4 Co9 B4 Ir1'
_cell_volume   224.67912416
_cell_formula_units_Z   1
loop_
 _symmetry_equiv_pos_site_id
 _symmetry_equiv_pos_as_xyz
  1  'x, y, z'
loop_
 _atom_site_type_symbol
 _atom_site_label
 _atom_site_symmetry_multiplicity
 _atom_site_fract_x
 _atom_site_fract_y
 _atom_site_fract_z
 _atom_site_occupancy
  Tm  Tm0  1  0.150430  0.150430  0.150430  1
  Tm  Tm1  1  0.950904  0.950904  0.950904  1
  Tm  Tm2  1  0.849570  0.849570  0.849570  1
  Tm  Tm3  1  0.049096  0.049096  0.049096  1
  Co  Co4  1  0.407734  0.899736  0.407734  1
  Co  Co5  1  0.899736  0.407734  0.407734  1
  Co  Co6  1  0.500000  0.500000  0.000000  1
  Co  Co7  1  0.500000  0.000000  0.500000  1
  Co  Co8  1  0.000000  0.500000  0.500000  1
  Co  Co9  1  0.592266  0.100264  0.592266  1
  Co  Co10  1  0.592266  0.592266  0.100264  1
  Co  Co11  1  0.100264  0.592266  0.592266  1
  Co  Co12  1  0.407734  0.407734  0.899736  1
  B  B13  1  0.618637  0.618637  0.618637  1
  B  B14  1  0.715397  0.715397  0.715397  1
  B  B15  1  0.381363  0.381363  0.381363  1
  B  B16  1  0.284603  0.284603  0.284603  1
  Ir  Ir17  1  0.500000  0.500000  0.500000  1
