# generated using pymatgen
data_SrPr2Tm(Ir2O7)2
_symmetry_space_group_name_H-M   'P 1'
_cell_length_a   7.37112513
_cell_length_b   7.36939754
_cell_length_c   7.41700800
_cell_angle_alpha   59.78605519
_cell_angle_beta   59.79387483
_cell_angle_gamma   59.79650490
_symmetry_Int_Tables_number   1
_chemical_formula_structural   SrPr2Tm(Ir2O7)2
_chemical_formula_sum   'Sr1 Pr2 Tm1 Ir4 O14'
_cell_volume   283.54718977
_cell_formula_units_Z   1
loop_
 _symmetry_equiv_pos_site_id
 _symmetry_equiv_pos_as_xyz
  1  'x, y, z'
loop_
 _atom_site_type_symbol
 _atom_site_label
 _atom_site_symmetry_multiplicity
 _atom_site_fract_x
 _atom_site_fract_y
 _atom_site_fract_z
 _atom_site_occupancy
  Sr  Sr0  1  0.125000  0.625000  0.125000  1
  Pr  Pr1  1  0.125000  0.125000  0.625000  1
  Pr  Pr2  1  0.125000  0.125000  0.125000  1
  Tm  Tm3  1  0.625000  0.125000  0.125000  1
  Ir  Ir4  1  0.625000  0.625000  0.625000  1
  Ir  Ir5  1  0.125000  0.625000  0.625000  1
  Ir  Ir6  1  0.625000  0.125000  0.625000  1
  Ir  Ir7  1  0.625000  0.625000  0.125000  1
  O  O8  1  0.951380  0.542880  0.552969  1
  O  O9  1  0.295747  0.292626  0.705813  1
  O  O10  1  0.951380  0.542880  0.952772  1
  O  O11  1  0.696533  0.292739  0.294565  1
  O  O12  1  0.562370  0.529956  0.953838  1
  O  O13  1  0.553467  0.957261  0.533837  1
  O  O14  1  0.553467  0.957261  0.955435  1
  O  O15  1  0.271148  0.234046  0.247404  1
  O  O16  1  0.298620  0.707120  0.697031  1
  O  O17  1  0.696533  0.292739  0.716163  1
  O  O18  1  0.978852  0.015954  0.002596  1
  O  O19  1  0.954253  0.957374  0.544187  1
  O  O20  1  0.298620  0.707120  0.297228  1
  O  O21  1  0.687630  0.720044  0.296162  1
