# generated using pymatgen
data_Mg4GaSbPd10
_symmetry_space_group_name_H-M   'P 1'
_cell_length_a   4.17472800
_cell_length_b   5.57198787
_cell_length_c   10.93150196
_cell_angle_alpha   89.74492480
_cell_angle_beta   90.00000000
_cell_angle_gamma   90.00000000
_symmetry_Int_Tables_number   1
_chemical_formula_structural   Mg4GaSbPd10
_chemical_formula_sum   'Mg4 Ga1 Sb1 Pd10'
_cell_volume   254.28098204
_cell_formula_units_Z   1
loop_
 _symmetry_equiv_pos_site_id
 _symmetry_equiv_pos_as_xyz
  1  'x, y, z'
loop_
 _atom_site_type_symbol
 _atom_site_label
 _atom_site_symmetry_multiplicity
 _atom_site_fract_x
 _atom_site_fract_y
 _atom_site_fract_z
 _atom_site_occupancy
  Mg  Mg0  1  0.500000  0.170818  0.148175  1
  Mg  Mg1  1  0.500000  0.829182  0.851825  1
  Mg  Mg2  1  0.500000  0.326741  0.637757  1
  Mg  Mg3  1  0.500000  0.673259  0.362243  1
  Ga  Ga4  1  0.000000  0.000000  0.500000  1
  Sb  Sb5  1  0.000000  0.500000  0.000000  1
  Pd  Pd6  1  0.500000  0.184162  0.395502  1
  Pd  Pd7  1  0.500000  0.815838  0.604498  1
  Pd  Pd8  1  0.500000  0.302758  0.887690  1
  Pd  Pd9  1  0.500000  0.697242  0.112310  1
  Pd  Pd10  1  0.000000  0.425682  0.245348  1
  Pd  Pd11  1  0.000000  0.574318  0.754652  1
  Pd  Pd12  1  0.000000  0.074524  0.737026  1
  Pd  Pd13  1  0.000000  0.925476  0.262974  1
  Pd  Pd14  1  0.000000  0.000000  0.000000  1
  Pd  Pd15  1  0.000000  0.500000  0.500000  1
