# generated using pymatgen
data_Dy16Cd4Ir3Ru
_symmetry_space_group_name_H-M   'P 1'
_cell_length_a   9.64396718
_cell_length_b   9.64396746
_cell_length_c   9.64396709
_cell_angle_alpha   59.81378420
_cell_angle_beta   59.81377956
_cell_angle_gamma   59.81378634
_symmetry_Int_Tables_number   1
_chemical_formula_structural   Dy16Cd4Ir3Ru
_chemical_formula_sum   'Dy16 Cd4 Ir3 Ru1'
_cell_volume   631.55701801
_cell_formula_units_Z   1
loop_
 _symmetry_equiv_pos_site_id
 _symmetry_equiv_pos_as_xyz
  1  'x, y, z'
loop_
 _atom_site_type_symbol
 _atom_site_label
 _atom_site_symmetry_multiplicity
 _atom_site_fract_x
 _atom_site_fract_y
 _atom_site_fract_z
 _atom_site_occupancy
  Dy  Dy0  1  0.598369  0.598369  0.598369  1
  Dy  Dy1  1  0.598639  0.598639  0.205063  1
  Dy  Dy2  1  0.598639  0.205063  0.598639  1
  Dy  Dy3  1  0.205063  0.598639  0.598639  1
  Dy  Dy4  1  0.061349  0.438901  0.438901  1
  Dy  Dy5  1  0.438367  0.060244  0.060244  1
  Dy  Dy6  1  0.438901  0.061349  0.438901  1
  Dy  Dy7  1  0.060244  0.438367  0.060244  1
  Dy  Dy8  1  0.438901  0.438901  0.061349  1
  Dy  Dy9  1  0.060244  0.060244  0.438367  1
  Dy  Dy10  1  0.188847  0.811781  0.811781  1
  Dy  Dy11  1  0.810259  0.188485  0.188485  1
  Dy  Dy12  1  0.811781  0.188847  0.811781  1
  Dy  Dy13  1  0.188485  0.810259  0.188485  1
  Dy  Dy14  1  0.811781  0.811781  0.188847  1
  Dy  Dy15  1  0.188485  0.188485  0.810259  1
  Cd  Cd16  1  0.830392  0.830392  0.830392  1
  Cd  Cd17  1  0.830939  0.830939  0.506223  1
  Cd  Cd18  1  0.830939  0.506223  0.830939  1
  Cd  Cd19  1  0.506223  0.830939  0.830939  1
  Ir  Ir20  1  0.393088  0.393088  0.826172  1
  Ir  Ir21  1  0.393088  0.826172  0.393088  1
  Ir  Ir22  1  0.826172  0.393088  0.393088  1
  Ru  Ru23  1  0.390803  0.390803  0.390803  1
