# generated using pymatgen
data_YbPa3(SiPt)4
_symmetry_space_group_name_H-M   'P 1'
_cell_length_a   4.29733300
_cell_length_b   7.28173176
_cell_length_c   7.37654997
_cell_angle_alpha   90.13752119
_cell_angle_beta   90.00000000
_cell_angle_gamma   90.00000000
_symmetry_Int_Tables_number   1
_chemical_formula_structural   YbPa3(SiPt)4
_chemical_formula_sum   'Yb1 Pa3 Si4 Pt4'
_cell_volume   230.82652996
_cell_formula_units_Z   1
loop_
 _symmetry_equiv_pos_site_id
 _symmetry_equiv_pos_as_xyz
  1  'x, y, z'
loop_
 _atom_site_type_symbol
 _atom_site_label
 _atom_site_symmetry_multiplicity
 _atom_site_fract_x
 _atom_site_fract_y
 _atom_site_fract_z
 _atom_site_occupancy
  Yb  Yb0  1  0.750000  0.002301  0.212940  1
  Pa  Pa1  1  0.250000  0.491327  0.708420  1
  Pa  Pa2  1  0.250000  0.998169  0.799616  1
  Pa  Pa3  1  0.750000  0.506395  0.284875  1
  Si  Si4  1  0.250000  0.764047  0.414862  1
  Si  Si5  1  0.250000  0.298294  0.090596  1
  Si  Si6  1  0.750000  0.187496  0.583700  1
  Si  Si7  1  0.750000  0.697040  0.906935  1
  Pt  Pt8  1  0.250000  0.226285  0.422574  1
  Pt  Pt9  1  0.250000  0.725592  0.077628  1
  Pt  Pt10  1  0.750000  0.809627  0.585927  1
  Pt  Pt11  1  0.750000  0.293428  0.911926  1
