# generated using pymatgen
data_Tb16InHg3IrRh3
_symmetry_space_group_name_H-M   'P 1'
_cell_length_a   9.64107848
_cell_length_b   9.66056439
_cell_length_c   9.65004000
_cell_angle_alpha   60.03603113
_cell_angle_beta   59.96924716
_cell_angle_gamma   60.00123672
_symmetry_Int_Tables_number   1
_chemical_formula_structural   Tb16InHg3IrRh3
_chemical_formula_sum   'Tb16 In1 Hg3 Ir1 Rh3'
_cell_volume   635.56989967
_cell_formula_units_Z   1
loop_
 _symmetry_equiv_pos_site_id
 _symmetry_equiv_pos_as_xyz
  1  'x, y, z'
loop_
 _atom_site_type_symbol
 _atom_site_label
 _atom_site_symmetry_multiplicity
 _atom_site_fract_x
 _atom_site_fract_y
 _atom_site_fract_z
 _atom_site_occupancy
  Tb  Tb0  1  0.810864  0.808128  0.190504  1
  Tb  Tb1  1  0.811260  0.191170  0.807417  1
  Tb  Tb2  1  0.189641  0.190167  0.810096  1
  Tb  Tb3  1  0.648572  0.052988  0.649221  1
  Tb  Tb4  1  0.065059  0.060512  0.437215  1
  Tb  Tb5  1  0.440026  0.436488  0.061743  1
  Tb  Tb6  1  0.649684  0.648887  0.650441  1
  Tb  Tb7  1  0.811260  0.191170  0.190153  1
  Tb  Tb8  1  0.189843  0.810881  0.809713  1
  Tb  Tb9  1  0.053611  0.647376  0.649506  1
  Tb  Tb10  1  0.438565  0.061848  0.062965  1
  Tb  Tb11  1  0.438565  0.061848  0.436621  1
  Tb  Tb12  1  0.064129  0.436595  0.061325  1
  Tb  Tb13  1  0.649684  0.648887  0.050989  1
  Tb  Tb14  1  0.189843  0.810881  0.189562  1
  Tb  Tb15  1  0.064129  0.436595  0.437952  1
  In  In16  1  0.742417  0.419816  0.418883  1
  Hg  Hg17  1  0.414726  0.414827  0.414754  1
  Hg  Hg18  1  0.414726  0.414827  0.755691  1
  Hg  Hg19  1  0.414566  0.756991  0.414220  1
  Ir  Ir20  1  0.857065  0.426420  0.858258  1
  Rh  Rh21  1  0.857257  0.857639  0.857977  1
  Rh  Rh22  1  0.857257  0.857639  0.427130  1
  Rh  Rh23  1  0.427251  0.857421  0.857665  1
