# generated using pymatgen
data_Zr3V3ReTc2
_symmetry_space_group_name_H-M   'P 1'
_cell_length_a   5.23980761
_cell_length_b   5.26582103
_cell_length_c   12.86956702
_cell_angle_alpha   90.06657654
_cell_angle_beta   89.44554376
_cell_angle_gamma   120.04484970
_symmetry_Int_Tables_number   1
_chemical_formula_structural   Zr3V3ReTc2
_chemical_formula_sum   'Zr6 V6 Re2 Tc4'
_cell_volume   307.36561796
_cell_formula_units_Z   2
loop_
 _symmetry_equiv_pos_site_id
 _symmetry_equiv_pos_as_xyz
  1  'x, y, z'
loop_
 _atom_site_type_symbol
 _atom_site_label
 _atom_site_symmetry_multiplicity
 _atom_site_fract_x
 _atom_site_fract_y
 _atom_site_fract_z
 _atom_site_occupancy
  Zr  Zr0  1  0.334653  0.664853  0.916194  1
  Zr  Zr1  1  0.002151  0.003245  0.249607  1
  Zr  Zr2  1  0.668184  0.334570  0.582922  1
  Zr  Zr3  1  0.331816  0.665430  0.667078  1
  Zr  Zr4  1  0.997849  0.996755  0.000392  1
  Zr  Zr5  1  0.665347  0.335147  0.333806  1
  V  V6  1  0.333720  0.668827  0.291163  1
  V  V7  1  0.000000  0.000000  0.625000  1
  V  V8  1  0.666280  0.331173  0.958837  1
  V  V9  1  0.000000  0.500000  0.125000  1
  V  V10  1  0.666756  0.834769  0.458255  1
  V  V11  1  0.333244  0.165231  0.791745  1
  Re  Re12  1  0.166643  0.334684  0.458204  1
  Re  Re13  1  0.833357  0.665316  0.791796  1
  Tc  Tc14  1  0.500000  0.500000  0.125000  1
  Tc  Tc15  1  0.166478  0.834747  0.458231  1
  Tc  Tc16  1  0.833522  0.165253  0.791769  1
  Tc  Tc17  1  0.500000  0.000000  0.125000  1
