# generated using pymatgen
data_TbY3Mn4F28
_symmetry_space_group_name_H-M   'P 1'
_cell_length_a   5.43660408
_cell_length_b   8.74650623
_cell_length_c   11.74989952
_cell_angle_alpha   62.33156254
_cell_angle_beta   90.01967990
_cell_angle_gamma   90.00522513
_symmetry_Int_Tables_number   1
_chemical_formula_structural   TbY3Mn4F28
_chemical_formula_sum   'Tb1 Y3 Mn4 F28'
_cell_volume   494.83265656
_cell_formula_units_Z   1
loop_
 _symmetry_equiv_pos_site_id
 _symmetry_equiv_pos_as_xyz
  1  'x, y, z'
loop_
 _atom_site_type_symbol
 _atom_site_label
 _atom_site_symmetry_multiplicity
 _atom_site_fract_x
 _atom_site_fract_y
 _atom_site_fract_z
 _atom_site_occupancy
  Tb  Tb0  1  0.238695  0.810817  0.764026  1
  Y  Y1  1  0.261545  0.811019  0.263918  1
  Y  Y2  1  0.738471  0.189369  0.736047  1
  Y  Y3  1  0.761580  0.189063  0.236086  1
  Mn  Mn4  1  0.758665  0.725604  0.043280  1
  Mn  Mn5  1  0.241275  0.273976  0.957110  1
  Mn  Mn6  1  0.258859  0.274537  0.456924  1
  Mn  Mn7  1  0.741293  0.725559  0.542692  1
  F  F8  1  0.930266  0.706926  0.420468  1
  F  F9  1  0.070030  0.293110  0.579230  1
  F  F10  1  0.430166  0.292973  0.079327  1
  F  F11  1  0.569759  0.707145  0.920719  1
  F  F12  1  0.478838  0.728019  0.131081  1
  F  F13  1  0.521068  0.271940  0.869048  1
  F  F14  1  0.978999  0.271975  0.368971  1
  F  F15  1  0.020885  0.728105  0.630797  1
  F  F16  1  0.946064  0.740327  0.169884  1
  F  F17  1  0.053927  0.259577  0.830237  1
  F  F18  1  0.446097  0.259657  0.330243  1
  F  F19  1  0.554476  0.740277  0.669465  1
  F  F20  1  0.770029  0.487835  0.137203  1
  F  F21  1  0.229938  0.511608  0.863071  1
  F  F22  1  0.270094  0.512150  0.362833  1
  F  F23  1  0.729950  0.487871  0.637057  1
  F  F24  1  0.954844  0.281731  0.039671  1
  F  F25  1  0.044934  0.718203  0.960471  1
  F  F26  1  0.454498  0.718162  0.460240  1
  F  F27  1  0.545319  0.281904  0.539601  1
  F  F28  1  0.739290  0.961854  0.453305  1
  F  F29  1  0.260670  0.038117  0.546841  1
  F  F30  1  0.239283  0.037792  0.046726  1
  F  F31  1  0.760734  0.961775  0.953506  1
  F  F32  1  0.596389  0.967816  0.227828  1
  F  F33  1  0.403802  0.032865  0.772189  1
  F  F34  1  0.096345  0.032241  0.272191  1
  F  F35  1  0.902925  0.968101  0.727711  1
