# generated using pymatgen
data_Er10In8RuRh3
_symmetry_space_group_name_H-M   'P 1'
_cell_length_a   3.58417200
_cell_length_b   7.98049692
_cell_length_c   18.22315107
_cell_angle_alpha   90.06191997
_cell_angle_beta   90.00000000
_cell_angle_gamma   90.00000000
_symmetry_Int_Tables_number   1
_chemical_formula_structural   Er10In8RuRh3
_chemical_formula_sum   'Er10 In8 Ru1 Rh3'
_cell_volume   521.24511631
_cell_formula_units_Z   1
loop_
 _symmetry_equiv_pos_site_id
 _symmetry_equiv_pos_as_xyz
  1  'x, y, z'
loop_
 _atom_site_type_symbol
 _atom_site_label
 _atom_site_symmetry_multiplicity
 _atom_site_fract_x
 _atom_site_fract_y
 _atom_site_fract_z
 _atom_site_occupancy
  Er  Er0  1  0.000000  0.116144  0.412219  1
  Er  Er1  1  0.000000  0.883669  0.587427  1
  Er  Er2  1  0.000000  0.383831  0.912578  1
  Er  Er3  1  0.000000  0.616235  0.088501  1
  Er  Er4  1  0.000000  0.248305  0.219813  1
  Er  Er5  1  0.000000  0.754951  0.779354  1
  Er  Er6  1  0.000000  0.255063  0.720505  1
  Er  Er7  1  0.000000  0.741504  0.278742  1
  Er  Er8  1  0.000000  0.999960  0.999766  1
  Er  Er9  1  0.000000  0.500011  0.500302  1
  In  In10  1  0.500000  0.428155  0.350045  1
  In  In11  1  0.500000  0.572678  0.649658  1
  In  In12  1  0.500000  0.072425  0.850484  1
  In  In13  1  0.500000  0.927218  0.149677  1
  In  In14  1  0.500000  0.292442  0.067794  1
  In  In15  1  0.500000  0.708701  0.932242  1
  In  In16  1  0.500000  0.208309  0.567450  1
  In  In17  1  0.500000  0.791786  0.432731  1
  Ru  Ru18  1  0.500000  0.522643  0.196419  1
  Rh  Rh19  1  0.500000  0.024026  0.304375  1
  Rh  Rh20  1  0.500000  0.976133  0.695887  1
  Rh  Rh21  1  0.500000  0.475814  0.804030  1
