# generated using pymatgen
data_Yb6Dy3ErGe8
_symmetry_space_group_name_H-M   'P 1'
_cell_length_a   7.42334100
_cell_length_b   7.88683602
_cell_length_c   15.18872904
_cell_angle_alpha   90.00847885
_cell_angle_beta   90.00000377
_cell_angle_gamma   90.00010488
_symmetry_Int_Tables_number   1
_chemical_formula_structural   Yb6Dy3ErGe8
_chemical_formula_sum   'Yb12 Dy6 Er2 Ge16'
_cell_volume   889.24954577
_cell_formula_units_Z   2
loop_
 _symmetry_equiv_pos_site_id
 _symmetry_equiv_pos_as_xyz
  1  'x, y, z'
loop_
 _atom_site_type_symbol
 _atom_site_label
 _atom_site_symmetry_multiplicity
 _atom_site_fract_x
 _atom_site_fract_y
 _atom_site_fract_z
 _atom_site_occupancy
  Yb  Yb0  1  0.980439  0.813597  0.405309  1
  Yb  Yb1  1  0.480439  0.686403  0.094691  1
  Yb  Yb2  1  0.519543  0.313695  0.594797  1
  Yb  Yb3  1  0.019543  0.186305  0.905203  1
  Yb  Yb4  1  0.019712  0.186392  0.594786  1
  Yb  Yb5  1  0.519711  0.313608  0.905214  1
  Yb  Yb6  1  0.480266  0.686355  0.405282  1
  Yb  Yb7  1  0.980266  0.813645  0.094718  1
  Yb  Yb8  1  0.344561  0.019683  0.749981  1
  Yb  Yb9  1  0.844562  0.480318  0.750019  1
  Yb  Yb10  1  0.155503  0.519893  0.250022  1
  Yb  Yb11  1  0.655504  0.980108  0.249978  1
  Dy  Dy12  1  0.318303  0.172069  0.121186  1
  Dy  Dy13  1  0.818303  0.327931  0.378814  1
  Dy  Dy14  1  0.181718  0.672294  0.878628  1
  Dy  Dy15  1  0.681718  0.827706  0.621372  1
  Dy  Dy16  1  0.318232  0.172086  0.378793  1
  Dy  Dy17  1  0.818232  0.327914  0.121207  1
  Er  Er18  1  0.181802  0.671960  0.621322  1
  Er  Er19  1  0.681802  0.828039  0.878679  1
  Ge  Ge20  1  0.846059  0.533735  0.540379  1
  Ge  Ge21  1  0.346060  0.966266  0.959621  1
  Ge  Ge22  1  0.654403  0.033470  0.459790  1
  Ge  Ge23  1  0.154405  0.466530  0.040210  1
  Ge  Ge24  1  0.154638  0.466768  0.460042  1
  Ge  Ge25  1  0.654638  0.033232  0.039958  1
  Ge  Ge26  1  0.344994  0.966094  0.540391  1
  Ge  Ge27  1  0.844994  0.533905  0.959609  1
  Ge  Ge28  1  0.976871  0.878612  0.750109  1
  Ge  Ge29  1  0.476871  0.621389  0.749891  1
  Ge  Ge30  1  0.523109  0.379122  0.249994  1
  Ge  Ge31  1  0.023110  0.120877  0.250006  1
  Ge  Ge32  1  0.236014  0.385735  0.749826  1
  Ge  Ge33  1  0.736016  0.114265  0.750173  1
  Ge  Ge34  1  0.263829  0.885421  0.250001  1
  Ge  Ge35  1  0.763828  0.614579  0.249999  1
