# generated using pymatgen
data_Sc7Pa(ReB6)4
_symmetry_space_group_name_H-M   'P 1'
_cell_length_a   3.55872300
_cell_length_b   8.93061711
_cell_length_c   11.25491939
_cell_angle_alpha   90.12232647
_cell_angle_beta   90.00000000
_cell_angle_gamma   90.00000000
_symmetry_Int_Tables_number   1
_chemical_formula_structural   Sc7Pa(ReB6)4
_chemical_formula_sum   'Sc7 Pa1 Re4 B24'
_cell_volume   357.69844645
_cell_formula_units_Z   1
loop_
 _symmetry_equiv_pos_site_id
 _symmetry_equiv_pos_as_xyz
  1  'x, y, z'
loop_
 _atom_site_type_symbol
 _atom_site_label
 _atom_site_symmetry_multiplicity
 _atom_site_fract_x
 _atom_site_fract_y
 _atom_site_fract_z
 _atom_site_occupancy
  Sc  Sc0  1  0.000000  0.682057  0.588924  1
  Sc  Sc1  1  0.000000  0.820896  0.084826  1
  Sc  Sc2  1  0.000000  0.176762  0.913349  1
  Sc  Sc3  1  0.000000  0.943111  0.371785  1
  Sc  Sc4  1  0.000000  0.053421  0.629806  1
  Sc  Sc5  1  0.000000  0.445059  0.126075  1
  Sc  Sc6  1  0.000000  0.556487  0.872034  1
  Pa  Pa7  1  0.000000  0.321796  0.414281  1
  Re  Re8  1  0.000000  0.639765  0.319956  1
  Re  Re9  1  0.000000  0.360967  0.680194  1
  Re  Re10  1  0.000000  0.140400  0.179564  1
  Re  Re11  1  0.000000  0.860502  0.820152  1
  B  B12  1  0.500000  0.555028  0.433523  1
  B  B13  1  0.500000  0.446342  0.568077  1
  B  B14  1  0.500000  0.053174  0.064555  1
  B  B15  1  0.500000  0.946573  0.934865  1
  B  B16  1  0.500000  0.753654  0.420429  1
  B  B17  1  0.500000  0.246091  0.582515  1
  B  B18  1  0.500000  0.252421  0.076908  1
  B  B19  1  0.500000  0.746997  0.921241  1
  B  B20  1  0.500000  0.795470  0.263942  1
  B  B21  1  0.500000  0.204812  0.737792  1
  B  B22  1  0.500000  0.294025  0.232986  1
  B  B23  1  0.500000  0.705048  0.764740  1
  B  B24  1  0.500000  0.631469  0.181123  1
  B  B25  1  0.500000  0.370619  0.818270  1
  B  B26  1  0.500000  0.128714  0.315739  1
  B  B27  1  0.500000  0.869496  0.683183  1
  B  B28  1  0.500000  0.979270  0.211204  1
  B  B29  1  0.500000  0.019914  0.788206  1
  B  B30  1  0.500000  0.482454  0.285002  1
  B  B31  1  0.500000  0.520582  0.714557  1
  B  B32  1  0.500000  0.599344  0.026467  1
  B  B33  1  0.500000  0.401427  0.972175  1
  B  B34  1  0.500000  0.096396  0.473528  1
  B  B35  1  0.500000  0.899457  0.528029  1
