# generated using pymatgen
data_Zr6Zn17PPd6
_symmetry_space_group_name_H-M   'P 1'
_cell_length_a   8.76593588
_cell_length_b   8.82907306
_cell_length_c   8.82907272
_cell_angle_alpha   59.72379670
_cell_angle_beta   60.23626938
_cell_angle_gamma   60.23626885
_symmetry_Int_Tables_number   1
_chemical_formula_structural   Zr6Zn17PPd6
_chemical_formula_sum   'Zr6 Zn17 P1 Pd6'
_cell_volume   483.87604351
_cell_formula_units_Z   1
loop_
 _symmetry_equiv_pos_site_id
 _symmetry_equiv_pos_as_xyz
  1  'x, y, z'
loop_
 _atom_site_type_symbol
 _atom_site_label
 _atom_site_symmetry_multiplicity
 _atom_site_fract_x
 _atom_site_fract_y
 _atom_site_fract_z
 _atom_site_occupancy
  Zr  Zr0  1  0.704849  0.295151  0.295151  1
  Zr  Zr1  1  0.295151  0.704849  0.704849  1
  Zr  Zr2  1  0.291411  0.708343  0.291657  1
  Zr  Zr3  1  0.708589  0.291657  0.708343  1
  Zr  Zr4  1  0.291411  0.291657  0.708343  1
  Zr  Zr5  1  0.708589  0.708343  0.291657  1
  Zn  Zn6  1  0.120461  0.122623  0.122623  1
  Zn  Zn7  1  0.879539  0.877377  0.877377  1
  Zn  Zn8  1  0.124160  0.117119  0.634562  1
  Zn  Zn9  1  0.124160  0.634562  0.117119  1
  Zn  Zn10  1  0.875840  0.882881  0.365438  1
  Zn  Zn11  1  0.875840  0.365438  0.882881  1
  Zn  Zn12  1  0.634294  0.122623  0.122623  1
  Zn  Zn13  1  0.365706  0.877377  0.877377  1
  Zn  Zn14  1  0.000000  0.500000  0.500000  1
  Zn  Zn15  1  0.333847  0.338111  0.338111  1
  Zn  Zn16  1  0.666153  0.661889  0.661889  1
  Zn  Zn17  1  0.337470  0.335789  0.989273  1
  Zn  Zn18  1  0.337470  0.989273  0.335789  1
  Zn  Zn19  1  0.662530  0.664211  0.010727  1
  Zn  Zn20  1  0.662530  0.010727  0.664211  1
  Zn  Zn21  1  0.989931  0.338111  0.338111  1
  Zn  Zn22  1  0.010069  0.661889  0.661889  1
  P  P23  1  0.500000  0.500000  0.500000  1
  Pd  Pd24  1  0.500000  0.000000  0.000000  1
  Pd  Pd25  1  0.000000  0.500000  0.000000  1
  Pd  Pd26  1  0.500000  0.000000  0.500000  1
  Pd  Pd27  1  0.000000  0.000000  0.500000  1
  Pd  Pd28  1  0.500000  0.500000  0.000000  1
  Pd  Pd29  1  0.000000  0.000000  0.000000  1
