# generated using pymatgen
data_Al(FeI4)3
_symmetry_space_group_name_H-M   'P 1'
_cell_length_a   6.62640448
_cell_length_b   10.17594095
_cell_length_c   12.74858029
_cell_angle_alpha   71.63320179
_cell_angle_beta   90.71318383
_cell_angle_gamma   90.17123134
_symmetry_Int_Tables_number   1
_chemical_formula_structural   Al(FeI4)3
_chemical_formula_sum   'Al1 Fe3 I12'
_cell_volume   815.78101231
_cell_formula_units_Z   1
loop_
 _symmetry_equiv_pos_site_id
 _symmetry_equiv_pos_as_xyz
  1  'x, y, z'
loop_
 _atom_site_type_symbol
 _atom_site_label
 _atom_site_symmetry_multiplicity
 _atom_site_fract_x
 _atom_site_fract_y
 _atom_site_fract_z
 _atom_site_occupancy
  Al  Al0  1  0.497194  0.183029  0.454776  1
  Fe  Fe1  1  0.002734  0.181043  0.955266  1
  Fe  Fe2  1  0.502718  0.818837  0.544884  1
  Fe  Fe3  1  0.997398  0.819887  0.044508  1
  I  I4  1  0.781884  0.322252  0.802188  1
  I  I5  1  0.283527  0.677832  0.696062  1
  I  I6  1  0.218009  0.678118  0.197388  1
  I  I7  1  0.719567  0.318736  0.301251  1
  I  I8  1  0.228377  0.316994  0.039658  1
  I  I9  1  0.726372  0.683386  0.461676  1
  I  I10  1  0.771951  0.683715  0.959993  1
  I  I11  1  0.270014  0.312853  0.543157  1
  I  I12  1  0.784035  0.001287  0.111214  1
  I  I13  1  0.283334  0.000611  0.388436  1
  I  I14  1  0.216089  0.999440  0.888620  1
  I  I15  1  0.716799  0.001982  0.610923  1
