# generated using pymatgen
data_Cs2Al2SiGeSe8
_symmetry_space_group_name_H-M   'P 1'
_cell_length_a   17.16078100
_cell_length_b   7.36178363
_cell_length_c   8.30868516
_cell_angle_alpha   70.66960151
_cell_angle_beta   90.00000000
_cell_angle_gamma   90.00000000
_symmetry_Int_Tables_number   1
_chemical_formula_structural   Cs2Al2SiGeSe8
_chemical_formula_sum   'Cs4 Al4 Si2 Ge2 Se16'
_cell_volume   990.49446361
_cell_formula_units_Z   2
loop_
 _symmetry_equiv_pos_site_id
 _symmetry_equiv_pos_as_xyz
  1  'x, y, z'
loop_
 _atom_site_type_symbol
 _atom_site_label
 _atom_site_symmetry_multiplicity
 _atom_site_fract_x
 _atom_site_fract_y
 _atom_site_fract_z
 _atom_site_occupancy
  Cs  Cs0  1  0.395458  0.952296  0.179953  1
  Cs  Cs1  1  0.895458  0.047704  0.820047  1
  Cs  Cs2  1  0.603152  0.523623  0.825911  1
  Cs  Cs3  1  0.103152  0.476377  0.174089  1
  Al  Al4  1  0.581900  0.172649  0.475898  1
  Al  Al5  1  0.081900  0.827351  0.524102  1
  Al  Al6  1  0.272213  0.585904  0.700193  1
  Al  Al7  1  0.772213  0.414096  0.299807  1
  Si  Si8  1  0.421118  0.321937  0.536463  1
  Si  Si9  1  0.921118  0.678063  0.463537  1
  Ge  Ge10  1  0.726736  0.915825  0.282011  1
  Ge  Ge11  1  0.226736  0.084175  0.717989  1
  Se  Se12  1  0.596077  0.893891  0.384994  1
  Se  Se13  1  0.096077  0.106109  0.615006  1
  Se  Se14  1  0.408451  0.587126  0.621506  1
  Se  Se15  1  0.908451  0.412874  0.378494  1
  Se  Se16  1  0.804473  0.786947  0.538478  1
  Se  Se17  1  0.304473  0.213053  0.461522  1
  Se  Se18  1  0.200165  0.715471  0.444636  1
  Se  Se19  1  0.700165  0.284529  0.555364  1
  Se  Se20  1  0.767354  0.228753  0.105819  1
  Se  Se21  1  0.267354  0.771247  0.894181  1
  Se  Se22  1  0.235669  0.274074  0.900202  1
  Se  Se23  1  0.735669  0.725926  0.099798  1
  Se  Se24  1  0.996484  0.910071  0.274590  1
  Se  Se25  1  0.496484  0.089929  0.725410  1
  Se  Se26  1  0.990747  0.599680  0.713552  1
  Se  Se27  1  0.490747  0.400320  0.286448  1
