# generated using pymatgen
data_Mo2Os5Rh
_symmetry_space_group_name_H-M   'P 1'
_cell_length_a   5.54672700
_cell_length_b   5.55029733
_cell_length_c   4.39004800
_cell_angle_alpha   90.00000000
_cell_angle_beta   90.00000000
_cell_angle_gamma   119.97871717
_symmetry_Int_Tables_number   1
_chemical_formula_structural   Mo2Os5Rh
_chemical_formula_sum   'Mo2 Os5 Rh1'
_cell_volume   117.07011353
_cell_formula_units_Z   1
loop_
 _symmetry_equiv_pos_site_id
 _symmetry_equiv_pos_as_xyz
  1  'x, y, z'
loop_
 _atom_site_type_symbol
 _atom_site_label
 _atom_site_symmetry_multiplicity
 _atom_site_fract_x
 _atom_site_fract_y
 _atom_site_fract_z
 _atom_site_occupancy
  Mo  Mo0  1  0.334668  0.669337  0.250000  1
  Mo  Mo1  1  0.663257  0.326512  0.750000  1
  Os  Os2  1  0.832889  0.665778  0.250000  1
  Os  Os3  1  0.173563  0.839797  0.750000  1
  Os  Os4  1  0.666234  0.839797  0.750000  1
  Os  Os5  1  0.332421  0.164033  0.250000  1
  Os  Os6  1  0.831611  0.164033  0.250000  1
  Rh  Rh7  1  0.165357  0.330713  0.750000  1
