# generated using pymatgen
data_Y2Er3Tm5(In2Pt)4
_symmetry_space_group_name_H-M   'P 1'
_cell_length_a   3.63072200
_cell_length_b   8.07741538
_cell_length_c   18.11989483
_cell_angle_alpha   89.96508211
_cell_angle_beta   90.00000000
_cell_angle_gamma   90.00000000
_symmetry_Int_Tables_number   1
_chemical_formula_structural   Y2Er3Tm5(In2Pt)4
_chemical_formula_sum   'Y2 Er3 Tm5 In8 Pt4'
_cell_volume   531.39933400
_cell_formula_units_Z   1
loop_
 _symmetry_equiv_pos_site_id
 _symmetry_equiv_pos_as_xyz
  1  'x, y, z'
loop_
 _atom_site_type_symbol
 _atom_site_label
 _atom_site_symmetry_multiplicity
 _atom_site_fract_x
 _atom_site_fract_y
 _atom_site_fract_z
 _atom_site_occupancy
  Y  Y0  1  0.000000  0.999890  0.000066  1
  Y  Y1  1  0.000000  0.499950  0.499940  1
  Er  Er2  1  0.000000  0.756458  0.779186  1
  Er  Er3  1  0.000000  0.256453  0.720949  1
  Er  Er4  1  0.000000  0.743576  0.279020  1
  Tm  Tm5  1  0.000000  0.116429  0.413923  1
  Tm  Tm6  1  0.000000  0.883627  0.585906  1
  Tm  Tm7  1  0.000000  0.383695  0.914111  1
  Tm  Tm8  1  0.000000  0.616090  0.086115  1
  Tm  Tm9  1  0.000000  0.243742  0.221049  1
  In  In10  1  0.500000  0.422931  0.350945  1
  In  In11  1  0.500000  0.577033  0.648917  1
  In  In12  1  0.500000  0.076754  0.851180  1
  In  In13  1  0.500000  0.923495  0.148898  1
  In  In14  1  0.500000  0.293855  0.066646  1
  In  In15  1  0.500000  0.706024  0.933688  1
  In  In16  1  0.500000  0.205948  0.566384  1
  In  In17  1  0.500000  0.794132  0.433410  1
  Pt  Pt18  1  0.500000  0.026307  0.304082  1
  Pt  Pt19  1  0.500000  0.974560  0.695671  1
  Pt  Pt20  1  0.500000  0.474605  0.804367  1
  Pt  Pt21  1  0.500000  0.524447  0.195545  1
