# generated using pymatgen
data_TbHoCo4(SiC)2
_symmetry_space_group_name_H-M   'P 1'
_cell_length_a   5.56313508
_cell_length_b   5.56313573
_cell_length_c   6.71982200
_cell_angle_alpha   90.00000000
_cell_angle_beta   90.00000000
_cell_angle_gamma   140.91243597
_symmetry_Int_Tables_number   1
_chemical_formula_structural   TbHoCo4(SiC)2
_chemical_formula_sum   'Tb1 Ho1 Co4 Si2 C2'
_cell_volume   131.12550864
_cell_formula_units_Z   1
loop_
 _symmetry_equiv_pos_site_id
 _symmetry_equiv_pos_as_xyz
  1  'x, y, z'
loop_
 _atom_site_type_symbol
 _atom_site_label
 _atom_site_symmetry_multiplicity
 _atom_site_fract_x
 _atom_site_fract_y
 _atom_site_fract_z
 _atom_site_occupancy
  Tb  Tb0  1  0.448509  0.551491  0.750000  1
  Ho  Ho1  1  0.551494  0.448506  0.250000  1
  Co  Co2  1  0.836047  0.163953  0.056968  1
  Co  Co3  1  0.163850  0.836150  0.944365  1
  Co  Co4  1  0.163850  0.836150  0.555635  1
  Co  Co5  1  0.836047  0.163953  0.443032  1
  Si  Si6  1  0.272021  0.727979  0.250000  1
  Si  Si7  1  0.727733  0.272267  0.750000  1
  C  C8  1  0.000225  0.999775  0.002140  1
  C  C9  1  0.000225  0.999775  0.497860  1
