# generated using pymatgen
data_NaDy(ReH9)2
_symmetry_space_group_name_H-M   'P 1'
_cell_length_a   5.18124020
_cell_length_b   5.18104281
_cell_length_c   8.48408933
_cell_angle_alpha   92.08823685
_cell_angle_beta   87.89770316
_cell_angle_gamma   125.05112585
_symmetry_Int_Tables_number   1
_chemical_formula_structural   NaDy(ReH9)2
_chemical_formula_sum   'Na1 Dy1 Re2 H18'
_cell_volume   186.28589429
_cell_formula_units_Z   1
loop_
 _symmetry_equiv_pos_site_id
 _symmetry_equiv_pos_as_xyz
  1  'x, y, z'
loop_
 _atom_site_type_symbol
 _atom_site_label
 _atom_site_symmetry_multiplicity
 _atom_site_fract_x
 _atom_site_fract_y
 _atom_site_fract_z
 _atom_site_occupancy
  Na  Na0  1  0.000000  0.000000  0.000000  1
  Dy  Dy1  1  0.000000  0.000000  0.500000  1
  Re  Re2  1  0.339107  0.660420  0.725624  1
  Re  Re3  1  0.660893  0.339580  0.274376  1
  H  H4  1  0.388322  0.611212  0.528047  1
  H  H5  1  0.611678  0.388788  0.471953  1
  H  H6  1  0.421438  0.578131  0.897311  1
  H  H7  1  0.578562  0.421869  0.102689  1
  H  H8  1  0.474510  0.956042  0.860603  1
  H  H9  1  0.956556  0.475021  0.139364  1
  H  H10  1  0.595246  0.020333  0.650098  1
  H  H11  1  0.020775  0.595701  0.349840  1
  H  H12  1  0.525490  0.043958  0.139397  1
  H  H13  1  0.043444  0.524979  0.860636  1
  H  H14  1  0.404754  0.979667  0.349902  1
  H  H15  1  0.979225  0.404299  0.650160  1
  H  H16  1  0.706360  0.728726  0.721831  1
  H  H17  1  0.729152  0.706824  0.278111  1
  H  H18  1  0.293640  0.271274  0.278169  1
  H  H19  1  0.270848  0.293176  0.721889  1
  H  H20  1  0.155651  0.843887  0.701711  1
  H  H21  1  0.844349  0.156113  0.298289  1
