# generated using pymatgen
data_Tb8Ho12Si15Au
_symmetry_space_group_name_H-M   'P 1'
_cell_length_a   7.39867245
_cell_length_b   7.69620831
_cell_length_c   14.62317283
_cell_angle_alpha   89.83898733
_cell_angle_beta   89.50258149
_cell_angle_gamma   90.16528190
_symmetry_Int_Tables_number   1
_chemical_formula_structural   Tb8Ho12Si15Au
_chemical_formula_sum   'Tb8 Ho12 Si15 Au1'
_cell_volume   832.63048733
_cell_formula_units_Z   1
loop_
 _symmetry_equiv_pos_site_id
 _symmetry_equiv_pos_as_xyz
  1  'x, y, z'
loop_
 _atom_site_type_symbol
 _atom_site_label
 _atom_site_symmetry_multiplicity
 _atom_site_fract_x
 _atom_site_fract_y
 _atom_site_fract_z
 _atom_site_occupancy
  Tb  Tb0  1  0.018856  0.180579  0.098999  1
  Tb  Tb1  1  0.981504  0.820269  0.903103  1
  Tb  Tb2  1  0.481492  0.680784  0.903182  1
  Tb  Tb3  1  0.983488  0.825431  0.598692  1
  Tb  Tb4  1  0.517184  0.318846  0.097505  1
  Tb  Tb5  1  0.014370  0.176912  0.398681  1
  Tb  Tb6  1  0.514922  0.318695  0.399485  1
  Tb  Tb7  1  0.486790  0.681478  0.599747  1
  Ho  Ho8  1  0.163806  0.510315  0.749848  1
  Ho  Ho9  1  0.837974  0.490686  0.251233  1
  Ho  Ho10  1  0.337845  0.007439  0.249735  1
  Ho  Ho11  1  0.664342  0.988558  0.750293  1
  Ho  Ho12  1  0.334913  0.176885  0.622701  1
  Ho  Ho13  1  0.667291  0.822618  0.375948  1
  Ho  Ho14  1  0.170585  0.672835  0.375905  1
  Ho  Ho15  1  0.672557  0.822358  0.123407  1
  Ho  Ho16  1  0.829036  0.325325  0.622356  1
  Ho  Ho17  1  0.327508  0.178361  0.877858  1
  Ho  Ho18  1  0.827514  0.320315  0.878351  1
  Ho  Ho19  1  0.171571  0.678516  0.123191  1
  Si  Si20  1  0.036707  0.109836  0.751232  1
  Si  Si21  1  0.965660  0.892761  0.249667  1
  Si  Si22  1  0.465742  0.605487  0.248190  1
  Si  Si23  1  0.536950  0.394369  0.752139  1
  Si  Si24  1  0.278365  0.875781  0.751147  1
  Si  Si25  1  0.719804  0.127693  0.248531  1
  Si  Si26  1  0.221455  0.369907  0.247862  1
  Si  Si27  1  0.779597  0.625943  0.753347  1
  Si  Si28  1  0.834466  0.532149  0.458711  1
  Si  Si29  1  0.339495  0.967574  0.459783  1
  Si  Si30  1  0.844944  0.532398  0.038684  1
  Si  Si31  1  0.658897  0.033202  0.537585  1
  Si  Si32  1  0.153462  0.467701  0.962499  1
  Si  Si33  1  0.654232  0.030347  0.961256  1
  Si  Si34  1  0.345532  0.968374  0.039475  1
  Au  Au35  1  0.161144  0.469275  0.539669  1
