# generated using pymatgen
data_CaYbYGa8Ag3
_symmetry_space_group_name_H-M   'P 1'
_cell_length_a   4.37684651
_cell_length_b   8.39686314
_cell_length_c   8.39686328
_cell_angle_alpha   70.81564422
_cell_angle_beta   74.89292717
_cell_angle_gamma   74.89292345
_symmetry_Int_Tables_number   1
_chemical_formula_structural   CaYbYGa8Ag3
_chemical_formula_sum   'Ca1 Yb1 Y1 Ga8 Ag3'
_cell_volume   276.15932597
_cell_formula_units_Z   1
loop_
 _symmetry_equiv_pos_site_id
 _symmetry_equiv_pos_as_xyz
  1  'x, y, z'
loop_
 _atom_site_type_symbol
 _atom_site_label
 _atom_site_symmetry_multiplicity
 _atom_site_fract_x
 _atom_site_fract_y
 _atom_site_fract_z
 _atom_site_occupancy
  Ca  Ca0  1  0.999950  0.000050  0.000050  1
  Yb  Yb1  1  0.300681  0.699319  0.699319  1
  Y  Y2  1  0.702201  0.297799  0.297799  1
  Ga  Ga3  1  0.339525  0.292167  0.028781  1
  Ga  Ga4  1  0.662096  0.704587  0.971221  1
  Ga  Ga5  1  0.339525  0.028781  0.292167  1
  Ga  Ga6  1  0.662096  0.971221  0.704587  1
  Ga  Ga7  1  0.142424  0.576657  0.138496  1
  Ga  Ga8  1  0.855521  0.426024  0.862932  1
  Ga  Ga9  1  0.142424  0.138496  0.576657  1
  Ga  Ga10  1  0.855521  0.862932  0.426024  1
  Ag  Ag11  1  0.499200  0.307240  0.694359  1
  Ag  Ag12  1  0.499200  0.694359  0.307240  1
  Ag  Ag13  1  0.999633  0.500367  0.500367  1
