# generated using pymatgen
data_Nd6Ga4Pd5Pt8
_symmetry_space_group_name_H-M   'P 1'
_cell_length_a   8.40904936
_cell_length_b   8.41505636
_cell_length_c   8.41240717
_cell_angle_alpha   109.41394740
_cell_angle_beta   109.43253840
_cell_angle_gamma   109.63791457
_symmetry_Int_Tables_number   1
_chemical_formula_structural   Nd6Ga4Pd5Pt8
_chemical_formula_sum   'Nd6 Ga4 Pd5 Pt8'
_cell_volume   457.84773430
_cell_formula_units_Z   1
loop_
 _symmetry_equiv_pos_site_id
 _symmetry_equiv_pos_as_xyz
  1  'x, y, z'
loop_
 _atom_site_type_symbol
 _atom_site_label
 _atom_site_symmetry_multiplicity
 _atom_site_fract_x
 _atom_site_fract_y
 _atom_site_fract_z
 _atom_site_occupancy
  Nd  Nd0  1  0.699254  0.698752  0.001617  1
  Nd  Nd1  1  0.298476  0.998149  0.299517  1
  Nd  Nd2  1  0.999709  0.298899  0.298692  1
  Nd  Nd3  1  0.300055  0.302125  0.998831  1
  Nd  Nd4  1  0.700299  0.002041  0.699434  1
  Nd  Nd5  1  0.001366  0.697891  0.699027  1
  Ga  Ga6  1  0.000017  0.999243  0.499811  1
  Ga  Ga7  1  0.999202  0.499601  0.999310  1
  Ga  Ga8  1  0.500483  0.000531  0.000036  1
  Ga  Ga9  1  0.499844  0.499987  0.499892  1
  Pd  Pd10  1  0.325974  0.001732  0.677463  1
  Pd  Pd11  1  0.648284  0.325888  0.326162  1
  Pd  Pd12  1  0.675259  0.676106  0.352861  1
  Pd  Pd13  1  0.674499  0.351761  0.676087  1
  Pd  Pd14  1  0.351856  0.676835  0.677465  1
  Pt  Pt15  1  0.321522  0.321960  0.642069  1
  Pt  Pt16  1  0.679280  0.002211  0.323375  1
  Pt  Pt17  1  0.000297  0.679488  0.323994  1
  Pt  Pt18  1  0.678804  0.322050  0.002340  1
  Pt  Pt19  1  0.322242  0.643761  0.324402  1
  Pt  Pt20  1  0.000730  0.323523  0.679003  1
  Pt  Pt21  1  0.323751  0.680653  0.002854  1
  Pt  Pt22  1  0.998797  0.996814  0.995758  1
