# generated using pymatgen
data_Dy16MgCd3Ru3Pt
_symmetry_space_group_name_H-M   'P 1'
_cell_length_a   9.66088480
_cell_length_b   9.69012590
_cell_length_c   9.69012554
_cell_angle_alpha   59.64458533
_cell_angle_beta   59.48817732
_cell_angle_gamma   59.48817796
_symmetry_Int_Tables_number   1
_chemical_formula_structural   Dy16MgCd3Ru3Pt
_chemical_formula_sum   'Dy16 Mg1 Cd3 Ru3 Pt1'
_cell_volume   634.73935868
_cell_formula_units_Z   1
loop_
 _symmetry_equiv_pos_site_id
 _symmetry_equiv_pos_as_xyz
  1  'x, y, z'
loop_
 _atom_site_type_symbol
 _atom_site_label
 _atom_site_symmetry_multiplicity
 _atom_site_fract_x
 _atom_site_fract_y
 _atom_site_fract_z
 _atom_site_occupancy
  Dy  Dy0  1  0.345453  0.350769  0.350769  1
  Dy  Dy1  1  0.345165  0.349694  0.956825  1
  Dy  Dy2  1  0.345165  0.956825  0.349694  1
  Dy  Dy3  1  0.966425  0.344362  0.344362  1
  Dy  Dy4  1  0.814245  0.189762  0.189762  1
  Dy  Dy5  1  0.185088  0.812310  0.812310  1
  Dy  Dy6  1  0.187598  0.810845  0.189383  1
  Dy  Dy7  1  0.815662  0.188632  0.806271  1
  Dy  Dy8  1  0.187598  0.189383  0.810845  1
  Dy  Dy9  1  0.815662  0.806271  0.188632  1
  Dy  Dy10  1  0.937094  0.562766  0.562766  1
  Dy  Dy11  1  0.557958  0.938076  0.938076  1
  Dy  Dy12  1  0.557661  0.939418  0.566191  1
  Dy  Dy13  1  0.936497  0.562523  0.938589  1
  Dy  Dy14  1  0.557661  0.566191  0.939418  1
  Dy  Dy15  1  0.936497  0.938589  0.562523  1
  Mg  Mg16  1  0.576121  0.575462  0.575462  1
  Cd  Cd17  1  0.581237  0.580602  0.257601  1
  Cd  Cd18  1  0.581237  0.257601  0.580602  1
  Cd  Cd19  1  0.254855  0.581661  0.581661  1
  Ru  Ru20  1  0.145726  0.137659  0.137659  1
  Ru  Ru21  1  0.146753  0.139177  0.578778  1
  Ru  Ru22  1  0.146753  0.578778  0.139177  1
  Pt  Pt23  1  0.575895  0.142638  0.142638  1
