# generated using pymatgen
data_Ho8Zr8Ti3Si16Mo
_symmetry_space_group_name_H-M   'P 1'
_cell_length_a   7.24044000
_cell_length_b   7.24049844
_cell_length_c   13.24518411
_cell_angle_alpha   89.97234186
_cell_angle_beta   90.03093454
_cell_angle_gamma   90.02975707
_symmetry_Int_Tables_number   1
_chemical_formula_structural   Ho8Zr8Ti3Si16Mo
_chemical_formula_sum   'Ho8 Zr8 Ti3 Si16 Mo1'
_cell_volume   694.37048157
_cell_formula_units_Z   1
loop_
 _symmetry_equiv_pos_site_id
 _symmetry_equiv_pos_as_xyz
  1  'x, y, z'
loop_
 _atom_site_type_symbol
 _atom_site_label
 _atom_site_symmetry_multiplicity
 _atom_site_fract_x
 _atom_site_fract_y
 _atom_site_fract_z
 _atom_site_occupancy
  Ho  Ho0  1  0.346659  0.004315  0.464390  1
  Ho  Ho1  1  0.496484  0.846068  0.715126  1
  Ho  Ho2  1  0.501657  0.153573  0.212614  1
  Ho  Ho3  1  0.846069  0.496474  0.284872  1
  Ho  Ho4  1  0.153568  0.501654  0.787390  1
  Ho  Ho5  1  0.651403  0.998056  0.964776  1
  Ho  Ho6  1  0.004316  0.346660  0.535588  1
  Ho  Ho7  1  0.998058  0.651399  0.035240  1
  Zr  Zr8  1  0.146524  0.005440  0.876313  1
  Zr  Zr9  1  0.494543  0.643793  0.124469  1
  Zr  Zr10  1  0.504315  0.356161  0.626498  1
  Zr  Zr11  1  0.643816  0.494520  0.875516  1
  Zr  Zr12  1  0.356184  0.504294  0.373517  1
  Zr  Zr13  1  0.855551  0.995671  0.375749  1
  Zr  Zr14  1  0.005431  0.146553  0.123671  1
  Zr  Zr15  1  0.995656  0.855572  0.624271  1
  Ti  Ti16  1  0.177835  0.823446  0.249416  1
  Ti  Ti17  1  0.823441  0.177836  0.750586  1
  Ti  Ti18  1  0.676636  0.676631  0.499999  1
  Si  Si19  1  0.203719  0.141622  0.683763  1
  Si  Si20  1  0.358293  0.702692  0.933650  1
  Si  Si21  1  0.642047  0.296540  0.433828  1
  Si  Si22  1  0.702689  0.358293  0.066356  1
  Si  Si23  1  0.296534  0.642052  0.566169  1
  Si  Si24  1  0.796862  0.858119  0.183370  1
  Si  Si25  1  0.141612  0.203747  0.316241  1
  Si  Si26  1  0.858109  0.796893  0.816625  1
  Si  Si27  1  0.294751  0.948051  0.066017  1
  Si  Si28  1  0.551524  0.796265  0.315781  1
  Si  Si29  1  0.447579  0.204087  0.816571  1
  Si  Si30  1  0.796273  0.551493  0.684224  1
  Si  Si31  1  0.204098  0.447551  0.183423  1
  Si  Si32  1  0.704525  0.052683  0.566244  1
  Si  Si33  1  0.948035  0.294745  0.933968  1
  Si  Si34  1  0.052666  0.704519  0.433774  1
  Mo  Mo35  1  0.322539  0.322534  0.999996  1
