# generated using pymatgen
data_PrDyZn5Si
_symmetry_space_group_name_H-M   'P 1'
_cell_length_a   8.26794503
_cell_length_b   8.26794667
_cell_length_c   8.79062600
_cell_angle_alpha   90.00000000
_cell_angle_beta   90.00000000
_cell_angle_gamma   149.34979362
_symmetry_Int_Tables_number   1
_chemical_formula_structural   PrDyZn5Si
_chemical_formula_sum   'Pr2 Dy2 Zn10 Si2'
_cell_volume   306.34515353
_cell_formula_units_Z   2
loop_
 _symmetry_equiv_pos_site_id
 _symmetry_equiv_pos_as_xyz
  1  'x, y, z'
loop_
 _atom_site_type_symbol
 _atom_site_label
 _atom_site_symmetry_multiplicity
 _atom_site_fract_x
 _atom_site_fract_y
 _atom_site_fract_z
 _atom_site_occupancy
  Pr  Pr0  1  0.000000  0.000000  0.500000  1
  Pr  Pr1  1  0.000000  0.000000  0.000000  1
  Dy  Dy2  1  0.201348  0.798652  0.250000  1
  Dy  Dy3  1  0.798652  0.201348  0.750000  1
  Zn  Zn4  1  0.812378  0.187622  0.392407  1
  Zn  Zn5  1  0.187622  0.812378  0.607593  1
  Zn  Zn6  1  0.812378  0.187622  0.107593  1
  Zn  Zn7  1  0.187622  0.812378  0.892407  1
  Zn  Zn8  1  0.652129  0.347871  0.474194  1
  Zn  Zn9  1  0.347871  0.652129  0.525806  1
  Zn  Zn10  1  0.652129  0.347871  0.025806  1
  Zn  Zn11  1  0.347871  0.652129  0.974194  1
  Zn  Zn12  1  0.402963  0.597037  0.250000  1
  Zn  Zn13  1  0.597037  0.402963  0.750000  1
  Si  Si14  1  0.558291  0.441709  0.250000  1
  Si  Si15  1  0.441709  0.558291  0.750000  1
