# generated using pymatgen
data_Er7Lu3RuPt5
_symmetry_space_group_name_H-M   'P 1'
_cell_length_a   10.87316514
_cell_length_b   10.87511602
_cell_length_c   6.32069000
_cell_angle_alpha   89.99713392
_cell_angle_beta   89.97376333
_cell_angle_gamma   89.99771215
_symmetry_Int_Tables_number   1
_chemical_formula_structural   Er7Lu3RuPt5
_chemical_formula_sum   'Er14 Lu6 Ru2 Pt10'
_cell_volume   747.40212343
_cell_formula_units_Z   2
loop_
 _symmetry_equiv_pos_site_id
 _symmetry_equiv_pos_as_xyz
  1  'x, y, z'
loop_
 _atom_site_type_symbol
 _atom_site_label
 _atom_site_symmetry_multiplicity
 _atom_site_fract_x
 _atom_site_fract_y
 _atom_site_fract_z
 _atom_site_occupancy
  Er  Er0  1  0.709389  0.088168  0.873190  1
  Er  Er1  1  0.709368  0.911913  0.373261  1
  Er  Er2  1  0.587624  0.790498  0.873685  1
  Er  Er3  1  0.587707  0.209524  0.373806  1
  Er  Er4  1  0.410966  0.791152  0.373726  1
  Er  Er5  1  0.410938  0.208852  0.873662  1
  Er  Er6  1  0.203205  0.414189  0.626145  1
  Er  Er7  1  0.203196  0.585814  0.126063  1
  Er  Er8  1  0.796422  0.414216  0.126486  1
  Er  Er9  1  0.796405  0.585813  0.626461  1
  Er  Er10  1  0.913929  0.703497  0.126632  1
  Er  Er11  1  0.913946  0.296501  0.626743  1
  Er  Er12  1  0.086310  0.704034  0.626505  1
  Er  Er13  1  0.086317  0.295981  0.126480  1
  Lu  Lu14  1  0.292151  0.087129  0.375767  1
  Lu  Lu15  1  0.292105  0.912917  0.875792  1
  Lu  Lu16  1  0.000708  0.000232  0.501126  1
  Lu  Lu17  1  0.000681  0.999714  0.001155  1
  Lu  Lu18  1  0.499555  0.499635  0.001729  1
  Lu  Lu19  1  0.499571  0.500409  0.501777  1
  Ru  Ru20  1  0.000021  0.500063  0.877962  1
  Ru  Ru21  1  0.000030  0.499913  0.378119  1
  Pt  Pt22  1  0.846718  0.151137  0.250234  1
  Pt  Pt23  1  0.846699  0.848857  0.750229  1
  Pt  Pt24  1  0.154632  0.149692  0.748901  1
  Pt  Pt25  1  0.154593  0.850185  0.248851  1
  Pt  Pt26  1  0.650989  0.346811  0.750357  1
  Pt  Pt27  1  0.650933  0.653096  0.250272  1
  Pt  Pt28  1  0.348593  0.345428  0.251196  1
  Pt  Pt29  1  0.348543  0.654675  0.751242  1
  Pt  Pt30  1  0.498926  0.000149  0.116049  1
  Pt  Pt31  1  0.498832  0.999810  0.616394  1
