# generated using pymatgen
data_Sb6OsRh
_symmetry_space_group_name_H-M   'P 1'
_cell_length_a   8.12207105
_cell_length_b   8.12207124
_cell_length_c   8.16349395
_cell_angle_alpha   109.63113472
_cell_angle_beta   109.47719565
_cell_angle_gamma   109.09836673
_symmetry_Int_Tables_number   1
_chemical_formula_structural   Sb6OsRh
_chemical_formula_sum   'Sb12 Os2 Rh2'
_cell_volume   415.60872033
_cell_formula_units_Z   2
loop_
 _symmetry_equiv_pos_site_id
 _symmetry_equiv_pos_as_xyz
  1  'x, y, z'
loop_
 _atom_site_type_symbol
 _atom_site_label
 _atom_site_symmetry_multiplicity
 _atom_site_fract_x
 _atom_site_fract_y
 _atom_site_fract_z
 _atom_site_occupancy
  Sb  Sb0  1  0.156074  0.816310  0.663404  1
  Sb  Sb1  1  0.843926  0.183690  0.336596  1
  Sb  Sb2  1  0.847094  0.507330  0.663404  1
  Sb  Sb3  1  0.152906  0.492670  0.336596  1
  Sb  Sb4  1  0.816134  0.660731  0.154577  1
  Sb  Sb5  1  0.183866  0.339269  0.845423  1
  Sb  Sb6  1  0.506154  0.661557  0.845423  1
  Sb  Sb7  1  0.493846  0.338443  0.154577  1
  Sb  Sb8  1  0.664157  0.154941  0.819098  1
  Sb  Sb9  1  0.335843  0.845059  0.180902  1
  Sb  Sb10  1  0.656592  0.844080  0.500672  1
  Sb  Sb11  1  0.343408  0.155920  0.499328  1
  Os  Os12  1  0.500000  0.000000  0.000000  1
  Os  Os13  1  0.000000  0.500000  0.000000  1
  Rh  Rh14  1  0.000000  0.000000  0.500000  1
  Rh  Rh15  1  0.500000  0.500000  0.500000  1
