# generated using pymatgen
data_Ho8AlZnRh2
_symmetry_space_group_name_H-M   'P 1'
_cell_length_a   9.47810087
_cell_length_b   9.47810113
_cell_length_c   9.51178500
_cell_angle_alpha   59.88236586
_cell_angle_beta   59.88236496
_cell_angle_gamma   59.63692186
_symmetry_Int_Tables_number   1
_chemical_formula_structural   Ho8AlZnRh2
_chemical_formula_sum   'Ho16 Al2 Zn2 Rh4'
_cell_volume   601.46942670
_cell_formula_units_Z   2
loop_
 _symmetry_equiv_pos_site_id
 _symmetry_equiv_pos_as_xyz
  1  'x, y, z'
loop_
 _atom_site_type_symbol
 _atom_site_label
 _atom_site_symmetry_multiplicity
 _atom_site_fract_x
 _atom_site_fract_y
 _atom_site_fract_z
 _atom_site_occupancy
  Ho  Ho0  1  0.311950  0.894821  0.896615  1
  Ho  Ho1  1  0.686849  0.314822  0.685841  1
  Ho  Ho2  1  0.314822  0.686849  0.312488  1
  Ho  Ho3  1  0.059180  0.442514  0.442079  1
  Ho  Ho4  1  0.686849  0.314822  0.312488  1
  Ho  Ho5  1  0.442514  0.059180  0.442079  1
  Ho  Ho6  1  0.442514  0.059180  0.056227  1
  Ho  Ho7  1  0.896432  0.896432  0.898043  1
  Ho  Ho8  1  0.059180  0.442514  0.056227  1
  Ho  Ho9  1  0.894821  0.311950  0.896615  1
  Ho  Ho10  1  0.314822  0.686849  0.685841  1
  Ho  Ho11  1  0.896432  0.896432  0.309093  1
  Ho  Ho12  1  0.440179  0.440179  0.059821  1
  Ho  Ho13  1  0.313315  0.313315  0.686685  1
  Ho  Ho14  1  0.685379  0.685379  0.314621  1
  Ho  Ho15  1  0.055922  0.055922  0.444078  1
  Al  Al16  1  0.982137  0.673461  0.672200  1
  Al  Al17  1  0.673461  0.982137  0.672200  1
  Zn  Zn18  1  0.671839  0.671839  0.986250  1
  Zn  Zn19  1  0.671839  0.671839  0.670071  1
  Rh  Rh20  1  0.106694  0.106694  0.679591  1
  Rh  Rh21  1  0.106749  0.679426  0.106913  1
  Rh  Rh22  1  0.106694  0.106694  0.107022  1
  Rh  Rh23  1  0.679426  0.106749  0.106913  1
