# generated using pymatgen
data_Er9Si4AgB16
_symmetry_space_group_name_H-M   'P 1'
_cell_length_a   7.15534100
_cell_length_b   7.15534100
_cell_length_c   7.85366500
_cell_angle_alpha   90.00000000
_cell_angle_beta   90.00000000
_cell_angle_gamma   90.00000000
_symmetry_Int_Tables_number   1
_chemical_formula_structural   Er9Si4AgB16
_chemical_formula_sum   'Er9 Si4 Ag1 B16'
_cell_volume   402.09904687
_cell_formula_units_Z   1
loop_
 _symmetry_equiv_pos_site_id
 _symmetry_equiv_pos_as_xyz
  1  'x, y, z'
loop_
 _atom_site_type_symbol
 _atom_site_label
 _atom_site_symmetry_multiplicity
 _atom_site_fract_x
 _atom_site_fract_y
 _atom_site_fract_z
 _atom_site_occupancy
  Er  Er0  1  0.681505  0.180357  0.230322  1
  Er  Er1  1  0.318495  0.819643  0.769678  1
  Er  Er2  1  0.318495  0.819643  0.230322  1
  Er  Er3  1  0.819643  0.681505  0.230322  1
  Er  Er4  1  0.819643  0.681505  0.769678  1
  Er  Er5  1  0.681505  0.180357  0.769678  1
  Er  Er6  1  0.180357  0.318495  0.769678  1
  Er  Er7  1  0.180357  0.318495  0.230322  1
  Er  Er8  1  0.500000  0.500000  0.500000  1
  Si  Si9  1  0.116646  0.615348  0.500000  1
  Si  Si10  1  0.883354  0.384652  0.500000  1
  Si  Si11  1  0.384652  0.116646  0.500000  1
  Si  Si12  1  0.615348  0.883354  0.500000  1
  Ag  Ag13  1  0.000000  0.000000  0.500000  1
  B  B14  1  0.175209  0.038515  0.000000  1
  B  B15  1  0.824791  0.961485  0.000000  1
  B  B16  1  0.961485  0.175209  0.000000  1
  B  B17  1  0.327181  0.540321  0.000000  1
  B  B18  1  0.038515  0.824791  0.000000  1
  B  B19  1  0.672819  0.459679  0.000000  1
  B  B20  1  0.540321  0.672819  0.000000  1
  B  B21  1  0.459679  0.327181  0.000000  1
  B  B22  1  0.089158  0.588387  0.000000  1
  B  B23  1  0.910842  0.411613  0.000000  1
  B  B24  1  0.411613  0.089158  0.000000  1
  B  B25  1  0.588387  0.910842  0.000000  1
  B  B26  1  0.000000  0.000000  0.160272  1
  B  B27  1  0.000000  0.000000  0.839728  1
  B  B28  1  0.500000  0.500000  0.833927  1
  B  B29  1  0.500000  0.500000  0.166073  1
