# generated using pymatgen
data_Dy3Er3(AuO7)2
_symmetry_space_group_name_H-M   'P 1'
_cell_length_a   6.46406391
_cell_length_b   6.46245281
_cell_length_c   7.41163500
_cell_angle_alpha   90.00000000
_cell_angle_beta   90.00000000
_cell_angle_gamma   108.77577347
_symmetry_Int_Tables_number   1
_chemical_formula_structural   Dy3Er3(AuO7)2
_chemical_formula_sum   'Dy3 Er3 Au2 O14'
_cell_volume   293.13563792
_cell_formula_units_Z   1
loop_
 _symmetry_equiv_pos_site_id
 _symmetry_equiv_pos_as_xyz
  1  'x, y, z'
loop_
 _atom_site_type_symbol
 _atom_site_label
 _atom_site_symmetry_multiplicity
 _atom_site_fract_x
 _atom_site_fract_y
 _atom_site_fract_z
 _atom_site_occupancy
  Dy  Dy0  1  0.499737  0.499559  0.000445  1
  Dy  Dy1  1  0.528692  0.997693  0.750000  1
  Dy  Dy2  1  0.499737  0.499559  0.499555  1
  Er  Er3  1  0.001912  0.471420  0.750000  1
  Er  Er4  1  0.997900  0.528558  0.250000  1
  Er  Er5  1  0.471281  0.001926  0.250000  1
  Au  Au6  1  0.999939  0.999961  0.000573  1
  Au  Au7  1  0.999939  0.999961  0.499427  1
  O  O8  1  0.080632  0.331723  0.475151  1
  O  O9  1  0.920972  0.082288  0.750000  1
  O  O10  1  0.080632  0.331723  0.024849  1
  O  O11  1  0.919291  0.668643  0.524316  1
  O  O12  1  0.640479  0.362433  0.750000  1
  O  O13  1  0.669007  0.917259  0.473771  1
  O  O14  1  0.331526  0.083119  0.522822  1
  O  O15  1  0.331526  0.083119  0.977178  1
  O  O16  1  0.669007  0.917259  0.026229  1
  O  O17  1  0.919291  0.668643  0.975684  1
  O  O18  1  0.634212  0.365923  0.250000  1
  O  O19  1  0.359078  0.640174  0.250000  1
  O  O20  1  0.364762  0.630883  0.750000  1
  O  O21  1  0.080449  0.918174  0.250000  1
