# generated using pymatgen
data_HoMn3CrFeP3
_symmetry_space_group_name_H-M   'P 1'
_cell_length_a   3.60989300
_cell_length_b   10.55558200
_cell_length_c   12.20638200
_cell_angle_alpha   90.00000000
_cell_angle_beta   90.00000000
_cell_angle_gamma   90.00000000
_symmetry_Int_Tables_number   1
_chemical_formula_structural   HoMn3CrFeP3
_chemical_formula_sum   'Ho4 Mn12 Cr4 Fe4 P12'
_cell_volume   465.11834624
_cell_formula_units_Z   4
loop_
 _symmetry_equiv_pos_site_id
 _symmetry_equiv_pos_as_xyz
  1  'x, y, z'
loop_
 _atom_site_type_symbol
 _atom_site_label
 _atom_site_symmetry_multiplicity
 _atom_site_fract_x
 _atom_site_fract_y
 _atom_site_fract_z
 _atom_site_occupancy
  Ho  Ho0  1  0.250000  0.582614  0.707462  1
  Ho  Ho1  1  0.250000  0.917386  0.207462  1
  Ho  Ho2  1  0.750000  0.417386  0.292538  1
  Ho  Ho3  1  0.750000  0.082614  0.792538  1
  Mn  Mn4  1  0.250000  0.408225  0.492294  1
  Mn  Mn5  1  0.250000  0.091775  0.992294  1
  Mn  Mn6  1  0.750000  0.591775  0.507706  1
  Mn  Mn7  1  0.750000  0.908225  0.007706  1
  Mn  Mn8  1  0.250000  0.219071  0.175335  1
  Mn  Mn9  1  0.250000  0.280929  0.675335  1
  Mn  Mn10  1  0.750000  0.780929  0.824665  1
  Mn  Mn11  1  0.750000  0.719071  0.324665  1
  Mn  Mn12  1  0.250000  0.877211  0.699407  1
  Mn  Mn13  1  0.250000  0.622789  0.199407  1
  Mn  Mn14  1  0.750000  0.122789  0.300593  1
  Mn  Mn15  1  0.750000  0.377211  0.800593  1
  Cr  Cr16  1  0.250000  0.704434  0.987836  1
  Cr  Cr17  1  0.250000  0.795566  0.487836  1
  Cr  Cr18  1  0.750000  0.295566  0.012164  1
  Cr  Cr19  1  0.750000  0.204434  0.512164  1
  Fe  Fe20  1  0.250000  0.463500  0.933169  1
  Fe  Fe21  1  0.250000  0.036500  0.433169  1
  Fe  Fe22  1  0.750000  0.536500  0.066831  1
  Fe  Fe23  1  0.750000  0.963500  0.566831  1
  P  P24  1  0.250000  0.422947  0.111074  1
  P  P25  1  0.250000  0.077053  0.611074  1
  P  P26  1  0.750000  0.577053  0.888926  1
  P  P27  1  0.750000  0.922947  0.388926  1
  P  P28  1  0.250000  0.265080  0.871389  1
  P  P29  1  0.250000  0.234920  0.371389  1
  P  P30  1  0.750000  0.734920  0.128611  1
  P  P31  1  0.750000  0.765080  0.628611  1
  P  P32  1  0.250000  0.596091  0.387930  1
  P  P33  1  0.250000  0.903909  0.887930  1
  P  P34  1  0.750000  0.403909  0.612070  1
  P  P35  1  0.750000  0.096091  0.112070  1
