# generated using pymatgen
data_Y8InHgPt2
_symmetry_space_group_name_H-M   'P 1'
_cell_length_a   9.72297290
_cell_length_b   9.72297225
_cell_length_c   9.73831700
_cell_angle_alpha   59.94778337
_cell_angle_beta   59.94778558
_cell_angle_gamma   59.89947755
_symmetry_Int_Tables_number   1
_chemical_formula_structural   Y8InHgPt2
_chemical_formula_sum   'Y16 In2 Hg2 Pt4'
_cell_volume   649.97001230
_cell_formula_units_Z   2
loop_
 _symmetry_equiv_pos_site_id
 _symmetry_equiv_pos_as_xyz
  1  'x, y, z'
loop_
 _atom_site_type_symbol
 _atom_site_label
 _atom_site_symmetry_multiplicity
 _atom_site_fract_x
 _atom_site_fract_y
 _atom_site_fract_z
 _atom_site_occupancy
  Y  Y0  1  0.353130  0.353130  0.351190  1
  Y  Y1  1  0.353130  0.353130  0.942549  1
  Y  Y2  1  0.355921  0.936516  0.353782  1
  Y  Y3  1  0.936516  0.355921  0.353782  1
  Y  Y4  1  0.810129  0.189575  0.190671  1
  Y  Y5  1  0.189575  0.810129  0.809625  1
  Y  Y6  1  0.189575  0.810129  0.190671  1
  Y  Y7  1  0.810129  0.189575  0.809625  1
  Y  Y8  1  0.190687  0.190687  0.809313  1
  Y  Y9  1  0.810393  0.810393  0.189607  1
  Y  Y10  1  0.934699  0.562644  0.564144  1
  Y  Y11  1  0.562644  0.934699  0.938512  1
  Y  Y12  1  0.562644  0.934699  0.564144  1
  Y  Y13  1  0.934699  0.562644  0.938512  1
  Y  Y14  1  0.563616  0.563616  0.936384  1
  Y  Y15  1  0.936766  0.936766  0.563234  1
  In  In16  1  0.582064  0.252030  0.582953  1
  In  In17  1  0.252030  0.582064  0.582953  1
  Hg  Hg18  1  0.586464  0.586464  0.588852  1
  Hg  Hg19  1  0.586464  0.586464  0.238221  1
  Pt  Pt20  1  0.143128  0.143128  0.145167  1
  Pt  Pt21  1  0.143128  0.143128  0.568577  1
  Pt  Pt22  1  0.142128  0.570341  0.143766  1
  Pt  Pt23  1  0.570341  0.142128  0.143766  1
