# generated using pymatgen
data_Yb3ErCu2Sn5
_symmetry_space_group_name_H-M   'P 1'
_cell_length_a   4.42834400
_cell_length_b   8.81441800
_cell_length_c   14.06113000
_cell_angle_alpha   90.00000000
_cell_angle_beta   90.00000000
_cell_angle_gamma   90.00000000
_symmetry_Int_Tables_number   1
_chemical_formula_structural   Yb3ErCu2Sn5
_chemical_formula_sum   'Yb6 Er2 Cu4 Sn10'
_cell_volume   548.85195500
_cell_formula_units_Z   2
loop_
 _symmetry_equiv_pos_site_id
 _symmetry_equiv_pos_as_xyz
  1  'x, y, z'
loop_
 _atom_site_type_symbol
 _atom_site_label
 _atom_site_symmetry_multiplicity
 _atom_site_fract_x
 _atom_site_fract_y
 _atom_site_fract_z
 _atom_site_occupancy
  Yb  Yb0  1  0.500000  0.792682  0.742193  1
  Yb  Yb1  1  0.000000  0.207318  0.757807  1
  Yb  Yb2  1  0.000000  0.207318  0.242193  1
  Yb  Yb3  1  0.500000  0.135604  0.000000  1
  Yb  Yb4  1  0.000000  0.864396  0.500000  1
  Yb  Yb5  1  0.500000  0.792682  0.257807  1
  Er  Er6  1  0.500000  0.698755  0.000000  1
  Er  Er7  1  0.000000  0.301245  0.500000  1
  Cu  Cu8  1  0.500000  0.377836  0.643597  1
  Cu  Cu9  1  0.000000  0.622164  0.856403  1
  Cu  Cu10  1  0.000000  0.622164  0.143597  1
  Cu  Cu11  1  0.500000  0.377836  0.356403  1
  Sn  Sn12  1  0.500000  0.086381  0.395944  1
  Sn  Sn13  1  0.000000  0.554899  0.663623  1
  Sn  Sn14  1  0.000000  0.406923  0.000000  1
  Sn  Sn15  1  0.500000  0.445101  0.163623  1
  Sn  Sn16  1  0.500000  0.593077  0.500000  1
  Sn  Sn17  1  0.500000  0.445101  0.836377  1
  Sn  Sn18  1  0.000000  0.913619  0.895944  1
  Sn  Sn19  1  0.000000  0.554899  0.336377  1
  Sn  Sn20  1  0.500000  0.086381  0.604056  1
  Sn  Sn21  1  0.000000  0.913619  0.104056  1
