# generated using pymatgen
data_HfZr4Sc3Ru8
_symmetry_space_group_name_H-M   'P 1'
_cell_length_a   6.47281600
_cell_length_b   4.60848900
_cell_length_c   9.22623900
_cell_angle_alpha   90.00000000
_cell_angle_beta   90.00103769
_cell_angle_gamma   90.00000000
_symmetry_Int_Tables_number   1
_chemical_formula_structural   HfZr4Sc3Ru8
_chemical_formula_sum   'Hf1 Zr4 Sc3 Ru8'
_cell_volume   275.21779904
_cell_formula_units_Z   1
loop_
 _symmetry_equiv_pos_site_id
 _symmetry_equiv_pos_as_xyz
  1  'x, y, z'
loop_
 _atom_site_type_symbol
 _atom_site_label
 _atom_site_symmetry_multiplicity
 _atom_site_fract_x
 _atom_site_fract_y
 _atom_site_fract_z
 _atom_site_occupancy
  Hf  Hf0  1  0.249856  0.250000  0.125001  1
  Zr  Zr1  1  0.749861  0.250000  0.125020  1
  Zr  Zr2  1  0.249867  0.750000  0.377660  1
  Zr  Zr3  1  0.750137  0.250000  0.625018  1
  Zr  Zr4  1  0.250140  0.750000  0.872300  1
  Sc  Sc5  1  0.749853  0.750000  0.376014  1
  Sc  Sc6  1  0.250140  0.250000  0.624985  1
  Sc  Sc7  1  0.750151  0.750000  0.873995  1
  Ru  Ru8  1  0.497028  0.750000  0.124965  1
  Ru  Ru9  1  0.002754  0.750000  0.124974  1
  Ru  Ru10  1  0.498650  0.250000  0.372995  1
  Ru  Ru11  1  0.001139  0.250000  0.372985  1
  Ru  Ru12  1  0.999843  0.750000  0.624994  1
  Ru  Ru13  1  0.500361  0.750000  0.624989  1
  Ru  Ru14  1  0.001366  0.250000  0.877056  1
  Ru  Ru15  1  0.498853  0.250000  0.877051  1
