# generated using pymatgen
data_Nd3In3CuNi2
_symmetry_space_group_name_H-M   'P 1'
_cell_length_a   7.57053400
_cell_length_b   7.57053420
_cell_length_c   4.07045200
_cell_angle_alpha   90.00000000
_cell_angle_beta   90.00000000
_cell_angle_gamma   119.99999911
_symmetry_Int_Tables_number   1
_chemical_formula_structural   Nd3In3CuNi2
_chemical_formula_sum   'Nd3 In3 Cu1 Ni2'
_cell_volume   202.03486119
_cell_formula_units_Z   1
loop_
 _symmetry_equiv_pos_site_id
 _symmetry_equiv_pos_as_xyz
  1  'x, y, z'
loop_
 _atom_site_type_symbol
 _atom_site_label
 _atom_site_symmetry_multiplicity
 _atom_site_fract_x
 _atom_site_fract_y
 _atom_site_fract_z
 _atom_site_occupancy
  Nd  Nd0  1  0.416039  0.416039  0.500000  1
  Nd  Nd1  1  0.583961  0.000000  0.500000  1
  Nd  Nd2  1  0.000000  0.583961  0.500000  1
  In  In3  1  0.750142  0.750142  0.000000  1
  In  In4  1  0.249858  0.000000  0.000000  1
  In  In5  1  0.000000  0.249858  0.000000  1
  Cu  Cu6  1  0.000000  0.000000  0.500000  1
  Ni  Ni7  1  0.666667  0.333333  0.000000  1
  Ni  Ni8  1  0.333333  0.666667  0.000000  1
