# generated using pymatgen
data_Pr2MgPa2Zn3Ir4
_symmetry_space_group_name_H-M   'P 1'
_cell_length_a   3.89589600
_cell_length_b   7.35131759
_cell_length_c   8.59988600
_cell_angle_alpha   87.36807962
_cell_angle_beta   90.00000000
_cell_angle_gamma   90.00000000
_symmetry_Int_Tables_number   1
_chemical_formula_structural   Pr2MgPa2Zn3Ir4
_chemical_formula_sum   'Pr2 Mg1 Pa2 Zn3 Ir4'
_cell_volume   246.04065486
_cell_formula_units_Z   1
loop_
 _symmetry_equiv_pos_site_id
 _symmetry_equiv_pos_as_xyz
  1  'x, y, z'
loop_
 _atom_site_type_symbol
 _atom_site_label
 _atom_site_symmetry_multiplicity
 _atom_site_fract_x
 _atom_site_fract_y
 _atom_site_fract_z
 _atom_site_occupancy
  Pr  Pr0  1  0.250000  0.557237  0.179417  1
  Pr  Pr1  1  0.750000  0.445387  0.816325  1
  Mg  Mg2  1  0.750000  0.375060  0.443354  1
  Pa  Pa3  1  0.250000  0.041066  0.307470  1
  Pa  Pa4  1  0.750000  0.952096  0.689397  1
  Zn  Zn5  1  0.250000  0.124109  0.943887  1
  Zn  Zn6  1  0.750000  0.876867  0.055414  1
  Zn  Zn7  1  0.250000  0.637575  0.563037  1
  Ir  Ir8  1  0.750000  0.236601  0.145672  1
  Ir  Ir9  1  0.250000  0.762671  0.855041  1
  Ir  Ir10  1  0.750000  0.781761  0.377878  1
  Ir  Ir11  1  0.250000  0.209567  0.623108  1
