# generated using pymatgen
data_Y2Tm2B12MoRh
_symmetry_space_group_name_H-M   'P 1'
_cell_length_a   3.65405800
_cell_length_b   9.15602839
_cell_length_c   11.57320805
_cell_angle_alpha   90.39586749
_cell_angle_beta   90.00000000
_cell_angle_gamma   90.00000000
_symmetry_Int_Tables_number   1
_chemical_formula_structural   Y2Tm2B12MoRh
_chemical_formula_sum   'Y4 Tm4 B24 Mo2 Rh2'
_cell_volume   387.19163108
_cell_formula_units_Z   2
loop_
 _symmetry_equiv_pos_site_id
 _symmetry_equiv_pos_as_xyz
  1  'x, y, z'
loop_
 _atom_site_type_symbol
 _atom_site_label
 _atom_site_symmetry_multiplicity
 _atom_site_fract_x
 _atom_site_fract_y
 _atom_site_fract_z
 _atom_site_occupancy
  Y  Y0  1  0.500000  0.319101  0.412322  1
  Y  Y1  1  0.500000  0.680899  0.587678  1
  Y  Y2  1  0.500000  0.175452  0.916654  1
  Y  Y3  1  0.500000  0.824548  0.083346  1
  Tm  Tm4  1  0.500000  0.443452  0.127078  1
  Tm  Tm5  1  0.500000  0.556548  0.872922  1
  Tm  Tm6  1  0.500000  0.054724  0.628234  1
  Tm  Tm7  1  0.500000  0.945276  0.371766  1
  B  B8  1  0.000000  0.104598  0.472521  1
  B  B9  1  0.000000  0.895402  0.527479  1
  B  B10  1  0.000000  0.397105  0.970986  1
  B  B11  1  0.000000  0.602895  0.029014  1
  B  B12  1  0.000000  0.131844  0.317669  1
  B  B13  1  0.000000  0.868156  0.682331  1
  B  B14  1  0.000000  0.369031  0.815911  1
  B  B15  1  0.000000  0.630969  0.184089  1
  B  B16  1  0.000000  0.052280  0.066453  1
  B  B17  1  0.000000  0.947720  0.933547  1
  B  B18  1  0.000000  0.445530  0.566093  1
  B  B19  1  0.000000  0.554470  0.433907  1
  B  B20  1  0.000000  0.483753  0.287817  1
  B  B21  1  0.000000  0.516247  0.712183  1
  B  B22  1  0.000000  0.020030  0.785786  1
  B  B23  1  0.000000  0.979970  0.214214  1
  B  B24  1  0.000000  0.251271  0.080139  1
  B  B25  1  0.000000  0.748729  0.919861  1
  B  B26  1  0.000000  0.249670  0.579917  1
  B  B27  1  0.000000  0.750330  0.420083  1
  B  B28  1  0.000000  0.295926  0.236409  1
  B  B29  1  0.000000  0.704074  0.763591  1
  B  B30  1  0.000000  0.208754  0.734195  1
  B  B31  1  0.000000  0.791246  0.265805  1
  Mo  Mo32  1  0.500000  0.139860  0.181758  1
  Mo  Mo33  1  0.500000  0.860140  0.818242  1
  Rh  Rh34  1  0.500000  0.361164  0.678735  1
  Rh  Rh35  1  0.500000  0.638836  0.321265  1
