# generated using pymatgen
data_TbGdDy4C3Cl5
_symmetry_space_group_name_H-M   'P 1'
_cell_length_a   3.66970689
_cell_length_b   8.35400972
_cell_length_c   10.37111237
_cell_angle_alpha   85.54555418
_cell_angle_beta   79.85858772
_cell_angle_gamma   77.33266051
_symmetry_Int_Tables_number   1
_chemical_formula_structural   TbGdDy4C3Cl5
_chemical_formula_sum   'Tb1 Gd1 Dy4 C3 Cl5'
_cell_volume   305.10673437
_cell_formula_units_Z   1
loop_
 _symmetry_equiv_pos_site_id
 _symmetry_equiv_pos_as_xyz
  1  'x, y, z'
loop_
 _atom_site_type_symbol
 _atom_site_label
 _atom_site_symmetry_multiplicity
 _atom_site_fract_x
 _atom_site_fract_y
 _atom_site_fract_z
 _atom_site_occupancy
  Tb  Tb0  1  0.576991  0.074237  0.778455  1
  Gd  Gd1  1  0.428748  0.923471  0.218706  1
  Dy  Dy2  1  0.960402  0.429032  0.655792  1
  Dy  Dy3  1  0.682733  0.180012  0.456433  1
  Dy  Dy4  1  0.044341  0.568560  0.344097  1
  Dy  Dy5  1  0.321321  0.818938  0.542587  1
  C  C6  1  0.128895  0.123219  0.624144  1
  C  C7  1  0.875985  0.875086  0.374156  1
  C  C8  1  0.502207  0.499084  0.499903  1
  Cl  Cl9  1  0.755473  0.745217  0.750879  1
  Cl  Cl10  1  0.382249  0.380319  0.863123  1
  Cl  Cl11  1  0.247933  0.253906  0.248591  1
  Cl  Cl12  1  0.625101  0.613838  0.136334  1
  Cl  Cl13  1  0.004842  0.998672  0.996116  1
