# generated using pymatgen
data_Nb6Al3Cu3N2
_symmetry_space_group_name_H-M   'P 1'
_cell_length_a   8.23667341
_cell_length_b   8.23667444
_cell_length_c   8.23667378
_cell_angle_alpha   120.04728611
_cell_angle_beta   120.00967206
_cell_angle_gamma   89.95068392
_symmetry_Int_Tables_number   1
_chemical_formula_structural   Nb6Al3Cu3N2
_chemical_formula_sum   'Nb12 Al6 Cu6 N4'
_cell_volume   394.96025177
_cell_formula_units_Z   2
loop_
 _symmetry_equiv_pos_site_id
 _symmetry_equiv_pos_as_xyz
  1  'x, y, z'
loop_
 _atom_site_type_symbol
 _atom_site_label
 _atom_site_symmetry_multiplicity
 _atom_site_fract_x
 _atom_site_fract_y
 _atom_site_fract_z
 _atom_site_occupancy
  Nb  Nb0  1  0.560738  0.060738  0.500000  1
  Nb  Nb1  1  0.194779  0.694779  0.500000  1
  Nb  Nb2  1  0.189925  0.057171  0.498891  1
  Nb  Nb3  1  0.558281  0.691035  0.501109  1
  Nb  Nb4  1  0.558281  0.057171  0.867246  1
  Nb  Nb5  1  0.189925  0.691035  0.132754  1
  Nb  Nb6  1  0.943416  0.943416  0.000000  1
  Nb  Nb7  1  0.311827  0.311827  0.000000  1
  Nb  Nb8  1  0.307094  0.942170  0.000271  1
  Nb  Nb9  1  0.941898  0.306824  0.999729  1
  Nb  Nb10  1  0.941898  0.942170  0.635074  1
  Nb  Nb11  1  0.307094  0.306824  0.364926  1
  Al  Al12  1  0.756693  0.507833  0.248859  1
  Al  Al13  1  0.258973  0.507833  0.751141  1
  Al  Al14  1  0.747407  0.512386  0.764979  1
  Al  Al15  1  0.747407  0.982428  0.235021  1
  Al  Al16  1  0.960172  0.294519  0.665653  1
  Al  Al17  1  0.628866  0.294519  0.334347  1
  Cu  Cu18  1  0.951725  0.292524  0.340800  1
  Cu  Cu19  1  0.951725  0.610925  0.659200  1
  Cu  Cu20  1  0.540863  0.705803  0.835061  1
  Cu  Cu21  1  0.870742  0.705803  0.164939  1
  Cu  Cu22  1  0.542149  0.704371  0.162222  1
  Cu  Cu23  1  0.542149  0.379928  0.837778  1
  N  N24  1  0.249111  0.998652  0.250459  1
  N  N25  1  0.748194  0.998652  0.749541  1
  N  N26  1  0.249331  0.999824  0.750493  1
  N  N27  1  0.249331  0.498840  0.249507  1
