# generated using pymatgen
data_Zr2FeCo2Si5
_symmetry_space_group_name_H-M   'P 1'
_cell_length_a   7.65407458
_cell_length_b   7.65407475
_cell_length_c   7.65407437
_cell_angle_alpha   137.87785846
_cell_angle_beta   104.88602474
_cell_angle_gamma   90.07942034
_symmetry_Int_Tables_number   1
_chemical_formula_structural   Zr2FeCo2Si5
_chemical_formula_sum   'Zr4 Fe2 Co4 Si10'
_cell_volume   277.62879245
_cell_formula_units_Z   2
loop_
 _symmetry_equiv_pos_site_id
 _symmetry_equiv_pos_as_xyz
  1  'x, y, z'
loop_
 _atom_site_type_symbol
 _atom_site_label
 _atom_site_symmetry_multiplicity
 _atom_site_fract_x
 _atom_site_fract_y
 _atom_site_fract_z
 _atom_site_occupancy
  Zr  Zr0  1  0.867590  0.634971  0.232619  1
  Zr  Zr1  1  0.132410  0.365029  0.767381  1
  Zr  Zr2  1  0.402352  0.134971  0.267381  1
  Zr  Zr3  1  0.597648  0.865029  0.732619  1
  Fe  Fe4  1  0.000000  0.750000  0.750000  1
  Fe  Fe5  1  0.000000  0.250000  0.250000  1
  Co  Co6  1  0.251246  0.861329  0.389916  1
  Co  Co7  1  0.748754  0.138671  0.610084  1
  Co  Co8  1  0.471414  0.361329  0.110084  1
  Co  Co9  1  0.528586  0.638671  0.889916  1
  Si  Si10  1  0.500000  0.750000  0.250000  1
  Si  Si11  1  0.500000  0.250000  0.750000  1
  Si  Si12  1  0.225774  0.975774  0.750000  1
  Si  Si13  1  0.774226  0.524226  0.750000  1
  Si  Si14  1  0.774226  0.024226  0.250000  1
  Si  Si15  1  0.225774  0.475774  0.250000  1
  Si  Si16  1  0.062328  0.901613  0.160714  1
  Si  Si17  1  0.937672  0.098387  0.839286  1
  Si  Si18  1  0.740899  0.401613  0.339286  1
  Si  Si19  1  0.259101  0.598387  0.660714  1
