# generated using pymatgen
data_Tm4PaInAu4
_symmetry_space_group_name_H-M   'P 1'
_cell_length_a   7.97564100
_cell_length_b   7.97515501
_cell_length_c   7.47140101
_cell_angle_alpha   90.00511175
_cell_angle_beta   90.00245589
_cell_angle_gamma   90.00080456
_symmetry_Int_Tables_number   1
_chemical_formula_structural   Tm4PaInAu4
_chemical_formula_sum   'Tm8 Pa2 In2 Au8'
_cell_volume   475.23320198
_cell_formula_units_Z   2
loop_
 _symmetry_equiv_pos_site_id
 _symmetry_equiv_pos_as_xyz
  1  'x, y, z'
loop_
 _atom_site_type_symbol
 _atom_site_label
 _atom_site_symmetry_multiplicity
 _atom_site_fract_x
 _atom_site_fract_y
 _atom_site_fract_z
 _atom_site_occupancy
  Tm  Tm0  1  0.845698  0.154282  0.499976  1
  Tm  Tm1  1  0.154316  0.845709  0.499996  1
  Tm  Tm2  1  0.345690  0.345670  0.000064  1
  Tm  Tm3  1  0.654249  0.654333  0.999986  1
  Tm  Tm4  1  0.681239  0.681317  0.499940  1
  Tm  Tm5  1  0.318797  0.318690  0.499985  1
  Tm  Tm6  1  0.181313  0.818748  0.000031  1
  Tm  Tm7  1  0.818705  0.181247  0.000004  1
  Pa  Pa8  1  0.499993  0.999991  0.250014  1
  Pa  Pa9  1  0.000010  0.500024  0.750007  1
  In  In10  1  0.499974  0.000006  0.749977  1
  In  In11  1  0.999989  0.499992  0.250007  1
  Au  Au12  1  0.623195  0.360790  0.276290  1
  Au  Au13  1  0.376813  0.639218  0.276284  1
  Au  Au14  1  0.123203  0.139187  0.776298  1
  Au  Au15  1  0.876798  0.860803  0.776316  1
  Au  Au16  1  0.360814  0.623203  0.723710  1
  Au  Au17  1  0.639195  0.376795  0.723714  1
  Au  Au18  1  0.860796  0.876808  0.223699  1
  Au  Au19  1  0.139213  0.123187  0.223704  1
