# generated using pymatgen
data_Ca3Ga3Si2SbO14
_symmetry_space_group_name_H-M   'P 1'
_cell_length_a   8.19744500
_cell_length_b   8.19740243
_cell_length_c   5.05530900
_cell_angle_alpha   89.99988235
_cell_angle_beta   89.99975971
_cell_angle_gamma   119.99994759
_symmetry_Int_Tables_number   1
_chemical_formula_structural   Ca3Ga3Si2SbO14
_chemical_formula_sum   'Ca3 Ga3 Si2 Sb1 O14'
_cell_volume   294.19367763
_cell_formula_units_Z   1
loop_
 _symmetry_equiv_pos_site_id
 _symmetry_equiv_pos_as_xyz
  1  'x, y, z'
loop_
 _atom_site_type_symbol
 _atom_site_label
 _atom_site_symmetry_multiplicity
 _atom_site_fract_x
 _atom_site_fract_y
 _atom_site_fract_z
 _atom_site_occupancy
  Ca  Ca0  1  0.426255  0.000005  0.999999  1
  Ca  Ca1  1  0.999998  0.426253  0.000000  1
  Ca  Ca2  1  0.573743  0.573750  0.000003  1
  Ga  Ga3  1  0.253638  0.253638  0.499998  1
  Ga  Ga4  1  0.999999  0.746362  0.500001  1
  Ga  Ga5  1  0.746363  0.000001  0.500003  1
  Si  Si6  1  0.666662  0.333329  0.451133  1
  Si  Si7  1  0.333338  0.666668  0.548867  1
  Sb  Sb8  1  0.000000  0.999999  0.000000  1
  O  O9  1  0.333345  0.666671  0.230037  1
  O  O10  1  0.140686  0.914439  0.233805  1
  O  O11  1  0.085559  0.226244  0.233808  1
  O  O12  1  0.773760  0.859314  0.233817  1
  O  O13  1  0.477005  0.321735  0.312213  1
  O  O14  1  0.678261  0.155267  0.312217  1
  O  O15  1  0.844730  0.522991  0.312221  1
  O  O16  1  0.155271  0.678262  0.687779  1
  O  O17  1  0.321738  0.477005  0.687783  1
  O  O18  1  0.522996  0.844729  0.687787  1
  O  O19  1  0.226241  0.085554  0.766185  1
  O  O20  1  0.914442  0.140686  0.766193  1
  O  O21  1  0.859314  0.773753  0.766196  1
  O  O22  1  0.666656  0.333325  0.769963  1
