# generated using pymatgen
data_Y8Tl3Co
_symmetry_space_group_name_H-M   'P 1'
_cell_length_a   10.40027900
_cell_length_b   10.40027941
_cell_length_c   7.06744800
_cell_angle_alpha   90.00000000
_cell_angle_beta   90.00000000
_cell_angle_gamma   120.00000189
_symmetry_Int_Tables_number   1
_chemical_formula_structural   Y8Tl3Co
_chemical_formula_sum   'Y16 Tl6 Co2'
_cell_volume   662.03849386
_cell_formula_units_Z   2
loop_
 _symmetry_equiv_pos_site_id
 _symmetry_equiv_pos_as_xyz
  1  'x, y, z'
loop_
 _atom_site_type_symbol
 _atom_site_label
 _atom_site_symmetry_multiplicity
 _atom_site_fract_x
 _atom_site_fract_y
 _atom_site_fract_z
 _atom_site_occupancy
  Y  Y0  1  0.463284  0.536716  0.481274  1
  Y  Y1  1  0.073432  0.536716  0.481274  1
  Y  Y2  1  0.463284  0.926568  0.481274  1
  Y  Y3  1  0.536716  0.463284  0.981274  1
  Y  Y4  1  0.926568  0.463284  0.981274  1
  Y  Y5  1  0.536716  0.073432  0.981274  1
  Y  Y6  1  0.822631  0.177369  0.277371  1
  Y  Y7  1  0.354739  0.177369  0.277371  1
  Y  Y8  1  0.822631  0.645261  0.277371  1
  Y  Y9  1  0.177369  0.822631  0.777371  1
  Y  Y10  1  0.645261  0.822631  0.777371  1
  Y  Y11  1  0.177369  0.354739  0.777371  1
  Y  Y12  1  0.333333  0.666667  0.091330  1
  Y  Y13  1  0.666667  0.333333  0.591330  1
  Y  Y14  1  0.000000  0.000000  0.497062  1
  Y  Y15  1  0.000000  0.000000  0.997062  1
  Tl  Tl16  1  0.163389  0.836611  0.233270  1
  Tl  Tl17  1  0.673224  0.836611  0.233270  1
  Tl  Tl18  1  0.163389  0.326776  0.233270  1
  Tl  Tl19  1  0.836611  0.163389  0.733270  1
  Tl  Tl20  1  0.326776  0.163389  0.733270  1
  Tl  Tl21  1  0.836611  0.673224  0.733270  1
  Co  Co22  1  0.333333  0.666667  0.708140  1
  Co  Co23  1  0.666667  0.333333  0.208140  1
