# generated using pymatgen
data_Tm3Mg3Ga2Hg
_symmetry_space_group_name_H-M   'P 1'
_cell_length_a   7.33339700
_cell_length_b   7.33339667
_cell_length_c   4.36597100
_cell_angle_alpha   90.00000000
_cell_angle_beta   90.00000000
_cell_angle_gamma   119.99999700
_symmetry_Int_Tables_number   1
_chemical_formula_structural   Tm3Mg3Ga2Hg
_chemical_formula_sum   'Tm3 Mg3 Ga2 Hg1'
_cell_volume   203.33955312
_cell_formula_units_Z   1
loop_
 _symmetry_equiv_pos_site_id
 _symmetry_equiv_pos_as_xyz
  1  'x, y, z'
loop_
 _atom_site_type_symbol
 _atom_site_label
 _atom_site_symmetry_multiplicity
 _atom_site_fract_x
 _atom_site_fract_y
 _atom_site_fract_z
 _atom_site_occupancy
  Tm  Tm0  1  0.000000  0.570807  0.000000  1
  Tm  Tm1  1  0.429193  0.429193  0.000000  1
  Tm  Tm2  1  0.570807  0.000000  0.000000  1
  Mg  Mg3  1  0.000000  0.248315  0.500000  1
  Mg  Mg4  1  0.751685  0.751685  0.500000  1
  Mg  Mg5  1  0.248315  0.000000  0.500000  1
  Ga  Ga6  1  0.666667  0.333333  0.500000  1
  Ga  Ga7  1  0.333333  0.666667  0.500000  1
  Hg  Hg8  1  0.000000  0.000000  0.000000  1
