# generated using pymatgen
data_Dy8Lu8Sc4Si15P
_symmetry_space_group_name_H-M   'P 1'
_cell_length_a   7.19431506
_cell_length_b   7.53985474
_cell_length_c   14.22782000
_cell_angle_alpha   90.00000000
_cell_angle_beta   90.00000000
_cell_angle_gamma   90.22656732
_symmetry_Int_Tables_number   1
_chemical_formula_structural   Dy8Lu8Sc4Si15P
_chemical_formula_sum   'Dy8 Lu8 Sc4 Si15 P1'
_cell_volume   771.76912169
_cell_formula_units_Z   1
loop_
 _symmetry_equiv_pos_site_id
 _symmetry_equiv_pos_as_xyz
  1  'x, y, z'
loop_
 _atom_site_type_symbol
 _atom_site_label
 _atom_site_symmetry_multiplicity
 _atom_site_fract_x
 _atom_site_fract_y
 _atom_site_fract_z
 _atom_site_occupancy
  Dy  Dy0  1  0.015581  0.179837  0.096651  1
  Dy  Dy1  1  0.986245  0.822266  0.898761  1
  Dy  Dy2  1  0.485903  0.678023  0.904040  1
  Dy  Dy3  1  0.986245  0.822266  0.601239  1
  Dy  Dy4  1  0.516562  0.320142  0.096975  1
  Dy  Dy5  1  0.015581  0.179837  0.403349  1
  Dy  Dy6  1  0.516562  0.320142  0.403025  1
  Dy  Dy7  1  0.485903  0.678023  0.595960  1
  Lu  Lu8  1  0.319429  0.171473  0.627923  1
  Lu  Lu9  1  0.675506  0.823349  0.374926  1
  Lu  Lu10  1  0.175106  0.677758  0.375255  1
  Lu  Lu11  1  0.675506  0.823349  0.125074  1
  Lu  Lu12  1  0.822589  0.324618  0.625907  1
  Lu  Lu13  1  0.319429  0.171473  0.872077  1
  Lu  Lu14  1  0.822589  0.324618  0.874093  1
  Lu  Lu15  1  0.175106  0.677758  0.124745  1
  Sc  Sc16  1  0.154617  0.510363  0.750000  1
  Sc  Sc17  1  0.843999  0.489191  0.250000  1
  Sc  Sc18  1  0.344171  0.011534  0.250000  1
  Sc  Sc19  1  0.657839  0.989792  0.750000  1
  Si  Si20  1  0.976479  0.898259  0.250000  1
  Si  Si21  1  0.476278  0.602018  0.250000  1
  Si  Si22  1  0.519423  0.393789  0.750000  1
  Si  Si23  1  0.296423  0.853079  0.750000  1
  Si  Si24  1  0.719956  0.132982  0.250000  1
  Si  Si25  1  0.219768  0.367935  0.250000  1
  Si  Si26  1  0.781857  0.634177  0.750000  1
  Si  Si27  1  0.153350  0.467242  0.540998  1
  Si  Si28  1  0.846635  0.532503  0.460478  1
  Si  Si29  1  0.346078  0.969854  0.460035  1
  Si  Si30  1  0.846635  0.532503  0.039522  1
  Si  Si31  1  0.654600  0.032197  0.540771  1
  Si  Si32  1  0.153350  0.467242  0.959002  1
  Si  Si33  1  0.654600  0.032197  0.959229  1
  Si  Si34  1  0.346078  0.969854  0.039965  1
  P  P35  1  0.014024  0.118357  0.750000  1
