# generated using pymatgen
data_LiPrNd2In3Pt2
_symmetry_space_group_name_H-M   'P 1'
_cell_length_a   7.83953725
_cell_length_b   7.83187277
_cell_length_c   4.00816300
_cell_angle_alpha   90.00000000
_cell_angle_beta   90.00000000
_cell_angle_gamma   119.96766365
_symmetry_Int_Tables_number   1
_chemical_formula_structural   LiPrNd2In3Pt2
_chemical_formula_sum   'Li1 Pr1 Nd2 In3 Pt2'
_cell_volume   213.19326334
_cell_formula_units_Z   1
loop_
 _symmetry_equiv_pos_site_id
 _symmetry_equiv_pos_as_xyz
  1  'x, y, z'
loop_
 _atom_site_type_symbol
 _atom_site_label
 _atom_site_symmetry_multiplicity
 _atom_site_fract_x
 _atom_site_fract_y
 _atom_site_fract_z
 _atom_site_occupancy
  Li  Li0  1  0.000000  0.000232  0.500000  1
  Pr  Pr1  1  0.000000  0.580805  0.500000  1
  Nd  Nd2  1  0.580433  0.999874  0.500000  1
  Nd  Nd3  1  0.419567  0.419441  0.500000  1
  In  In4  1  0.000000  0.247172  0.000000  1
  In  In5  1  0.248457  0.000694  0.000000  1
  In  In6  1  0.751543  0.752237  0.000000  1
  Pt  Pt7  1  0.665502  0.332523  0.000000  1
  Pt  Pt8  1  0.334498  0.667022  0.000000  1
