# generated using pymatgen
data_Ce2Dy4Co17P12W
_symmetry_space_group_name_H-M   'P 1'
_cell_length_a   3.72752700
_cell_length_b   10.59742900
_cell_length_c   12.24207500
_cell_angle_alpha   90.00000000
_cell_angle_beta   90.00000000
_cell_angle_gamma   90.00000000
_symmetry_Int_Tables_number   1
_chemical_formula_structural   Ce2Dy4Co17P12W
_chemical_formula_sum   'Ce2 Dy4 Co17 P12 W1'
_cell_volume   483.58892846
_cell_formula_units_Z   1
loop_
 _symmetry_equiv_pos_site_id
 _symmetry_equiv_pos_as_xyz
  1  'x, y, z'
loop_
 _atom_site_type_symbol
 _atom_site_label
 _atom_site_symmetry_multiplicity
 _atom_site_fract_x
 _atom_site_fract_y
 _atom_site_fract_z
 _atom_site_occupancy
  Ce  Ce0  1  0.000000  0.500000  0.529349  1
  Ce  Ce1  1  0.500000  0.000000  0.473768  1
  Dy  Dy2  1  0.500000  0.817048  0.205438  1
  Dy  Dy3  1  0.500000  0.182952  0.205438  1
  Dy  Dy4  1  0.000000  0.684434  0.796779  1
  Dy  Dy5  1  0.000000  0.315566  0.796779  1
  Co  Co6  1  0.000000  0.000000  0.841444  1
  Co  Co7  1  0.500000  0.500000  0.698591  1
  Co  Co8  1  0.000000  0.000000  0.299718  1
  Co  Co9  1  0.000000  0.500000  0.985540  1
  Co  Co10  1  0.500000  0.000000  0.015038  1
  Co  Co11  1  0.500000  0.332155  0.990536  1
  Co  Co12  1  0.500000  0.667845  0.990536  1
  Co  Co13  1  0.000000  0.165601  0.006072  1
  Co  Co14  1  0.000000  0.834399  0.006072  1
  Co  Co15  1  0.500000  0.297210  0.431309  1
  Co  Co16  1  0.500000  0.702790  0.431309  1
  Co  Co17  1  0.000000  0.200983  0.569499  1
  Co  Co18  1  0.000000  0.799017  0.569499  1
  Co  Co19  1  0.500000  0.880317  0.710556  1
  Co  Co20  1  0.500000  0.119683  0.710556  1
  Co  Co21  1  0.000000  0.620554  0.290185  1
  Co  Co22  1  0.000000  0.379446  0.290185  1
  P  P23  1  0.500000  0.500000  0.879014  1
  P  P24  1  0.000000  0.000000  0.118573  1
  P  P25  1  0.500000  0.500000  0.348592  1
  P  P26  1  0.000000  0.000000  0.657836  1
  P  P27  1  0.500000  0.306055  0.617353  1
  P  P28  1  0.500000  0.693945  0.617353  1
  P  P29  1  0.000000  0.192973  0.383845  1
  P  P30  1  0.000000  0.807027  0.383845  1
  P  P31  1  0.500000  0.849475  0.892836  1
  P  P32  1  0.500000  0.150525  0.892836  1
  P  P33  1  0.000000  0.657022  0.104528  1
  P  P34  1  0.000000  0.342978  0.104528  1
  W  W35  1  0.500000  0.500000  0.154667  1
