# generated using pymatgen
data_Tm3AlCo3
_symmetry_space_group_name_H-M   'P 1'
_cell_length_a   5.34726800
_cell_length_b   5.34726801
_cell_length_c   12.88383400
_cell_angle_alpha   90.00000000
_cell_angle_beta   90.00000000
_cell_angle_gamma   136.26289101
_symmetry_Int_Tables_number   1
_chemical_formula_structural   Tm3AlCo3
_chemical_formula_sum   'Tm6 Al2 Co6'
_cell_volume   254.68731383
_cell_formula_units_Z   2
loop_
 _symmetry_equiv_pos_site_id
 _symmetry_equiv_pos_as_xyz
  1  'x, y, z'
loop_
 _atom_site_type_symbol
 _atom_site_label
 _atom_site_symmetry_multiplicity
 _atom_site_fract_x
 _atom_site_fract_y
 _atom_site_fract_z
 _atom_site_occupancy
  Tm  Tm0  1  0.792960  0.207040  0.395292  1
  Tm  Tm1  1  0.207040  0.792960  0.604708  1
  Tm  Tm2  1  0.792960  0.207040  0.104708  1
  Tm  Tm3  1  0.207040  0.792960  0.895292  1
  Tm  Tm4  1  0.507028  0.492972  0.250000  1
  Tm  Tm5  1  0.492972  0.507028  0.750000  1
  Al  Al6  1  0.500000  0.500000  0.500000  1
  Al  Al7  1  0.500000  0.500000  0.000000  1
  Co  Co8  1  0.084037  0.915963  0.406481  1
  Co  Co9  1  0.915963  0.084037  0.593519  1
  Co  Co10  1  0.084037  0.915963  0.093519  1
  Co  Co11  1  0.915963  0.084037  0.906481  1
  Co  Co12  1  0.208093  0.791907  0.250000  1
  Co  Co13  1  0.791907  0.208093  0.750000  1
