# generated using pymatgen
data_Li4CaYb2TmSi8
_symmetry_space_group_name_H-M   'P 1'
_cell_length_a   3.79383500
_cell_length_b   7.83853165
_cell_length_c   10.44325203
_cell_angle_alpha   89.73497163
_cell_angle_beta   90.00000000
_cell_angle_gamma   90.00000000
_symmetry_Int_Tables_number   1
_chemical_formula_structural   Li4CaYb2TmSi8
_chemical_formula_sum   'Li4 Ca1 Yb2 Tm1 Si8'
_cell_volume   310.55910609
_cell_formula_units_Z   1
loop_
 _symmetry_equiv_pos_site_id
 _symmetry_equiv_pos_as_xyz
  1  'x, y, z'
loop_
 _atom_site_type_symbol
 _atom_site_label
 _atom_site_symmetry_multiplicity
 _atom_site_fract_x
 _atom_site_fract_y
 _atom_site_fract_z
 _atom_site_occupancy
  Li  Li0  1  0.250000  0.998916  0.392064  1
  Li  Li1  1  0.750000  0.006658  0.609996  1
  Li  Li2  1  0.250000  0.486916  0.109549  1
  Li  Li3  1  0.750000  0.504121  0.893851  1
  Ca  Ca4  1  0.750000  0.364441  0.362299  1
  Yb  Yb5  1  0.250000  0.132603  0.864486  1
  Yb  Yb6  1  0.250000  0.639756  0.634904  1
  Tm  Tm7  1  0.750000  0.869940  0.133606  1
  Si  Si8  1  0.750000  0.254002  0.066021  1
  Si  Si9  1  0.250000  0.734512  0.940044  1
  Si  Si10  1  0.750000  0.772069  0.425253  1
  Si  Si11  1  0.250000  0.238221  0.569243  1
  Si  Si12  1  0.750000  0.838079  0.829389  1
  Si  Si13  1  0.250000  0.150209  0.176272  1
  Si  Si14  1  0.750000  0.341188  0.678237  1
  Si  Si15  1  0.250000  0.668367  0.314784  1
