# generated using pymatgen
data_CeHo15(CoAg)4
_symmetry_space_group_name_H-M   'P 1'
_cell_length_a   9.42091362
_cell_length_b   9.42091345
_cell_length_c   9.42091391
_cell_angle_alpha   59.43109178
_cell_angle_beta   59.43109376
_cell_angle_gamma   59.43109344
_symmetry_Int_Tables_number   1
_chemical_formula_structural   CeHo15(CoAg)4
_chemical_formula_sum   'Ce1 Ho15 Co4 Ag4'
_cell_volume   583.58742286
_cell_formula_units_Z   1
loop_
 _symmetry_equiv_pos_site_id
 _symmetry_equiv_pos_as_xyz
  1  'x, y, z'
loop_
 _atom_site_type_symbol
 _atom_site_label
 _atom_site_symmetry_multiplicity
 _atom_site_fract_x
 _atom_site_fract_y
 _atom_site_fract_z
 _atom_site_occupancy
  Ce  Ce0  1  0.339598  0.339598  0.339598  1
  Ho  Ho1  1  0.349259  0.349259  0.951182  1
  Ho  Ho2  1  0.349259  0.951182  0.349259  1
  Ho  Ho3  1  0.951182  0.349259  0.349259  1
  Ho  Ho4  1  0.813219  0.189053  0.189053  1
  Ho  Ho5  1  0.188515  0.812580  0.812580  1
  Ho  Ho6  1  0.189053  0.813219  0.189053  1
  Ho  Ho7  1  0.812580  0.188515  0.812580  1
  Ho  Ho8  1  0.189053  0.189053  0.813219  1
  Ho  Ho9  1  0.812580  0.812580  0.188515  1
  Ho  Ho10  1  0.936561  0.562551  0.562551  1
  Ho  Ho11  1  0.562117  0.936172  0.936172  1
  Ho  Ho12  1  0.562551  0.936561  0.562551  1
  Ho  Ho13  1  0.936172  0.562117  0.936172  1
  Ho  Ho14  1  0.562551  0.562551  0.936561  1
  Ho  Ho15  1  0.936172  0.936172  0.562117  1
  Co  Co16  1  0.141912  0.141912  0.141912  1
  Co  Co17  1  0.149139  0.149139  0.569935  1
  Co  Co18  1  0.149139  0.569935  0.149139  1
  Co  Co19  1  0.569935  0.149139  0.149139  1
  Ag  Ag20  1  0.581067  0.581067  0.581067  1
  Ag  Ag21  1  0.581423  0.581423  0.255541  1
  Ag  Ag22  1  0.581423  0.255541  0.581423  1
  Ag  Ag23  1  0.255541  0.581423  0.581423  1
