# generated using pymatgen
data_Nd16MgHg3(RuPt)2
_symmetry_space_group_name_H-M   'P 1'
_cell_length_a   9.92369868
_cell_length_b   9.96250616
_cell_length_c   9.92369806
_cell_angle_alpha   60.05606018
_cell_angle_beta   60.13988143
_cell_angle_gamma   60.05606054
_symmetry_Int_Tables_number   1
_chemical_formula_structural   Nd16MgHg3(RuPt)2
_chemical_formula_sum   'Nd16 Mg1 Hg3 Ru2 Pt2'
_cell_volume   695.06591028
_cell_formula_units_Z   1
loop_
 _symmetry_equiv_pos_site_id
 _symmetry_equiv_pos_as_xyz
  1  'x, y, z'
loop_
 _atom_site_type_symbol
 _atom_site_label
 _atom_site_symmetry_multiplicity
 _atom_site_fract_x
 _atom_site_fract_y
 _atom_site_fract_z
 _atom_site_occupancy
  Nd  Nd0  1  0.557779  0.557662  0.936307  1
  Nd  Nd1  1  0.187481  0.811850  0.187481  1
  Nd  Nd2  1  0.811288  0.809702  0.191101  1
  Nd  Nd3  1  0.190034  0.184306  0.813187  1
  Nd  Nd4  1  0.401442  0.801653  0.401442  1
  Nd  Nd5  1  0.811009  0.188815  0.811009  1
  Nd  Nd6  1  0.933918  0.943905  0.561925  1
  Nd  Nd7  1  0.813187  0.184306  0.190034  1
  Nd  Nd8  1  0.941578  0.558506  0.941578  1
  Nd  Nd9  1  0.793603  0.400772  0.405755  1
  Nd  Nd10  1  0.561925  0.943905  0.933918  1
  Nd  Nd11  1  0.191101  0.809702  0.811288  1
  Nd  Nd12  1  0.559030  0.940105  0.559030  1
  Nd  Nd13  1  0.400626  0.393063  0.400626  1
  Nd  Nd14  1  0.936307  0.557662  0.557779  1
  Nd  Nd15  1  0.405755  0.400772  0.793603  1
  Mg  Mg16  1  0.179825  0.181187  0.179825  1
  Hg  Hg17  1  0.163253  0.504840  0.163253  1
  Hg  Hg18  1  0.162684  0.163792  0.505551  1
  Hg  Hg19  1  0.505551  0.163792  0.162684  1
  Ru  Ru20  1  0.606421  0.611406  0.606421  1
  Ru  Ru21  1  0.606363  0.172003  0.606363  1
  Pt  Pt22  1  0.176574  0.608146  0.603267  1
  Pt  Pt23  1  0.603267  0.608146  0.176574  1
