# generated using pymatgen
data_DyBi5(TeO6)3
_symmetry_space_group_name_H-M   'P 1'
_cell_length_a   9.37789500
_cell_length_b   9.31908003
_cell_length_c   5.44741453
_cell_angle_alpha   90.67115771
_cell_angle_beta   90.00000000
_cell_angle_gamma   120.20899118
_symmetry_Int_Tables_number   1
_chemical_formula_structural   DyBi5(TeO6)3
_chemical_formula_sum   'Dy1 Bi5 Te3 O18'
_cell_volume   411.37804733
_cell_formula_units_Z   1
loop_
 _symmetry_equiv_pos_site_id
 _symmetry_equiv_pos_as_xyz
  1  'x, y, z'
loop_
 _atom_site_type_symbol
 _atom_site_label
 _atom_site_symmetry_multiplicity
 _atom_site_fract_x
 _atom_site_fract_y
 _atom_site_fract_z
 _atom_site_occupancy
  Dy  Dy0  1  0.621779  0.000000  0.000000  1
  Bi  Bi1  1  0.998164  0.624799  0.993970  1
  Bi  Bi2  1  0.999886  0.286959  0.500855  1
  Bi  Bi3  1  0.373364  0.375201  0.006030  1
  Bi  Bi4  1  0.284754  0.000000  0.500000  1
  Bi  Bi5  1  0.712927  0.713041  0.499145  1
  Te  Te6  1  0.338571  0.672774  0.489274  1
  Te  Te7  1  0.996506  0.000000  0.000000  1
  Te  Te8  1  0.665798  0.327226  0.510726  1
  O  O9  1  0.071873  0.874711  0.796218  1
  O  O10  1  0.233511  0.763293  0.278866  1
  O  O11  1  0.143086  0.552487  0.695280  1
  O  O12  1  0.416364  0.870766  0.704274  1
  O  O13  1  0.240745  0.470013  0.280076  1
  O  O14  1  0.122388  0.197069  0.799615  1
  O  O15  1  0.197164  0.125289  0.203782  1
  O  O16  1  0.533645  0.778915  0.277600  1
  O  O17  1  0.458399  0.596670  0.692182  1
  O  O18  1  0.797043  0.921937  0.802418  1
  O  O19  1  0.470218  0.236707  0.721134  1
  O  O20  1  0.590599  0.447513  0.304720  1
  O  O21  1  0.545598  0.129234  0.295726  1
  O  O22  1  0.770732  0.529987  0.719924  1
  O  O23  1  0.925320  0.802931  0.200385  1
  O  O24  1  0.754730  0.221085  0.722400  1
  O  O25  1  0.861729  0.403330  0.307818  1
  O  O26  1  0.875107  0.078063  0.197582  1
