# generated using pymatgen
data_Rb2Nb6SnCl18
_symmetry_space_group_name_H-M   'P 1'
_cell_length_a   10.45130727
_cell_length_b   10.45130766
_cell_length_c   10.45130705
_cell_angle_alpha   54.78583602
_cell_angle_beta   54.78583359
_cell_angle_gamma   54.78583569
_symmetry_Int_Tables_number   1
_chemical_formula_structural   Rb2Nb6SnCl18
_chemical_formula_sum   'Rb2 Nb6 Sn1 Cl18'
_cell_volume   709.21288183
_cell_formula_units_Z   1
loop_
 _symmetry_equiv_pos_site_id
 _symmetry_equiv_pos_as_xyz
  1  'x, y, z'
loop_
 _atom_site_type_symbol
 _atom_site_label
 _atom_site_symmetry_multiplicity
 _atom_site_fract_x
 _atom_site_fract_y
 _atom_site_fract_z
 _atom_site_occupancy
  Rb  Rb0  1  0.723046  0.723046  0.723046  1
  Rb  Rb1  1  0.276954  0.276954  0.276954  1
  Nb  Nb2  1  0.581171  0.352941  0.701333  1
  Nb  Nb3  1  0.352941  0.701333  0.581171  1
  Nb  Nb4  1  0.701333  0.581171  0.352941  1
  Nb  Nb5  1  0.647059  0.298667  0.418829  1
  Nb  Nb6  1  0.418829  0.647059  0.298667  1
  Nb  Nb7  1  0.298667  0.418829  0.647059  1
  Sn  Sn8  1  0.000000  0.000000  0.000000  1
  Cl  Cl9  1  0.908809  0.358704  0.232002  1
  Cl  Cl10  1  0.832384  0.422695  0.564840  1
  Cl  Cl11  1  0.767998  0.091191  0.641296  1
  Cl  Cl12  1  0.091191  0.641296  0.767998  1
  Cl  Cl13  1  0.679612  0.171286  0.960471  1
  Cl  Cl14  1  0.232002  0.908809  0.358704  1
  Cl  Cl15  1  0.435160  0.167616  0.577305  1
  Cl  Cl16  1  0.641296  0.767998  0.091191  1
  Cl  Cl17  1  0.577305  0.435160  0.167616  1
  Cl  Cl18  1  0.039529  0.320388  0.828714  1
  Cl  Cl19  1  0.564840  0.832384  0.422695  1
  Cl  Cl20  1  0.358704  0.232002  0.908809  1
  Cl  Cl21  1  0.960471  0.679612  0.171286  1
  Cl  Cl22  1  0.167616  0.577305  0.435160  1
  Cl  Cl23  1  0.828714  0.039529  0.320388  1
  Cl  Cl24  1  0.422695  0.564840  0.832384  1
  Cl  Cl25  1  0.171286  0.960471  0.679612  1
  Cl  Cl26  1  0.320388  0.828714  0.039529  1
