# generated using pymatgen
data_ThPa2(Ni3P2)3
_symmetry_space_group_name_H-M   'P 1'
_cell_length_a   3.85616000
_cell_length_b   10.46064100
_cell_length_c   12.45637900
_cell_angle_alpha   90.00000000
_cell_angle_beta   90.00000000
_cell_angle_gamma   90.00000000
_symmetry_Int_Tables_number   1
_chemical_formula_structural   ThPa2(Ni3P2)3
_chemical_formula_sum   'Th2 Pa4 Ni18 P12'
_cell_volume   502.46423771
_cell_formula_units_Z   2
loop_
 _symmetry_equiv_pos_site_id
 _symmetry_equiv_pos_as_xyz
  1  'x, y, z'
loop_
 _atom_site_type_symbol
 _atom_site_label
 _atom_site_symmetry_multiplicity
 _atom_site_fract_x
 _atom_site_fract_y
 _atom_site_fract_z
 _atom_site_occupancy
  Th  Th0  1  0.751936  0.000000  0.481491  1
  Th  Th1  1  0.251936  0.500000  0.518509  1
  Pa  Pa2  1  0.251883  0.685945  0.795750  1
  Pa  Pa3  1  0.251883  0.314055  0.795750  1
  Pa  Pa4  1  0.751883  0.814055  0.204250  1
  Pa  Pa5  1  0.751883  0.185945  0.204250  1
  Ni  Ni6  1  0.752058  0.000000  0.021461  1
  Ni  Ni7  1  0.252058  0.500000  0.978539  1
  Ni  Ni8  1  0.251905  0.196284  0.575754  1
  Ni  Ni9  1  0.251905  0.803716  0.575754  1
  Ni  Ni10  1  0.751905  0.303716  0.424246  1
  Ni  Ni11  1  0.751905  0.696284  0.424246  1
  Ni  Ni12  1  0.251794  0.621712  0.287917  1
  Ni  Ni13  1  0.251794  0.378288  0.287917  1
  Ni  Ni14  1  0.751794  0.878288  0.712083  1
  Ni  Ni15  1  0.751794  0.121712  0.712083  1
  Ni  Ni16  1  0.251919  0.170200  0.003779  1
  Ni  Ni17  1  0.251919  0.829800  0.003779  1
  Ni  Ni18  1  0.751919  0.329800  0.996221  1
  Ni  Ni19  1  0.751919  0.670200  0.996221  1
  Ni  Ni20  1  0.250707  0.000000  0.847414  1
  Ni  Ni21  1  0.750707  0.500000  0.152586  1
  Ni  Ni22  1  0.251930  0.000000  0.298282  1
  Ni  Ni23  1  0.751930  0.500000  0.701718  1
  P  P24  1  0.251930  0.191451  0.386347  1
  P  P25  1  0.251930  0.808549  0.386347  1
  P  P26  1  0.751930  0.308549  0.613653  1
  P  P27  1  0.751930  0.691451  0.613653  1
  P  P28  1  0.251951  0.000000  0.120993  1
  P  P29  1  0.751951  0.500000  0.879007  1
  P  P30  1  0.251755  0.649043  0.104534  1
  P  P31  1  0.251755  0.350957  0.104534  1
  P  P32  1  0.751755  0.850957  0.895466  1
  P  P33  1  0.751755  0.149043  0.895466  1
  P  P34  1  0.251850  0.000000  0.667412  1
  P  P35  1  0.751850  0.500000  0.332588  1
