# generated using pymatgen
data_PrTa9Se16
_symmetry_space_group_name_H-M   'P 1'
_cell_length_a   6.99745300
_cell_length_b   6.99745233
_cell_length_c   13.91112200
_cell_angle_alpha   90.00000000
_cell_angle_beta   90.00000000
_cell_angle_gamma   120.00000788
_symmetry_Int_Tables_number   1
_chemical_formula_structural   PrTa9Se16
_chemical_formula_sum   'Pr1 Ta9 Se16'
_cell_volume   589.89225665
_cell_formula_units_Z   1
loop_
 _symmetry_equiv_pos_site_id
 _symmetry_equiv_pos_as_xyz
  1  'x, y, z'
loop_
 _atom_site_type_symbol
 _atom_site_label
 _atom_site_symmetry_multiplicity
 _atom_site_fract_x
 _atom_site_fract_y
 _atom_site_fract_z
 _atom_site_occupancy
  Pr  Pr0  1  0.000000  0.000000  0.500000  1
  Ta  Ta1  1  0.507844  0.492156  0.767193  1
  Ta  Ta2  1  0.015687  0.507844  0.232807  1
  Ta  Ta3  1  0.492156  0.984313  0.232807  1
  Ta  Ta4  1  0.507844  0.015687  0.767193  1
  Ta  Ta5  1  0.984313  0.492156  0.767193  1
  Ta  Ta6  1  0.492156  0.507844  0.232807  1
  Ta  Ta7  1  0.000000  0.000000  0.765332  1
  Ta  Ta8  1  0.000000  0.000000  0.234668  1
  Ta  Ta9  1  0.000000  0.000000  0.000000  1
  Se  Se10  1  0.828500  0.171500  0.351805  1
  Se  Se11  1  0.828500  0.657002  0.351805  1
  Se  Se12  1  0.342998  0.171500  0.351805  1
  Se  Se13  1  0.662718  0.831360  0.885515  1
  Se  Se14  1  0.171500  0.342998  0.648195  1
  Se  Se15  1  0.168640  0.831360  0.885515  1
  Se  Se16  1  0.168640  0.337282  0.885515  1
  Se  Se17  1  0.831360  0.168640  0.114485  1
  Se  Se18  1  0.337282  0.168640  0.114485  1
  Se  Se19  1  0.657002  0.828500  0.648195  1
  Se  Se20  1  0.333333  0.666667  0.108652  1
  Se  Se21  1  0.666667  0.333333  0.641590  1
  Se  Se22  1  0.666667  0.333333  0.891348  1
  Se  Se23  1  0.333333  0.666667  0.358410  1
  Se  Se24  1  0.831360  0.662718  0.114485  1
  Se  Se25  1  0.171500  0.828500  0.648195  1
