# generated using pymatgen
data_Pr2Ho3(LuS4)3
_symmetry_space_group_name_H-M   'P 1'
_cell_length_a   3.94552400
_cell_length_b   10.97844934
_cell_length_c   11.24942500
_cell_angle_alpha   71.27200504
_cell_angle_beta   90.00000000
_cell_angle_gamma   90.00000000
_symmetry_Int_Tables_number   1
_chemical_formula_structural   Pr2Ho3(LuS4)3
_chemical_formula_sum   'Pr2 Ho3 Lu3 S12'
_cell_volume   461.47750403
_cell_formula_units_Z   1
loop_
 _symmetry_equiv_pos_site_id
 _symmetry_equiv_pos_as_xyz
  1  'x, y, z'
loop_
 _atom_site_type_symbol
 _atom_site_label
 _atom_site_symmetry_multiplicity
 _atom_site_fract_x
 _atom_site_fract_y
 _atom_site_fract_z
 _atom_site_occupancy
  Pr  Pr0  1  0.750000  0.549902  0.803440  1
  Pr  Pr1  1  0.250000  0.448898  0.197319  1
  Ho  Ho2  1  0.750000  0.179883  0.998578  1
  Ho  Ho3  1  0.250000  0.819512  0.003291  1
  Ho  Ho4  1  0.750000  0.943247  0.665327  1
  Lu  Lu5  1  0.250000  0.057735  0.333444  1
  Lu  Lu6  1  0.750000  0.660072  0.413603  1
  Lu  Lu7  1  0.250000  0.340720  0.586094  1
  S  S8  1  0.750000  0.979556  0.887925  1
  S  S9  1  0.250000  0.020313  0.115060  1
  S  S10  1  0.750000  0.303372  0.745861  1
  S  S11  1  0.250000  0.695784  0.254383  1
  S  S12  1  0.750000  0.894143  0.438706  1
  S  S13  1  0.250000  0.109583  0.554537  1
  S  S14  1  0.750000  0.418484  0.408472  1
  S  S15  1  0.250000  0.582065  0.591378  1
  S  S16  1  0.750000  0.231657  0.230946  1
  S  S17  1  0.250000  0.765721  0.770895  1
  S  S18  1  0.750000  0.618561  0.036991  1
  S  S19  1  0.250000  0.380794  0.963750  1
