# generated using pymatgen
data_DyErB6Os
_symmetry_space_group_name_H-M   'P 1'
_cell_length_a   3.64319200
_cell_length_b   9.12610100
_cell_length_c   11.51389500
_cell_angle_alpha   90.00000000
_cell_angle_beta   90.00000000
_cell_angle_gamma   90.00000000
_symmetry_Int_Tables_number   1
_chemical_formula_structural   DyErB6Os
_chemical_formula_sum   'Dy4 Er4 B24 Os4'
_cell_volume   382.81557166
_cell_formula_units_Z   4
loop_
 _symmetry_equiv_pos_site_id
 _symmetry_equiv_pos_as_xyz
  1  'x, y, z'
loop_
 _atom_site_type_symbol
 _atom_site_label
 _atom_site_symmetry_multiplicity
 _atom_site_fract_x
 _atom_site_fract_y
 _atom_site_fract_z
 _atom_site_occupancy
  Dy  Dy0  1  0.000000  0.322277  0.413800  1
  Dy  Dy1  1  0.000000  0.677723  0.586200  1
  Dy  Dy2  1  0.000000  0.822277  0.086200  1
  Dy  Dy3  1  0.000000  0.177723  0.913800  1
  Er  Er4  1  0.000000  0.944394  0.373138  1
  Er  Er5  1  0.000000  0.055606  0.626862  1
  Er  Er6  1  0.000000  0.444394  0.126862  1
  Er  Er7  1  0.000000  0.555606  0.873138  1
  B  B8  1  0.500000  0.554123  0.432981  1
  B  B9  1  0.500000  0.445877  0.567019  1
  B  B10  1  0.500000  0.054123  0.067019  1
  B  B11  1  0.500000  0.945877  0.932981  1
  B  B12  1  0.500000  0.748657  0.419974  1
  B  B13  1  0.500000  0.251343  0.580026  1
  B  B14  1  0.500000  0.248657  0.080026  1
  B  B15  1  0.500000  0.751343  0.919974  1
  B  B16  1  0.500000  0.791693  0.266708  1
  B  B17  1  0.500000  0.208307  0.733292  1
  B  B18  1  0.500000  0.291693  0.233292  1
  B  B19  1  0.500000  0.708307  0.766708  1
  B  B20  1  0.500000  0.631923  0.185275  1
  B  B21  1  0.500000  0.368077  0.814725  1
  B  B22  1  0.500000  0.131923  0.314725  1
  B  B23  1  0.500000  0.868077  0.685275  1
  B  B24  1  0.500000  0.983447  0.213327  1
  B  B25  1  0.500000  0.016553  0.786673  1
  B  B26  1  0.500000  0.483447  0.286673  1
  B  B27  1  0.500000  0.516553  0.713327  1
  B  B28  1  0.500000  0.607079  0.029673  1
  B  B29  1  0.500000  0.392921  0.970327  1
  B  B30  1  0.500000  0.107079  0.470327  1
  B  B31  1  0.500000  0.892921  0.529673  1
  Os  Os32  1  0.000000  0.638028  0.321148  1
  Os  Os33  1  0.000000  0.361972  0.678852  1
  Os  Os34  1  0.000000  0.138028  0.178852  1
  Os  Os35  1  0.000000  0.861972  0.821148  1
