# generated using pymatgen
data_Er8Ti9Re2Si16Ir
_symmetry_space_group_name_H-M   'P 1'
_cell_length_a   6.95253446
_cell_length_b   6.95253437
_cell_length_c   12.73787484
_cell_angle_alpha   90.18268801
_cell_angle_beta   89.81731311
_cell_angle_gamma   89.72377915
_symmetry_Int_Tables_number   1
_chemical_formula_structural   Er8Ti9Re2Si16Ir
_chemical_formula_sum   'Er8 Ti9 Re2 Si16 Ir1'
_cell_volume   615.70657085
_cell_formula_units_Z   1
loop_
 _symmetry_equiv_pos_site_id
 _symmetry_equiv_pos_as_xyz
  1  'x, y, z'
loop_
 _atom_site_type_symbol
 _atom_site_label
 _atom_site_symmetry_multiplicity
 _atom_site_fract_x
 _atom_site_fract_y
 _atom_site_fract_z
 _atom_site_occupancy
  Er  Er0  1  0.340488  0.001960  0.467749  1
  Er  Er1  1  0.497916  0.841723  0.719702  1
  Er  Er2  1  0.500741  0.157376  0.217430  1
  Er  Er3  1  0.841723  0.497916  0.280298  1
  Er  Er4  1  0.157376  0.500741  0.782570  1
  Er  Er5  1  0.659069  0.998189  0.969391  1
  Er  Er6  1  0.001960  0.340488  0.532251  1
  Er  Er7  1  0.998189  0.659069  0.030609  1
  Ti  Ti8  1  0.673484  0.673484  0.500000  1
  Ti  Ti9  1  0.148282  0.001237  0.876087  1
  Ti  Ti10  1  0.494094  0.657345  0.125796  1
  Ti  Ti11  1  0.504781  0.349526  0.628792  1
  Ti  Ti12  1  0.657345  0.494094  0.874204  1
  Ti  Ti13  1  0.349526  0.504781  0.371208  1
  Ti  Ti14  1  0.849483  0.992881  0.374528  1
  Ti  Ti15  1  0.001237  0.148282  0.123913  1
  Ti  Ti16  1  0.992881  0.849483  0.625472  1
  Re  Re17  1  0.175015  0.827872  0.247745  1
  Re  Re18  1  0.827872  0.175015  0.752255  1
  Si  Si19  1  0.199616  0.131497  0.684105  1
  Si  Si20  1  0.371897  0.701365  0.932569  1
  Si  Si21  1  0.632047  0.297012  0.434292  1
  Si  Si22  1  0.701365  0.371897  0.067431  1
  Si  Si23  1  0.297012  0.632047  0.565708  1
  Si  Si24  1  0.798507  0.867702  0.182807  1
  Si  Si25  1  0.131497  0.199616  0.315895  1
  Si  Si26  1  0.867702  0.798507  0.817193  1
  Si  Si27  1  0.289193  0.950566  0.064955  1
  Si  Si28  1  0.546665  0.792275  0.316621  1
  Si  Si29  1  0.450263  0.209985  0.817812  1
  Si  Si30  1  0.792275  0.546665  0.683379  1
  Si  Si31  1  0.209985  0.450263  0.182188  1
  Si  Si32  1  0.707251  0.049550  0.567579  1
  Si  Si33  1  0.950566  0.289193  0.935045  1
  Si  Si34  1  0.049550  0.707251  0.432421  1
  Ir  Ir35  1  0.333150  0.333150  0.000000  1
