# generated using pymatgen
data_Er8Tm8MgCd3Ir4
_symmetry_space_group_name_H-M   'P 1'
_cell_length_a   9.58391583
_cell_length_b   9.58391512
_cell_length_c   9.58634912
_cell_angle_alpha   59.52674759
_cell_angle_beta   59.52674970
_cell_angle_gamma   59.55794978
_symmetry_Int_Tables_number   1
_chemical_formula_structural   Er8Tm8MgCd3Ir4
_chemical_formula_sum   'Er8 Tm8 Mg1 Cd3 Ir4'
_cell_volume   616.06896020
_cell_formula_units_Z   1
loop_
 _symmetry_equiv_pos_site_id
 _symmetry_equiv_pos_as_xyz
  1  'x, y, z'
loop_
 _atom_site_type_symbol
 _atom_site_label
 _atom_site_symmetry_multiplicity
 _atom_site_fract_x
 _atom_site_fract_y
 _atom_site_fract_z
 _atom_site_occupancy
  Er  Er0  1  0.439703  0.439703  0.060046  1
  Er  Er1  1  0.061541  0.061541  0.436579  1
  Er  Er2  1  0.189171  0.812409  0.812357  1
  Er  Er3  1  0.812024  0.187557  0.187517  1
  Er  Er4  1  0.812409  0.189171  0.812357  1
  Er  Er5  1  0.187557  0.812024  0.187517  1
  Er  Er6  1  0.812386  0.812386  0.189139  1
  Er  Er7  1  0.187561  0.187561  0.812046  1
  Tm  Tm8  1  0.600180  0.600180  0.600030  1
  Tm  Tm9  1  0.598397  0.598397  0.206534  1
  Tm  Tm10  1  0.598245  0.206518  0.598427  1
  Tm  Tm11  1  0.206518  0.598245  0.598427  1
  Tm  Tm12  1  0.059794  0.439891  0.439894  1
  Tm  Tm13  1  0.436706  0.061404  0.061342  1
  Tm  Tm14  1  0.439891  0.059794  0.439894  1
  Tm  Tm15  1  0.061404  0.436706  0.061342  1
  Mg  Mg16  1  0.824864  0.824864  0.825194  1
  Cd  Cd17  1  0.831312  0.831312  0.504932  1
  Cd  Cd18  1  0.831418  0.504902  0.831294  1
  Cd  Cd19  1  0.504902  0.831418  0.831294  1
  Ir  Ir20  1  0.391924  0.391924  0.392384  1
  Ir  Ir21  1  0.393202  0.393202  0.825107  1
  Ir  Ir22  1  0.393766  0.825124  0.393174  1
  Ir  Ir23  1  0.825124  0.393766  0.393174  1
