# generated using pymatgen
data_Y15Er5Cd3Ru2Au3
_symmetry_space_group_name_H-M   'P 1'
_cell_length_a   9.59255500
_cell_length_b   9.59255361
_cell_length_c   9.65525100
_cell_angle_alpha   90.00000000
_cell_angle_beta   90.00000000
_cell_angle_gamma   120.00000135
_symmetry_Int_Tables_number   1
_chemical_formula_structural   Y15Er5Cd3Ru2Au3
_chemical_formula_sum   'Y15 Er5 Cd3 Ru2 Au3'
_cell_volume   769.41868193
_cell_formula_units_Z   1
loop_
 _symmetry_equiv_pos_site_id
 _symmetry_equiv_pos_as_xyz
  1  'x, y, z'
loop_
 _atom_site_type_symbol
 _atom_site_label
 _atom_site_symmetry_multiplicity
 _atom_site_fract_x
 _atom_site_fract_y
 _atom_site_fract_z
 _atom_site_occupancy
  Y  Y0  1  0.209017  0.790983  0.440277  1
  Y  Y1  1  0.209017  0.418034  0.440277  1
  Y  Y2  1  0.581966  0.790983  0.440277  1
  Y  Y3  1  0.791985  0.208015  0.557773  1
  Y  Y4  1  0.791985  0.583967  0.557773  1
  Y  Y5  1  0.416033  0.208015  0.557773  1
  Y  Y6  1  0.791985  0.208015  0.942227  1
  Y  Y7  1  0.791985  0.583967  0.942227  1
  Y  Y8  1  0.416033  0.208015  0.942227  1
  Y  Y9  1  0.209017  0.790983  0.059723  1
  Y  Y10  1  0.209017  0.418034  0.059723  1
  Y  Y11  1  0.581966  0.790983  0.059723  1
  Y  Y12  1  0.458703  0.541297  0.750000  1
  Y  Y13  1  0.458703  0.917406  0.750000  1
  Y  Y14  1  0.082594  0.541297  0.750000  1
  Er  Er15  1  0.000000  0.000000  0.458083  1
  Er  Er16  1  0.000000  0.000000  0.041917  1
  Er  Er17  1  0.540616  0.459384  0.250000  1
  Er  Er18  1  0.540616  0.081231  0.250000  1
  Er  Er19  1  0.918769  0.459384  0.250000  1
  Cd  Cd20  1  0.109427  0.890573  0.750000  1
  Cd  Cd21  1  0.109427  0.218854  0.750000  1
  Cd  Cd22  1  0.781146  0.890573  0.750000  1
  Ru  Ru23  1  0.333333  0.666667  0.250000  1
  Ru  Ru24  1  0.666667  0.333333  0.750000  1
  Au  Au25  1  0.869139  0.130861  0.250000  1
  Au  Au26  1  0.869139  0.738278  0.250000  1
  Au  Au27  1  0.261722  0.130861  0.250000  1
