# generated using pymatgen
data_Tb19YCoBi8Ru3
_symmetry_space_group_name_H-M   'P 1'
_cell_length_a   8.04429541
_cell_length_b   9.01298600
_cell_length_c   12.52084615
_cell_angle_alpha   90.00000000
_cell_angle_beta   90.23249834
_cell_angle_gamma   90.00000000
_symmetry_Int_Tables_number   1
_chemical_formula_structural   Tb19YCoBi8Ru3
_chemical_formula_sum   'Tb19 Y1 Co1 Bi8 Ru3'
_cell_volume   907.79296136
_cell_formula_units_Z   1
loop_
 _symmetry_equiv_pos_site_id
 _symmetry_equiv_pos_as_xyz
  1  'x, y, z'
loop_
 _atom_site_type_symbol
 _atom_site_label
 _atom_site_symmetry_multiplicity
 _atom_site_fract_x
 _atom_site_fract_y
 _atom_site_fract_z
 _atom_site_occupancy
  Tb  Tb0  1  0.155477  0.250000  0.205105  1
  Tb  Tb1  1  0.344381  0.250000  0.706237  1
  Tb  Tb2  1  0.654680  0.750000  0.294947  1
  Tb  Tb3  1  0.377089  0.750000  0.694299  1
  Tb  Tb4  1  0.621725  0.250000  0.306406  1
  Tb  Tb5  1  0.877337  0.250000  0.807515  1
  Tb  Tb6  1  0.120206  0.750000  0.189239  1
  Tb  Tb7  1  0.945901  0.750000  0.504587  1
  Tb  Tb8  1  0.053633  0.250000  0.495939  1
  Tb  Tb9  1  0.449285  0.250000  0.996598  1
  Tb  Tb10  1  0.550579  0.750000  0.003590  1
  Tb  Tb11  1  0.676328  0.040758  0.564222  1
  Tb  Tb12  1  0.323236  0.958288  0.435776  1
  Tb  Tb13  1  0.176966  0.957935  0.935738  1
  Tb  Tb14  1  0.323236  0.541712  0.435776  1
  Tb  Tb15  1  0.824451  0.035624  0.062703  1
  Tb  Tb16  1  0.676328  0.459242  0.564222  1
  Tb  Tb17  1  0.824451  0.464376  0.062703  1
  Tb  Tb18  1  0.176966  0.542065  0.935738  1
  Y  Y19  1  0.845401  0.750000  0.799219  1
  Co  Co20  1  0.932581  0.750000  0.010120  1
  Bi  Bi21  1  0.572276  0.492682  0.827635  1
  Bi  Bi22  1  0.428684  0.507751  0.172252  1
  Bi  Bi23  1  0.070190  0.507907  0.673468  1
  Bi  Bi24  1  0.428684  0.992249  0.172252  1
  Bi  Bi25  1  0.928951  0.492833  0.326487  1
  Bi  Bi26  1  0.572276  0.007318  0.827635  1
  Bi  Bi27  1  0.928951  0.007167  0.326487  1
  Bi  Bi28  1  0.070190  0.992093  0.673468  1
  Ru  Ru29  1  0.572889  0.750000  0.511818  1
  Ru  Ru30  1  0.425566  0.250000  0.488553  1
  Ru  Ru31  1  0.071106  0.250000  0.989266  1
