# generated using pymatgen
data_Ti10Al2Bi3Sb
_symmetry_space_group_name_H-M   'P 1'
_cell_length_a   7.99441366
_cell_length_b   7.99444877
_cell_length_c   7.97845451
_cell_angle_alpha   96.26320217
_cell_angle_beta   96.27621318
_cell_angle_gamma   141.44422015
_symmetry_Int_Tables_number   1
_chemical_formula_structural   Ti10Al2Bi3Sb
_chemical_formula_sum   'Ti10 Al2 Bi3 Sb1'
_cell_volume   299.92400979
_cell_formula_units_Z   1
loop_
 _symmetry_equiv_pos_site_id
 _symmetry_equiv_pos_as_xyz
  1  'x, y, z'
loop_
 _atom_site_type_symbol
 _atom_site_label
 _atom_site_symmetry_multiplicity
 _atom_site_fract_x
 _atom_site_fract_y
 _atom_site_fract_z
 _atom_site_occupancy
  Ti  Ti0  1  0.568793  0.717684  0.286512  1
  Ti  Ti1  1  0.427999  0.285759  0.713767  1
  Ti  Ti2  1  0.744621  0.244667  0.492486  1
  Ti  Ti3  1  0.247829  0.747865  0.492500  1
  Ti  Ti4  1  0.716697  0.425701  0.142402  1
  Ti  Ti5  1  0.287768  0.575982  0.863720  1
  Ti  Ti6  1  0.925693  0.216748  0.142445  1
  Ti  Ti7  1  0.217712  0.068802  0.286525  1
  Ti  Ti8  1  0.075939  0.787813  0.863717  1
  Ti  Ti9  1  0.785768  0.927948  0.713747  1
  Al  Al10  1  0.750803  0.750677  0.001457  1
  Al  Al11  1  0.250777  0.250654  0.001455  1
  Bi  Bi12  1  0.166029  0.335266  0.501321  1
  Bi  Bi13  1  0.663384  0.163460  0.826792  1
  Bi  Bi14  1  0.835318  0.666030  0.501335  1
  Sb  Sb15  1  0.334869  0.834946  0.169821  1
