# generated using pymatgen
data_Hf3Al2RuC
_symmetry_space_group_name_H-M   'P 1'
_cell_length_a   8.58208820
_cell_length_b   8.58182932
_cell_length_c   8.58244302
_cell_angle_alpha   60.00004074
_cell_angle_beta   60.00045531
_cell_angle_gamma   59.99823601
_symmetry_Int_Tables_number   1
_chemical_formula_structural   Hf3Al2RuC
_chemical_formula_sum   'Hf12 Al8 Ru4 C4'
_cell_volume   446.95583899
_cell_formula_units_Z   4
loop_
 _symmetry_equiv_pos_site_id
 _symmetry_equiv_pos_as_xyz
  1  'x, y, z'
loop_
 _atom_site_type_symbol
 _atom_site_label
 _atom_site_symmetry_multiplicity
 _atom_site_fract_x
 _atom_site_fract_y
 _atom_site_fract_z
 _atom_site_occupancy
  Hf  Hf0  1  0.556785  0.943225  0.556769  1
  Hf  Hf1  1  0.306811  0.693173  0.693206  1
  Hf  Hf2  1  0.693214  0.306792  0.306775  1
  Hf  Hf3  1  0.306769  0.693223  0.306751  1
  Hf  Hf4  1  0.693250  0.693216  0.306757  1
  Hf  Hf5  1  0.306799  0.306800  0.693212  1
  Hf  Hf6  1  0.556750  0.556784  0.943244  1
  Hf  Hf7  1  0.943188  0.556829  0.556795  1
  Hf  Hf8  1  0.556787  0.943208  0.943223  1
  Hf  Hf9  1  0.943198  0.943201  0.556788  1
  Hf  Hf10  1  0.693216  0.306776  0.693229  1
  Hf  Hf11  1  0.943234  0.556776  0.943250  1
  Al  Al12  1  0.918324  0.918328  0.918269  1
  Al  Al13  1  0.004920  0.331663  0.331734  1
  Al  Al14  1  0.331701  0.004875  0.331726  1
  Al  Al15  1  0.331712  0.331689  0.004899  1
  Al  Al16  1  0.918300  0.245124  0.918273  1
  Al  Al17  1  0.918288  0.918311  0.245101  1
  Al  Al18  1  0.245080  0.918337  0.918267  1
  Al  Al19  1  0.331676  0.331672  0.331732  1
  Ru  Ru20  1  0.125000  0.125000  0.125001  1
  Ru  Ru21  1  0.625000  0.125000  0.125000  1
  Ru  Ru22  1  0.125000  0.625000  0.125001  1
  Ru  Ru23  1  0.125000  0.124999  0.625000  1
  C  C24  1  0.625000  0.625000  0.625000  1
  C  C25  1  0.125000  0.625000  0.625001  1
  C  C26  1  0.625001  0.124999  0.625000  1
  C  C27  1  0.624999  0.625001  0.124999  1
