# generated using pymatgen
data_Li8Mn9Cr6NiO32
_symmetry_space_group_name_H-M   'P 1'
_cell_length_a   8.32987939
_cell_length_b   8.32988548
_cell_length_c   8.32988848
_cell_angle_alpha   90.07057274
_cell_angle_beta   90.07071971
_cell_angle_gamma   90.07086559
_symmetry_Int_Tables_number   1
_chemical_formula_structural   Li8Mn9Cr6NiO32
_chemical_formula_sum   'Li8 Mn9 Cr6 Ni1 O32'
_cell_volume   577.98416223
_cell_formula_units_Z   1
loop_
 _symmetry_equiv_pos_site_id
 _symmetry_equiv_pos_as_xyz
  1  'x, y, z'
loop_
 _atom_site_type_symbol
 _atom_site_label
 _atom_site_symmetry_multiplicity
 _atom_site_fract_x
 _atom_site_fract_y
 _atom_site_fract_z
 _atom_site_occupancy
  Li  Li0  1  0.123476  0.125565  0.627353  1
  Li  Li1  1  0.876524  0.372647  0.874434  1
  Li  Li2  1  0.874434  0.876524  0.372647  1
  Li  Li3  1  0.627353  0.123476  0.125566  1
  Li  Li4  1  0.622856  0.622856  0.622856  1
  Li  Li5  1  0.377144  0.377144  0.377144  1
  Li  Li6  1  0.372647  0.874434  0.876523  1
  Li  Li7  1  0.125565  0.627353  0.123476  1
  Mn  Mn8  1  0.004223  0.251712  0.251030  1
  Mn  Mn9  1  0.000000  0.500501  0.499499  1
  Mn  Mn10  1  0.995777  0.748971  0.748288  1
  Mn  Mn11  1  0.748971  0.748288  0.995777  1
  Mn  Mn12  1  0.748289  0.995777  0.748970  1
  Mn  Mn13  1  0.500501  0.499499  0.000000  1
  Mn  Mn14  1  0.499499  0.000000  0.500501  1
  Mn  Mn15  1  0.251711  0.251029  0.004223  1
  Mn  Mn16  1  0.251029  0.004223  0.251712  1
  Cr  Cr17  1  0.753118  0.499999  0.246883  1
  Cr  Cr18  1  0.752589  0.247411  0.500000  1
  Cr  Cr19  1  0.500000  0.246882  0.753118  1
  Cr  Cr20  1  0.500001  0.752588  0.247413  1
  Cr  Cr21  1  0.247411  0.500002  0.752587  1
  Cr  Cr22  1  0.246883  0.753119  0.500000  1
  Ni  Ni23  1  0.000000  0.000000  0.000000  1
  O  O24  1  0.020992  0.250062  0.020273  1
  O  O25  1  0.020272  0.020993  0.250063  1
  O  O26  1  0.004555  0.734025  0.513871  1
  O  O27  1  0.005133  0.514479  0.732911  1
  O  O28  1  0.994867  0.267089  0.485520  1
  O  O29  1  0.995445  0.486129  0.265975  1
  O  O30  1  0.979729  0.749937  0.979007  1
  O  O31  1  0.979008  0.979727  0.749937  1
  O  O32  1  0.774247  0.258418  0.257983  1
  O  O33  1  0.768064  0.488016  0.487521  1
  O  O34  1  0.760303  0.760302  0.760302  1
  O  O35  1  0.749938  0.979008  0.979728  1
  O  O36  1  0.742017  0.741583  0.225754  1
  O  O37  1  0.734027  0.513869  0.004554  1
  O  O38  1  0.741582  0.225754  0.742017  1
  O  O39  1  0.732911  0.005133  0.514479  1
  O  O40  1  0.512478  0.511984  0.231937  1
  O  O41  1  0.514478  0.732914  0.005133  1
  O  O42  1  0.513870  0.004555  0.734025  1
  O  O43  1  0.511984  0.231936  0.512479  1
  O  O44  1  0.488016  0.487522  0.768063  1
  O  O45  1  0.486131  0.265973  0.995446  1
  O  O46  1  0.485522  0.994867  0.267088  1
  O  O47  1  0.487521  0.768064  0.488016  1
  O  O48  1  0.267086  0.485522  0.994867  1
  O  O49  1  0.258418  0.257983  0.774245  1
  O  O50  1  0.265975  0.995446  0.486130  1
  O  O51  1  0.257983  0.774246  0.258417  1
  O  O52  1  0.250062  0.020272  0.020993  1
  O  O53  1  0.239697  0.239698  0.239698  1
  O  O54  1  0.231936  0.512479  0.511984  1
  O  O55  1  0.225753  0.742017  0.741582  1
