# generated using pymatgen
data_Hf12Zn8Cu4C3N
_symmetry_space_group_name_H-M   'P 1'
_cell_length_a   8.47886223
_cell_length_b   8.50731790
_cell_length_c   8.50731900
_cell_angle_alpha   59.99999962
_cell_angle_beta   59.88891942
_cell_angle_gamma   59.88891879
_symmetry_Int_Tables_number   1
_chemical_formula_structural   Hf12Zn8Cu4C3N
_chemical_formula_sum   'Hf12 Zn8 Cu4 C3 N1'
_cell_volume   433.18832215
_cell_formula_units_Z   1
loop_
 _symmetry_equiv_pos_site_id
 _symmetry_equiv_pos_as_xyz
  1  'x, y, z'
loop_
 _atom_site_type_symbol
 _atom_site_label
 _atom_site_symmetry_multiplicity
 _atom_site_fract_x
 _atom_site_fract_y
 _atom_site_fract_z
 _atom_site_occupancy
  Hf  Hf0  1  0.439606  0.438456  0.060969  1
  Hf  Hf1  1  0.060488  0.439971  0.059569  1
  Hf  Hf2  1  0.439606  0.060969  0.060969  1
  Hf  Hf3  1  0.060488  0.059569  0.439971  1
  Hf  Hf4  1  0.439606  0.060969  0.438456  1
  Hf  Hf5  1  0.060488  0.439971  0.439971  1
  Hf  Hf6  1  0.810394  0.811544  0.189031  1
  Hf  Hf7  1  0.189512  0.810029  0.190431  1
  Hf  Hf8  1  0.810394  0.189031  0.189031  1
  Hf  Hf9  1  0.189512  0.190431  0.810029  1
  Hf  Hf10  1  0.810394  0.189031  0.811544  1
  Hf  Hf11  1  0.189512  0.810029  0.810029  1
  Zn  Zn12  1  0.830239  0.830677  0.508407  1
  Zn  Zn13  1  0.830239  0.508407  0.830677  1
  Zn  Zn14  1  0.507820  0.830727  0.830727  1
  Zn  Zn15  1  0.830239  0.830677  0.830677  1
  Zn  Zn16  1  0.419761  0.419323  0.741593  1
  Zn  Zn17  1  0.419761  0.741593  0.419323  1
  Zn  Zn18  1  0.742180  0.419273  0.419273  1
  Zn  Zn19  1  0.419761  0.419323  0.419323  1
  Cu  Cu20  1  0.625000  0.625000  0.125000  1
  Cu  Cu21  1  0.625000  0.125000  0.625000  1
  Cu  Cu22  1  0.125000  0.625000  0.625000  1
  Cu  Cu23  1  0.625000  0.625000  0.625000  1
  C  C24  1  0.125000  0.125000  0.625000  1
  C  C25  1  0.125000  0.625000  0.125000  1
  C  C26  1  0.125000  0.125000  0.125000  1
  N  N27  1  0.625000  0.125000  0.125000  1
