# generated using pymatgen
data_CeTh7VSe17
_symmetry_space_group_name_H-M   'P 1'
_cell_length_a   8.46806382
_cell_length_b   8.44737276
_cell_length_c   11.20058700
_cell_angle_alpha   80.61375854
_cell_angle_beta   80.47758471
_cell_angle_gamma   64.89850237
_symmetry_Int_Tables_number   1
_chemical_formula_structural   CeTh7VSe17
_chemical_formula_sum   'Ce1 Th7 V1 Se17'
_cell_volume   711.66241868
_cell_formula_units_Z   1
loop_
 _symmetry_equiv_pos_site_id
 _symmetry_equiv_pos_as_xyz
  1  'x, y, z'
loop_
 _atom_site_type_symbol
 _atom_site_label
 _atom_site_symmetry_multiplicity
 _atom_site_fract_x
 _atom_site_fract_y
 _atom_site_fract_z
 _atom_site_occupancy
  Ce  Ce0  1  0.815110  0.301250  0.294018  1
  Th  Th1  1  0.301403  0.815164  0.294024  1
  Th  Th2  1  0.184519  0.698509  0.704583  1
  Th  Th3  1  0.699197  0.185403  0.704072  1
  Th  Th4  1  0.203921  0.203012  0.543646  1
  Th  Th5  1  0.795792  0.795818  0.455547  1
  Th  Th6  1  0.682167  0.682329  0.980909  1
  Th  Th7  1  0.317487  0.317786  0.021091  1
  V  V8  1  0.998999  0.004588  0.003690  1
  Se  Se9  1  0.823393  0.431234  0.533453  1
  Se  Se10  1  0.431882  0.820472  0.531878  1
  Se  Se11  1  0.178232  0.567337  0.467882  1
  Se  Se12  1  0.568847  0.176201  0.469869  1
  Se  Se13  1  0.945568  0.322189  0.026553  1
  Se  Se14  1  0.322266  0.945878  0.027381  1
  Se  Se15  1  0.054694  0.679440  0.970981  1
  Se  Se16  1  0.678116  0.056268  0.971388  1
  Se  Se17  1  0.212188  0.206963  0.277899  1
  Se  Se18  1  0.790621  0.789869  0.722161  1
  Se  Se19  1  0.059224  0.057544  0.775095  1
  Se  Se20  1  0.940845  0.938658  0.225912  1
  Se  Se21  1  0.303080  0.302859  0.754920  1
  Se  Se22  1  0.694965  0.699239  0.244430  1
  Se  Se23  1  0.519772  0.521195  0.831939  1
  Se  Se24  1  0.476758  0.482914  0.165902  1
  Se  Se25  1  0.000957  0.997880  0.500776  1
