# generated using pymatgen
data_Tb9Lu11Pt16
_symmetry_space_group_name_H-M   'P 1'
_cell_length_a   7.40418882
_cell_length_b   7.49706102
_cell_length_c   14.63483758
_cell_angle_alpha   89.99922953
_cell_angle_beta   90.15574642
_cell_angle_gamma   90.00742150
_symmetry_Int_Tables_number   1
_chemical_formula_structural   Tb9Lu11Pt16
_chemical_formula_sum   'Tb9 Lu11 Pt16'
_cell_volume   812.37178234
_cell_formula_units_Z   1
loop_
 _symmetry_equiv_pos_site_id
 _symmetry_equiv_pos_as_xyz
  1  'x, y, z'
loop_
 _atom_site_type_symbol
 _atom_site_label
 _atom_site_symmetry_multiplicity
 _atom_site_fract_x
 _atom_site_fract_y
 _atom_site_fract_z
 _atom_site_occupancy
  Tb  Tb0  1  0.138776  0.331154  0.620018  1
  Tb  Tb1  1  0.482898  0.675989  0.595275  1
  Tb  Tb2  1  0.983096  0.826360  0.905497  1
  Tb  Tb3  1  0.517167  0.326767  0.095481  1
  Tb  Tb4  1  0.019056  0.170633  0.401671  1
  Tb  Tb5  1  0.517672  0.325838  0.404450  1
  Tb  Tb6  1  0.016619  0.173919  0.095558  1
  Tb  Tb7  1  0.482694  0.672596  0.905372  1
  Tb  Tb8  1  0.981193  0.826984  0.595998  1
  Lu  Lu9  1  0.639057  0.167824  0.622496  1
  Lu  Lu10  1  0.140106  0.331476  0.878566  1
  Lu  Lu11  1  0.360119  0.831916  0.121696  1
  Lu  Lu12  1  0.860392  0.668899  0.377913  1
  Lu  Lu13  1  0.362757  0.832018  0.377031  1
  Lu  Lu14  1  0.859662  0.668598  0.121716  1
  Lu  Lu15  1  0.640267  0.168035  0.878960  1
  Lu  Lu16  1  0.800530  0.509228  0.751114  1
  Lu  Lu17  1  0.302012  0.990739  0.751406  1
  Lu  Lu18  1  0.198468  0.491717  0.249709  1
  Lu  Lu19  1  0.698595  0.008710  0.249335  1
  Pt  Pt20  1  0.694731  0.970671  0.457479  1
  Pt  Pt21  1  0.192082  0.530817  0.042549  1
  Pt  Pt22  1  0.307916  0.030616  0.957764  1
  Pt  Pt23  1  0.801403  0.472635  0.542294  1
  Pt  Pt24  1  0.309683  0.025036  0.541684  1
  Pt  Pt25  1  0.808315  0.469325  0.957971  1
  Pt  Pt26  1  0.692195  0.969922  0.042982  1
  Pt  Pt27  1  0.193711  0.532402  0.454113  1
  Pt  Pt28  1  0.435469  0.378403  0.751577  1
  Pt  Pt29  1  0.933210  0.119882  0.751793  1
  Pt  Pt30  1  0.566073  0.622220  0.249470  1
  Pt  Pt31  1  0.065893  0.877487  0.249369  1
  Pt  Pt32  1  0.662131  0.859035  0.751030  1
  Pt  Pt33  1  0.163556  0.641384  0.751627  1
  Pt  Pt34  1  0.336753  0.140266  0.249541  1
  Pt  Pt35  1  0.835745  0.360502  0.249495  1
