# generated using pymatgen
data_Ba2Eu(AlSb2)2
_symmetry_space_group_name_H-M   'P 1'
_cell_length_a   8.71237840
_cell_length_b   8.71237848
_cell_length_c   8.05776034
_cell_angle_alpha   108.61552288
_cell_angle_beta   108.61552331
_cell_angle_gamma   31.48550925
_symmetry_Int_Tables_number   1
_chemical_formula_structural   Ba2Eu(AlSb2)2
_chemical_formula_sum   'Ba2 Eu1 Al2 Sb4'
_cell_volume   301.36274665
_cell_formula_units_Z   1
loop_
 _symmetry_equiv_pos_site_id
 _symmetry_equiv_pos_as_xyz
  1  'x, y, z'
loop_
 _atom_site_type_symbol
 _atom_site_label
 _atom_site_symmetry_multiplicity
 _atom_site_fract_x
 _atom_site_fract_y
 _atom_site_fract_z
 _atom_site_occupancy
  Ba  Ba0  1  0.869294  0.869294  0.434648  1
  Ba  Ba1  1  0.130706  0.130706  0.565352  1
  Eu  Eu2  1  0.000000  0.000000  0.000000  1
  Al  Al3  1  0.328892  0.328892  0.010163  1
  Al  Al4  1  0.671108  0.671108  0.989837  1
  Sb  Sb5  1  0.209172  0.209172  0.186013  1
  Sb  Sb6  1  0.481957  0.481957  0.263781  1
  Sb  Sb7  1  0.518043  0.518043  0.736219  1
  Sb  Sb8  1  0.790828  0.790828  0.813987  1
