# generated using pymatgen
data_Er6Si5PtRh2
_symmetry_space_group_name_H-M   'P 1'
_cell_length_a   5.66770731
_cell_length_b   5.66770705
_cell_length_c   13.68567227
_cell_angle_alpha   109.13068018
_cell_angle_beta   109.13067980
_cell_angle_gamma   43.20783278
_symmetry_Int_Tables_number   1
_chemical_formula_structural   Er6Si5PtRh2
_chemical_formula_sum   'Er6 Si5 Pt1 Rh2'
_cell_volume   281.66868091
_cell_formula_units_Z   1
loop_
 _symmetry_equiv_pos_site_id
 _symmetry_equiv_pos_as_xyz
  1  'x, y, z'
loop_
 _atom_site_type_symbol
 _atom_site_label
 _atom_site_symmetry_multiplicity
 _atom_site_fract_x
 _atom_site_fract_y
 _atom_site_fract_z
 _atom_site_occupancy
  Er  Er0  1  0.394691  0.394691  0.078294  1
  Er  Er1  1  0.741070  0.741070  0.227432  1
  Er  Er2  1  0.524728  0.524728  0.378769  1
  Er  Er3  1  0.476851  0.476851  0.622884  1
  Er  Er4  1  0.256009  0.256009  0.767999  1
  Er  Er5  1  0.604841  0.604841  0.923913  1
  Si  Si6  1  0.045080  0.045080  0.241332  1
  Si  Si7  1  0.869627  0.869627  0.455990  1
  Si  Si8  1  0.128780  0.128780  0.544369  1
  Si  Si9  1  0.951061  0.951061  0.760002  1
  Si  Si10  1  0.887931  0.887931  0.919210  1
  Pt  Pt11  1  0.115501  0.115501  0.075984  1
  Rh  Rh12  1  0.250006  0.250006  0.417312  1
  Rh  Rh13  1  0.753823  0.753823  0.586509  1
