# generated using pymatgen
data_HoEr11Fe2Co3Bi
_symmetry_space_group_name_H-M   'P 1'
_cell_length_a   8.24015055
_cell_length_b   8.24015146
_cell_length_c   8.24006603
_cell_angle_alpha   111.08985509
_cell_angle_beta   111.70007043
_cell_angle_gamma   105.68974233
_symmetry_Int_Tables_number   1
_chemical_formula_structural   HoEr11Fe2Co3Bi
_chemical_formula_sum   'Ho1 Er11 Fe2 Co3 Bi1'
_cell_volume   429.29353221
_cell_formula_units_Z   1
loop_
 _symmetry_equiv_pos_site_id
 _symmetry_equiv_pos_as_xyz
  1  'x, y, z'
loop_
 _atom_site_type_symbol
 _atom_site_label
 _atom_site_symmetry_multiplicity
 _atom_site_fract_x
 _atom_site_fract_y
 _atom_site_fract_z
 _atom_site_occupancy
  Ho  Ho0  1  0.284711  0.185137  0.469848  1
  Er  Er1  1  0.715294  0.814965  0.530260  1
  Er  Er2  1  0.284685  0.814665  0.099350  1
  Er  Er3  1  0.715398  0.185111  0.900510  1
  Er  Er4  1  0.618724  0.310298  0.308294  1
  Er  Er5  1  0.381370  0.689886  0.691730  1
  Er  Er6  1  0.001846  0.310361  0.691730  1
  Er  Er7  1  0.997994  0.689570  0.308294  1
  Er  Er8  1  0.208260  0.404580  0.196072  1
  Er  Er9  1  0.791824  0.595593  0.803912  1
  Er  Er10  1  0.208318  0.012087  0.803912  1
  Er  Er11  1  0.791493  0.987813  0.196072  1
  Fe  Fe12  1  0.999871  0.382686  0.382557  1
  Fe  Fe13  1  0.000031  0.617379  0.617410  1
  Co  Co14  1  0.389399  0.889182  0.500070  1
  Co  Co15  1  0.610888  0.110671  0.500070  1
  Co  Co16  1  0.999876  0.999975  0.999851  1
  Bi  Bi17  1  0.500018  0.500038  0.000055  1
