# generated using pymatgen
data_BaPr6PtI12
_symmetry_space_group_name_H-M   'P 1'
_cell_length_a   10.16238791
_cell_length_b   10.16238710
_cell_length_c   10.16238946
_cell_angle_alpha   105.93749416
_cell_angle_beta   105.93749510
_cell_angle_gamma   105.93749812
_symmetry_Int_Tables_number   1
_chemical_formula_structural   BaPr6PtI12
_chemical_formula_sum   'Ba1 Pr6 Pt1 I12'
_cell_volume   898.17370222
_cell_formula_units_Z   1
loop_
 _symmetry_equiv_pos_site_id
 _symmetry_equiv_pos_as_xyz
  1  'x, y, z'
loop_
 _atom_site_type_symbol
 _atom_site_label
 _atom_site_symmetry_multiplicity
 _atom_site_fract_x
 _atom_site_fract_y
 _atom_site_fract_z
 _atom_site_occupancy
  Ba  Ba0  1  0.500000  0.500000  0.500000  1
  Pr  Pr1  1  0.095628  0.018686  0.301858  1
  Pr  Pr2  1  0.301858  0.095628  0.018686  1
  Pr  Pr3  1  0.018686  0.301858  0.095628  1
  Pr  Pr4  1  0.904372  0.981314  0.698142  1
  Pr  Pr5  1  0.698142  0.904372  0.981314  1
  Pr  Pr6  1  0.981314  0.698142  0.904372  1
  Pt  Pt7  1  0.000000  0.000000  0.000000  1
  I  I8  1  0.074414  0.676924  0.224379  1
  I  I9  1  0.224379  0.074414  0.676924  1
  I  I10  1  0.676924  0.224379  0.074414  1
  I  I11  1  0.925586  0.323076  0.775621  1
  I  I12  1  0.775621  0.925586  0.323076  1
  I  I13  1  0.323076  0.775621  0.925586  1
  I  I14  1  0.445760  0.130244  0.363053  1
  I  I15  1  0.363053  0.445760  0.130244  1
  I  I16  1  0.130244  0.363053  0.445760  1
  I  I17  1  0.554240  0.869756  0.636947  1
  I  I18  1  0.636947  0.554240  0.869756  1
  I  I19  1  0.869756  0.636947  0.554240  1
