# generated using pymatgen
data_HoLu5(AuO7)2
_symmetry_space_group_name_H-M   'P 1'
_cell_length_a   6.37922279
_cell_length_b   6.37922397
_cell_length_c   7.30864916
_cell_angle_alpha   90.05246593
_cell_angle_beta   89.94753578
_cell_angle_gamma   108.64013716
_symmetry_Int_Tables_number   1
_chemical_formula_structural   HoLu5(AuO7)2
_chemical_formula_sum   'Ho1 Lu5 Au2 O14'
_cell_volume   281.82024197
_cell_formula_units_Z   1
loop_
 _symmetry_equiv_pos_site_id
 _symmetry_equiv_pos_as_xyz
  1  'x, y, z'
loop_
 _atom_site_type_symbol
 _atom_site_label
 _atom_site_symmetry_multiplicity
 _atom_site_fract_x
 _atom_site_fract_y
 _atom_site_fract_z
 _atom_site_occupancy
  Ho  Ho0  1  0.499761  0.499761  0.000000  1
  Lu  Lu1  1  0.001756  0.471469  0.748447  1
  Lu  Lu2  1  0.998468  0.528322  0.251045  1
  Lu  Lu3  1  0.528322  0.998468  0.748955  1
  Lu  Lu4  1  0.471469  0.001756  0.251553  1
  Lu  Lu5  1  0.501195  0.501195  0.500000  1
  Au  Au6  1  0.999727  0.999727  0.500000  1
  Au  Au7  1  0.000056  0.000056  0.000000  1
  O  O8  1  0.640525  0.359530  0.746025  1
  O  O9  1  0.359530  0.640525  0.253975  1
  O  O10  1  0.915533  0.084320  0.750005  1
  O  O11  1  0.084320  0.915533  0.249995  1
  O  O12  1  0.914710  0.664867  0.524686  1
  O  O13  1  0.082504  0.335212  0.024267  1
  O  O14  1  0.335212  0.082504  0.975733  1
  O  O15  1  0.664867  0.914710  0.475314  1
  O  O16  1  0.365327  0.634851  0.746015  1
  O  O17  1  0.634851  0.365327  0.253985  1
  O  O18  1  0.917955  0.664909  0.975269  1
  O  O19  1  0.084386  0.334615  0.474925  1
  O  O20  1  0.334615  0.084386  0.525075  1
  O  O21  1  0.664909  0.917955  0.024731  1
