# generated using pymatgen
data_Tm5Lu5(AlBi)3
_symmetry_space_group_name_H-M   'P 1'
_cell_length_a   8.68717800
_cell_length_b   8.70559078
_cell_length_c   6.32377600
_cell_angle_alpha   90.00000000
_cell_angle_beta   90.00000000
_cell_angle_gamma   119.66527813
_symmetry_Int_Tables_number   1
_chemical_formula_structural   Tm5Lu5(AlBi)3
_chemical_formula_sum   'Tm5 Lu5 Al3 Bi3'
_cell_volume   415.56507605
_cell_formula_units_Z   1
loop_
 _symmetry_equiv_pos_site_id
 _symmetry_equiv_pos_as_xyz
  1  'x, y, z'
loop_
 _atom_site_type_symbol
 _atom_site_label
 _atom_site_symmetry_multiplicity
 _atom_site_fract_x
 _atom_site_fract_y
 _atom_site_fract_z
 _atom_site_occupancy
  Tm  Tm0  1  0.759117  0.002293  0.750000  1
  Tm  Tm1  1  0.983618  0.230003  0.250000  1
  Tm  Tm2  1  0.767481  0.768154  0.250000  1
  Tm  Tm3  1  0.241894  0.226530  0.750000  1
  Tm  Tm4  1  0.016561  0.775170  0.750000  1
  Lu  Lu5  1  0.333179  0.685673  0.003962  1
  Lu  Lu6  1  0.665908  0.321466  0.496275  1
  Lu  Lu7  1  0.665908  0.321466  0.003725  1
  Lu  Lu8  1  0.333179  0.685673  0.496038  1
  Lu  Lu9  1  0.231446  0.984817  0.250000  1
  Al  Al10  1  0.598724  0.998772  0.250000  1
  Al  Al11  1  0.406522  0.004502  0.750000  1
  Al  Al12  1  0.993960  0.599049  0.250000  1
  Bi  Bi13  1  0.386761  0.391866  0.250000  1
  Bi  Bi14  1  0.608217  0.605343  0.750000  1
  Bi  Bi15  1  0.007526  0.399222  0.750000  1
