# generated using pymatgen
data_Na3Nd(BiSe3)2
_symmetry_space_group_name_H-M   'P 1'
_cell_length_a   4.25197400
_cell_length_b   4.25197443
_cell_length_c   21.15196500
_cell_angle_alpha   90.00000000
_cell_angle_beta   90.00000000
_cell_angle_gamma   119.99999663
_symmetry_Int_Tables_number   1
_chemical_formula_structural   Na3Nd(BiSe3)2
_chemical_formula_sum   'Na3 Nd1 Bi2 Se6'
_cell_volume   331.17886261
_cell_formula_units_Z   1
loop_
 _symmetry_equiv_pos_site_id
 _symmetry_equiv_pos_as_xyz
  1  'x, y, z'
loop_
 _atom_site_type_symbol
 _atom_site_label
 _atom_site_symmetry_multiplicity
 _atom_site_fract_x
 _atom_site_fract_y
 _atom_site_fract_z
 _atom_site_occupancy
  Na  Na0  1  0.000000  0.000000  0.000049  1
  Na  Na1  1  0.666667  0.333334  0.332786  1
  Na  Na2  1  0.333334  0.666667  0.667170  1
  Nd  Nd3  1  0.333334  0.666667  0.166140  1
  Bi  Bi4  1  0.000000  0.000000  0.499979  1
  Bi  Bi5  1  0.666667  0.333334  0.833860  1
  Se  Se6  1  0.666667  0.333334  0.087120  1
  Se  Se7  1  0.000000  0.000000  0.245245  1
  Se  Se8  1  0.333334  0.666667  0.420076  1
  Se  Se9  1  0.666667  0.333334  0.579956  1
  Se  Se10  1  0.000000  0.000000  0.754006  1
  Se  Se11  1  0.333334  0.666667  0.913613  1
