# generated using pymatgen
data_DyHo4Mg2P12Ir17
_symmetry_space_group_name_H-M   'P 1'
_cell_length_a   12.65438200
_cell_length_b   12.81774777
_cell_length_c   3.97587900
_cell_angle_alpha   90.00000000
_cell_angle_beta   90.00000000
_cell_angle_gamma   119.57674028
_symmetry_Int_Tables_number   1
_chemical_formula_structural   DyHo4Mg2P12Ir17
_chemical_formula_sum   'Dy1 Ho4 Mg2 P12 Ir17'
_cell_volume   560.85808216
_cell_formula_units_Z   1
loop_
 _symmetry_equiv_pos_site_id
 _symmetry_equiv_pos_as_xyz
  1  'x, y, z'
loop_
 _atom_site_type_symbol
 _atom_site_label
 _atom_site_symmetry_multiplicity
 _atom_site_fract_x
 _atom_site_fract_y
 _atom_site_fract_z
 _atom_site_occupancy
  Dy  Dy0  1  0.668741  0.335859  0.500000  1
  Ho  Ho1  1  0.332979  0.664154  0.500000  1
  Ho  Ho2  1  0.002185  0.813186  0.000000  1
  Ho  Ho3  1  0.188989  0.186801  0.000000  1
  Ho  Ho4  1  0.810130  0.000005  0.000000  1
  Mg  Mg5  1  0.997774  0.444320  0.500000  1
  Mg  Mg6  1  0.553441  0.555687  0.500000  1
  P  P7  1  0.003152  0.643717  0.500000  1
  P  P8  1  0.359462  0.356243  0.500000  1
  P  P9  1  0.642863  0.000035  0.500000  1
  P  P10  1  0.513805  0.685964  0.000000  1
  P  P11  1  0.308192  0.824057  0.000000  1
  P  P12  1  0.168848  0.481652  0.000000  1
  P  P13  1  0.483971  0.175740  0.000000  1
  P  P14  1  0.687227  0.518560  0.000000  1
  P  P15  1  0.828058  0.314053  0.000000  1
  P  P16  1  0.998759  0.175579  0.500000  1
  P  P17  1  0.823156  0.824439  0.500000  1
  P  P18  1  0.178783  0.999971  0.500000  1
  Ir  Ir19  1  0.504718  0.865757  0.000000  1
  Ir  Ir20  1  0.128490  0.639893  0.000000  1
  Ir  Ir21  1  0.357637  0.492856  0.000000  1
  Ir  Ir22  1  0.488235  0.360132  0.000000  1
  Ir  Ir23  1  0.865177  0.507484  0.000000  1
  Ir  Ir24  1  0.638947  0.133944  0.000000  1
  Ir  Ir25  1  0.462054  0.999980  0.500000  1
  Ir  Ir26  1  0.996479  0.279156  0.000000  1
  Ir  Ir27  1  0.717269  0.720866  0.000000  1
  Ir  Ir28  1  0.287267  0.999966  0.000000  1
  Ir  Ir29  1  0.623210  0.807526  0.500000  1
  Ir  Ir30  1  0.200931  0.824795  0.500000  1
  Ir  Ir31  1  0.176997  0.367211  0.500000  1
  Ir  Ir32  1  0.376047  0.175150  0.500000  1
  Ir  Ir33  1  0.809772  0.632829  0.500000  1
  Ir  Ir34  1  0.815759  0.192439  0.500000  1
  Ir  Ir35  1  0.000496  0.999998  0.500000  1
