# generated using pymatgen
data_Yb(CuPd)6
_symmetry_space_group_name_H-M   'P 1'
_cell_length_a   6.64523998
_cell_length_b   6.64523995
_cell_length_c   6.64524012
_cell_angle_alpha   136.10144515
_cell_angle_beta   96.81653273
_cell_angle_gamma   99.24989893
_symmetry_Int_Tables_number   1
_chemical_formula_structural   Yb(CuPd)6
_chemical_formula_sum   'Yb1 Cu6 Pd6'
_cell_volume   188.66741293
_cell_formula_units_Z   1
loop_
 _symmetry_equiv_pos_site_id
 _symmetry_equiv_pos_as_xyz
  1  'x, y, z'
loop_
 _atom_site_type_symbol
 _atom_site_label
 _atom_site_symmetry_multiplicity
 _atom_site_fract_x
 _atom_site_fract_y
 _atom_site_fract_z
 _atom_site_occupancy
  Yb  Yb0  1  0.000000  0.000000  0.000000  1
  Cu  Cu1  1  0.500000  0.000000  0.000000  1
  Cu  Cu2  1  0.500000  0.500000  0.500000  1
  Cu  Cu3  1  0.000000  0.000000  0.500000  1
  Cu  Cu4  1  0.000000  0.500000  0.000000  1
  Cu  Cu5  1  0.763101  0.500000  0.263101  1
  Cu  Cu6  1  0.236899  0.500000  0.736899  1
  Pd  Pd7  1  0.342804  0.342804  0.000000  1
  Pd  Pd8  1  0.657196  0.657196  0.000000  1
  Pd  Pd9  1  0.650768  0.000000  0.650768  1
  Pd  Pd10  1  0.349232  0.000000  0.349232  1
  Pd  Pd11  1  0.813530  0.313530  0.500000  1
  Pd  Pd12  1  0.186470  0.686470  0.500000  1
