# generated using pymatgen
data_Dy5P12Ir4Ru11Rh4
_symmetry_space_group_name_H-M   'P 1'
_cell_length_a   12.61879014
_cell_length_b   12.55280168
_cell_length_c   3.95268800
_cell_angle_alpha   90.00000000
_cell_angle_beta   90.00000000
_cell_angle_gamma   119.76539831
_symmetry_Int_Tables_number   1
_chemical_formula_structural   Dy5P12Ir4Ru11Rh4
_chemical_formula_sum   'Dy5 P12 Ir4 Ru11 Rh4'
_cell_volume   543.50479359
_cell_formula_units_Z   1
loop_
 _symmetry_equiv_pos_site_id
 _symmetry_equiv_pos_as_xyz
  1  'x, y, z'
loop_
 _atom_site_type_symbol
 _atom_site_label
 _atom_site_symmetry_multiplicity
 _atom_site_fract_x
 _atom_site_fract_y
 _atom_site_fract_z
 _atom_site_occupancy
  Dy  Dy0  1  0.666543  0.330723  0.000000  1
  Dy  Dy1  1  0.333774  0.667380  0.000000  1
  Dy  Dy2  1  0.813227  0.001088  0.500000  1
  Dy  Dy3  1  0.185073  0.187348  0.500000  1
  Dy  Dy4  1  0.000341  0.814213  0.500000  1
  P  P5  1  0.630335  0.002097  0.000000  1
  P  P6  1  0.366954  0.372234  0.000000  1
  P  P7  1  0.005306  0.634464  0.000000  1
  P  P8  1  0.689597  0.518834  0.500000  1
  P  P9  1  0.827865  0.304299  0.500000  1
  P  P10  1  0.313037  0.831508  0.500000  1
  P  P11  1  0.517776  0.685967  0.500000  1
  P  P12  1  0.181110  0.002300  0.000000  1
  P  P13  1  0.817676  0.818100  0.000000  1
  P  P14  1  0.997043  0.183111  0.000000  1
  P  P15  1  0.481903  0.164391  0.500000  1
  P  P16  1  0.169682  0.483728  0.500000  1
  Ir  Ir17  1  0.195083  0.821349  0.000000  1
  Ir  Ir18  1  0.808165  0.623292  0.000000  1
  Ir  Ir19  1  0.493289  0.359538  0.500000  1
  Ir  Ir20  1  0.998684  0.000738  0.000000  1
  Ru  Ru21  1  0.637415  0.123452  0.500000  1
  Ru  Ru22  1  0.127438  0.640871  0.500000  1
  Ru  Ru23  1  0.361298  0.485938  0.500000  1
  Ru  Ru24  1  0.509981  0.870280  0.500000  1
  Ru  Ru25  1  0.715801  0.714489  0.500000  1
  Ru  Ru26  1  0.002528  0.287041  0.500000  1
  Ru  Ru27  1  0.447831  0.000986  0.000000  1
  Ru  Ru28  1  0.552182  0.548193  0.000000  1
  Ru  Ru29  1  0.999849  0.450242  0.000000  1
  Ru  Ru30  1  0.819003  0.195889  0.000000  1
  Ru  Ru31  1  0.284521  0.002573  0.500000  1
  Rh  Rh32  1  0.623898  0.805460  0.000000  1
  Rh  Rh33  1  0.181972  0.377441  0.000000  1
  Rh  Rh34  1  0.374038  0.185145  0.000000  1
  Rh  Rh35  1  0.869784  0.505296  0.500000  1
