# generated using pymatgen
data_ZrScAgS4
_symmetry_space_group_name_H-M   'P 1'
_cell_length_a   7.61953993
_cell_length_b   7.61953973
_cell_length_c   7.61954048
_cell_angle_alpha   119.85084954
_cell_angle_beta   119.95861460
_cell_angle_gamma   90.16511740
_symmetry_Int_Tables_number   1
_chemical_formula_structural   ZrScAgS4
_chemical_formula_sum   'Zr2 Sc2 Ag2 S8'
_cell_volume   313.25192342
_cell_formula_units_Z   2
loop_
 _symmetry_equiv_pos_site_id
 _symmetry_equiv_pos_as_xyz
  1  'x, y, z'
loop_
 _atom_site_type_symbol
 _atom_site_label
 _atom_site_symmetry_multiplicity
 _atom_site_fract_x
 _atom_site_fract_y
 _atom_site_fract_z
 _atom_site_occupancy
  Zr  Zr0  1  0.000000  0.000000  0.000000  1
  Zr  Zr1  1  0.500000  0.000000  0.500000  1
  Sc  Sc2  1  0.000000  0.000000  0.500000  1
  Sc  Sc3  1  0.000000  0.500000  0.000000  1
  Ag  Ag4  1  0.379584  0.629584  0.750000  1
  Ag  Ag5  1  0.620416  0.370416  0.250000  1
  S  S6  1  0.243009  0.762127  0.019119  1
  S  S7  1  0.756991  0.776110  0.519119  1
  S  S8  1  0.216877  0.238453  0.978425  1
  S  S9  1  0.760028  0.238453  0.521575  1
  S  S10  1  0.783123  0.761547  0.021575  1
  S  S11  1  0.239972  0.761547  0.478425  1
  S  S12  1  0.756991  0.237873  0.980881  1
  S  S13  1  0.243009  0.223890  0.480881  1
