# generated using pymatgen
data_Hf3GeN
_symmetry_space_group_name_H-M   'P 1'
_cell_length_a   5.81157615
_cell_length_b   5.81157523
_cell_length_c   8.55432400
_cell_angle_alpha   90.00000000
_cell_angle_beta   90.00000000
_cell_angle_gamma   145.67033428
_symmetry_Int_Tables_number   1
_chemical_formula_structural   Hf3GeN
_chemical_formula_sum   'Hf6 Ge2 N2'
_cell_volume   162.93595891
_cell_formula_units_Z   2
loop_
 _symmetry_equiv_pos_site_id
 _symmetry_equiv_pos_as_xyz
  1  'x, y, z'
loop_
 _atom_site_type_symbol
 _atom_site_label
 _atom_site_symmetry_multiplicity
 _atom_site_fract_x
 _atom_site_fract_y
 _atom_site_fract_z
 _atom_site_occupancy
  Hf  Hf0  1  0.629717  0.370286  0.052993  1
  Hf  Hf1  1  0.944983  0.055020  0.250000  1
  Hf  Hf2  1  0.629717  0.370286  0.447007  1
  Hf  Hf3  1  0.370286  0.629717  0.552992  1
  Hf  Hf4  1  0.055020  0.944983  0.750000  1
  Hf  Hf5  1  0.370286  0.629717  0.947007  1
  Ge  Ge6  1  0.254221  0.745781  0.250000  1
  Ge  Ge7  1  0.745781  0.254221  0.750000  1
  N  N8  1  0.000000  0.000000  0.000000  1
  N  N9  1  0.000000  0.000000  0.500000  1
