# generated using pymatgen
data_Yb7ErBi6
_symmetry_space_group_name_H-M   'P 1'
_cell_length_a   8.26616607
_cell_length_b   8.35709383
_cell_length_c   8.35709375
_cell_angle_alpha   109.69057654
_cell_angle_beta   109.25096827
_cell_angle_gamma   109.25096387
_symmetry_Int_Tables_number   1
_chemical_formula_structural   Yb7ErBi6
_chemical_formula_sum   'Yb7 Er1 Bi6'
_cell_volume   445.62143986
_cell_formula_units_Z   1
loop_
 _symmetry_equiv_pos_site_id
 _symmetry_equiv_pos_as_xyz
  1  'x, y, z'
loop_
 _atom_site_type_symbol
 _atom_site_label
 _atom_site_symmetry_multiplicity
 _atom_site_fract_x
 _atom_site_fract_y
 _atom_site_fract_z
 _atom_site_occupancy
  Yb  Yb0  1  0.649497  0.500000  0.000000  1
  Yb  Yb1  1  0.499806  0.000713  0.650650  1
  Yb  Yb2  1  0.353029  0.350887  0.353244  1
  Yb  Yb3  1  0.502142  0.002357  0.149113  1
  Yb  Yb4  1  0.999093  0.649937  0.499287  1
  Yb  Yb5  1  0.849157  0.849350  0.850063  1
  Yb  Yb6  1  0.999785  0.146756  0.497643  1
  Er  Er7  1  0.147873  0.500000  0.000000  1
  Bi  Bi8  1  0.371662  0.624322  0.754683  1
  Bi  Bi9  1  0.881117  0.254950  0.124765  1
  Bi  Bi10  1  0.616979  0.745317  0.369639  1
  Bi  Bi11  1  0.126167  0.869815  0.245050  1
  Bi  Bi12  1  0.247340  0.130361  0.875678  1
  Bi  Bi13  1  0.756352  0.375235  0.630185  1
