# generated using pymatgen
data_RbPr5Dy(CBr6)2
_symmetry_space_group_name_H-M   'P 1'
_cell_length_a   9.19670735
_cell_length_b   9.20564953
_cell_length_c   9.68789596
_cell_angle_alpha   71.99916698
_cell_angle_beta   70.68911049
_cell_angle_gamma   72.61199520
_symmetry_Int_Tables_number   1
_chemical_formula_structural   RbPr5Dy(CBr6)2
_chemical_formula_sum   'Rb1 Pr5 Dy1 C2 Br12'
_cell_volume   718.27379971
_cell_formula_units_Z   1
loop_
 _symmetry_equiv_pos_site_id
 _symmetry_equiv_pos_as_xyz
  1  'x, y, z'
loop_
 _atom_site_type_symbol
 _atom_site_label
 _atom_site_symmetry_multiplicity
 _atom_site_fract_x
 _atom_site_fract_y
 _atom_site_fract_z
 _atom_site_occupancy
  Rb  Rb0  1  0.997266  0.500852  0.000544  1
  Pr  Pr1  1  0.476554  0.116862  0.178975  1
  Pr  Pr2  1  0.784650  0.032381  0.405833  1
  Pr  Pr3  1  0.595504  0.718292  0.473020  1
  Pr  Pr4  1  0.403667  0.281427  0.525590  1
  Pr  Pr5  1  0.215383  0.966612  0.597282  1
  Dy  Dy6  1  0.525493  0.884879  0.812083  1
  C  C7  1  0.493854  0.024816  0.426764  1
  C  C8  1  0.506473  0.972895  0.576420  1
  Br  Br9  1  0.801390  0.164094  0.079809  1
  Br  Br10  1  0.585660  0.784728  0.133406  1
  Br  Br11  1  0.348629  0.435244  0.222467  1
  Br  Br12  1  0.135864  0.073512  0.292956  1
  Br  Br13  1  0.928117  0.720110  0.351154  1
  Br  Br14  1  0.718443  0.367517  0.428305  1
  Br  Br15  1  0.280436  0.632405  0.574042  1
  Br  Br16  1  0.070661  0.279552  0.649189  1
  Br  Br17  1  0.854899  0.924962  0.714515  1
  Br  Br18  1  0.646419  0.575772  0.780920  1
  Br  Br19  1  0.416827  0.204823  0.856294  1
  Br  Br20  1  0.213813  0.838260  0.920432  1
