# generated using pymatgen
data_NdGdB6Ru
_symmetry_space_group_name_H-M   'P 1'
_cell_length_a   3.74348400
_cell_length_b   9.26873000
_cell_length_c   11.67124900
_cell_angle_alpha   90.00000000
_cell_angle_beta   90.00000000
_cell_angle_gamma   90.00000000
_symmetry_Int_Tables_number   1
_chemical_formula_structural   NdGdB6Ru
_chemical_formula_sum   'Nd4 Gd4 B24 Ru4'
_cell_volume   404.96132343
_cell_formula_units_Z   4
loop_
 _symmetry_equiv_pos_site_id
 _symmetry_equiv_pos_as_xyz
  1  'x, y, z'
loop_
 _atom_site_type_symbol
 _atom_site_label
 _atom_site_symmetry_multiplicity
 _atom_site_fract_x
 _atom_site_fract_y
 _atom_site_fract_z
 _atom_site_occupancy
  Nd  Nd0  1  0.000000  0.323644  0.414194  1
  Nd  Nd1  1  0.000000  0.676356  0.585806  1
  Nd  Nd2  1  0.000000  0.823644  0.085806  1
  Nd  Nd3  1  0.000000  0.176356  0.914194  1
  Gd  Gd4  1  0.000000  0.943831  0.371708  1
  Gd  Gd5  1  0.000000  0.056169  0.628292  1
  Gd  Gd6  1  0.000000  0.443831  0.128292  1
  Gd  Gd7  1  0.000000  0.556169  0.871708  1
  B  B8  1  0.500000  0.556036  0.430424  1
  B  B9  1  0.500000  0.443964  0.569576  1
  B  B10  1  0.500000  0.056036  0.069576  1
  B  B11  1  0.500000  0.943964  0.930424  1
  B  B12  1  0.500000  0.748565  0.417551  1
  B  B13  1  0.500000  0.251435  0.582449  1
  B  B14  1  0.500000  0.248565  0.082449  1
  B  B15  1  0.500000  0.751435  0.917551  1
  B  B16  1  0.500000  0.789564  0.267065  1
  B  B17  1  0.500000  0.210436  0.732935  1
  B  B18  1  0.500000  0.289564  0.232935  1
  B  B19  1  0.500000  0.710436  0.767065  1
  B  B20  1  0.500000  0.631297  0.185611  1
  B  B21  1  0.500000  0.368703  0.814389  1
  B  B22  1  0.500000  0.131297  0.314389  1
  B  B23  1  0.500000  0.868703  0.685611  1
  B  B24  1  0.500000  0.986669  0.213300  1
  B  B25  1  0.500000  0.013331  0.786700  1
  B  B26  1  0.500000  0.486669  0.286700  1
  B  B27  1  0.500000  0.513331  0.713300  1
  B  B28  1  0.500000  0.605424  0.028943  1
  B  B29  1  0.500000  0.394576  0.971057  1
  B  B30  1  0.500000  0.105424  0.471057  1
  B  B31  1  0.500000  0.894576  0.528943  1
  Ru  Ru32  1  0.000000  0.639022  0.320166  1
  Ru  Ru33  1  0.000000  0.360978  0.679834  1
  Ru  Ru34  1  0.000000  0.139022  0.179834  1
  Ru  Ru35  1  0.000000  0.860978  0.820166  1
