# generated using pymatgen
data_Ho15Tm5(Ir3Pt)3
_symmetry_space_group_name_H-M   'P 1'
_cell_length_a   10.88754754
_cell_length_b   10.88779872
_cell_length_c   6.30080303
_cell_angle_alpha   89.99485141
_cell_angle_beta   89.98212105
_cell_angle_gamma   90.22168059
_symmetry_Int_Tables_number   1
_chemical_formula_structural   Ho15Tm5(Ir3Pt)3
_chemical_formula_sum   'Ho15 Tm5 Ir9 Pt3'
_cell_volume   746.90054731
_cell_formula_units_Z   1
loop_
 _symmetry_equiv_pos_site_id
 _symmetry_equiv_pos_as_xyz
  1  'x, y, z'
loop_
 _atom_site_type_symbol
 _atom_site_label
 _atom_site_symmetry_multiplicity
 _atom_site_fract_x
 _atom_site_fract_y
 _atom_site_fract_z
 _atom_site_occupancy
  Ho  Ho0  1  0.292947  0.086410  0.370875  1
  Ho  Ho1  1  0.292433  0.908926  0.876049  1
  Ho  Ho2  1  0.705905  0.089611  0.873312  1
  Ho  Ho3  1  0.704879  0.910247  0.372576  1
  Ho  Ho4  1  0.584567  0.790006  0.877399  1
  Ho  Ho5  1  0.585024  0.209929  0.377171  1
  Ho  Ho6  1  0.411073  0.790370  0.377290  1
  Ho  Ho7  1  0.414558  0.209890  0.877045  1
  Ho  Ho8  1  0.209857  0.415202  0.622475  1
  Ho  Ho9  1  0.209525  0.588561  0.122773  1
  Ho  Ho10  1  0.790315  0.414888  0.122827  1
  Ho  Ho11  1  0.790197  0.585426  0.622999  1
  Ho  Ho12  1  0.913841  0.706877  0.128984  1
  Ho  Ho13  1  0.910618  0.294068  0.626647  1
  Ho  Ho14  1  0.091063  0.707606  0.623881  1
  Tm  Tm15  1  0.089672  0.295778  0.126971  1
  Tm  Tm16  1  0.001228  0.998126  0.499522  1
  Tm  Tm17  1  0.002044  0.999085  0.000620  1
  Tm  Tm18  1  0.499734  0.499775  0.000491  1
  Tm  Tm19  1  0.500152  0.500205  0.499543  1
  Ir  Ir20  1  0.151659  0.848326  0.250017  1
  Ir  Ir21  1  0.653704  0.346323  0.750038  1
  Ir  Ir22  1  0.654236  0.653721  0.249606  1
  Ir  Ir23  1  0.345684  0.345648  0.250129  1
  Ir  Ir24  1  0.347192  0.652729  0.750017  1
  Ir  Ir25  1  0.500334  0.000017  0.122756  1
  Ir  Ir26  1  0.500194  0.000193  0.624276  1
  Ir  Ir27  1  0.000025  0.499345  0.876130  1
  Ir  Ir28  1  0.000165  0.499184  0.376803  1
  Pt  Pt29  1  0.848161  0.152389  0.249802  1
  Pt  Pt30  1  0.846334  0.847075  0.749910  1
  Pt  Pt31  1  0.152687  0.154058  0.751064  1
