# generated using pymatgen
data_Tb4Er2Al24Os5PdPt2
_symmetry_space_group_name_H-M   'P 1'
_cell_length_a   8.81471391
_cell_length_b   8.83530271
_cell_length_c   9.54305900
_cell_angle_alpha   90.11131933
_cell_angle_beta   89.74411303
_cell_angle_gamma   119.56461911
_symmetry_Int_Tables_number   1
_chemical_formula_structural   Tb4Er2Al24Os5PdPt2
_chemical_formula_sum   'Tb4 Er2 Al24 Os5 Pd1 Pt2'
_cell_volume   646.44593098
_cell_formula_units_Z   1
loop_
 _symmetry_equiv_pos_site_id
 _symmetry_equiv_pos_as_xyz
  1  'x, y, z'
loop_
 _atom_site_type_symbol
 _atom_site_label
 _atom_site_symmetry_multiplicity
 _atom_site_fract_x
 _atom_site_fract_y
 _atom_site_fract_z
 _atom_site_occupancy
  Tb  Tb0  1  0.187069  0.381902  0.250971  1
  Tb  Tb1  1  0.812931  0.618098  0.749029  1
  Tb  Tb2  1  0.615147  0.814428  0.252348  1
  Tb  Tb3  1  0.384853  0.185572  0.747652  1
  Er  Er4  1  0.195829  0.808489  0.251826  1
  Er  Er5  1  0.804171  0.191511  0.748174  1
  Al  Al6  1  0.334955  0.671238  0.029164  1
  Al  Al7  1  0.665045  0.328762  0.970836  1
  Al  Al8  1  0.668909  0.331204  0.527111  1
  Al  Al9  1  0.331091  0.668796  0.472889  1
  Al  Al10  1  0.157785  0.325396  0.575338  1
  Al  Al11  1  0.842215  0.674604  0.424662  1
  Al  Al12  1  0.673321  0.840906  0.575734  1
  Al  Al13  1  0.837571  0.676330  0.078714  1
  Al  Al14  1  0.326679  0.159094  0.424266  1
  Al  Al15  1  0.162429  0.323670  0.921286  1
  Al  Al16  1  0.163814  0.835027  0.575698  1
  Al  Al17  1  0.325273  0.158140  0.077183  1
  Al  Al18  1  0.836186  0.164973  0.424302  1
  Al  Al19  1  0.674727  0.841860  0.922817  1
  Al  Al20  1  0.831708  0.159730  0.076993  1
  Al  Al21  1  0.168292  0.840270  0.923007  1
  Al  Al22  1  0.560835  0.124846  0.249963  1
  Al  Al23  1  0.439165  0.875154  0.750037  1
  Al  Al24  1  0.874239  0.437965  0.252643  1
  Al  Al25  1  0.125761  0.562035  0.747357  1
  Al  Al26  1  0.562529  0.436782  0.249397  1
  Al  Al27  1  0.437471  0.563218  0.750603  1
  Al  Al28  1  0.999696  0.001767  0.250197  1
  Al  Al29  1  0.000304  0.998233  0.749803  1
  Os  Os30  1  0.500000  0.000000  0.000000  1
  Os  Os31  1  0.500000  0.000000  0.500000  1
  Os  Os32  1  0.000000  0.500000  0.500000  1
  Os  Os33  1  0.000000  0.000000  0.000000  1
  Os  Os34  1  0.000000  0.000000  0.500000  1
  Pd  Pd35  1  0.500000  0.500000  0.000000  1
  Pt  Pt36  1  0.000000  0.500000  0.000000  1
  Pt  Pt37  1  0.500000  0.500000  0.500000  1
