# generated using pymatgen
data_Rb3GeSe3
_symmetry_space_group_name_H-M   'P 1'
_cell_length_a   8.24906510
_cell_length_b   8.24906460
_cell_length_c   8.81765961
_cell_angle_alpha   75.29955190
_cell_angle_beta   75.29955597
_cell_angle_gamma   109.80776115
_symmetry_Int_Tables_number   1
_chemical_formula_structural   Rb3GeSe3
_chemical_formula_sum   'Rb6 Ge2 Se6'
_cell_volume   506.55440423
_cell_formula_units_Z   2
loop_
 _symmetry_equiv_pos_site_id
 _symmetry_equiv_pos_as_xyz
  1  'x, y, z'
loop_
 _atom_site_type_symbol
 _atom_site_label
 _atom_site_symmetry_multiplicity
 _atom_site_fract_x
 _atom_site_fract_y
 _atom_site_fract_z
 _atom_site_occupancy
  Rb  Rb0  1  0.000000  0.500000  0.000000  1
  Rb  Rb1  1  0.500000  0.000000  0.000000  1
  Rb  Rb2  1  0.788215  0.788215  0.682718  1
  Rb  Rb3  1  0.211785  0.211785  0.317282  1
  Rb  Rb4  1  0.663275  0.336725  0.500000  1
  Rb  Rb5  1  0.336725  0.663275  0.500000  1
  Ge  Ge6  1  0.885959  0.885959  0.148333  1
  Ge  Ge7  1  0.114041  0.114041  0.851667  1
  Se  Se8  1  0.638476  0.638476  0.133042  1
  Se  Se9  1  0.361524  0.361524  0.866958  1
  Se  Se10  1  0.756588  0.047236  0.297187  1
  Se  Se11  1  0.952764  0.243412  0.702813  1
  Se  Se12  1  0.243412  0.952764  0.702813  1
  Se  Se13  1  0.047236  0.756588  0.297187  1
