# generated using pymatgen
data_LiPrNdSn4
_symmetry_space_group_name_H-M   'P 1'
_cell_length_a   4.47798800
_cell_length_b   4.50717785
_cell_length_c   9.43950798
_cell_angle_alpha   76.18780410
_cell_angle_beta   90.00000000
_cell_angle_gamma   90.00000000
_symmetry_Int_Tables_number   1
_chemical_formula_structural   LiPrNdSn4
_chemical_formula_sum   'Li1 Pr1 Nd1 Sn4'
_cell_volume   185.00929423
_cell_formula_units_Z   1
loop_
 _symmetry_equiv_pos_site_id
 _symmetry_equiv_pos_as_xyz
  1  'x, y, z'
loop_
 _atom_site_type_symbol
 _atom_site_label
 _atom_site_symmetry_multiplicity
 _atom_site_fract_x
 _atom_site_fract_y
 _atom_site_fract_z
 _atom_site_occupancy
  Li  Li0  1  0.250000  0.679112  0.641778  1
  Pr  Pr1  1  0.750000  0.104844  0.790312  1
  Nd  Nd2  1  0.250000  0.894588  0.210823  1
  Sn  Sn3  1  0.250000  0.260822  0.478356  1
  Sn  Sn4  1  0.750000  0.759060  0.481880  1
  Sn  Sn5  1  0.250000  0.538657  0.922685  1
  Sn  Sn6  1  0.750000  0.435916  0.128167  1
