# generated using pymatgen
data_Ho3LuAl7Ga5
_symmetry_space_group_name_H-M   'P 1'
_cell_length_a   6.11655354
_cell_length_b   6.10361776
_cell_length_c   9.41958100
_cell_angle_alpha   90.00008631
_cell_angle_beta   90.00036990
_cell_angle_gamma   120.22442643
_symmetry_Int_Tables_number   1
_chemical_formula_structural   Ho3LuAl7Ga5
_chemical_formula_sum   'Ho3 Lu1 Al7 Ga5'
_cell_volume   303.85734177
_cell_formula_units_Z   1
loop_
 _symmetry_equiv_pos_site_id
 _symmetry_equiv_pos_as_xyz
  1  'x, y, z'
loop_
 _atom_site_type_symbol
 _atom_site_label
 _atom_site_symmetry_multiplicity
 _atom_site_fract_x
 _atom_site_fract_y
 _atom_site_fract_z
 _atom_site_occupancy
  Ho  Ho0  1  0.000709  0.001288  0.501644  1
  Ho  Ho1  1  0.000700  0.001298  0.998354  1
  Ho  Ho2  1  0.667270  0.333044  0.750005  1
  Lu  Lu3  1  0.332315  0.666079  0.249997  1
  Al  Al4  1  0.500754  0.501338  0.498465  1
  Al  Al5  1  0.500010  0.000064  0.499209  1
  Al  Al6  1  0.000616  0.501385  0.498461  1
  Al  Al7  1  0.500754  0.501336  0.001536  1
  Al  Al8  1  0.500007  0.000065  0.000788  1
  Al  Al9  1  0.000610  0.501384  0.001538  1
  Al  Al10  1  0.815585  0.630879  0.249997  1
  Ga  Ga11  1  0.365273  0.181307  0.250000  1
  Ga  Ga12  1  0.816108  0.181774  0.250001  1
  Ga  Ga13  1  0.183411  0.367124  0.750003  1
  Ga  Ga14  1  0.632461  0.816021  0.750001  1
  Ga  Ga15  1  0.183418  0.815614  0.750000  1
