# generated using pymatgen
data_Th3AlGa2Ir3
_symmetry_space_group_name_H-M   'P 1'
_cell_length_a   7.25706238
_cell_length_b   7.25706278
_cell_length_c   4.12195800
_cell_angle_alpha   90.00000000
_cell_angle_beta   90.00000000
_cell_angle_gamma   120.22814338
_symmetry_Int_Tables_number   1
_chemical_formula_structural   Th3AlGa2Ir3
_chemical_formula_sum   'Th3 Al1 Ga2 Ir3'
_cell_volume   187.56548437
_cell_formula_units_Z   1
loop_
 _symmetry_equiv_pos_site_id
 _symmetry_equiv_pos_as_xyz
  1  'x, y, z'
loop_
 _atom_site_type_symbol
 _atom_site_label
 _atom_site_symmetry_multiplicity
 _atom_site_fract_x
 _atom_site_fract_y
 _atom_site_fract_z
 _atom_site_occupancy
  Th  Th0  1  0.412826  0.412826  0.500000  1
  Th  Th1  1  0.584062  0.001223  0.500000  1
  Th  Th2  1  0.001223  0.584062  0.500000  1
  Al  Al3  1  0.768998  0.768998  0.000000  1
  Ga  Ga4  1  0.234723  0.998427  0.000000  1
  Ga  Ga5  1  0.998427  0.234723  0.000000  1
  Ir  Ir6  1  0.668212  0.340268  0.000000  1
  Ir  Ir7  1  0.340268  0.668212  0.000000  1
  Ir  Ir8  1  0.991261  0.991261  0.500000  1
