# generated using pymatgen
data_Nd7Er13Si15Ru
_symmetry_space_group_name_H-M   'P 1'
_cell_length_a   7.69799654
_cell_length_b   7.73005219
_cell_length_c   14.22903013
_cell_angle_alpha   89.75443661
_cell_angle_beta   89.86912416
_cell_angle_gamma   90.19418976
_symmetry_Int_Tables_number   1
_chemical_formula_structural   Nd7Er13Si15Ru
_chemical_formula_sum   'Nd7 Er13 Si15 Ru1'
_cell_volume   846.69658124
_cell_formula_units_Z   1
loop_
 _symmetry_equiv_pos_site_id
 _symmetry_equiv_pos_as_xyz
  1  'x, y, z'
loop_
 _atom_site_type_symbol
 _atom_site_label
 _atom_site_symmetry_multiplicity
 _atom_site_fract_x
 _atom_site_fract_y
 _atom_site_fract_z
 _atom_site_occupancy
  Nd  Nd0  1  0.358533  0.006921  0.957926  1
  Nd  Nd1  1  0.992095  0.642329  0.539370  1
  Nd  Nd2  1  0.490149  0.858028  0.209586  1
  Nd  Nd3  1  0.506900  0.137023  0.703339  1
  Nd  Nd4  1  0.858400  0.489474  0.791382  1
  Nd  Nd5  1  0.141110  0.506832  0.292411  1
  Nd  Nd6  1  0.009626  0.356763  0.041463  1
  Er  Er7  1  0.490191  0.360378  0.123952  1
  Er  Er8  1  0.995800  0.135078  0.623516  1
  Er  Er9  1  0.861377  0.007332  0.875207  1
  Er  Er10  1  0.140326  0.988213  0.380516  1
  Er  Er11  1  0.506613  0.644778  0.619369  1
  Er  Er12  1  0.360002  0.492322  0.876356  1
  Er  Er13  1  0.639068  0.506888  0.375766  1
  Er  Er14  1  0.006546  0.863686  0.126516  1
  Er  Er15  1  0.630119  0.996054  0.458215  1
  Er  Er16  1  0.318759  0.307342  0.502725  1
  Er  Er17  1  0.188179  0.824186  0.743472  1
  Er  Er18  1  0.818103  0.181197  0.252136  1
  Er  Er19  1  0.683679  0.682070  0.001012  1
  Si  Si20  1  0.709506  0.063893  0.062229  1
  Si  Si21  1  0.932558  0.291665  0.437606  1
  Si  Si22  1  0.437297  0.209355  0.311102  1
  Si  Si23  1  0.566843  0.788303  0.811796  1
  Si  Si24  1  0.210480  0.438675  0.690062  1
  Si  Si25  1  0.789389  0.565802  0.189009  1
  Si  Si26  1  0.062412  0.710286  0.938499  1
  Si  Si27  1  0.797521  0.844898  0.691571  1
  Si  Si28  1  0.204878  0.150233  0.189913  1
  Si  Si29  1  0.842543  0.799042  0.313216  1
  Si  Si30  1  0.354130  0.706250  0.436556  1
  Si  Si31  1  0.652839  0.297368  0.941211  1
  Si  Si32  1  0.705707  0.348118  0.559361  1
  Si  Si33  1  0.294830  0.652618  0.061011  1
  Si  Si34  1  0.150572  0.207027  0.811712  1
  Ru  Ru35  1  0.292918  0.939573  0.560908  1
