# generated using pymatgen
data_Ti2SiIr5
_symmetry_space_group_name_H-M   'P 1'
_cell_length_a   3.93956600
_cell_length_b   5.43773500
_cell_length_c   10.69998200
_cell_angle_alpha   90.00000000
_cell_angle_beta   90.00000000
_cell_angle_gamma   90.00000000
_symmetry_Int_Tables_number   1
_chemical_formula_structural   Ti2SiIr5
_chemical_formula_sum   'Ti4 Si2 Ir10'
_cell_volume   229.21839477
_cell_formula_units_Z   2
loop_
 _symmetry_equiv_pos_site_id
 _symmetry_equiv_pos_as_xyz
  1  'x, y, z'
loop_
 _atom_site_type_symbol
 _atom_site_label
 _atom_site_symmetry_multiplicity
 _atom_site_fract_x
 _atom_site_fract_y
 _atom_site_fract_z
 _atom_site_occupancy
  Ti  Ti0  1  0.500000  0.316118  0.139768  1
  Ti  Ti1  1  0.500000  0.683882  0.860232  1
  Ti  Ti2  1  0.500000  0.816118  0.360232  1
  Ti  Ti3  1  0.500000  0.183882  0.639768  1
  Si  Si4  1  0.000000  0.000000  0.000000  1
  Si  Si5  1  0.000000  0.500000  0.500000  1
  Ir  Ir6  1  0.000000  0.000000  0.500000  1
  Ir  Ir7  1  0.000000  0.500000  0.000000  1
  Ir  Ir8  1  0.000000  0.060641  0.246416  1
  Ir  Ir9  1  0.000000  0.939359  0.753584  1
  Ir  Ir10  1  0.000000  0.560641  0.253584  1
  Ir  Ir11  1  0.000000  0.439359  0.746416  1
  Ir  Ir12  1  0.500000  0.312291  0.393394  1
  Ir  Ir13  1  0.500000  0.687709  0.606606  1
  Ir  Ir14  1  0.500000  0.812291  0.106606  1
  Ir  Ir15  1  0.500000  0.187709  0.893394  1
