# generated using pymatgen
data_Y5Er7(TcRh)2
_symmetry_space_group_name_H-M   'P 1'
_cell_length_a   6.31003461
_cell_length_b   7.33913015
_cell_length_c   9.14882318
_cell_angle_alpha   89.94136282
_cell_angle_beta   89.82214795
_cell_angle_gamma   89.93514614
_symmetry_Int_Tables_number   1
_chemical_formula_structural   Y5Er7(TcRh)2
_chemical_formula_sum   'Y5 Er7 Tc2 Rh2'
_cell_volume   423.68098078
_cell_formula_units_Z   1
loop_
 _symmetry_equiv_pos_site_id
 _symmetry_equiv_pos_as_xyz
  1  'x, y, z'
loop_
 _atom_site_type_symbol
 _atom_site_label
 _atom_site_symmetry_multiplicity
 _atom_site_fract_x
 _atom_site_fract_y
 _atom_site_fract_z
 _atom_site_occupancy
  Y  Y0  1  0.669346  0.177160  0.064928  1
  Y  Y1  1  0.869753  0.959839  0.749050  1
  Y  Y2  1  0.369561  0.540413  0.250392  1
  Y  Y3  1  0.628402  0.461112  0.749304  1
  Y  Y4  1  0.129853  0.039025  0.250804  1
  Er  Er5  1  0.169838  0.323286  0.934330  1
  Er  Er6  1  0.834069  0.679668  0.438536  1
  Er  Er7  1  0.333582  0.820439  0.561126  1
  Er  Er8  1  0.332963  0.820741  0.937844  1
  Er  Er9  1  0.834060  0.678585  0.061588  1
  Er  Er10  1  0.168421  0.323129  0.565044  1
  Er  Er11  1  0.668905  0.176931  0.435387  1
  Tc  Tc12  1  0.042719  0.611049  0.750274  1
  Tc  Tc13  1  0.543293  0.887787  0.251644  1
  Rh  Rh14  1  0.450944  0.112777  0.746965  1
  Rh  Rh15  1  0.954288  0.388059  0.252784  1
