# generated using pymatgen
data_Dy2Er2LuSn4
_symmetry_space_group_name_H-M   'P 1'
_cell_length_a   7.98200100
_cell_length_b   8.12615500
_cell_length_c   15.37326400
_cell_angle_alpha   90.00000000
_cell_angle_beta   90.00000000
_cell_angle_gamma   90.00000000
_symmetry_Int_Tables_number   1
_chemical_formula_structural   Dy2Er2LuSn4
_chemical_formula_sum   'Dy8 Er8 Lu4 Sn16'
_cell_volume   997.15567441
_cell_formula_units_Z   4
loop_
 _symmetry_equiv_pos_site_id
 _symmetry_equiv_pos_as_xyz
  1  'x, y, z'
loop_
 _atom_site_type_symbol
 _atom_site_label
 _atom_site_symmetry_multiplicity
 _atom_site_fract_x
 _atom_site_fract_y
 _atom_site_fract_z
 _atom_site_occupancy
  Dy  Dy0  1  0.520528  0.320471  0.902942  1
  Dy  Dy1  1  0.020528  0.179529  0.597058  1
  Dy  Dy2  1  0.479472  0.679529  0.402942  1
  Dy  Dy3  1  0.979472  0.820471  0.097058  1
  Dy  Dy4  1  0.479472  0.679529  0.097058  1
  Dy  Dy5  1  0.979472  0.820471  0.402942  1
  Dy  Dy6  1  0.520528  0.320471  0.597058  1
  Dy  Dy7  1  0.020528  0.179529  0.902942  1
  Er  Er8  1  0.366863  0.836527  0.877493  1
  Er  Er9  1  0.866863  0.663473  0.622507  1
  Er  Er10  1  0.633137  0.163473  0.377493  1
  Er  Er11  1  0.133137  0.336527  0.122507  1
  Er  Er12  1  0.633137  0.163473  0.122507  1
  Er  Er13  1  0.133137  0.336527  0.377493  1
  Er  Er14  1  0.366863  0.836527  0.622507  1
  Er  Er15  1  0.866863  0.663473  0.877493  1
  Lu  Lu16  1  0.197807  0.503737  0.750000  1
  Lu  Lu17  1  0.697807  0.996263  0.750000  1
  Lu  Lu18  1  0.802193  0.496263  0.250000  1
  Lu  Lu19  1  0.302193  0.003737  0.250000  1
  Sn  Sn20  1  0.293860  0.036778  0.041876  1
  Sn  Sn21  1  0.793860  0.463222  0.458124  1
  Sn  Sn22  1  0.706140  0.963222  0.541876  1
  Sn  Sn23  1  0.206140  0.536778  0.958124  1
  Sn  Sn24  1  0.706140  0.963222  0.958124  1
  Sn  Sn25  1  0.206140  0.536778  0.541876  1
  Sn  Sn26  1  0.293860  0.036778  0.458124  1
  Sn  Sn27  1  0.793860  0.463222  0.041876  1
  Sn  Sn28  1  0.563533  0.619512  0.750000  1
  Sn  Sn29  1  0.063533  0.880488  0.750000  1
  Sn  Sn30  1  0.436467  0.380488  0.250000  1
  Sn  Sn31  1  0.936467  0.119512  0.250000  1
  Sn  Sn32  1  0.329793  0.148533  0.750000  1
  Sn  Sn33  1  0.829793  0.351467  0.750000  1
  Sn  Sn34  1  0.670207  0.851467  0.250000  1
  Sn  Sn35  1  0.170207  0.648533  0.250000  1
