# generated using pymatgen
data_Dy3Y5Cd2NiOs
_symmetry_space_group_name_H-M   'P 1'
_cell_length_a   9.61737458
_cell_length_b   9.62963689
_cell_length_c   9.72094074
_cell_angle_alpha   59.59466800
_cell_angle_beta   59.73780436
_cell_angle_gamma   59.54337663
_symmetry_Int_Tables_number   1
_chemical_formula_structural   Dy3Y5Cd2NiOs
_chemical_formula_sum   'Dy6 Y10 Cd4 Ni2 Os2'
_cell_volume   631.16502022
_cell_formula_units_Z   2
loop_
 _symmetry_equiv_pos_site_id
 _symmetry_equiv_pos_as_xyz
  1  'x, y, z'
loop_
 _atom_site_type_symbol
 _atom_site_label
 _atom_site_symmetry_multiplicity
 _atom_site_fract_x
 _atom_site_fract_y
 _atom_site_fract_z
 _atom_site_occupancy
  Dy  Dy0  1  0.599621  0.600545  0.592632  1
  Dy  Dy1  1  0.600694  0.599429  0.207230  1
  Dy  Dy2  1  0.601073  0.207323  0.594878  1
  Dy  Dy3  1  0.207072  0.601134  0.596774  1
  Dy  Dy4  1  0.061203  0.436623  0.440625  1
  Dy  Dy5  1  0.436617  0.061206  0.061553  1
  Y  Y6  1  0.436095  0.061092  0.440841  1
  Y  Y7  1  0.061076  0.436104  0.061960  1
  Y  Y8  1  0.438711  0.438715  0.061291  1
  Y  Y9  1  0.059241  0.059226  0.440765  1
  Y  Y10  1  0.188751  0.806456  0.816556  1
  Y  Y11  1  0.806574  0.188625  0.188182  1
  Y  Y12  1  0.804741  0.190052  0.815742  1
  Y  Y13  1  0.190162  0.804631  0.189527  1
  Y  Y14  1  0.814541  0.814584  0.185440  1
  Y  Y15  1  0.191455  0.191466  0.808540  1
  Cd  Cd16  1  0.829306  0.828611  0.832533  1
  Cd  Cd17  1  0.828527  0.829382  0.509563  1
  Cd  Cd18  1  0.829835  0.506570  0.832274  1
  Cd  Cd19  1  0.506583  0.829904  0.831298  1
  Ni  Ni20  1  0.394001  0.825904  0.388575  1
  Ni  Ni21  1  0.825964  0.393910  0.391568  1
  Os  Os22  1  0.392011  0.396316  0.388740  1
  Os  Os23  1  0.396145  0.392189  0.822914  1
