# generated using pymatgen
data_Sc22Tc5OsAu2
_symmetry_space_group_name_H-M   'P 1'
_cell_length_a   9.61070533
_cell_length_b   9.61070605
_cell_length_c   9.52132600
_cell_angle_alpha   60.30717615
_cell_angle_beta   60.30717370
_cell_angle_gamma   59.38566648
_symmetry_Int_Tables_number   1
_chemical_formula_structural   Sc22Tc5OsAu2
_chemical_formula_sum   'Sc22 Tc5 Os1 Au2'
_cell_volume   621.75402627
_cell_formula_units_Z   1
loop_
 _symmetry_equiv_pos_site_id
 _symmetry_equiv_pos_as_xyz
  1  'x, y, z'
loop_
 _atom_site_type_symbol
 _atom_site_label
 _atom_site_symmetry_multiplicity
 _atom_site_fract_x
 _atom_site_fract_y
 _atom_site_fract_z
 _atom_site_occupancy
  Sc  Sc0  1  0.838696  0.838696  0.852396  1
  Sc  Sc1  1  0.529788  0.147604  0.161304  1
  Sc  Sc2  1  0.161304  0.161304  0.529788  1
  Sc  Sc3  1  0.147604  0.529788  0.161304  1
  Sc  Sc4  1  0.838696  0.838696  0.470212  1
  Sc  Sc5  1  0.852396  0.470212  0.838696  1
  Sc  Sc6  1  0.470212  0.852396  0.838696  1
  Sc  Sc7  1  0.161304  0.161304  0.147604  1
  Sc  Sc8  1  0.195903  0.804097  0.195903  1
  Sc  Sc9  1  0.195903  0.804097  0.804097  1
  Sc  Sc10  1  0.804097  0.195903  0.195903  1
  Sc  Sc11  1  0.803445  0.803445  0.196555  1
  Sc  Sc12  1  0.196555  0.196555  0.803445  1
  Sc  Sc13  1  0.804097  0.195903  0.804097  1
  Sc  Sc14  1  0.381282  0.381282  0.390073  1
  Sc  Sc15  1  0.152637  0.609927  0.618718  1
  Sc  Sc16  1  0.609927  0.152637  0.618718  1
  Sc  Sc17  1  0.618718  0.618718  0.152637  1
  Sc  Sc18  1  0.390073  0.847363  0.381282  1
  Sc  Sc19  1  0.381282  0.381282  0.847363  1
  Sc  Sc20  1  0.847363  0.390073  0.381282  1
  Sc  Sc21  1  0.618718  0.618718  0.609927  1
  Tc  Tc22  1  0.500000  0.000000  0.500000  1
  Tc  Tc23  1  0.000000  0.500000  0.500000  1
  Tc  Tc24  1  0.500000  0.000000  0.000000  1
  Tc  Tc25  1  0.000000  0.500000  0.000000  1
  Tc  Tc26  1  0.000000  0.000000  0.000000  1
  Os  Os27  1  0.500000  0.500000  0.500000  1
  Au  Au28  1  0.500000  0.500000  0.000000  1
  Au  Au29  1  0.000000  0.000000  0.500000  1
