# generated using pymatgen
data_DyEr4P12Ir16Rh3
_symmetry_space_group_name_H-M   'P 1'
_cell_length_a   12.70982200
_cell_length_b   12.70982087
_cell_length_c   3.95757400
_cell_angle_alpha   90.00000000
_cell_angle_beta   90.00000000
_cell_angle_gamma   119.99999774
_symmetry_Int_Tables_number   1
_chemical_formula_structural   DyEr4P12Ir16Rh3
_chemical_formula_sum   'Dy1 Er4 P12 Ir16 Rh3'
_cell_volume   553.65418084
_cell_formula_units_Z   1
loop_
 _symmetry_equiv_pos_site_id
 _symmetry_equiv_pos_as_xyz
  1  'x, y, z'
loop_
 _atom_site_type_symbol
 _atom_site_label
 _atom_site_symmetry_multiplicity
 _atom_site_fract_x
 _atom_site_fract_y
 _atom_site_fract_z
 _atom_site_occupancy
  Dy  Dy0  1  0.666667  0.333333  0.500000  1
  Er  Er1  1  0.333333  0.666667  0.500000  1
  Er  Er2  1  0.999993  0.814315  0.000000  1
  Er  Er3  1  0.185685  0.185678  0.000000  1
  Er  Er4  1  0.814322  0.000007  0.000000  1
  P  P5  1  0.999945  0.640983  0.500000  1
  P  P6  1  0.359017  0.358962  0.500000  1
  P  P7  1  0.641038  0.000055  0.500000  1
  P  P8  1  0.516276  0.686840  0.000000  1
  P  P9  1  0.313160  0.829436  0.000000  1
  P  P10  1  0.170564  0.483724  0.000000  1
  P  P11  1  0.483373  0.170178  0.000000  1
  P  P12  1  0.686806  0.516627  0.000000  1
  P  P13  1  0.829822  0.313194  0.000000  1
  P  P14  1  0.000044  0.178432  0.500000  1
  P  P15  1  0.821568  0.821611  0.500000  1
  P  P16  1  0.178389  0.999956  0.500000  1
  Ir  Ir17  1  0.507203  0.866302  0.000000  1
  Ir  Ir18  1  0.133698  0.640902  0.000000  1
  Ir  Ir19  1  0.359098  0.492797  0.000000  1
  Ir  Ir20  1  0.492091  0.359170  0.000000  1
  Ir  Ir21  1  0.867080  0.507909  0.000000  1
  Ir  Ir22  1  0.640830  0.132920  0.000000  1
  Ir  Ir23  1  0.000113  0.282768  0.000000  1
  Ir  Ir24  1  0.717232  0.717345  0.000000  1
  Ir  Ir25  1  0.282655  0.999887  0.000000  1
  Ir  Ir26  1  0.626107  0.806477  0.500000  1
  Ir  Ir27  1  0.193523  0.819630  0.500000  1
  Ir  Ir28  1  0.180370  0.373893  0.500000  1
  Ir  Ir29  1  0.373689  0.180231  0.500000  1
  Ir  Ir30  1  0.806542  0.626311  0.500000  1
  Ir  Ir31  1  0.819769  0.193458  0.500000  1
  Ir  Ir32  1  0.000000  0.000000  0.500000  1
  Rh  Rh33  1  0.000052  0.461379  0.500000  1
  Rh  Rh34  1  0.538621  0.538673  0.500000  1
  Rh  Rh35  1  0.461327  0.999948  0.500000  1
