# generated using pymatgen
data_Na2AsH
_symmetry_space_group_name_H-M   'P 1'
_cell_length_a   5.09335712
_cell_length_b   6.68305463
_cell_length_c   4.59515686
_cell_angle_alpha   49.84707942
_cell_angle_beta   64.58174443
_cell_angle_gamma   48.34564062
_symmetry_Int_Tables_number   1
_chemical_formula_structural   Na2AsH
_chemical_formula_sum   'Na2 As1 H1'
_cell_volume   89.32563081
_cell_formula_units_Z   1
loop_
 _symmetry_equiv_pos_site_id
 _symmetry_equiv_pos_as_xyz
  1  'x, y, z'
loop_
 _atom_site_type_symbol
 _atom_site_label
 _atom_site_symmetry_multiplicity
 _atom_site_fract_x
 _atom_site_fract_y
 _atom_site_fract_z
 _atom_site_occupancy
  Na  Na0  1  0.722315  0.188497  0.874216  1
  Na  Na1  1  0.832629  0.633260  0.875648  1
  As  As2  1  0.276836  0.913121  0.389515  1
  H  H3  1  0.276335  0.777027  0.212947  1
