# generated using pymatgen
data_Ac3In5Rh
_symmetry_space_group_name_H-M   'P 1'
_cell_length_a   7.83409400
_cell_length_b   7.83409464
_cell_length_c   4.96659100
_cell_angle_alpha   90.00000000
_cell_angle_beta   90.00000000
_cell_angle_gamma   120.00001420
_symmetry_Int_Tables_number   1
_chemical_formula_structural   Ac3In5Rh
_chemical_formula_sum   'Ac3 In5 Rh1'
_cell_volume   263.97728545
_cell_formula_units_Z   1
loop_
 _symmetry_equiv_pos_site_id
 _symmetry_equiv_pos_as_xyz
  1  'x, y, z'
loop_
 _atom_site_type_symbol
 _atom_site_label
 _atom_site_symmetry_multiplicity
 _atom_site_fract_x
 _atom_site_fract_y
 _atom_site_fract_z
 _atom_site_occupancy
  Ac  Ac0  1  0.611789  0.000000  0.500000  1
  Ac  Ac1  1  0.388211  0.388211  0.500000  1
  Ac  Ac2  1  0.000000  0.611789  0.500000  1
  In  In3  1  0.229749  0.000000  0.000000  1
  In  In4  1  0.770251  0.770251  0.000000  1
  In  In5  1  0.000000  0.229749  0.000000  1
  In  In6  1  0.333333  0.666667  0.000000  1
  In  In7  1  0.666667  0.333333  0.000000  1
  Rh  Rh8  1  0.000000  0.000000  0.500000  1
