# generated using pymatgen
data_TbNd6Sm(MoO6)4
_symmetry_space_group_name_H-M   'P 1'
_cell_length_a   5.54029467
_cell_length_b   10.20550917
_cell_length_c   10.20552553
_cell_angle_alpha   68.64223683
_cell_angle_beta   75.17645369
_cell_angle_gamma   75.17648709
_symmetry_Int_Tables_number   1
_chemical_formula_structural   TbNd6Sm(MoO6)4
_chemical_formula_sum   'Tb1 Nd6 Sm1 Mo4 O24'
_cell_volume   510.97210799
_cell_formula_units_Z   1
loop_
 _symmetry_equiv_pos_site_id
 _symmetry_equiv_pos_as_xyz
  1  'x, y, z'
loop_
 _atom_site_type_symbol
 _atom_site_label
 _atom_site_symmetry_multiplicity
 _atom_site_fract_x
 _atom_site_fract_y
 _atom_site_fract_z
 _atom_site_occupancy
  Tb  Tb0  1  0.250000  0.603896  0.396106  1
  Nd  Nd1  1  0.620538  0.787225  0.552924  1
  Nd  Nd2  1  0.119445  0.554487  0.787025  1
  Nd  Nd3  1  0.380557  0.212976  0.445512  1
  Nd  Nd4  1  0.879464  0.447077  0.212774  1
  Nd  Nd5  1  0.749999  0.864190  0.135810  1
  Nd  Nd6  1  0.250001  0.134537  0.865463  1
  Sm  Sm7  1  0.750000  0.394666  0.605334  1
  Mo  Mo8  1  0.064522  0.007164  0.297531  1
  Mo  Mo9  1  0.435479  0.702469  0.992836  1
  Mo  Mo10  1  0.936930  0.992242  0.702630  1
  Mo  Mo11  1  0.563071  0.297370  0.007759  1
  O  O12  1  0.925276  0.574119  0.605814  1
  O  O13  1  0.574725  0.394187  0.425881  1
  O  O14  1  0.078489  0.428604  0.391686  1
  O  O15  1  0.421514  0.608314  0.571395  1
  O  O16  1  0.934167  0.807524  0.337254  1
  O  O17  1  0.565831  0.662746  0.192475  1
  O  O18  1  0.072508  0.189768  0.662861  1
  O  O19  1  0.427493  0.337140  0.810231  1
  O  O20  1  0.373211  0.888381  0.328076  1
  O  O21  1  0.126787  0.671924  0.111619  1
  O  O22  1  0.629289  0.112549  0.671440  1
  O  O23  1  0.870712  0.328560  0.887451  1
  O  O24  1  0.634547  0.288979  0.176834  1
  O  O25  1  0.865453  0.823167  0.711022  1
  O  O26  1  0.366237  0.710549  0.823319  1
  O  O27  1  0.133764  0.176680  0.289452  1
  O  O28  1  0.521892  0.115431  0.044822  1
  O  O29  1  0.978108  0.955178  0.884570  1
  O  O30  1  0.763663  0.024117  0.427023  1
  O  O31  1  0.021327  0.044332  0.115995  1
  O  O32  1  0.263907  0.427521  0.025053  1
  O  O33  1  0.236094  0.974947  0.572479  1
  O  O34  1  0.736337  0.572977  0.975882  1
  O  O35  1  0.478673  0.884005  0.955668  1
