# generated using pymatgen
data_TbSm7(Sc3Pt4)4
_symmetry_space_group_name_H-M   'P 1'
_cell_length_a   7.52878301
_cell_length_b   7.44664307
_cell_length_c   13.78376311
_cell_angle_alpha   89.98557926
_cell_angle_beta   90.00239160
_cell_angle_gamma   89.99443712
_symmetry_Int_Tables_number   1
_chemical_formula_structural   TbSm7(Sc3Pt4)4
_chemical_formula_sum   'Tb1 Sm7 Sc12 Pt16'
_cell_volume   772.77506916
_cell_formula_units_Z   1
loop_
 _symmetry_equiv_pos_site_id
 _symmetry_equiv_pos_as_xyz
  1  'x, y, z'
loop_
 _atom_site_type_symbol
 _atom_site_label
 _atom_site_symmetry_multiplicity
 _atom_site_fract_x
 _atom_site_fract_y
 _atom_site_fract_z
 _atom_site_occupancy
  Tb  Tb0  1  0.010599  0.174570  0.097314  1
  Sm  Sm1  1  0.989859  0.826209  0.903404  1
  Sm  Sm2  1  0.489806  0.674163  0.903226  1
  Sm  Sm3  1  0.989927  0.825890  0.596795  1
  Sm  Sm4  1  0.510192  0.325698  0.096761  1
  Sm  Sm5  1  0.010040  0.174123  0.403153  1
  Sm  Sm6  1  0.510103  0.325867  0.403174  1
  Sm  Sm7  1  0.489885  0.674110  0.596779  1
  Sc  Sc8  1  0.164323  0.496729  0.750032  1
  Sc  Sc9  1  0.835855  0.503073  0.249818  1
  Sc  Sc10  1  0.335224  0.996864  0.249825  1
  Sc  Sc11  1  0.664366  0.003348  0.750043  1
  Sc  Sc12  1  0.332209  0.164109  0.624192  1
  Sc  Sc13  1  0.667823  0.835920  0.375737  1
  Sc  Sc14  1  0.167730  0.664248  0.375728  1
  Sc  Sc15  1  0.668125  0.836186  0.124107  1
  Sc  Sc16  1  0.832231  0.335880  0.624216  1
  Sc  Sc17  1  0.332048  0.164218  0.875890  1
  Sc  Sc18  1  0.832543  0.335599  0.876081  1
  Sc  Sc19  1  0.167651  0.664202  0.124129  1
  Pt  Pt20  1  0.032388  0.132505  0.749973  1
  Pt  Pt21  1  0.967807  0.868115  0.249651  1
  Pt  Pt22  1  0.467582  0.632402  0.249994  1
  Pt  Pt23  1  0.532380  0.367518  0.750023  1
  Pt  Pt24  1  0.292876  0.861647  0.749990  1
  Pt  Pt25  1  0.707776  0.138425  0.249626  1
  Pt  Pt26  1  0.206523  0.360923  0.249428  1
  Pt  Pt27  1  0.792823  0.638360  0.750014  1
  Pt  Pt28  1  0.168244  0.455816  0.544860  1
  Pt  Pt29  1  0.831784  0.544074  0.455151  1
  Pt  Pt30  1  0.331721  0.955816  0.455179  1
  Pt  Pt31  1  0.832071  0.543146  0.045016  1
  Pt  Pt32  1  0.668279  0.044161  0.544849  1
  Pt  Pt33  1  0.167912  0.455176  0.955451  1
  Pt  Pt34  1  0.668571  0.044266  0.955355  1
  Pt  Pt35  1  0.330725  0.956645  0.045034  1
