# generated using pymatgen
data_Cs12MgCdSe8
_symmetry_space_group_name_H-M   'P 1'
_cell_length_a   11.23684400
_cell_length_b   11.23684369
_cell_length_c   8.81024700
_cell_angle_alpha   90.00000000
_cell_angle_beta   90.00000000
_cell_angle_gamma   120.00000092
_symmetry_Int_Tables_number   1
_chemical_formula_structural   Cs12MgCdSe8
_chemical_formula_sum   'Cs12 Mg1 Cd1 Se8'
_cell_volume   963.40168832
_cell_formula_units_Z   1
loop_
 _symmetry_equiv_pos_site_id
 _symmetry_equiv_pos_as_xyz
  1  'x, y, z'
loop_
 _atom_site_type_symbol
 _atom_site_label
 _atom_site_symmetry_multiplicity
 _atom_site_fract_x
 _atom_site_fract_y
 _atom_site_fract_z
 _atom_site_occupancy
  Cs  Cs0  1  0.147030  0.852970  0.543427  1
  Cs  Cs1  1  0.294430  0.147215  0.042636  1
  Cs  Cs2  1  0.852785  0.705570  0.042636  1
  Cs  Cs3  1  0.147030  0.294060  0.543427  1
  Cs  Cs4  1  0.705940  0.852970  0.543427  1
  Cs  Cs5  1  0.852785  0.147215  0.042636  1
  Cs  Cs6  1  0.529515  0.470485  0.364759  1
  Cs  Cs7  1  0.059419  0.529709  0.866118  1
  Cs  Cs8  1  0.470291  0.940581  0.866118  1
  Cs  Cs9  1  0.529515  0.059030  0.364759  1
  Cs  Cs10  1  0.940970  0.470485  0.364759  1
  Cs  Cs11  1  0.470291  0.529709  0.866118  1
  Mg  Mg12  1  0.666667  0.333333  0.752409  1
  Cd  Cd13  1  0.333333  0.666667  0.250941  1
  Se  Se14  1  0.333333  0.666667  0.566831  1
  Se  Se15  1  0.666667  0.333333  0.057051  1
  Se  Se16  1  0.197687  0.802313  0.155784  1
  Se  Se17  1  0.403805  0.201903  0.658001  1
  Se  Se18  1  0.798097  0.596195  0.658001  1
  Se  Se19  1  0.197687  0.395372  0.155784  1
  Se  Se20  1  0.604628  0.802313  0.155784  1
  Se  Se21  1  0.798097  0.201903  0.658001  1
