# generated using pymatgen
data_Ho20Si12Cl
_symmetry_space_group_name_H-M   'P 1'
_cell_length_a   6.32981300
_cell_length_b   8.41827962
_cell_length_c   14.67603200
_cell_angle_alpha   89.99996687
_cell_angle_beta   90.00002076
_cell_angle_gamma   89.97652292
_symmetry_Int_Tables_number   1
_chemical_formula_structural   Ho20Si12Cl
_chemical_formula_sum   'Ho20 Si12 Cl1'
_cell_volume   782.02896800
_cell_formula_units_Z   1
loop_
 _symmetry_equiv_pos_site_id
 _symmetry_equiv_pos_as_xyz
  1  'x, y, z'
loop_
 _atom_site_type_symbol
 _atom_site_label
 _atom_site_symmetry_multiplicity
 _atom_site_fract_x
 _atom_site_fract_y
 _atom_site_fract_z
 _atom_site_occupancy
  Ho  Ho0  1  0.500003  0.000001  0.332548  1
  Ho  Ho1  1  0.500001  0.499995  0.831929  1
  Ho  Ho2  1  0.500002  0.499998  0.168046  1
  Ho  Ho3  1  0.499999  0.000002  0.667456  1
  Ho  Ho4  1  0.000002  0.500000  0.169610  1
  Ho  Ho5  1  0.000000  0.000000  0.663164  1
  Ho  Ho6  1  0.000003  0.000001  0.336861  1
  Ho  Ho7  1  0.000003  0.500001  0.830378  1
  Ho  Ho8  1  0.763738  0.256496  0.999978  1
  Ho  Ho9  1  0.747525  0.742791  0.500030  1
  Ho  Ho10  1  0.750123  0.376838  0.380057  1
  Ho  Ho11  1  0.765538  0.871671  0.872483  1
  Ho  Ho12  1  0.765509  0.871715  0.127469  1
  Ho  Ho13  1  0.750091  0.376806  0.619988  1
  Ho  Ho14  1  0.236258  0.743505  0.999978  1
  Ho  Ho15  1  0.252476  0.257211  0.500030  1
  Ho  Ho16  1  0.234481  0.128284  0.127471  1
  Ho  Ho17  1  0.249917  0.623195  0.619989  1
  Ho  Ho18  1  0.249877  0.623165  0.380058  1
  Ho  Ho19  1  0.234447  0.128326  0.872481  1
  Si  Si20  1  0.753724  0.607944  0.000015  1
  Si  Si21  1  0.745671  0.105495  0.499995  1
  Si  Si22  1  0.754833  0.196516  0.197850  1
  Si  Si23  1  0.751264  0.696291  0.696063  1
  Si  Si24  1  0.751277  0.696252  0.303942  1
  Si  Si25  1  0.754821  0.196551  0.802148  1
  Si  Si26  1  0.246275  0.392054  0.000014  1
  Si  Si27  1  0.254333  0.894507  0.499997  1
  Si  Si28  1  0.248722  0.303749  0.303943  1
  Si  Si29  1  0.245188  0.803445  0.802149  1
  Si  Si30  1  0.245168  0.803482  0.197852  1
  Si  Si31  1  0.248741  0.303709  0.696063  1
  Cl  Cl32  1  0.499991  0.000004  0.999966  1
