# generated using pymatgen
data_Rb3(PtO2)2
_symmetry_space_group_name_H-M   'P 1'
_cell_length_a   5.88449370
_cell_length_b   5.88448963
_cell_length_c   11.89934100
_cell_angle_alpha   90.00000000
_cell_angle_beta   90.00000000
_cell_angle_gamma   114.62993801
_symmetry_Int_Tables_number   1
_chemical_formula_structural   Rb3(PtO2)2
_chemical_formula_sum   'Rb6 Pt4 O8'
_cell_volume   374.55320939
_cell_formula_units_Z   2
loop_
 _symmetry_equiv_pos_site_id
 _symmetry_equiv_pos_as_xyz
  1  'x, y, z'
loop_
 _atom_site_type_symbol
 _atom_site_label
 _atom_site_symmetry_multiplicity
 _atom_site_fract_x
 _atom_site_fract_y
 _atom_site_fract_z
 _atom_site_occupancy
  Rb  Rb0  1  0.350027  0.649974  0.569484  1
  Rb  Rb1  1  0.649973  0.350026  0.069484  1
  Rb  Rb2  1  0.286676  0.713323  0.250000  1
  Rb  Rb3  1  0.649973  0.350026  0.430516  1
  Rb  Rb4  1  0.713324  0.286677  0.750000  1
  Rb  Rb5  1  0.350027  0.649974  0.930516  1
  Pt  Pt6  1  0.074534  0.925472  0.750000  1
  Pt  Pt7  1  0.000000  0.000000  0.000000  1
  Pt  Pt8  1  0.925466  0.074528  0.250000  1
  Pt  Pt9  1  0.000000  0.000000  0.500000  1
  O  O10  1  0.124596  0.277414  0.383696  1
  O  O11  1  0.722588  0.875406  0.383696  1
  O  O12  1  0.277412  0.124594  0.616304  1
  O  O13  1  0.722588  0.875406  0.116304  1
  O  O14  1  0.875404  0.722586  0.616304  1
  O  O15  1  0.277412  0.124594  0.883696  1
  O  O16  1  0.124596  0.277414  0.116304  1
  O  O17  1  0.875404  0.722586  0.883696  1
