# generated using pymatgen
data_Rb3Ho(AsSe2)6
_symmetry_space_group_name_H-M   'P 1'
_cell_length_a   9.87540100
_cell_length_b   9.87540150
_cell_length_c   8.38179500
_cell_angle_alpha   90.00000000
_cell_angle_beta   90.00000000
_cell_angle_gamma   119.99999499
_symmetry_Int_Tables_number   1
_chemical_formula_structural   Rb3Ho(AsSe2)6
_chemical_formula_sum   'Rb3 Ho1 As6 Se12'
_cell_volume   707.90860165
_cell_formula_units_Z   1
loop_
 _symmetry_equiv_pos_site_id
 _symmetry_equiv_pos_as_xyz
  1  'x, y, z'
loop_
 _atom_site_type_symbol
 _atom_site_label
 _atom_site_symmetry_multiplicity
 _atom_site_fract_x
 _atom_site_fract_y
 _atom_site_fract_z
 _atom_site_occupancy
  Rb  Rb0  1  0.000000  0.000000  0.000000  1
  Rb  Rb1  1  0.333333  0.666667  0.838392  1
  Rb  Rb2  1  0.666667  0.333333  0.161608  1
  Ho  Ho3  1  0.000000  0.000000  0.500000  1
  As  As4  1  0.293260  0.839427  0.370542  1
  As  As5  1  0.160573  0.453833  0.370542  1
  As  As6  1  0.546167  0.706740  0.370542  1
  As  As7  1  0.706740  0.160573  0.629458  1
  As  As8  1  0.839427  0.546167  0.629458  1
  As  As9  1  0.453833  0.293260  0.629458  1
  Se  Se10  1  0.265449  0.059052  0.302935  1
  Se  Se11  1  0.940948  0.206399  0.302935  1
  Se  Se12  1  0.793601  0.734551  0.302935  1
  Se  Se13  1  0.734551  0.940948  0.697065  1
  Se  Se14  1  0.059052  0.793601  0.697065  1
  Se  Se15  1  0.206399  0.265449  0.697065  1
  Se  Se16  1  0.530161  0.906402  0.208176  1
  Se  Se17  1  0.093598  0.623759  0.208176  1
  Se  Se18  1  0.376241  0.469839  0.208176  1
  Se  Se19  1  0.469839  0.093598  0.791824  1
  Se  Se20  1  0.906402  0.376241  0.791824  1
  Se  Se21  1  0.623759  0.530161  0.791824  1
