# generated using pymatgen
data_Eu2AgSnHgPb
_symmetry_space_group_name_H-M   'P 1'
_cell_length_a   4.95862900
_cell_length_b   4.95862866
_cell_length_c   7.87987200
_cell_angle_alpha   90.00000000
_cell_angle_beta   90.00000000
_cell_angle_gamma   120.00000894
_symmetry_Int_Tables_number   1
_chemical_formula_structural   Eu2AgSnHgPb
_chemical_formula_sum   'Eu2 Ag1 Sn1 Hg1 Pb1'
_cell_volume   167.79265950
_cell_formula_units_Z   1
loop_
 _symmetry_equiv_pos_site_id
 _symmetry_equiv_pos_as_xyz
  1  'x, y, z'
loop_
 _atom_site_type_symbol
 _atom_site_label
 _atom_site_symmetry_multiplicity
 _atom_site_fract_x
 _atom_site_fract_y
 _atom_site_fract_z
 _atom_site_occupancy
  Eu  Eu0  1  0.000000  0.000000  0.738136  1
  Eu  Eu1  1  0.000000  0.000000  0.262664  1
  Ag  Ag2  1  0.666667  0.333333  0.535939  1
  Sn  Sn3  1  0.333333  0.666667  0.479417  1
  Hg  Hg4  1  0.333333  0.666667  0.070733  1
  Pb  Pb5  1  0.666667  0.333333  0.953111  1
