# generated using pymatgen
data_CeHo3V(ReN4)3
_symmetry_space_group_name_H-M   'P 1'
_cell_length_a   7.30350875
_cell_length_b   7.35067356
_cell_length_c   6.23559100
_cell_angle_alpha   73.47244819
_cell_angle_beta   73.68233436
_cell_angle_gamma   83.01503465
_symmetry_Int_Tables_number   1
_chemical_formula_structural   CeHo3V(ReN4)3
_chemical_formula_sum   'Ce1 Ho3 V1 Re3 N12'
_cell_volume   307.68703843
_cell_formula_units_Z   1
loop_
 _symmetry_equiv_pos_site_id
 _symmetry_equiv_pos_as_xyz
  1  'x, y, z'
loop_
 _atom_site_type_symbol
 _atom_site_label
 _atom_site_symmetry_multiplicity
 _atom_site_fract_x
 _atom_site_fract_y
 _atom_site_fract_z
 _atom_site_occupancy
  Ce  Ce0  1  0.687690  0.281304  0.248064  1
  Ho  Ho1  1  0.908691  0.084419  0.755576  1
  Ho  Ho2  1  0.305319  0.711222  0.745242  1
  Ho  Ho3  1  0.092770  0.904235  0.254732  1
  V  V4  1  0.619120  0.800115  0.269756  1
  Re  Re5  1  0.198059  0.381497  0.231538  1
  Re  Re6  1  0.378073  0.205452  0.737519  1
  Re  Re7  1  0.794240  0.622484  0.770470  1
  N  N8  1  0.353885  0.360993  0.937605  1
  N  N9  1  0.005195  0.215046  0.336792  1
  N  N10  1  0.786010  0.989641  0.150985  1
  N  N11  1  0.227741  0.000331  0.847064  1
  N  N12  1  0.650477  0.642858  0.056783  1
  N  N13  1  0.871561  0.375187  0.833853  1
  N  N14  1  0.121559  0.626826  0.155197  1
  N  N15  1  0.000958  0.776725  0.659237  1
  N  N16  1  0.384238  0.879950  0.343017  1
  N  N17  1  0.639686  0.662467  0.566828  1
  N  N18  1  0.631911  0.134513  0.649154  1
  N  N19  1  0.342821  0.344730  0.450590  1
