# generated using pymatgen
data_Ta8AlInS16
_symmetry_space_group_name_H-M   'P 1'
_cell_length_a   6.67627100
_cell_length_b   6.67627373
_cell_length_c   13.64257700
_cell_angle_alpha   90.00000000
_cell_angle_beta   90.00000000
_cell_angle_gamma   120.00001124
_symmetry_Int_Tables_number   1
_chemical_formula_structural   Ta8AlInS16
_chemical_formula_sum   'Ta8 Al1 In1 S16'
_cell_volume   526.61725865
_cell_formula_units_Z   1
loop_
 _symmetry_equiv_pos_site_id
 _symmetry_equiv_pos_as_xyz
  1  'x, y, z'
loop_
 _atom_site_type_symbol
 _atom_site_label
 _atom_site_symmetry_multiplicity
 _atom_site_fract_x
 _atom_site_fract_y
 _atom_site_fract_z
 _atom_site_occupancy
  Ta  Ta0  1  0.000000  0.000000  0.225294  1
  Ta  Ta1  1  0.000000  0.000000  0.774706  1
  Ta  Ta2  1  0.503828  0.007659  0.225480  1
  Ta  Ta3  1  0.496172  0.992341  0.774520  1
  Ta  Ta4  1  0.992341  0.496172  0.225480  1
  Ta  Ta5  1  0.007659  0.503828  0.774520  1
  Ta  Ta6  1  0.503828  0.496172  0.225480  1
  Ta  Ta7  1  0.496172  0.503828  0.774520  1
  Al  Al8  1  0.000000  0.000000  0.000000  1
  In  In9  1  0.000000  0.000000  0.500000  1
  S  S10  1  0.333333  0.666667  0.658383  1
  S  S11  1  0.666667  0.333333  0.341617  1
  S  S12  1  0.666667  0.333333  0.110804  1
  S  S13  1  0.333333  0.666667  0.889196  1
  S  S14  1  0.167337  0.334673  0.109454  1
  S  S15  1  0.832663  0.665327  0.890546  1
  S  S16  1  0.665327  0.832663  0.109454  1
  S  S17  1  0.834159  0.668316  0.661795  1
  S  S18  1  0.334673  0.167337  0.890546  1
  S  S19  1  0.165841  0.331684  0.338205  1
  S  S20  1  0.167337  0.832663  0.109454  1
  S  S21  1  0.331684  0.165841  0.661795  1
  S  S22  1  0.832663  0.167337  0.890546  1
  S  S23  1  0.668316  0.834159  0.338205  1
  S  S24  1  0.834159  0.165841  0.661795  1
  S  S25  1  0.165841  0.834159  0.338205  1
