# generated using pymatgen
data_NdY(Si7Ir3)2
_symmetry_space_group_name_H-M   'P 1'
_cell_length_a   8.08527096
_cell_length_b   8.08527116
_cell_length_c   8.08527105
_cell_angle_alpha   56.51654557
_cell_angle_beta   56.51654477
_cell_angle_gamma   56.51654195
_symmetry_Int_Tables_number   1
_chemical_formula_structural   NdY(Si7Ir3)2
_chemical_formula_sum   'Nd1 Y1 Si14 Ir6'
_cell_volume   343.64999267
_cell_formula_units_Z   1
loop_
 _symmetry_equiv_pos_site_id
 _symmetry_equiv_pos_as_xyz
  1  'x, y, z'
loop_
 _atom_site_type_symbol
 _atom_site_label
 _atom_site_symmetry_multiplicity
 _atom_site_fract_x
 _atom_site_fract_y
 _atom_site_fract_z
 _atom_site_occupancy
  Nd  Nd0  1  0.000000  0.000000  0.000000  1
  Y  Y1  1  0.500000  0.500000  0.500000  1
  Si  Si2  1  0.750604  0.750604  0.750604  1
  Si  Si3  1  0.249396  0.249396  0.249396  1
  Si  Si4  1  0.849195  0.065094  0.672031  1
  Si  Si5  1  0.672031  0.849195  0.065094  1
  Si  Si6  1  0.065094  0.672031  0.849195  1
  Si  Si7  1  0.648320  0.826669  0.437795  1
  Si  Si8  1  0.437795  0.648320  0.826669  1
  Si  Si9  1  0.826669  0.437795  0.648320  1
  Si  Si10  1  0.173331  0.562205  0.351680  1
  Si  Si11  1  0.562205  0.351680  0.173331  1
  Si  Si12  1  0.351680  0.173331  0.562205  1
  Si  Si13  1  0.934906  0.327969  0.150805  1
  Si  Si14  1  0.327969  0.150805  0.934906  1
  Si  Si15  1  0.150805  0.934906  0.327969  1
  Ir  Ir16  1  0.070628  0.432086  0.748071  1
  Ir  Ir17  1  0.251929  0.929372  0.567914  1
  Ir  Ir18  1  0.567914  0.251929  0.929372  1
  Ir  Ir19  1  0.929372  0.567914  0.251929  1
  Ir  Ir20  1  0.432086  0.748071  0.070628  1
  Ir  Ir21  1  0.748071  0.070628  0.432086  1
