# generated using pymatgen
data_TbU7F30
_symmetry_space_group_name_H-M   'P 1'
_cell_length_a   8.71940617
_cell_length_b   8.72674605
_cell_length_c   8.71940696
_cell_angle_alpha   100.43076307
_cell_angle_beta   99.82252659
_cell_angle_gamma   100.43076720
_symmetry_Int_Tables_number   1
_chemical_formula_structural   TbU7F30
_chemical_formula_sum   'Tb1 U7 F30'
_cell_volume   627.38341536
_cell_formula_units_Z   1
loop_
 _symmetry_equiv_pos_site_id
 _symmetry_equiv_pos_as_xyz
  1  'x, y, z'
loop_
 _atom_site_type_symbol
 _atom_site_label
 _atom_site_symmetry_multiplicity
 _atom_site_fract_x
 _atom_site_fract_y
 _atom_site_fract_z
 _atom_site_occupancy
  Tb  Tb0  1  0.823749  0.250000  0.676251  1
  U  U1  1  0.251025  0.250000  0.248975  1
  U  U2  1  0.177927  0.750000  0.322073  1
  U  U3  1  0.246719  0.675272  0.821919  1
  U  U4  1  0.678081  0.824728  0.253281  1
  U  U5  1  0.749570  0.750000  0.750430  1
  U  U6  1  0.322932  0.178401  0.748658  1
  U  U7  1  0.751342  0.321599  0.177068  1
  F  F8  1  0.964396  0.535706  0.250878  1
  F  F9  1  0.812491  0.342344  0.443291  1
  F  F10  1  0.489095  0.721850  0.720999  1
  F  F11  1  0.349000  0.447490  0.816652  1
  F  F12  1  0.009768  0.779765  0.777924  1
  F  F13  1  0.750640  0.036063  0.463330  1
  F  F14  1  0.948712  0.845197  0.314565  1
  F  F15  1  0.219475  0.224899  0.991569  1
  F  F16  1  0.776440  0.004302  0.772471  1
  F  F17  1  0.314245  0.945370  0.843012  1
  F  F18  1  0.278732  0.278226  0.507549  1
  F  F19  1  0.447958  0.815863  0.349333  1
  F  F20  1  0.529980  0.250000  0.970020  1
  F  F21  1  0.278153  0.510312  0.272856  1
  F  F22  1  0.150667  0.684137  0.052042  1
  F  F23  1  0.838543  0.310852  0.946816  1
  F  F24  1  0.727529  0.495698  0.723560  1
  F  F25  1  0.462273  0.750000  0.037727  1
  F  F26  1  0.553184  0.189148  0.661457  1
  F  F27  1  0.722076  0.720235  0.490232  1
  F  F28  1  0.683348  0.052510  0.151000  1
  F  F29  1  0.227144  0.989688  0.221847  1
  F  F30  1  0.779001  0.778150  0.010905  1
  F  F31  1  0.056709  0.157656  0.687509  1
  F  F32  1  0.249122  0.964294  0.535604  1
  F  F33  1  0.992451  0.221774  0.221268  1
  F  F34  1  0.656988  0.554630  0.185755  1
  F  F35  1  0.508431  0.275101  0.280525  1
  F  F36  1  0.185435  0.654803  0.551288  1
  F  F37  1  0.036670  0.463937  0.749360  1
