# generated using pymatgen
data_SrSmEr(Si3Pd10)2
_symmetry_space_group_name_H-M   'P 1'
_cell_length_a   8.75965690
_cell_length_b   8.75909766
_cell_length_c   8.75917100
_cell_angle_alpha   60.00039864
_cell_angle_beta   59.99915746
_cell_angle_gamma   60.00033259
_symmetry_Int_Tables_number   1
_chemical_formula_structural   SrSmEr(Si3Pd10)2
_chemical_formula_sum   'Sr1 Sm1 Er1 Si6 Pd20'
_cell_volume   475.21933945
_cell_formula_units_Z   1
loop_
 _symmetry_equiv_pos_site_id
 _symmetry_equiv_pos_as_xyz
  1  'x, y, z'
loop_
 _atom_site_type_symbol
 _atom_site_label
 _atom_site_symmetry_multiplicity
 _atom_site_fract_x
 _atom_site_fract_y
 _atom_site_fract_z
 _atom_site_occupancy
  Sr  Sr0  1  0.250082  0.249954  0.249984  1
  Sm  Sm1  1  0.749964  0.750005  0.750026  1
  Er  Er2  1  0.999919  0.000103  0.999898  1
  Si  Si3  1  0.732774  0.267232  0.267258  1
  Si  Si4  1  0.267236  0.732759  0.732763  1
  Si  Si5  1  0.267219  0.732793  0.267227  1
  Si  Si6  1  0.732754  0.267223  0.732764  1
  Si  Si7  1  0.267243  0.267216  0.732788  1
  Si  Si8  1  0.732771  0.732768  0.267223  1
  Pd  Pd9  1  0.346705  0.997446  0.997455  1
  Pd  Pd10  1  0.658375  0.997433  0.997453  1
  Pd  Pd11  1  0.997442  0.346753  0.658379  1
  Pd  Pd12  1  0.997442  0.658391  0.346722  1
  Pd  Pd13  1  0.997443  0.346753  0.997430  1
  Pd  Pd14  1  0.658403  0.997423  0.346730  1
  Pd  Pd15  1  0.997439  0.658370  0.997456  1
  Pd  Pd16  1  0.346737  0.997436  0.658401  1
  Pd  Pd17  1  0.997448  0.997424  0.346729  1
  Pd  Pd18  1  0.997439  0.997435  0.658391  1
  Pd  Pd19  1  0.658379  0.346772  0.997423  1
  Pd  Pd20  1  0.346721  0.658377  0.997458  1
  Pd  Pd21  1  0.387222  0.387248  0.387269  1
  Pd  Pd22  1  0.616356  0.616316  0.616348  1
  Pd  Pd23  1  0.387248  0.387257  0.838253  1
  Pd  Pd24  1  0.387243  0.838250  0.387257  1
  Pd  Pd25  1  0.616353  0.616313  0.151016  1
  Pd  Pd26  1  0.616351  0.150986  0.616333  1
  Pd  Pd27  1  0.838372  0.387220  0.387204  1
  Pd  Pd28  1  0.150920  0.616345  0.616364  1
