# generated using pymatgen
data_NdBi9(MoO8)3
_symmetry_space_group_name_H-M   'P 1'
_cell_length_a   12.25571260
_cell_length_b   12.30892777
_cell_length_c   8.86392979
_cell_angle_alpha   84.92528653
_cell_angle_beta   85.13436252
_cell_angle_gamma   27.24897956
_symmetry_Int_Tables_number   1
_chemical_formula_structural   NdBi9(MoO8)3
_chemical_formula_sum   'Nd1 Bi9 Mo3 O24'
_cell_volume   609.77610512
_cell_formula_units_Z   1
loop_
 _symmetry_equiv_pos_site_id
 _symmetry_equiv_pos_as_xyz
  1  'x, y, z'
loop_
 _atom_site_type_symbol
 _atom_site_label
 _atom_site_symmetry_multiplicity
 _atom_site_fract_x
 _atom_site_fract_y
 _atom_site_fract_z
 _atom_site_occupancy
  Nd  Nd0  1  0.452791  0.474327  0.300975  1
  Bi  Bi1  1  0.600644  0.786939  0.454190  1
  Bi  Bi2  1  0.528823  0.544394  0.664505  1
  Bi  Bi3  1  0.194765  0.276057  0.191586  1
  Bi  Bi4  1  0.060568  0.086700  0.413853  1
  Bi  Bi5  1  0.209757  0.404663  0.545510  1
  Bi  Bi6  1  0.125079  0.175118  0.749596  1
  Bi  Bi7  1  0.918367  0.931380  0.579692  1
  Bi  Bi8  1  0.820939  0.878428  0.251498  1
  Bi  Bi9  1  0.730299  0.794883  0.812108  1
  Mo  Mo10  1  0.330131  0.421310  0.930096  1
  Mo  Mo11  1  0.001176  0.001646  0.002488  1
  Mo  Mo12  1  0.563508  0.683723  0.073414  1
  O  O13  1  0.893106  0.760955  0.646409  1
  O  O14  1  0.383138  0.962019  0.012574  1
  O  O15  1  0.239951  0.103299  0.354186  1
  O  O16  1  0.224508  0.901496  0.929363  1
  O  O17  1  0.713553  0.289912  0.495703  1
  O  O18  1  0.002637  0.543739  0.352873  1
  O  O19  1  0.225918  0.773632  0.493500  1
  O  O20  1  0.821893  0.209822  0.152111  1
  O  O21  1  0.727131  0.493792  0.914723  1
  O  O22  1  0.513851  0.278148  0.093940  1
  O  O23  1  0.468764  0.190419  0.835777  1
  O  O24  1  0.293159  0.564013  0.785014  1
  O  O25  1  0.659269  0.132723  0.400715  1
  O  O26  1  0.790440  0.545708  0.181544  1
  O  O27  1  0.430118  0.701162  0.212825  1
  O  O28  1  0.862319  0.349604  0.590973  1
  O  O29  1  0.144866  0.751918  0.088626  1
  O  O30  1  0.353230  0.862759  0.580619  1
  O  O31  1  0.979788  0.471989  0.692591  1
  O  O32  1  0.131051  0.646239  0.412804  1
  O  O33  1  0.521572  0.027151  0.313175  1
  O  O34  1  0.822766  0.132920  0.845900  1
  O  O35  1  0.047369  0.611458  0.992713  1
  O  O36  1  0.457335  0.990976  0.651831  1
