# generated using pymatgen
data_Ce4ZnCoSi6
_symmetry_space_group_name_H-M   'P 1'
_cell_length_a   8.10762000
_cell_length_b   8.10761923
_cell_length_c   4.15410700
_cell_angle_alpha   90.00000000
_cell_angle_beta   90.00000000
_cell_angle_gamma   120.00000312
_symmetry_Int_Tables_number   1
_chemical_formula_structural   Ce4ZnCoSi6
_chemical_formula_sum   'Ce4 Zn1 Co1 Si6'
_cell_volume   236.48033200
_cell_formula_units_Z   1
loop_
 _symmetry_equiv_pos_site_id
 _symmetry_equiv_pos_as_xyz
  1  'x, y, z'
loop_
 _atom_site_type_symbol
 _atom_site_label
 _atom_site_symmetry_multiplicity
 _atom_site_fract_x
 _atom_site_fract_y
 _atom_site_fract_z
 _atom_site_occupancy
  Ce  Ce0  1  0.506716  0.493284  0.000000  1
  Ce  Ce1  1  0.986567  0.493284  0.000000  1
  Ce  Ce2  1  0.506716  0.013433  0.000000  1
  Ce  Ce3  1  0.000000  0.000000  0.000000  1
  Zn  Zn4  1  0.333333  0.666667  0.500000  1
  Co  Co5  1  0.666667  0.333333  0.500000  1
  Si  Si6  1  0.828303  0.656605  0.500000  1
  Si  Si7  1  0.164563  0.835437  0.500000  1
  Si  Si8  1  0.670873  0.835437  0.500000  1
  Si  Si9  1  0.164563  0.329127  0.500000  1
  Si  Si10  1  0.828303  0.171697  0.500000  1
  Si  Si11  1  0.343395  0.171697  0.500000  1
