# generated using pymatgen
data_Tb16MgCd3TcNi3
_symmetry_space_group_name_H-M   'P 1'
_cell_length_a   9.65169997
_cell_length_b   9.65170032
_cell_length_c   9.65169998
_cell_angle_alpha   59.31262952
_cell_angle_beta   59.31263037
_cell_angle_gamma   59.31262459
_symmetry_Int_Tables_number   1
_chemical_formula_structural   Tb16MgCd3TcNi3
_chemical_formula_sum   'Tb16 Mg1 Cd3 Tc1 Ni3'
_cell_volume   625.81483758
_cell_formula_units_Z   1
loop_
 _symmetry_equiv_pos_site_id
 _symmetry_equiv_pos_as_xyz
  1  'x, y, z'
loop_
 _atom_site_type_symbol
 _atom_site_label
 _atom_site_symmetry_multiplicity
 _atom_site_fract_x
 _atom_site_fract_y
 _atom_site_fract_z
 _atom_site_occupancy
  Tb  Tb0  1  0.348167  0.348167  0.348167  1
  Tb  Tb1  1  0.350165  0.350165  0.956281  1
  Tb  Tb2  1  0.350165  0.956281  0.350165  1
  Tb  Tb3  1  0.956281  0.350165  0.350165  1
  Tb  Tb4  1  0.810311  0.188589  0.188589  1
  Tb  Tb5  1  0.186744  0.811555  0.811555  1
  Tb  Tb6  1  0.188589  0.810311  0.188589  1
  Tb  Tb7  1  0.811555  0.186744  0.811555  1
  Tb  Tb8  1  0.188589  0.188589  0.810311  1
  Tb  Tb9  1  0.811555  0.811555  0.186744  1
  Tb  Tb10  1  0.936059  0.565745  0.565745  1
  Tb  Tb11  1  0.555913  0.939095  0.939095  1
  Tb  Tb12  1  0.565745  0.936059  0.565745  1
  Tb  Tb13  1  0.939095  0.555913  0.939095  1
  Tb  Tb14  1  0.565745  0.565745  0.936059  1
  Tb  Tb15  1  0.939095  0.939095  0.555913  1
  Mg  Mg16  1  0.575249  0.575249  0.575249  1
  Cd  Cd17  1  0.580188  0.580188  0.254975  1
  Cd  Cd18  1  0.580188  0.254975  0.580188  1
  Cd  Cd19  1  0.254975  0.580188  0.580188  1
  Tc  Tc20  1  0.143741  0.143741  0.143741  1
  Ni  Ni21  1  0.143155  0.143155  0.575579  1
  Ni  Ni22  1  0.143155  0.575579  0.143155  1
  Ni  Ni23  1  0.575579  0.143155  0.143155  1
