# generated using pymatgen
data_Eu3Er5(MgSn4)2
_symmetry_space_group_name_H-M   'P 1'
_cell_length_a   7.83494704
_cell_length_b   8.41542211
_cell_length_c   15.59541900
_cell_angle_alpha   89.99118309
_cell_angle_beta   89.99430329
_cell_angle_gamma   89.99677874
_symmetry_Int_Tables_number   1
_chemical_formula_structural   Eu3Er5(MgSn4)2
_chemical_formula_sum   'Eu6 Er10 Mg4 Sn16'
_cell_volume   1028.27436608
_cell_formula_units_Z   2
loop_
 _symmetry_equiv_pos_site_id
 _symmetry_equiv_pos_as_xyz
  1  'x, y, z'
loop_
 _atom_site_type_symbol
 _atom_site_label
 _atom_site_symmetry_multiplicity
 _atom_site_fract_x
 _atom_site_fract_y
 _atom_site_fract_z
 _atom_site_occupancy
  Eu  Eu0  1  0.002474  0.182031  0.095782  1
  Eu  Eu1  1  0.997526  0.817969  0.904218  1
  Eu  Eu2  1  0.496829  0.680845  0.906100  1
  Eu  Eu3  1  0.997931  0.816383  0.591614  1
  Eu  Eu4  1  0.503171  0.319155  0.093900  1
  Eu  Eu5  1  0.002069  0.183617  0.408386  1
  Er  Er6  1  0.502762  0.313467  0.408152  1
  Er  Er7  1  0.497238  0.686533  0.591848  1
  Er  Er8  1  0.330229  0.168013  0.624722  1
  Er  Er9  1  0.669771  0.831987  0.375278  1
  Er  Er10  1  0.172819  0.666838  0.377169  1
  Er  Er11  1  0.673122  0.832899  0.126200  1
  Er  Er12  1  0.827181  0.333162  0.622831  1
  Er  Er13  1  0.326878  0.167101  0.873800  1
  Er  Er14  1  0.827489  0.332082  0.874096  1
  Er  Er15  1  0.172511  0.667918  0.125904  1
  Mg  Mg16  1  0.158350  0.504257  0.749504  1
  Mg  Mg17  1  0.841650  0.495743  0.250496  1
  Mg  Mg18  1  0.340850  0.005053  0.250350  1
  Mg  Mg19  1  0.659150  0.994947  0.749650  1
  Sn  Sn20  1  0.022012  0.112417  0.747438  1
  Sn  Sn21  1  0.977988  0.887583  0.252562  1
  Sn  Sn22  1  0.480246  0.609502  0.251299  1
  Sn  Sn23  1  0.519754  0.390498  0.748701  1
  Sn  Sn24  1  0.184740  0.461961  0.540895  1
  Sn  Sn25  1  0.815260  0.538039  0.459105  1
  Sn  Sn26  1  0.330798  0.962327  0.459507  1
  Sn  Sn27  1  0.831180  0.540316  0.040517  1
  Sn  Sn28  1  0.669202  0.037673  0.540493  1
  Sn  Sn29  1  0.168820  0.459684  0.959483  1
  Sn  Sn30  1  0.669429  0.039500  0.959336  1
  Sn  Sn31  1  0.330571  0.960500  0.040664  1
  Sn  Sn32  1  0.296297  0.860478  0.746559  1
  Sn  Sn33  1  0.703703  0.139522  0.253441  1
  Sn  Sn34  1  0.213609  0.362864  0.254321  1
  Sn  Sn35  1  0.786391  0.637136  0.745679  1
