# generated using pymatgen
data_TbNdHo2(WO6)2
_symmetry_space_group_name_H-M   'P 1'
_cell_length_a   5.45196300
_cell_length_b   7.76452604
_cell_length_c   11.54051655
_cell_angle_alpha   75.63344929
_cell_angle_beta   90.00000000
_cell_angle_gamma   90.00000000
_symmetry_Int_Tables_number   1
_chemical_formula_structural   TbNdHo2(WO6)2
_chemical_formula_sum   'Tb2 Nd2 Ho4 W4 O24'
_cell_volume   473.25480540
_cell_formula_units_Z   2
loop_
 _symmetry_equiv_pos_site_id
 _symmetry_equiv_pos_as_xyz
  1  'x, y, z'
loop_
 _atom_site_type_symbol
 _atom_site_label
 _atom_site_symmetry_multiplicity
 _atom_site_fract_x
 _atom_site_fract_y
 _atom_site_fract_z
 _atom_site_occupancy
  Tb  Tb0  1  0.740654  0.000000  0.750000  1
  Tb  Tb1  1  0.259346  0.000000  0.250000  1
  Nd  Nd2  1  0.685240  0.500000  0.750000  1
  Nd  Nd3  1  0.314760  0.500000  0.250000  1
  Ho  Ho4  1  0.187720  0.798048  0.577093  1
  Ho  Ho5  1  0.812280  0.798048  0.077093  1
  Ho  Ho6  1  0.187720  0.201952  0.922907  1
  Ho  Ho7  1  0.812280  0.201952  0.422907  1
  W  W8  1  0.252786  0.726568  0.885177  1
  W  W9  1  0.747214  0.726568  0.385177  1
  W  W10  1  0.252786  0.273432  0.614823  1
  W  W11  1  0.747214  0.273432  0.114823  1
  O  O12  1  0.041234  0.940848  0.896561  1
  O  O13  1  0.529797  0.847384  0.931553  1
  O  O14  1  0.958766  0.940848  0.396561  1
  O  O15  1  0.455291  0.792772  0.727653  1
  O  O16  1  0.470203  0.847384  0.431553  1
  O  O17  1  0.987104  0.717838  0.769714  1
  O  O18  1  0.544709  0.792772  0.227653  1
  O  O19  1  0.856931  0.640813  0.546165  1
  O  O20  1  0.350986  0.492323  0.888541  1
  O  O21  1  0.012896  0.717838  0.269714  1
  O  O22  1  0.350986  0.507677  0.611459  1
  O  O23  1  0.856931  0.359187  0.953835  1
  O  O24  1  0.143069  0.640813  0.046165  1
  O  O25  1  0.649014  0.492323  0.388541  1
  O  O26  1  0.987104  0.282162  0.730286  1
  O  O27  1  0.649014  0.507677  0.111459  1
  O  O28  1  0.143069  0.359187  0.453835  1
  O  O29  1  0.455291  0.207228  0.772347  1
  O  O30  1  0.012896  0.282162  0.230286  1
  O  O31  1  0.529797  0.152616  0.568447  1
  O  O32  1  0.544709  0.207228  0.272347  1
  O  O33  1  0.041234  0.059152  0.603439  1
  O  O34  1  0.470203  0.152616  0.068447  1
  O  O35  1  0.958766  0.059152  0.103439  1
