# generated using pymatgen
data_TbDy5PtI10
_symmetry_space_group_name_H-M   'P 1'
_cell_length_a   7.75090831
_cell_length_b   9.82548470
_cell_length_c   9.75638476
_cell_angle_alpha   107.09764184
_cell_angle_beta   104.56707260
_cell_angle_gamma   97.07654853
_symmetry_Int_Tables_number   1
_chemical_formula_structural   TbDy5PtI10
_chemical_formula_sum   'Tb1 Dy5 Pt1 I10'
_cell_volume   671.55578774
_cell_formula_units_Z   1
loop_
 _symmetry_equiv_pos_site_id
 _symmetry_equiv_pos_as_xyz
  1  'x, y, z'
loop_
 _atom_site_type_symbol
 _atom_site_label
 _atom_site_symmetry_multiplicity
 _atom_site_fract_x
 _atom_site_fract_y
 _atom_site_fract_z
 _atom_site_occupancy
  Tb  Tb0  1  0.884076  0.241007  0.957885  1
  Dy  Dy1  1  0.652665  0.833861  0.875592  1
  Dy  Dy2  1  0.347393  0.166225  0.124480  1
  Dy  Dy3  1  0.029585  0.913287  0.713775  1
  Dy  Dy4  1  0.970472  0.086084  0.286118  1
  Dy  Dy5  1  0.115549  0.760463  0.042008  1
  Pt  Pt6  1  0.999975  0.000116  0.999901  1
  I  I7  1  0.646351  0.727994  0.548685  1
  I  I8  1  0.353438  0.271912  0.451312  1
  I  I9  1  0.221002  0.654648  0.743802  1
  I  I10  1  0.778718  0.344877  0.257553  1
  I  I11  1  0.454133  0.090968  0.817681  1
  I  I12  1  0.544929  0.908398  0.181820  1
  I  I13  1  0.257276  0.461844  0.087171  1
  I  I14  1  0.744114  0.539407  0.913360  1
  I  I15  1  0.085620  0.821197  0.372598  1
  I  I16  1  0.914703  0.177712  0.626256  1
