# generated using pymatgen
data_Nd12CoNi3
_symmetry_space_group_name_H-M   'P 1'
_cell_length_a   6.45517454
_cell_length_b   7.08206692
_cell_length_c   9.93891300
_cell_angle_alpha   90.00000000
_cell_angle_beta   90.00000000
_cell_angle_gamma   89.79133554
_symmetry_Int_Tables_number   1
_chemical_formula_structural   Nd12CoNi3
_chemical_formula_sum   'Nd12 Co1 Ni3'
_cell_volume   454.36411561
_cell_formula_units_Z   1
loop_
 _symmetry_equiv_pos_site_id
 _symmetry_equiv_pos_as_xyz
  1  'x, y, z'
loop_
 _atom_site_type_symbol
 _atom_site_label
 _atom_site_symmetry_multiplicity
 _atom_site_fract_x
 _atom_site_fract_y
 _atom_site_fract_z
 _atom_site_occupancy
  Nd  Nd0  1  0.356556  0.535841  0.250000  1
  Nd  Nd1  1  0.142849  0.036259  0.250000  1
  Nd  Nd2  1  0.647482  0.462765  0.750000  1
  Nd  Nd3  1  0.861416  0.954634  0.750000  1
  Nd  Nd4  1  0.826593  0.673439  0.065223  1
  Nd  Nd5  1  0.672836  0.172827  0.434603  1
  Nd  Nd6  1  0.172656  0.331333  0.568839  1
  Nd  Nd7  1  0.323896  0.826385  0.932893  1
  Nd  Nd8  1  0.172656  0.331333  0.931161  1
  Nd  Nd9  1  0.323896  0.826385  0.567107  1
  Nd  Nd10  1  0.826593  0.673439  0.434777  1
  Nd  Nd11  1  0.672836  0.172827  0.065397  1
  Co  Co12  1  0.067230  0.615749  0.750000  1
  Ni  Ni13  1  0.567391  0.887061  0.250000  1
  Ni  Ni14  1  0.929198  0.385917  0.250000  1
  Ni  Ni15  1  0.435917  0.113807  0.750000  1
