# generated using pymatgen
data_Dy6Ho2Re3TcB24
_symmetry_space_group_name_H-M   'P 1'
_cell_length_a   3.68329200
_cell_length_b   9.16939540
_cell_length_c   11.55373601
_cell_angle_alpha   90.03433781
_cell_angle_beta   90.00000000
_cell_angle_gamma   90.00000000
_symmetry_Int_Tables_number   1
_chemical_formula_structural   Dy6Ho2Re3TcB24
_chemical_formula_sum   'Dy6 Ho2 Re3 Tc1 B24'
_cell_volume   390.21073451
_cell_formula_units_Z   1
loop_
 _symmetry_equiv_pos_site_id
 _symmetry_equiv_pos_as_xyz
  1  'x, y, z'
loop_
 _atom_site_type_symbol
 _atom_site_label
 _atom_site_symmetry_multiplicity
 _atom_site_fract_x
 _atom_site_fract_y
 _atom_site_fract_z
 _atom_site_occupancy
  Dy  Dy0  1  0.000000  0.323993  0.413801  1
  Dy  Dy1  1  0.000000  0.676285  0.586015  1
  Dy  Dy2  1  0.000000  0.823610  0.086003  1
  Dy  Dy3  1  0.000000  0.176662  0.913976  1
  Dy  Dy4  1  0.000000  0.941984  0.369584  1
  Dy  Dy5  1  0.000000  0.056926  0.629914  1
  Ho  Ho6  1  0.000000  0.443646  0.130692  1
  Ho  Ho7  1  0.000000  0.556882  0.870217  1
  Re  Re8  1  0.000000  0.361724  0.679401  1
  Re  Re9  1  0.000000  0.139095  0.179169  1
  Re  Re10  1  0.000000  0.860994  0.820862  1
  Tc  Tc11  1  0.000000  0.638466  0.320433  1
  B  B12  1  0.500000  0.553430  0.432624  1
  B  B13  1  0.500000  0.446774  0.567100  1
  B  B14  1  0.500000  0.053488  0.067085  1
  B  B15  1  0.500000  0.946678  0.932856  1
  B  B16  1  0.500000  0.748368  0.418327  1
  B  B17  1  0.500000  0.251207  0.581488  1
  B  B18  1  0.500000  0.249431  0.081533  1
  B  B19  1  0.500000  0.750815  0.918517  1
  B  B20  1  0.500000  0.791415  0.265365  1
  B  B21  1  0.500000  0.208214  0.734469  1
  B  B22  1  0.500000  0.292212  0.234552  1
  B  B23  1  0.500000  0.707761  0.765620  1
  B  B24  1  0.500000  0.630814  0.185709  1
  B  B25  1  0.500000  0.369393  0.814437  1
  B  B26  1  0.500000  0.130840  0.314243  1
  B  B27  1  0.500000  0.868933  0.685757  1
  B  B28  1  0.500000  0.982439  0.211696  1
  B  B29  1  0.500000  0.017482  0.788144  1
  B  B30  1  0.500000  0.482574  0.288118  1
  B  B31  1  0.500000  0.517756  0.712109  1
  B  B32  1  0.500000  0.599947  0.028077  1
  B  B33  1  0.500000  0.400279  0.972326  1
  B  B34  1  0.500000  0.100058  0.471772  1
  B  B35  1  0.500000  0.899428  0.528006  1
