# generated using pymatgen
data_Ac2Zr2O7
_symmetry_space_group_name_H-M   'P 1'
_cell_length_a   7.84073551
_cell_length_b   7.84073492
_cell_length_c   7.84073500
_cell_angle_alpha   59.99999545
_cell_angle_beta   59.99999795
_cell_angle_gamma   59.99999857
_symmetry_Int_Tables_number   1
_chemical_formula_structural   Ac2Zr2O7
_chemical_formula_sum   'Ac4 Zr4 O14'
_cell_volume   340.84374441
_cell_formula_units_Z   2
loop_
 _symmetry_equiv_pos_site_id
 _symmetry_equiv_pos_as_xyz
  1  'x, y, z'
loop_
 _atom_site_type_symbol
 _atom_site_label
 _atom_site_symmetry_multiplicity
 _atom_site_fract_x
 _atom_site_fract_y
 _atom_site_fract_z
 _atom_site_occupancy
  Ac  Ac0  1  0.625000  0.625000  0.125000  1
  Ac  Ac1  1  0.625000  0.125000  0.625000  1
  Ac  Ac2  1  0.125000  0.625000  0.625000  1
  Ac  Ac3  1  0.625000  0.625000  0.625000  1
  Zr  Zr4  1  0.125000  0.125000  0.625000  1
  Zr  Zr5  1  0.125000  0.625000  0.125000  1
  Zr  Zr6  1  0.625000  0.125000  0.125000  1
  Zr  Zr7  1  0.125000  0.125000  0.125000  1
  O  O8  1  0.750000  0.750000  0.750000  1
  O  O9  1  0.500000  0.500000  0.500000  1
  O  O10  1  0.046656  0.453344  0.046656  1
  O  O11  1  0.796656  0.203344  0.796656  1
  O  O12  1  0.046656  0.046656  0.453344  1
  O  O13  1  0.453344  0.046656  0.046656  1
  O  O14  1  0.046656  0.453344  0.453344  1
  O  O15  1  0.453344  0.453344  0.046656  1
  O  O16  1  0.453344  0.046656  0.453344  1
  O  O17  1  0.203344  0.796656  0.796656  1
  O  O18  1  0.796656  0.203344  0.203344  1
  O  O19  1  0.203344  0.796656  0.203344  1
  O  O20  1  0.796656  0.796656  0.203344  1
  O  O21  1  0.203344  0.203344  0.796656  1
