# generated using pymatgen
data_Dy5Sc5In8(PtRh)2
_symmetry_space_group_name_H-M   'P 1'
_cell_length_a   3.55665900
_cell_length_b   7.91815730
_cell_length_c   17.82625208
_cell_angle_alpha   90.21464562
_cell_angle_beta   90.00000000
_cell_angle_gamma   90.00000000
_symmetry_Int_Tables_number   1
_chemical_formula_structural   Dy5Sc5In8(PtRh)2
_chemical_formula_sum   'Dy5 Sc5 In8 Pt2 Rh2'
_cell_volume   502.02269371
_cell_formula_units_Z   1
loop_
 _symmetry_equiv_pos_site_id
 _symmetry_equiv_pos_as_xyz
  1  'x, y, z'
loop_
 _atom_site_type_symbol
 _atom_site_label
 _atom_site_symmetry_multiplicity
 _atom_site_fract_x
 _atom_site_fract_y
 _atom_site_fract_z
 _atom_site_occupancy
  Dy  Dy0  1  0.000000  0.237879  0.218095  1
  Dy  Dy1  1  0.000000  0.762121  0.781905  1
  Dy  Dy2  1  0.000000  0.251099  0.719264  1
  Dy  Dy3  1  0.000000  0.748901  0.280736  1
  Dy  Dy4  1  0.000000  0.500000  0.500000  1
  Sc  Sc5  1  0.000000  0.116534  0.411130  1
  Sc  Sc6  1  0.000000  0.883466  0.588870  1
  Sc  Sc7  1  0.000000  0.383852  0.915503  1
  Sc  Sc8  1  0.000000  0.616148  0.084497  1
  Sc  Sc9  1  0.000000  0.000000  0.000000  1
  In  In10  1  0.500000  0.414979  0.350838  1
  In  In11  1  0.500000  0.585021  0.649162  1
  In  In12  1  0.500000  0.079383  0.855413  1
  In  In13  1  0.500000  0.920617  0.144587  1
  In  In14  1  0.500000  0.295385  0.058967  1
  In  In15  1  0.500000  0.704615  0.941033  1
  In  In16  1  0.500000  0.193444  0.562590  1
  In  In17  1  0.500000  0.806556  0.437410  1
  Pt  Pt18  1  0.500000  0.470873  0.808787  1
  Pt  Pt19  1  0.500000  0.529127  0.191213  1
  Rh  Rh20  1  0.500000  0.029259  0.307827  1
  Rh  Rh21  1  0.500000  0.970741  0.692173  1
