# generated using pymatgen
data_Y2Mn7Si4Tc
_symmetry_space_group_name_H-M   'P 1'
_cell_length_a   6.69026548
_cell_length_b   7.58676959
_cell_length_c   3.93152600
_cell_angle_alpha   90.00000000
_cell_angle_beta   90.00000000
_cell_angle_gamma   89.85050287
_symmetry_Int_Tables_number   1
_chemical_formula_structural   Y2Mn7Si4Tc
_chemical_formula_sum   'Y2 Mn7 Si4 Tc1'
_cell_volume   199.55376208
_cell_formula_units_Z   1
loop_
 _symmetry_equiv_pos_site_id
 _symmetry_equiv_pos_as_xyz
  1  'x, y, z'
loop_
 _atom_site_type_symbol
 _atom_site_label
 _atom_site_symmetry_multiplicity
 _atom_site_fract_x
 _atom_site_fract_y
 _atom_site_fract_z
 _atom_site_occupancy
  Y  Y0  1  0.497745  0.497114  0.500000  1
  Y  Y1  1  0.001394  0.998129  0.000000  1
  Mn  Mn2  1  0.347032  0.113245  0.500000  1
  Mn  Mn3  1  0.143556  0.611068  0.000000  1
  Mn  Mn4  1  0.861498  0.386797  0.000000  1
  Mn  Mn5  1  0.934835  0.651707  0.500000  1
  Mn  Mn6  1  0.061261  0.350738  0.500000  1
  Mn  Mn7  1  0.567562  0.156380  0.000000  1
  Mn  Mn8  1  0.436752  0.850358  0.000000  1
  Si  Si9  1  0.762824  0.195180  0.500000  1
  Si  Si10  1  0.241140  0.807087  0.500000  1
  Si  Si11  1  0.257014  0.309470  0.000000  1
  Si  Si12  1  0.741639  0.683216  0.000000  1
  Tc  Tc13  1  0.645748  0.889510  0.500000  1
