# generated using pymatgen
data_HoEr2Ta3(B2Ru5)2
_symmetry_space_group_name_H-M   'P 1'
_cell_length_a   9.58951520
_cell_length_b   9.58991650
_cell_length_c   3.11201000
_cell_angle_alpha   90.00000000
_cell_angle_beta   90.00000000
_cell_angle_gamma   90.34037641
_symmetry_Int_Tables_number   1
_chemical_formula_structural   HoEr2Ta3(B2Ru5)2
_chemical_formula_sum   'Ho1 Er2 Ta3 B4 Ru10'
_cell_volume   286.18363658
_cell_formula_units_Z   1
loop_
 _symmetry_equiv_pos_site_id
 _symmetry_equiv_pos_as_xyz
  1  'x, y, z'
loop_
 _atom_site_type_symbol
 _atom_site_label
 _atom_site_symmetry_multiplicity
 _atom_site_fract_x
 _atom_site_fract_y
 _atom_site_fract_z
 _atom_site_occupancy
  Ho  Ho0  1  0.823997  0.674837  0.000000  1
  Er  Er1  1  0.175074  0.323840  0.000000  1
  Er  Er2  1  0.325700  0.825769  0.000000  1
  Ta  Ta3  1  0.675744  0.175696  0.000000  1
  Ta  Ta4  1  0.497953  0.503037  0.000000  1
  Ta  Ta5  1  0.003141  0.998273  0.000000  1
  B  B6  1  0.623360  0.881377  0.000000  1
  B  B7  1  0.381154  0.123541  0.000000  1
  B  B8  1  0.118991  0.618814  0.000000  1
  B  B9  1  0.876198  0.376037  0.000000  1
  Ru  Ru10  1  0.570820  0.722100  0.500000  1
  Ru  Ru11  1  0.440351  0.280589  0.500000  1
  Ru  Ru12  1  0.069754  0.780552  0.500000  1
  Ru  Ru13  1  0.916090  0.213280  0.500000  1
  Ru  Ru14  1  0.280489  0.569407  0.500000  1
  Ru  Ru15  1  0.713199  0.415821  0.500000  1
  Ru  Ru16  1  0.221988  0.071278  0.500000  1
  Ru  Ru17  1  0.780503  0.940813  0.500000  1
  Ru  Ru18  1  0.509227  0.009381  0.500000  1
  Ru  Ru19  1  0.996269  0.495559  0.500000  1
