# generated using pymatgen
data_Na12Li8Hf(SnP4)3
_symmetry_space_group_name_H-M   'P 1'
_cell_length_a   9.53077429
_cell_length_b   9.53077594
_cell_length_c   13.81522837
_cell_angle_alpha   90.01014079
_cell_angle_beta   90.01013741
_cell_angle_gamma   143.35474877
_symmetry_Int_Tables_number   1
_chemical_formula_structural   Na12Li8Hf(SnP4)3
_chemical_formula_sum   'Na12 Li8 Hf1 Sn3 P12'
_cell_volume   749.00721692
_cell_formula_units_Z   1
loop_
 _symmetry_equiv_pos_site_id
 _symmetry_equiv_pos_as_xyz
  1  'x, y, z'
loop_
 _atom_site_type_symbol
 _atom_site_label
 _atom_site_symmetry_multiplicity
 _atom_site_fract_x
 _atom_site_fract_y
 _atom_site_fract_z
 _atom_site_occupancy
  Na  Na0  1  0.096429  0.438751  0.678236  1
  Na  Na1  1  0.722788  0.724672  0.682411  1
  Na  Na2  1  0.228536  0.228687  0.818624  1
  Na  Na3  1  0.771313  0.771464  0.181376  1
  Na  Na4  1  0.939232  0.595185  0.817661  1
  Na  Na5  1  0.561249  0.903571  0.321764  1
  Na  Na6  1  0.404815  0.060768  0.182339  1
  Na  Na7  1  0.058881  0.402376  0.179839  1
  Na  Na8  1  0.896445  0.551976  0.323055  1
  Na  Na9  1  0.448024  0.103555  0.676945  1
  Na  Na10  1  0.597624  0.941120  0.820161  1
  Na  Na11  1  0.275328  0.277212  0.317589  1
  Li  Li12  1  0.916962  0.083038  0.000000  1
  Li  Li13  1  0.583714  0.416286  0.500000  1
  Li  Li14  1  0.083457  0.916543  0.000000  1
  Li  Li15  1  0.416242  0.583758  0.500000  1
  Li  Li16  1  0.756240  0.243760  0.000000  1
  Li  Li17  1  0.744447  0.255553  0.500000  1
  Li  Li18  1  0.243400  0.756600  0.000000  1
  Li  Li19  1  0.255394  0.744606  0.500000  1
  Hf  Hf20  1  0.086010  0.913990  0.500000  1
  Sn  Sn21  1  0.407639  0.592361  0.000000  1
  Sn  Sn22  1  0.909774  0.090226  0.500000  1
  Sn  Sn23  1  0.592827  0.407173  0.000000  1
  P  P24  1  0.912478  0.580332  0.111747  1
  P  P25  1  0.419668  0.087522  0.888253  1
  P  P26  1  0.589618  0.918582  0.609996  1
  P  P27  1  0.928290  0.600633  0.605844  1
  P  P28  1  0.087640  0.420098  0.888952  1
  P  P29  1  0.579902  0.912360  0.111048  1
  P  P30  1  0.399367  0.071710  0.394156  1
  P  P31  1  0.240680  0.236447  0.603395  1
  P  P32  1  0.734945  0.734331  0.896919  1
  P  P33  1  0.265669  0.265055  0.103081  1
  P  P34  1  0.081418  0.410382  0.390004  1
  P  P35  1  0.763553  0.759320  0.396605  1
