# generated using pymatgen
data_Nb3Zn(Pd3Rh)3
_symmetry_space_group_name_H-M   'P 1'
_cell_length_a   5.60494600
_cell_length_b   5.60494583
_cell_length_c   9.07014600
_cell_angle_alpha   90.00000000
_cell_angle_beta   90.00000000
_cell_angle_gamma   119.99998922
_symmetry_Int_Tables_number   1
_chemical_formula_structural   Nb3Zn(Pd3Rh)3
_chemical_formula_sum   'Nb3 Zn1 Pd9 Rh3'
_cell_volume   246.76741342
_cell_formula_units_Z   1
loop_
 _symmetry_equiv_pos_site_id
 _symmetry_equiv_pos_as_xyz
  1  'x, y, z'
loop_
 _atom_site_type_symbol
 _atom_site_label
 _atom_site_symmetry_multiplicity
 _atom_site_fract_x
 _atom_site_fract_y
 _atom_site_fract_z
 _atom_site_occupancy
  Nb  Nb0  1  0.666667  0.333333  0.500000  1
  Nb  Nb1  1  0.000000  0.000000  0.736098  1
  Nb  Nb2  1  0.000000  0.000000  0.263902  1
  Zn  Zn3  1  0.333333  0.666667  0.000000  1
  Pd  Pd4  1  0.833580  0.166420  0.000000  1
  Pd  Pd5  1  0.833580  0.667159  0.000000  1
  Pd  Pd6  1  0.332841  0.166420  0.000000  1
  Pd  Pd7  1  0.998480  0.499240  0.749447  1
  Pd  Pd8  1  0.500760  0.499240  0.749447  1
  Pd  Pd9  1  0.500760  0.001520  0.749447  1
  Pd  Pd10  1  0.998480  0.499240  0.250553  1
  Pd  Pd11  1  0.500760  0.499240  0.250553  1
  Pd  Pd12  1  0.500760  0.001520  0.250553  1
  Rh  Rh13  1  0.167768  0.832232  0.500000  1
  Rh  Rh14  1  0.167768  0.335537  0.500000  1
  Rh  Rh15  1  0.664463  0.832232  0.500000  1
