# generated using pymatgen
data_Sm3DyEr(CoB3)2
_symmetry_space_group_name_H-M   'P 1'
_cell_length_a   5.41628011
_cell_length_b   5.41628110
_cell_length_c   8.52619462
_cell_angle_alpha   71.48059545
_cell_angle_beta   71.48059255
_cell_angle_gamma   59.99999234
_symmetry_Int_Tables_number   1
_chemical_formula_structural   Sm3DyEr(CoB3)2
_chemical_formula_sum   'Sm3 Dy1 Er1 Co2 B6'
_cell_volume   201.51990678
_cell_formula_units_Z   1
loop_
 _symmetry_equiv_pos_site_id
 _symmetry_equiv_pos_as_xyz
  1  'x, y, z'
loop_
 _atom_site_type_symbol
 _atom_site_label
 _atom_site_symmetry_multiplicity
 _atom_site_fract_x
 _atom_site_fract_y
 _atom_site_fract_z
 _atom_site_occupancy
  Sm  Sm0  1  0.000285  0.000285  0.999146  1
  Sm  Sm1  1  0.252494  0.252494  0.242518  1
  Sm  Sm2  1  0.747462  0.747462  0.757614  1
  Dy  Dy3  1  0.581134  0.581134  0.256599  1
  Er  Er4  1  0.419747  0.419747  0.740760  1
  Co  Co5  1  0.120699  0.120699  0.637903  1
  Co  Co6  1  0.879206  0.879206  0.362381  1
  B  B7  1  0.168163  0.831258  0.500513  1
  B  B8  1  0.831258  0.500066  0.500513  1
  B  B9  1  0.500066  0.168163  0.500513  1
  B  B10  1  0.168163  0.500066  0.500513  1
  B  B11  1  0.500066  0.831258  0.500513  1
  B  B12  1  0.831258  0.168163  0.500513  1
