# generated using pymatgen
data_Mg3Ti(GaPd5)2
_symmetry_space_group_name_H-M   'P 1'
_cell_length_a   4.08342800
_cell_length_b   5.54047262
_cell_length_c   10.88780707
_cell_angle_alpha   89.53994549
_cell_angle_beta   90.00000000
_cell_angle_gamma   90.00000000
_symmetry_Int_Tables_number   1
_chemical_formula_structural   Mg3Ti(GaPd5)2
_chemical_formula_sum   'Mg3 Ti1 Ga2 Pd10'
_cell_volume   246.31912412
_cell_formula_units_Z   1
loop_
 _symmetry_equiv_pos_site_id
 _symmetry_equiv_pos_as_xyz
  1  'x, y, z'
loop_
 _atom_site_type_symbol
 _atom_site_label
 _atom_site_symmetry_multiplicity
 _atom_site_fract_x
 _atom_site_fract_y
 _atom_site_fract_z
 _atom_site_occupancy
  Mg  Mg0  1  0.000000  0.820873  0.640451  1
  Mg  Mg1  1  0.000000  0.321199  0.857551  1
  Mg  Mg2  1  0.000000  0.175209  0.362802  1
  Ti  Ti3  1  0.000000  0.681329  0.140709  1
  Ga  Ga4  1  0.500000  0.497749  0.500794  1
  Ga  Ga5  1  0.500000  0.003090  0.999683  1
  Pd  Pd6  1  0.000000  0.807507  0.897210  1
  Pd  Pd7  1  0.000000  0.684023  0.386735  1
  Pd  Pd8  1  0.000000  0.309445  0.607009  1
  Pd  Pd9  1  0.500000  0.926548  0.239161  1
  Pd  Pd10  1  0.500000  0.434790  0.254442  1
  Pd  Pd11  1  0.500000  0.571380  0.741332  1
  Pd  Pd12  1  0.500000  0.069707  0.760377  1
  Pd  Pd13  1  0.500000  0.507086  0.002461  1
  Pd  Pd14  1  0.500000  0.994416  0.500813  1
  Pd  Pd15  1  0.000000  0.195647  0.108469  1
