# generated using pymatgen
data_Dy(Al3Cr)3
_symmetry_space_group_name_H-M   'P 1'
_cell_length_a   5.09505049
_cell_length_b   6.86514413
_cell_length_c   6.86443983
_cell_angle_alpha   81.84660362
_cell_angle_beta   67.53054249
_cell_angle_gamma   68.21769292
_symmetry_Int_Tables_number   1
_chemical_formula_structural   Dy(Al3Cr)3
_chemical_formula_sum   'Dy1 Al9 Cr3'
_cell_volume   206.03609804
_cell_formula_units_Z   1
loop_
 _symmetry_equiv_pos_site_id
 _symmetry_equiv_pos_as_xyz
  1  'x, y, z'
loop_
 _atom_site_type_symbol
 _atom_site_label
 _atom_site_symmetry_multiplicity
 _atom_site_fract_x
 _atom_site_fract_y
 _atom_site_fract_z
 _atom_site_occupancy
  Dy  Dy0  1  0.000000  0.000000  0.000000  1
  Al  Al1  1  0.016252  0.649399  0.333108  1
  Al  Al2  1  0.983748  0.350601  0.666892  1
  Al  Al3  1  0.665652  0.350601  0.333108  1
  Al  Al4  1  0.334348  0.649399  0.666892  1
  Al  Al5  1  0.504599  0.225817  0.785115  1
  Al  Al6  1  0.495401  0.774183  0.214885  1
  Al  Al7  1  0.730416  0.774183  0.785115  1
  Al  Al8  1  0.269584  0.225817  0.214885  1
  Al  Al9  1  0.500000  0.000000  0.500000  1
  Cr  Cr10  1  0.500000  0.500000  0.000000  1
  Cr  Cr11  1  0.000000  0.500000  0.000000  1
  Cr  Cr12  1  0.000000  0.000000  0.500000  1
