# generated using pymatgen
data_Tb4ReNiRu6
_symmetry_space_group_name_H-M   'P 1'
_cell_length_a   5.25875545
_cell_length_b   5.39676329
_cell_length_c   8.94369100
_cell_angle_alpha   90.00000000
_cell_angle_beta   90.00000000
_cell_angle_gamma   122.41963532
_symmetry_Int_Tables_number   1
_chemical_formula_structural   Tb4ReNiRu6
_chemical_formula_sum   'Tb4 Re1 Ni1 Ru6'
_cell_volume   214.26428995
_cell_formula_units_Z   1
loop_
 _symmetry_equiv_pos_site_id
 _symmetry_equiv_pos_as_xyz
  1  'x, y, z'
loop_
 _atom_site_type_symbol
 _atom_site_label
 _atom_site_symmetry_multiplicity
 _atom_site_fract_x
 _atom_site_fract_y
 _atom_site_fract_z
 _atom_site_occupancy
  Tb  Tb0  1  0.329346  0.662066  0.431532  1
  Tb  Tb1  1  0.657956  0.327993  0.562261  1
  Tb  Tb2  1  0.657956  0.327993  0.937739  1
  Tb  Tb3  1  0.329346  0.662066  0.068468  1
  Re  Re4  1  0.680574  0.841405  0.750000  1
  Ni  Ni5  1  0.834770  0.163800  0.250000  1
  Ru  Ru6  1  0.982185  0.988536  0.498516  1
  Ru  Ru7  1  0.982185  0.988536  0.001484  1
  Ru  Ru8  1  0.831136  0.672294  0.250000  1
  Ru  Ru9  1  0.350254  0.180667  0.250000  1
  Ru  Ru10  1  0.178984  0.830394  0.750000  1
  Ru  Ru11  1  0.185308  0.354249  0.750000  1
