# generated using pymatgen
data_Hf16NbSi16W3
_symmetry_space_group_name_H-M   'P 1'
_cell_length_a   6.96132581
_cell_length_b   6.96132452
_cell_length_c   12.73167788
_cell_angle_alpha   90.03882642
_cell_angle_beta   89.96117341
_cell_angle_gamma   90.07900395
_symmetry_Int_Tables_number   1
_chemical_formula_structural   Hf16NbSi16W3
_chemical_formula_sum   'Hf16 Nb1 Si16 W3'
_cell_volume   616.97685267
_cell_formula_units_Z   1
loop_
 _symmetry_equiv_pos_site_id
 _symmetry_equiv_pos_as_xyz
  1  'x, y, z'
loop_
 _atom_site_type_symbol
 _atom_site_label
 _atom_site_symmetry_multiplicity
 _atom_site_fract_x
 _atom_site_fract_y
 _atom_site_fract_z
 _atom_site_occupancy
  Hf  Hf0  1  0.496973  0.155287  0.529999  1
  Hf  Hf1  1  0.503447  0.846129  0.031563  1
  Hf  Hf2  1  0.655271  0.001984  0.281049  1
  Hf  Hf3  1  0.345951  0.995711  0.779867  1
  Hf  Hf4  1  0.846129  0.503447  0.968437  1
  Hf  Hf5  1  0.155287  0.496973  0.470001  1
  Hf  Hf6  1  0.001984  0.655271  0.718951  1
  Hf  Hf7  1  0.995711  0.345951  0.220133  1
  Hf  Hf8  1  0.497394  0.355138  0.126018  1
  Hf  Hf9  1  0.501943  0.644743  0.625402  1
  Hf  Hf10  1  0.855671  0.001323  0.873742  1
  Hf  Hf11  1  0.144475  0.996246  0.376092  1
  Hf  Hf12  1  0.644743  0.501943  0.374598  1
  Hf  Hf13  1  0.355138  0.497394  0.873982  1
  Hf  Hf14  1  0.001323  0.855671  0.126258  1
  Hf  Hf15  1  0.996246  0.144475  0.623908  1
  Nb  Nb16  1  0.174549  0.174549  0.000000  1
  Si  Si17  1  0.795899  0.146224  0.071453  1
  Si  Si18  1  0.202860  0.853838  0.572199  1
  Si  Si19  1  0.646090  0.703285  0.821733  1
  Si  Si20  1  0.352554  0.296371  0.322263  1
  Si  Si21  1  0.853838  0.202860  0.427801  1
  Si  Si22  1  0.146224  0.795899  0.928547  1
  Si  Si23  1  0.703285  0.646090  0.178267  1
  Si  Si24  1  0.296371  0.352554  0.677737  1
  Si  Si25  1  0.549784  0.198554  0.932921  1
  Si  Si26  1  0.453990  0.802351  0.433740  1
  Si  Si27  1  0.696762  0.953686  0.683209  1
  Si  Si28  1  0.304290  0.044557  0.185071  1
  Si  Si29  1  0.802351  0.453990  0.566260  1
  Si  Si30  1  0.198554  0.549784  0.067079  1
  Si  Si31  1  0.953686  0.696762  0.316791  1
  Si  Si32  1  0.044557  0.304290  0.814929  1
  W  W33  1  0.673692  0.327511  0.748892  1
  W  W34  1  0.327511  0.673692  0.251108  1
  W  W35  1  0.825464  0.825464  0.500000  1
