# generated using pymatgen
data_Sm3Er2TmCoBr10
_symmetry_space_group_name_H-M   'P 1'
_cell_length_a   7.39446608
_cell_length_b   9.14917502
_cell_length_c   9.23765966
_cell_angle_alpha   108.08519313
_cell_angle_beta   97.45692214
_cell_angle_gamma   104.26995851
_symmetry_Int_Tables_number   1
_chemical_formula_structural   Sm3Er2TmCoBr10
_chemical_formula_sum   'Sm3 Er2 Tm1 Co1 Br10'
_cell_volume   561.13094744
_cell_formula_units_Z   1
loop_
 _symmetry_equiv_pos_site_id
 _symmetry_equiv_pos_as_xyz
  1  'x, y, z'
loop_
 _atom_site_type_symbol
 _atom_site_label
 _atom_site_symmetry_multiplicity
 _atom_site_fract_x
 _atom_site_fract_y
 _atom_site_fract_z
 _atom_site_occupancy
  Sm  Sm0  1  0.359029  0.134079  0.683096  1
  Sm  Sm1  1  0.962477  0.283654  0.585348  1
  Sm  Sm2  1  0.033224  0.714592  0.411155  1
  Er  Er3  1  0.876427  0.952572  0.740599  1
  Er  Er4  1  0.117185  0.043726  0.256328  1
  Tm  Tm5  1  0.651455  0.870831  0.323512  1
  Co  Co6  1  0.999845  0.999570  0.500199  1
  Br  Br7  1  0.540047  0.171851  0.409105  1
  Br  Br8  1  0.461310  0.818731  0.580341  1
  Br  Br9  1  0.226114  0.752766  0.155462  1
  Br  Br10  1  0.791217  0.251803  0.851808  1
  Br  Br11  1  0.910573  0.633837  0.676680  1
  Br  Br12  1  0.089023  0.365924  0.322570  1
  Br  Br13  1  0.749917  0.913297  0.042589  1
  Br  Br14  1  0.240667  0.082828  0.962448  1
  Br  Br15  1  0.644921  0.554120  0.225465  1
  Br  Br16  1  0.346569  0.455820  0.773295  1
