# generated using pymatgen
data_CaScCr3Ni9As7
_symmetry_space_group_name_H-M   'P 1'
_cell_length_a   3.76308400
_cell_length_b   9.49088554
_cell_length_c   9.49088400
_cell_angle_alpha   119.99999371
_cell_angle_beta   90.00000000
_cell_angle_gamma   90.00000000
_symmetry_Int_Tables_number   1
_chemical_formula_structural   CaScCr3Ni9As7
_chemical_formula_sum   'Ca1 Sc1 Cr3 Ni9 As7'
_cell_volume   293.55398011
_cell_formula_units_Z   1
loop_
 _symmetry_equiv_pos_site_id
 _symmetry_equiv_pos_as_xyz
  1  'x, y, z'
loop_
 _atom_site_type_symbol
 _atom_site_label
 _atom_site_symmetry_multiplicity
 _atom_site_fract_x
 _atom_site_fract_y
 _atom_site_fract_z
 _atom_site_occupancy
  Ca  Ca0  1  0.500000  0.333333  0.666667  1
  Sc  Sc1  1  0.000000  0.666667  0.333333  1
  Cr  Cr2  1  0.500000  0.777280  0.900044  1
  Cr  Cr3  1  0.500000  0.122764  0.222720  1
  Cr  Cr4  1  0.500000  0.099956  0.877236  1
  Ni  Ni5  1  0.000000  0.569323  0.943130  1
  Ni  Ni6  1  0.000000  0.373806  0.430677  1
  Ni  Ni7  1  0.000000  0.056870  0.626194  1
  Ni  Ni8  1  0.000000  0.874056  0.155838  1
  Ni  Ni9  1  0.000000  0.281782  0.125944  1
  Ni  Ni10  1  0.000000  0.844162  0.718218  1
  Ni  Ni11  1  0.500000  0.943573  0.378593  1
  Ni  Ni12  1  0.500000  0.435020  0.056427  1
  Ni  Ni13  1  0.500000  0.621407  0.564980  1
  As  As14  1  0.500000  0.704688  0.121092  1
  As  As15  1  0.500000  0.416405  0.295312  1
  As  As16  1  0.500000  0.878908  0.583595  1
  As  As17  1  0.000000  0.000000  0.000000  1
  As  As18  1  0.000000  0.589413  0.704567  1
  As  As19  1  0.000000  0.115153  0.410587  1
  As  As20  1  0.000000  0.295433  0.884847  1
