# generated using pymatgen
data_CeU4(Co4Sn)3
_symmetry_space_group_name_H-M   'P 1'
_cell_length_a   5.18451800
_cell_length_b   7.30072374
_cell_length_c   8.28033265
_cell_angle_alpha   90.27676430
_cell_angle_beta   90.00000000
_cell_angle_gamma   90.00000000
_symmetry_Int_Tables_number   1
_chemical_formula_structural   CeU4(Co4Sn)3
_chemical_formula_sum   'Ce1 U4 Co12 Sn3'
_cell_volume   313.41300910
_cell_formula_units_Z   1
loop_
 _symmetry_equiv_pos_site_id
 _symmetry_equiv_pos_as_xyz
  1  'x, y, z'
loop_
 _atom_site_type_symbol
 _atom_site_label
 _atom_site_symmetry_multiplicity
 _atom_site_fract_x
 _atom_site_fract_y
 _atom_site_fract_z
 _atom_site_occupancy
  Ce  Ce0  1  0.750000  0.941196  0.404379  1
  U  U1  1  0.750000  0.879679  0.836435  1
  U  U2  1  0.750000  0.383786  0.669103  1
  U  U3  1  0.250000  0.119367  0.155525  1
  U  U4  1  0.250000  0.613414  0.332321  1
  Co  Co5  1  0.750000  0.550107  0.419819  1
  Co  Co6  1  0.750000  0.052941  0.072709  1
  Co  Co7  1  0.250000  0.445611  0.576718  1
  Co  Co8  1  0.250000  0.943876  0.920129  1
  Co  Co9  1  0.003496  0.257627  0.366249  1
  Co  Co10  1  0.498248  0.754364  0.131594  1
  Co  Co11  1  0.494683  0.739226  0.632753  1
  Co  Co12  1  0.001935  0.247802  0.868762  1
  Co  Co13  1  0.005317  0.739226  0.632753  1
  Co  Co14  1  0.498065  0.247802  0.868762  1
  Co  Co15  1  0.496504  0.257627  0.366249  1
  Co  Co16  1  0.001752  0.754364  0.131594  1
  Sn  Sn17  1  0.750000  0.428068  0.109755  1
  Sn  Sn18  1  0.250000  0.073459  0.615094  1
  Sn  Sn19  1  0.250000  0.570457  0.889298  1
