# generated using pymatgen
data_Ho6Er4Bi5Sb
_symmetry_space_group_name_H-M   'P 1'
_cell_length_a   8.17637000
_cell_length_b   9.44848500
_cell_length_c   11.95755900
_cell_angle_alpha   90.00000000
_cell_angle_beta   90.00000000
_cell_angle_gamma   90.00000000
_symmetry_Int_Tables_number   1
_chemical_formula_structural   Ho6Er4Bi5Sb
_chemical_formula_sum   'Ho12 Er8 Bi10 Sb2'
_cell_volume   923.77296145
_cell_formula_units_Z   2
loop_
 _symmetry_equiv_pos_site_id
 _symmetry_equiv_pos_as_xyz
  1  'x, y, z'
loop_
 _atom_site_type_symbol
 _atom_site_label
 _atom_site_symmetry_multiplicity
 _atom_site_fract_x
 _atom_site_fract_y
 _atom_site_fract_z
 _atom_site_occupancy
  Ho  Ho0  1  0.353851  0.750000  0.213859  1
  Ho  Ho1  1  0.853851  0.750000  0.286141  1
  Ho  Ho2  1  0.647084  0.250000  0.783221  1
  Ho  Ho3  1  0.147084  0.250000  0.716779  1
  Ho  Ho4  1  0.476776  0.250000  0.488732  1
  Ho  Ho5  1  0.976776  0.250000  0.011268  1
  Ho  Ho6  1  0.527343  0.750000  0.511764  1
  Ho  Ho7  1  0.027343  0.750000  0.988236  1
  Ho  Ho8  1  0.314038  0.250000  0.218334  1
  Ho  Ho9  1  0.814038  0.250000  0.281666  1
  Ho  Ho10  1  0.683306  0.750000  0.782661  1
  Ho  Ho11  1  0.183306  0.750000  0.717339  1
  Er  Er12  1  0.689614  0.566643  0.057894  1
  Er  Er13  1  0.189614  0.933357  0.442106  1
  Er  Er14  1  0.309066  0.060713  0.941117  1
  Er  Er15  1  0.809066  0.439287  0.558883  1
  Er  Er16  1  0.309066  0.439287  0.941117  1
  Er  Er17  1  0.809066  0.060713  0.558883  1
  Er  Er18  1  0.689614  0.933357  0.057894  1
  Er  Er19  1  0.189614  0.566643  0.442106  1
  Bi  Bi20  1  0.594395  0.250000  0.042472  1
  Bi  Bi21  1  0.094395  0.250000  0.457528  1
  Bi  Bi22  1  0.566161  0.995927  0.325730  1
  Bi  Bi23  1  0.066161  0.504073  0.174270  1
  Bi  Bi24  1  0.433443  0.496130  0.674240  1
  Bi  Bi25  1  0.933443  0.003870  0.825760  1
  Bi  Bi26  1  0.433443  0.003870  0.674240  1
  Bi  Bi27  1  0.933443  0.496130  0.825760  1
  Bi  Bi28  1  0.566161  0.504073  0.325730  1
  Bi  Bi29  1  0.066161  0.995927  0.174270  1
  Sb  Sb30  1  0.406639  0.750000  0.958483  1
  Sb  Sb31  1  0.906639  0.750000  0.541517  1
