# generated using pymatgen
data_Er3Al10CoSi2Ru3
_symmetry_space_group_name_H-M   'P 1'
_cell_length_a   8.64837300
_cell_length_b   8.64837436
_cell_length_c   9.48319000
_cell_angle_alpha   90.00000000
_cell_angle_beta   90.00000000
_cell_angle_gamma   119.99999863
_symmetry_Int_Tables_number   1
_chemical_formula_structural   Er3Al10CoSi2Ru3
_chemical_formula_sum   'Er6 Al20 Co2 Si4 Ru6'
_cell_volume   614.26247090
_cell_formula_units_Z   2
loop_
 _symmetry_equiv_pos_site_id
 _symmetry_equiv_pos_as_xyz
  1  'x, y, z'
loop_
 _atom_site_type_symbol
 _atom_site_label
 _atom_site_symmetry_multiplicity
 _atom_site_fract_x
 _atom_site_fract_y
 _atom_site_fract_z
 _atom_site_occupancy
  Er  Er0  1  0.196715  0.393430  0.250000  1
  Er  Er1  1  0.803285  0.606570  0.750000  1
  Er  Er2  1  0.606570  0.803285  0.250000  1
  Er  Er3  1  0.393430  0.196715  0.750000  1
  Er  Er4  1  0.196715  0.803285  0.250000  1
  Er  Er5  1  0.803285  0.196715  0.750000  1
  Al  Al6  1  0.161168  0.322335  0.577496  1
  Al  Al7  1  0.838832  0.677665  0.422504  1
  Al  Al8  1  0.677665  0.838832  0.577496  1
  Al  Al9  1  0.838832  0.677665  0.077496  1
  Al  Al10  1  0.322335  0.161168  0.422504  1
  Al  Al11  1  0.161168  0.322335  0.922504  1
  Al  Al12  1  0.161168  0.838832  0.577496  1
  Al  Al13  1  0.322335  0.161168  0.077496  1
  Al  Al14  1  0.838832  0.161168  0.422504  1
  Al  Al15  1  0.677665  0.838832  0.922504  1
  Al  Al16  1  0.838832  0.161168  0.077496  1
  Al  Al17  1  0.161168  0.838832  0.922504  1
  Al  Al18  1  0.563146  0.126294  0.250000  1
  Al  Al19  1  0.436854  0.873706  0.750000  1
  Al  Al20  1  0.873706  0.436854  0.250000  1
  Al  Al21  1  0.126294  0.563146  0.750000  1
  Al  Al22  1  0.563146  0.436854  0.250000  1
  Al  Al23  1  0.436854  0.563146  0.750000  1
  Al  Al24  1  0.000000  0.000000  0.250000  1
  Al  Al25  1  0.000000  0.000000  0.750000  1
  Co  Co26  1  0.000000  0.000000  0.000000  1
  Co  Co27  1  0.000000  0.000000  0.500000  1
  Si  Si28  1  0.333333  0.666667  0.034445  1
  Si  Si29  1  0.666667  0.333333  0.965555  1
  Si  Si30  1  0.666667  0.333333  0.534445  1
  Si  Si31  1  0.333333  0.666667  0.465555  1
  Ru  Ru32  1  0.500000  0.000000  0.000000  1
  Ru  Ru33  1  0.000000  0.500000  0.000000  1
  Ru  Ru34  1  0.500000  0.000000  0.500000  1
  Ru  Ru35  1  0.500000  0.500000  0.000000  1
  Ru  Ru36  1  0.000000  0.500000  0.500000  1
  Ru  Ru37  1  0.500000  0.500000  0.500000  1
