# generated using pymatgen
data_Y2TaRh3
_symmetry_space_group_name_H-M   'P 1'
_cell_length_a   5.23522083
_cell_length_b   5.23522178
_cell_length_c   5.23522087
_cell_angle_alpha   66.03823675
_cell_angle_beta   66.03823790
_cell_angle_gamma   66.03822362
_symmetry_Int_Tables_number   1
_chemical_formula_structural   Y2TaRh3
_chemical_formula_sum   'Y2 Ta1 Rh3'
_cell_volume   114.71183731
_cell_formula_units_Z   1
loop_
 _symmetry_equiv_pos_site_id
 _symmetry_equiv_pos_as_xyz
  1  'x, y, z'
loop_
 _atom_site_type_symbol
 _atom_site_label
 _atom_site_symmetry_multiplicity
 _atom_site_fract_x
 _atom_site_fract_y
 _atom_site_fract_z
 _atom_site_occupancy
  Y  Y0  1  0.628828  0.628828  0.628828  1
  Y  Y1  1  0.371172  0.371172  0.371172  1
  Ta  Ta2  1  0.000000  0.000000  0.000000  1
  Rh  Rh3  1  0.000000  0.000000  0.500000  1
  Rh  Rh4  1  0.500000  0.000000  0.000000  1
  Rh  Rh5  1  0.000000  0.500000  0.000000  1
