# generated using pymatgen
data_Y2Th(B2C)3
_symmetry_space_group_name_H-M   'P 1'
_cell_length_a   5.30018546
_cell_length_b   5.30018647
_cell_length_c   5.30018729
_cell_angle_alpha   77.39842405
_cell_angle_beta   77.39842612
_cell_angle_gamma   77.39842440
_symmetry_Int_Tables_number   1
_chemical_formula_structural   Y2Th(B2C)3
_chemical_formula_sum   'Y2 Th1 B6 C3'
_cell_volume   139.51290193
_cell_formula_units_Z   1
loop_
 _symmetry_equiv_pos_site_id
 _symmetry_equiv_pos_as_xyz
  1  'x, y, z'
loop_
 _atom_site_type_symbol
 _atom_site_label
 _atom_site_symmetry_multiplicity
 _atom_site_fract_x
 _atom_site_fract_y
 _atom_site_fract_z
 _atom_site_occupancy
  Y  Y0  1  0.688722  0.688722  0.688722  1
  Y  Y1  1  0.311278  0.311278  0.311278  1
  Th  Th2  1  0.000000  0.000000  0.000000  1
  B  B3  1  0.500000  0.773692  0.226308  1
  B  B4  1  0.226308  0.500000  0.773692  1
  B  B5  1  0.773692  0.226308  0.500000  1
  B  B6  1  0.500000  0.226308  0.773692  1
  B  B7  1  0.226308  0.773692  0.500000  1
  B  B8  1  0.773692  0.500000  0.226308  1
  C  C9  1  0.000000  0.000000  0.500000  1
  C  C10  1  0.000000  0.500000  0.000000  1
  C  C11  1  0.500000  0.000000  0.000000  1
