# generated using pymatgen
data_In13Sb5
_symmetry_space_group_name_H-M   'P 1'
_cell_length_a   17.97089682
_cell_length_b   17.97089674
_cell_length_c   7.62081200
_cell_angle_alpha   95.88449630
_cell_angle_beta   95.88449307
_cell_angle_gamma   11.47330266
_symmetry_Int_Tables_number   1
_chemical_formula_structural   In13Sb5
_chemical_formula_sum   'In13 Sb5'
_cell_volume   486.94781698
_cell_formula_units_Z   1
loop_
 _symmetry_equiv_pos_site_id
 _symmetry_equiv_pos_as_xyz
  1  'x, y, z'
loop_
 _atom_site_type_symbol
 _atom_site_label
 _atom_site_symmetry_multiplicity
 _atom_site_fract_x
 _atom_site_fract_y
 _atom_site_fract_z
 _atom_site_occupancy
  In  In0  1  0.108699  0.108699  0.051942  1
  In  In1  1  0.223573  0.223573  0.113302  1
  In  In2  1  0.332175  0.332175  0.148951  1
  In  In3  1  0.445945  0.445945  0.223559  1
  In  In4  1  0.556253  0.556253  0.283978  1
  In  In5  1  0.778466  0.778466  0.382487  1
  In  In6  1  0.000000  0.000000  0.500000  1
  In  In7  1  0.221534  0.221534  0.617514  1
  In  In8  1  0.443747  0.443747  0.716022  1
  In  In9  1  0.554055  0.554055  0.776440  1
  In  In10  1  0.667824  0.667824  0.851049  1
  In  In11  1  0.776426  0.776426  0.886697  1
  In  In12  1  0.891302  0.891302  0.948059  1
  Sb  Sb13  1  0.000000  0.000000  0.000000  1
  Sb  Sb14  1  0.668529  0.668529  0.323883  1
  Sb  Sb15  1  0.889650  0.889650  0.421947  1
  Sb  Sb16  1  0.110350  0.110350  0.578054  1
  Sb  Sb17  1  0.331471  0.331471  0.676117  1
