# generated using pymatgen
data_Th6As13PtRh19
_symmetry_space_group_name_H-M   'P 1'
_cell_length_a   13.83241400
_cell_length_b   13.83241320
_cell_length_c   4.10736800
_cell_angle_alpha   90.00000000
_cell_angle_beta   90.00000000
_cell_angle_gamma   120.00000190
_symmetry_Int_Tables_number   1
_chemical_formula_structural   Th6As13PtRh19
_chemical_formula_sum   'Th6 As13 Pt1 Rh19'
_cell_volume   680.59722048
_cell_formula_units_Z   1
loop_
 _symmetry_equiv_pos_site_id
 _symmetry_equiv_pos_as_xyz
  1  'x, y, z'
loop_
 _atom_site_type_symbol
 _atom_site_label
 _atom_site_symmetry_multiplicity
 _atom_site_fract_x
 _atom_site_fract_y
 _atom_site_fract_z
 _atom_site_occupancy
  Th  Th0  1  0.531730  0.720239  0.251526  1
  Th  Th1  1  0.279761  0.811491  0.251526  1
  Th  Th2  1  0.188509  0.468270  0.251526  1
  Th  Th3  1  0.470488  0.280619  0.747679  1
  Th  Th4  1  0.719381  0.189869  0.747679  1
  Th  Th5  1  0.810131  0.529512  0.747679  1
  As  As6  1  0.524774  0.138567  0.245412  1
  As  As7  1  0.861433  0.386208  0.245412  1
  As  As8  1  0.613792  0.475226  0.245412  1
  As  As9  1  0.949307  0.719514  0.247645  1
  As  As10  1  0.280486  0.229792  0.247645  1
  As  As11  1  0.770208  0.050693  0.247645  1
  As  As12  1  0.388369  0.524182  0.756729  1
  As  As13  1  0.475818  0.864185  0.756729  1
  As  As14  1  0.135815  0.611631  0.756729  1
  As  As15  1  0.720118  0.770745  0.751777  1
  As  As16  1  0.229255  0.949373  0.751777  1
  As  As17  1  0.050627  0.279882  0.751777  1
  As  As18  1  0.000000  0.000000  0.988814  1
  Pt  Pt19  1  0.333333  0.666667  0.727630  1
  Rh  Rh20  1  0.922328  0.248528  0.248792  1
  Rh  Rh21  1  0.751472  0.673798  0.248792  1
  Rh  Rh22  1  0.326202  0.077672  0.248792  1
  Rh  Rh23  1  0.436345  0.020240  0.748409  1
  Rh  Rh24  1  0.979760  0.416105  0.748409  1
  Rh  Rh25  1  0.583895  0.563655  0.748409  1
  Rh  Rh26  1  0.666667  0.333333  0.272111  1
  Rh  Rh27  1  0.088250  0.184819  0.264199  1
  Rh  Rh28  1  0.815181  0.903431  0.264199  1
  Rh  Rh29  1  0.096569  0.911750  0.264199  1
  Rh  Rh30  1  0.017615  0.582340  0.253329  1
  Rh  Rh31  1  0.417660  0.435275  0.253329  1
  Rh  Rh32  1  0.564725  0.982385  0.253329  1
  Rh  Rh33  1  0.671900  0.919918  0.752204  1
  Rh  Rh34  1  0.080082  0.751981  0.752204  1
  Rh  Rh35  1  0.248019  0.328100  0.752204  1
  Rh  Rh36  1  0.910532  0.811002  0.736115  1
  Rh  Rh37  1  0.188998  0.099531  0.736115  1
  Rh  Rh38  1  0.900469  0.089468  0.736115  1
