# generated using pymatgen
data_Sm2P7PdRu11
_symmetry_space_group_name_H-M   'P 1'
_cell_length_a   9.40467191
_cell_length_b   9.50548432
_cell_length_c   3.95718500
_cell_angle_alpha   90.00000000
_cell_angle_beta   90.00000000
_cell_angle_gamma   119.42287028
_symmetry_Int_Tables_number   1
_chemical_formula_structural   Sm2P7PdRu11
_chemical_formula_sum   'Sm2 P7 Pd1 Ru11'
_cell_volume   308.12808144
_cell_formula_units_Z   1
loop_
 _symmetry_equiv_pos_site_id
 _symmetry_equiv_pos_as_xyz
  1  'x, y, z'
loop_
 _atom_site_type_symbol
 _atom_site_label
 _atom_site_symmetry_multiplicity
 _atom_site_fract_x
 _atom_site_fract_y
 _atom_site_fract_z
 _atom_site_occupancy
  Sm  Sm0  1  0.670921  0.336233  0.500000  1
  Sm  Sm1  1  0.329664  0.660125  0.000000  1
  P  P2  1  0.600467  0.703350  0.500000  1
  P  P3  1  0.996726  0.000706  0.000000  1
  P  P4  1  0.273159  0.882197  0.500000  1
  P  P5  1  0.114933  0.399903  0.500000  1
  P  P6  1  0.890092  0.581211  0.000000  1
  P  P7  1  0.424213  0.308268  0.000000  1
  P  P8  1  0.704793  0.123420  0.000000  1
  Pd  Pd9  1  0.550141  0.942092  0.500000  1
  Ru  Ru10  1  0.388415  0.435648  0.500000  1
  Ru  Ru11  1  0.910304  0.128069  0.500000  1
  Ru  Ru12  1  0.209449  0.087076  0.500000  1
  Ru  Ru13  1  0.876643  0.793636  0.500000  1
  Ru  Ru14  1  0.724253  0.891106  0.000000  1
  Ru  Ru15  1  0.110573  0.840926  0.000000  1
  Ru  Ru16  1  0.161398  0.268052  0.000000  1
  Ru  Ru17  1  0.430574  0.065205  0.000000  1
  Ru  Ru18  1  0.940512  0.366222  0.000000  1
  Ru  Ru19  1  0.640767  0.575018  0.000000  1
  Ru  Ru20  1  0.052004  0.611536  0.500000  1
