# generated using pymatgen
data_Mn2Nb2FeB3W
_symmetry_space_group_name_H-M   'P 1'
_cell_length_a   6.05674277
_cell_length_b   6.02465016
_cell_length_c   3.10038400
_cell_angle_alpha   90.00000000
_cell_angle_beta   90.00000000
_cell_angle_gamma   119.45480927
_symmetry_Int_Tables_number   1
_chemical_formula_structural   Mn2Nb2FeB3W
_chemical_formula_sum   'Mn2 Nb2 Fe1 B3 W1'
_cell_volume   98.50921246
_cell_formula_units_Z   1
loop_
 _symmetry_equiv_pos_site_id
 _symmetry_equiv_pos_as_xyz
  1  'x, y, z'
loop_
 _atom_site_type_symbol
 _atom_site_label
 _atom_site_symmetry_multiplicity
 _atom_site_fract_x
 _atom_site_fract_y
 _atom_site_fract_z
 _atom_site_occupancy
  Mn  Mn0  1  0.758422  0.757719  0.000000  1
  Mn  Mn1  1  0.242917  0.001680  0.000000  1
  Nb  Nb2  1  0.588837  0.996667  0.500000  1
  Nb  Nb3  1  0.997416  0.588245  0.500000  1
  Fe  Fe4  1  0.002483  0.241948  0.000000  1
  B  B5  1  0.658416  0.334587  0.000000  1
  B  B6  1  0.333463  0.657691  0.000000  1
  B  B7  1  0.006828  0.011089  0.500000  1
  W  W8  1  0.411219  0.410375  0.500000  1
