# generated using pymatgen
data_Tb12Ga2CoNiOs2
_symmetry_space_group_name_H-M   'P 1'
_cell_length_a   8.38619882
_cell_length_b   8.38648424
_cell_length_c   8.38619899
_cell_angle_alpha   112.74941002
_cell_angle_beta   110.23357767
_cell_angle_gamma   105.51129215
_symmetry_Int_Tables_number   1
_chemical_formula_structural   Tb12Ga2CoNiOs2
_chemical_formula_sum   'Tb12 Ga2 Co1 Ni1 Os2'
_cell_volume   452.19481465
_cell_formula_units_Z   1
loop_
 _symmetry_equiv_pos_site_id
 _symmetry_equiv_pos_as_xyz
  1  'x, y, z'
loop_
 _atom_site_type_symbol
 _atom_site_label
 _atom_site_symmetry_multiplicity
 _atom_site_fract_x
 _atom_site_fract_y
 _atom_site_fract_z
 _atom_site_occupancy
  Tb  Tb0  1  0.051572  0.743367  0.308176  1
  Tb  Tb1  1  0.949662  0.257016  0.692665  1
  Tb  Tb2  1  0.564349  0.257016  0.307354  1
  Tb  Tb3  1  0.435192  0.743367  0.691795  1
  Tb  Tb4  1  0.670151  0.856212  0.186062  1
  Tb  Tb5  1  0.325665  0.510032  0.184367  1
  Tb  Tb6  1  0.325620  0.141173  0.815551  1
  Tb  Tb7  1  0.670160  0.484154  0.813994  1
  Tb  Tb8  1  0.181469  0.222777  0.401261  1
  Tb  Tb9  1  0.821515  0.222777  0.041308  1
  Tb  Tb10  1  0.181430  0.780187  0.958697  1
  Tb  Tb11  1  0.821489  0.780187  0.598758  1
  Ga  Ga12  1  0.999862  0.499874  0.500011  1
  Ga  Ga13  1  0.500718  0.000725  0.500007  1
  Co  Co14  1  0.113662  0.113645  0.999983  1
  Ni  Ni15  1  0.885218  0.885234  0.000017  1
  Os  Os16  1  0.673666  0.501129  0.172529  1
  Os  Os17  1  0.328599  0.501129  0.827463  1
