# generated using pymatgen
data_Pr16MgHg3IrPt3
_symmetry_space_group_name_H-M   'P 1'
_cell_length_a   10.08331117
_cell_length_b   10.09922480
_cell_length_c   10.09922500
_cell_angle_alpha   60.00000263
_cell_angle_beta   59.94778196
_cell_angle_gamma   59.94778744
_symmetry_Int_Tables_number   1
_chemical_formula_structural   Pr16MgHg3IrPt3
_chemical_formula_sum   'Pr16 Mg1 Hg3 Ir1 Pt3'
_cell_volume   726.64293730
_cell_formula_units_Z   1
loop_
 _symmetry_equiv_pos_site_id
 _symmetry_equiv_pos_as_xyz
  1  'x, y, z'
loop_
 _atom_site_type_symbol
 _atom_site_label
 _atom_site_symmetry_multiplicity
 _atom_site_fract_x
 _atom_site_fract_y
 _atom_site_fract_z
 _atom_site_occupancy
  Pr  Pr0  1  0.350467  0.345999  0.345999  1
  Pr  Pr1  1  0.350467  0.345999  0.957536  1
  Pr  Pr2  1  0.350467  0.957536  0.345999  1
  Pr  Pr3  1  0.939174  0.353609  0.353609  1
  Pr  Pr4  1  0.803659  0.192140  0.192140  1
  Pr  Pr5  1  0.191807  0.809222  0.809222  1
  Pr  Pr6  1  0.191807  0.809222  0.189749  1
  Pr  Pr7  1  0.803659  0.192140  0.812062  1
  Pr  Pr8  1  0.191807  0.189749  0.809222  1
  Pr  Pr9  1  0.803659  0.812062  0.192140  1
  Pr  Pr10  1  0.937496  0.564660  0.564660  1
  Pr  Pr11  1  0.565757  0.936729  0.936729  1
  Pr  Pr12  1  0.565757  0.936729  0.560786  1
  Pr  Pr13  1  0.937496  0.564660  0.933183  1
  Pr  Pr14  1  0.565757  0.560786  0.936729  1
  Pr  Pr15  1  0.937496  0.933183  0.564660  1
  Mg  Mg16  1  0.291885  0.569372  0.569372  1
  Hg  Hg17  1  0.578392  0.587153  0.587153  1
  Hg  Hg18  1  0.578392  0.587153  0.247301  1
  Hg  Hg19  1  0.578392  0.247301  0.587153  1
  Ir  Ir20  1  0.573112  0.142296  0.142296  1
  Pt  Pt21  1  0.137699  0.144651  0.144651  1
  Pt  Pt22  1  0.137699  0.144651  0.572999  1
  Pt  Pt23  1  0.137699  0.572999  0.144651  1
