# generated using pymatgen
data_Y3Ta(P3Rh4)2
_symmetry_space_group_name_H-M   'P 1'
_cell_length_a   3.94569900
_cell_length_b   11.17038000
_cell_length_c   12.87174600
_cell_angle_alpha   90.00000000
_cell_angle_beta   90.00000000
_cell_angle_gamma   90.00000000
_symmetry_Int_Tables_number   1
_chemical_formula_structural   Y3Ta(P3Rh4)2
_chemical_formula_sum   'Y6 Ta2 P12 Rh16'
_cell_volume   567.32165398
_cell_formula_units_Z   2
loop_
 _symmetry_equiv_pos_site_id
 _symmetry_equiv_pos_as_xyz
  1  'x, y, z'
loop_
 _atom_site_type_symbol
 _atom_site_label
 _atom_site_symmetry_multiplicity
 _atom_site_fract_x
 _atom_site_fract_y
 _atom_site_fract_z
 _atom_site_occupancy
  Y  Y0  1  0.000000  0.500000  0.521912  1
  Y  Y1  1  0.500000  0.000000  0.478088  1
  Y  Y2  1  0.500000  0.819009  0.202046  1
  Y  Y3  1  0.500000  0.180991  0.202046  1
  Y  Y4  1  0.000000  0.680991  0.797954  1
  Y  Y5  1  0.000000  0.319009  0.797954  1
  Ta  Ta6  1  0.500000  0.500000  0.157796  1
  Ta  Ta7  1  0.000000  0.000000  0.842204  1
  P  P8  1  0.500000  0.500000  0.874967  1
  P  P9  1  0.000000  0.000000  0.125033  1
  P  P10  1  0.500000  0.500000  0.351100  1
  P  P11  1  0.000000  0.000000  0.648900  1
  P  P12  1  0.500000  0.313922  0.616552  1
  P  P13  1  0.500000  0.686078  0.616552  1
  P  P14  1  0.000000  0.186078  0.383448  1
  P  P15  1  0.000000  0.813922  0.383448  1
  P  P16  1  0.500000  0.845132  0.887851  1
  P  P17  1  0.500000  0.154868  0.887851  1
  P  P18  1  0.000000  0.654868  0.112149  1
  P  P19  1  0.000000  0.345132  0.112149  1
  Rh  Rh20  1  0.500000  0.500000  0.697537  1
  Rh  Rh21  1  0.000000  0.000000  0.302463  1
  Rh  Rh22  1  0.000000  0.500000  0.987706  1
  Rh  Rh23  1  0.500000  0.000000  0.012294  1
  Rh  Rh24  1  0.500000  0.331881  0.986076  1
  Rh  Rh25  1  0.500000  0.668119  0.986076  1
  Rh  Rh26  1  0.000000  0.168119  0.013924  1
  Rh  Rh27  1  0.000000  0.831881  0.013924  1
  Rh  Rh28  1  0.500000  0.294045  0.432230  1
  Rh  Rh29  1  0.500000  0.705955  0.432230  1
  Rh  Rh30  1  0.000000  0.205955  0.567770  1
  Rh  Rh31  1  0.000000  0.794045  0.567770  1
  Rh  Rh32  1  0.500000  0.874313  0.707607  1
  Rh  Rh33  1  0.500000  0.125687  0.707607  1
  Rh  Rh34  1  0.000000  0.625687  0.292393  1
  Rh  Rh35  1  0.000000  0.374313  0.292393  1
