# generated using pymatgen
data_Er6CrB14Os
_symmetry_space_group_name_H-M   'P 1'
_cell_length_a   8.00015314
_cell_length_b   8.00015335
_cell_length_c   9.27474900
_cell_angle_alpha   90.00000000
_cell_angle_beta   90.00000000
_cell_angle_gamma   155.02801313
_symmetry_Int_Tables_number   1
_chemical_formula_structural   Er6CrB14Os
_chemical_formula_sum   'Er6 Cr1 B14 Os1'
_cell_volume   250.60595695
_cell_formula_units_Z   1
loop_
 _symmetry_equiv_pos_site_id
 _symmetry_equiv_pos_as_xyz
  1  'x, y, z'
loop_
 _atom_site_type_symbol
 _atom_site_label
 _atom_site_symmetry_multiplicity
 _atom_site_fract_x
 _atom_site_fract_y
 _atom_site_fract_z
 _atom_site_occupancy
  Er  Er0  1  0.755842  0.244158  0.250000  1
  Er  Er1  1  0.241994  0.758006  0.750000  1
  Er  Er2  1  0.894335  0.105665  0.561978  1
  Er  Er3  1  0.105620  0.894380  0.441272  1
  Er  Er4  1  0.105620  0.894380  0.058728  1
  Er  Er5  1  0.894335  0.105665  0.938022  1
  Cr  Cr6  1  0.052767  0.947233  0.750000  1
  B  B7  1  0.544235  0.455765  0.250000  1
  B  B8  1  0.457076  0.542924  0.750000  1
  B  B9  1  0.520708  0.479292  0.904270  1
  B  B10  1  0.479843  0.520157  0.094692  1
  B  B11  1  0.479843  0.520157  0.405308  1
  B  B12  1  0.520708  0.479292  0.595730  1
  B  B13  1  0.631412  0.368588  0.848559  1
  B  B14  1  0.368093  0.631907  0.149550  1
  B  B15  1  0.727899  0.272101  0.966343  1
  B  B16  1  0.272945  0.727055  0.034155  1
  B  B17  1  0.272945  0.727055  0.465845  1
  B  B18  1  0.727899  0.272101  0.533657  1
  B  B19  1  0.631412  0.368588  0.651441  1
  B  B20  1  0.368093  0.631907  0.350450  1
  Os  Os21  1  0.946376  0.053624  0.250000  1
