# generated using pymatgen
data_Ho3Tm(SbO4)4
_symmetry_space_group_name_H-M   'P 1'
_cell_length_a   5.37766085
_cell_length_b   7.65981505
_cell_length_c   7.54432600
_cell_angle_alpha   81.17783846
_cell_angle_beta   90.41321339
_cell_angle_gamma   92.02783384
_symmetry_Int_Tables_number   1
_chemical_formula_structural   Ho3Tm(SbO4)4
_chemical_formula_sum   'Ho3 Tm1 Sb4 O16'
_cell_volume   306.89559454
_cell_formula_units_Z   1
loop_
 _symmetry_equiv_pos_site_id
 _symmetry_equiv_pos_as_xyz
  1  'x, y, z'
loop_
 _atom_site_type_symbol
 _atom_site_label
 _atom_site_symmetry_multiplicity
 _atom_site_fract_x
 _atom_site_fract_y
 _atom_site_fract_z
 _atom_site_occupancy
  Ho  Ho0  1  0.263223  0.132909  0.615604  1
  Ho  Ho1  1  0.737275  0.866730  0.384454  1
  Ho  Ho2  1  0.213707  0.156751  0.109844  1
  Tm  Tm3  1  0.786544  0.842623  0.888758  1
  Sb  Sb4  1  0.240154  0.663924  0.193224  1
  Sb  Sb5  1  0.760405  0.336372  0.806066  1
  Sb  Sb6  1  0.726162  0.335582  0.308845  1
  Sb  Sb7  1  0.274232  0.664791  0.691763  1
  O  O8  1  0.088038  0.433725  0.689658  1
  O  O9  1  0.912985  0.565806  0.310882  1
  O  O10  1  0.607334  0.325307  0.560961  1
  O  O11  1  0.392310  0.676113  0.438815  1
  O  O12  1  0.874922  0.330375  0.061899  1
  O  O13  1  0.122510  0.670192  0.937894  1
  O  O14  1  0.400595  0.430161  0.195494  1
  O  O15  1  0.600303  0.570663  0.804928  1
  O  O16  1  0.040910  0.886218  0.173193  1
  O  O17  1  0.956969  0.111829  0.826543  1
  O  O18  1  0.511164  0.110224  0.321966  1
  O  O19  1  0.490018  0.889456  0.680325  1
  O  O20  1  0.464103  0.188430  0.878881  1
  O  O21  1  0.536875  0.811998  0.118635  1
  O  O22  1  0.995252  0.169132  0.382465  1
  O  O23  1  0.004007  0.830691  0.618899  1
