# generated using pymatgen
data_PrNd7InPd24
_symmetry_space_group_name_H-M   'P 1'
_cell_length_a   8.55011000
_cell_length_b   8.55011000
_cell_length_c   8.55011000
_cell_angle_alpha   89.99923606
_cell_angle_beta   89.99923606
_cell_angle_gamma   89.99923606
_symmetry_Int_Tables_number   1
_chemical_formula_structural   PrNd7InPd24
_chemical_formula_sum   'Pr1 Nd7 In1 Pd24'
_cell_volume   625.05049905
_cell_formula_units_Z   1
loop_
 _symmetry_equiv_pos_site_id
 _symmetry_equiv_pos_as_xyz
  1  'x, y, z'
loop_
 _atom_site_type_symbol
 _atom_site_label
 _atom_site_symmetry_multiplicity
 _atom_site_fract_x
 _atom_site_fract_y
 _atom_site_fract_z
 _atom_site_occupancy
  Pr  Pr0  1  0.251130  0.251130  0.251130  1
  Nd  Nd1  1  0.748799  0.748799  0.748799  1
  Nd  Nd2  1  0.748848  0.748848  0.251172  1
  Nd  Nd3  1  0.748848  0.251172  0.748848  1
  Nd  Nd4  1  0.251151  0.251151  0.748827  1
  Nd  Nd5  1  0.251151  0.748827  0.251151  1
  Nd  Nd6  1  0.251172  0.748848  0.748848  1
  Nd  Nd7  1  0.748827  0.251151  0.251151  1
  In  In8  1  0.999958  0.999958  0.999958  1
  Pd  Pd9  1  0.267361  0.500266  0.999704  1
  Pd  Pd10  1  0.732646  0.499970  0.000032  1
  Pd  Pd11  1  0.999704  0.267361  0.500266  1
  Pd  Pd12  1  0.500266  0.267361  0.999704  1
  Pd  Pd13  1  0.000032  0.732646  0.499970  1
  Pd  Pd14  1  0.499970  0.732646  0.000032  1
  Pd  Pd15  1  0.500266  0.999704  0.267361  1
  Pd  Pd16  1  0.267361  0.999704  0.500266  1
  Pd  Pd17  1  0.499970  0.000032  0.732646  1
  Pd  Pd18  1  0.732646  0.000032  0.499970  1
  Pd  Pd19  1  0.999704  0.500266  0.267361  1
  Pd  Pd20  1  0.000032  0.499970  0.732646  1
  Pd  Pd21  1  0.255367  0.500309  0.500309  1
  Pd  Pd22  1  0.744639  0.499959  0.499959  1
  Pd  Pd23  1  0.500309  0.255367  0.500309  1
  Pd  Pd24  1  0.499959  0.744639  0.499959  1
  Pd  Pd25  1  0.500309  0.500309  0.255367  1
  Pd  Pd26  1  0.499959  0.499959  0.744639  1
  Pd  Pd27  1  0.314907  0.999746  0.999746  1
  Pd  Pd28  1  0.685140  0.000040  0.000040  1
  Pd  Pd29  1  0.999746  0.314907  0.999746  1
  Pd  Pd30  1  0.000040  0.685140  0.000040  1
  Pd  Pd31  1  0.999746  0.999746  0.314907  1
  Pd  Pd32  1  0.000040  0.000040  0.685140  1
