# generated using pymatgen
data_TbDy2V(Co4P3)2
_symmetry_space_group_name_H-M   'P 1'
_cell_length_a   3.69782500
_cell_length_b   10.56732800
_cell_length_c   12.25073300
_cell_angle_alpha   90.00000000
_cell_angle_beta   90.00000000
_cell_angle_gamma   90.00000000
_symmetry_Int_Tables_number   1
_chemical_formula_structural   TbDy2V(Co4P3)2
_chemical_formula_sum   'Tb2 Dy4 V2 Co16 P12'
_cell_volume   478.71123116
_cell_formula_units_Z   2
loop_
 _symmetry_equiv_pos_site_id
 _symmetry_equiv_pos_as_xyz
  1  'x, y, z'
loop_
 _atom_site_type_symbol
 _atom_site_label
 _atom_site_symmetry_multiplicity
 _atom_site_fract_x
 _atom_site_fract_y
 _atom_site_fract_z
 _atom_site_occupancy
  Tb  Tb0  1  0.000000  0.500000  0.523176  1
  Tb  Tb1  1  0.500000  0.000000  0.476824  1
  Dy  Dy2  1  0.500000  0.818562  0.204320  1
  Dy  Dy3  1  0.500000  0.181438  0.204320  1
  Dy  Dy4  1  0.000000  0.681438  0.795680  1
  Dy  Dy5  1  0.000000  0.318562  0.795680  1
  V  V6  1  0.500000  0.500000  0.153874  1
  V  V7  1  0.000000  0.000000  0.846126  1
  Co  Co8  1  0.500000  0.500000  0.702498  1
  Co  Co9  1  0.000000  0.000000  0.297502  1
  Co  Co10  1  0.000000  0.500000  0.986868  1
  Co  Co11  1  0.500000  0.000000  0.013132  1
  Co  Co12  1  0.500000  0.332447  0.993029  1
  Co  Co13  1  0.500000  0.667553  0.993029  1
  Co  Co14  1  0.000000  0.167553  0.006971  1
  Co  Co15  1  0.000000  0.832447  0.006971  1
  Co  Co16  1  0.500000  0.295817  0.430984  1
  Co  Co17  1  0.500000  0.704183  0.430984  1
  Co  Co18  1  0.000000  0.204183  0.569016  1
  Co  Co19  1  0.000000  0.795817  0.569016  1
  Co  Co20  1  0.500000  0.878927  0.708139  1
  Co  Co21  1  0.500000  0.121073  0.708139  1
  Co  Co22  1  0.000000  0.621073  0.291861  1
  Co  Co23  1  0.000000  0.378927  0.291861  1
  P  P24  1  0.500000  0.500000  0.882434  1
  P  P25  1  0.000000  0.000000  0.117566  1
  P  P26  1  0.500000  0.500000  0.346215  1
  P  P27  1  0.000000  0.000000  0.653785  1
  P  P28  1  0.500000  0.310619  0.616052  1
  P  P29  1  0.500000  0.689381  0.616052  1
  P  P30  1  0.000000  0.189381  0.383948  1
  P  P31  1  0.000000  0.810619  0.383948  1
  P  P32  1  0.500000  0.846006  0.892280  1
  P  P33  1  0.500000  0.153994  0.892280  1
  P  P34  1  0.000000  0.653994  0.107720  1
  P  P35  1  0.000000  0.346006  0.107720  1
