# generated using pymatgen
data_Dy2Er4MgCo17P12
_symmetry_space_group_name_H-M   'P 1'
_cell_length_a   3.69081900
_cell_length_b   10.52233700
_cell_length_c   12.17225400
_cell_angle_alpha   90.00000000
_cell_angle_beta   90.00000000
_cell_angle_gamma   90.00000000
_symmetry_Int_Tables_number   1
_chemical_formula_structural   Dy2Er4MgCo17P12
_chemical_formula_sum   'Dy2 Er4 Mg1 Co17 P12'
_cell_volume   472.72215935
_cell_formula_units_Z   1
loop_
 _symmetry_equiv_pos_site_id
 _symmetry_equiv_pos_as_xyz
  1  'x, y, z'
loop_
 _atom_site_type_symbol
 _atom_site_label
 _atom_site_symmetry_multiplicity
 _atom_site_fract_x
 _atom_site_fract_y
 _atom_site_fract_z
 _atom_site_occupancy
  Dy  Dy0  1  0.750000  0.250000  0.474626  1
  Dy  Dy1  1  0.250000  0.750000  0.522059  1
  Er  Er2  1  0.250000  0.928347  0.792611  1
  Er  Er3  1  0.250000  0.571653  0.792611  1
  Er  Er4  1  0.750000  0.067575  0.205411  1
  Er  Er5  1  0.750000  0.432425  0.205411  1
  Mg  Mg6  1  0.250000  0.250000  0.846489  1
  Co  Co7  1  0.750000  0.750000  0.161522  1
  Co  Co8  1  0.250000  0.250000  0.295148  1
  Co  Co9  1  0.750000  0.750000  0.704408  1
  Co  Co10  1  0.750000  0.250000  0.014009  1
  Co  Co11  1  0.250000  0.750000  0.987501  1
  Co  Co12  1  0.250000  0.420893  0.007123  1
  Co  Co13  1  0.250000  0.079107  0.007123  1
  Co  Co14  1  0.750000  0.586643  0.998192  1
  Co  Co15  1  0.750000  0.913357  0.998192  1
  Co  Co16  1  0.250000  0.454328  0.567171  1
  Co  Co17  1  0.250000  0.045672  0.567171  1
  Co  Co18  1  0.750000  0.547787  0.429373  1
  Co  Co19  1  0.750000  0.952213  0.429373  1
  Co  Co20  1  0.250000  0.870433  0.291205  1
  Co  Co21  1  0.250000  0.629567  0.291205  1
  Co  Co22  1  0.750000  0.126740  0.707243  1
  Co  Co23  1  0.750000  0.373260  0.707243  1
  P  P24  1  0.250000  0.250000  0.116989  1
  P  P25  1  0.750000  0.750000  0.883381  1
  P  P26  1  0.250000  0.250000  0.645940  1
  P  P27  1  0.750000  0.750000  0.345120  1
  P  P28  1  0.250000  0.440117  0.382168  1
  P  P29  1  0.250000  0.059883  0.382168  1
  P  P30  1  0.750000  0.560997  0.614692  1
  P  P31  1  0.750000  0.939003  0.614692  1
  P  P32  1  0.250000  0.900794  0.110428  1
  P  P33  1  0.250000  0.599206  0.110428  1
  P  P34  1  0.750000  0.086577  0.895787  1
  P  P35  1  0.750000  0.413423  0.895787  1
