# generated using pymatgen
data_LaScCdCu9
_symmetry_space_group_name_H-M   'P 1'
_cell_length_a   5.07724722
_cell_length_b   5.07976652
_cell_length_c   16.28466100
_cell_angle_alpha   90.00000000
_cell_angle_beta   90.00000000
_cell_angle_gamma   119.95585274
_symmetry_Int_Tables_number   1
_chemical_formula_structural   LaScCdCu9
_chemical_formula_sum   'La2 Sc2 Cd2 Cu18'
_cell_volume   363.89362132
_cell_formula_units_Z   2
loop_
 _symmetry_equiv_pos_site_id
 _symmetry_equiv_pos_as_xyz
  1  'x, y, z'
loop_
 _atom_site_type_symbol
 _atom_site_label
 _atom_site_symmetry_multiplicity
 _atom_site_fract_x
 _atom_site_fract_y
 _atom_site_fract_z
 _atom_site_occupancy
  La  La0  1  0.332782  0.666154  0.760893  1
  La  La1  1  0.667218  0.333846  0.260893  1
  Sc  Sc2  1  0.332817  0.666364  0.526642  1
  Sc  Sc3  1  0.667183  0.333636  0.026642  1
  Cd  Cd4  1  0.666350  0.333136  0.468094  1
  Cd  Cd5  1  0.333650  0.666864  0.968094  1
  Cu  Cu6  1  0.998711  0.999443  0.999908  1
  Cu  Cu7  1  0.001289  0.000557  0.499908  1
  Cu  Cu8  1  0.000521  0.999273  0.247261  1
  Cu  Cu9  1  0.999479  0.000727  0.747261  1
  Cu  Cu10  1  0.334244  0.668827  0.249322  1
  Cu  Cu11  1  0.665756  0.331173  0.749322  1
  Cu  Cu12  1  0.167705  0.336902  0.121886  1
  Cu  Cu13  1  0.828041  0.165622  0.621632  1
  Cu  Cu14  1  0.336271  0.169268  0.621805  1
  Cu  Cu15  1  0.663729  0.830732  0.121805  1
  Cu  Cu16  1  0.171959  0.834378  0.121632  1
  Cu  Cu17  1  0.832492  0.666185  0.877469  1
  Cu  Cu18  1  0.832686  0.168257  0.877314  1
  Cu  Cu19  1  0.832295  0.663098  0.621886  1
  Cu  Cu20  1  0.334778  0.167916  0.877776  1
  Cu  Cu21  1  0.665222  0.832084  0.377776  1
  Cu  Cu22  1  0.167508  0.333815  0.377469  1
  Cu  Cu23  1  0.167314  0.831743  0.377314  1
