# generated using pymatgen
data_Li3Tb4MgPt4
_symmetry_space_group_name_H-M   'P 1'
_cell_length_a   4.02474300
_cell_length_b   7.11825266
_cell_length_c   8.57389638
_cell_angle_alpha   90.08179910
_cell_angle_beta   90.00000000
_cell_angle_gamma   90.00000000
_symmetry_Int_Tables_number   1
_chemical_formula_structural   Li3Tb4MgPt4
_chemical_formula_sum   'Li3 Tb4 Mg1 Pt4'
_cell_volume   245.63448647
_cell_formula_units_Z   1
loop_
 _symmetry_equiv_pos_site_id
 _symmetry_equiv_pos_as_xyz
  1  'x, y, z'
loop_
 _atom_site_type_symbol
 _atom_site_label
 _atom_site_symmetry_multiplicity
 _atom_site_fract_x
 _atom_site_fract_y
 _atom_site_fract_z
 _atom_site_occupancy
  Li  Li0  1  0.750000  0.627026  0.442686  1
  Li  Li1  1  0.250000  0.375277  0.555457  1
  Li  Li2  1  0.750000  0.132403  0.061278  1
  Tb  Tb3  1  0.750000  0.541173  0.813984  1
  Tb  Tb4  1  0.250000  0.950694  0.320883  1
  Tb  Tb5  1  0.250000  0.451069  0.183959  1
  Tb  Tb6  1  0.750000  0.050567  0.675715  1
  Mg  Mg7  1  0.250000  0.873542  0.941349  1
  Pt  Pt8  1  0.250000  0.755608  0.627442  1
  Pt  Pt9  1  0.250000  0.252716  0.876026  1
  Pt  Pt10  1  0.750000  0.744066  0.124899  1
  Pt  Pt11  1  0.750000  0.245860  0.376321  1
