# generated using pymatgen
data_V8Ga4Tc3Os
_symmetry_space_group_name_H-M   'P 1'
_cell_length_a   4.75182100
_cell_length_b   4.82292810
_cell_length_c   9.62645402
_cell_angle_alpha   89.72788207
_cell_angle_beta   90.00000000
_cell_angle_gamma   90.00000000
_symmetry_Int_Tables_number   1
_chemical_formula_structural   V8Ga4Tc3Os
_chemical_formula_sum   'V8 Ga4 Tc3 Os1'
_cell_volume   220.61361089
_cell_formula_units_Z   1
loop_
 _symmetry_equiv_pos_site_id
 _symmetry_equiv_pos_as_xyz
  1  'x, y, z'
loop_
 _atom_site_type_symbol
 _atom_site_label
 _atom_site_symmetry_multiplicity
 _atom_site_fract_x
 _atom_site_fract_y
 _atom_site_fract_z
 _atom_site_occupancy
  V  V0  1  0.751672  0.997703  0.251871  1
  V  V1  1  0.752180  0.998696  0.749999  1
  V  V2  1  0.000000  0.498745  0.124668  1
  V  V3  1  0.000000  0.500603  0.624313  1
  V  V4  1  0.500000  0.248036  0.999301  1
  V  V5  1  0.500000  0.252763  0.500041  1
  V  V6  1  0.248328  0.997703  0.251871  1
  V  V7  1  0.247820  0.998696  0.749999  1
  Ga  Ga8  1  0.500000  0.492752  0.246678  1
  Ga  Ga9  1  0.500000  0.493280  0.748158  1
  Ga  Ga10  1  0.000000  0.004643  0.003227  1
  Ga  Ga11  1  0.000000  0.005582  0.503307  1
  Tc  Tc12  1  0.000000  0.501859  0.373883  1
  Tc  Tc13  1  0.000000  0.501416  0.873815  1
  Tc  Tc14  1  0.500000  0.753120  0.998968  1
  Os  Os15  1  0.500000  0.754401  0.499899  1
