# generated using pymatgen
data_Nd2DyRh2
_symmetry_space_group_name_H-M   'P 1'
_cell_length_a   7.57264751
_cell_length_b   7.57264748
_cell_length_c   7.57264811
_cell_angle_alpha   70.87269014
_cell_angle_beta   70.87269078
_cell_angle_gamma   70.87267765
_symmetry_Int_Tables_number   1
_chemical_formula_structural   Nd2DyRh2
_chemical_formula_sum   'Nd6 Dy3 Rh6'
_cell_volume   375.63840854
_cell_formula_units_Z   3
loop_
 _symmetry_equiv_pos_site_id
 _symmetry_equiv_pos_as_xyz
  1  'x, y, z'
loop_
 _atom_site_type_symbol
 _atom_site_label
 _atom_site_symmetry_multiplicity
 _atom_site_fract_x
 _atom_site_fract_y
 _atom_site_fract_z
 _atom_site_occupancy
  Nd  Nd0  1  0.161557  0.391129  0.666582  1
  Nd  Nd1  1  0.666582  0.161557  0.391129  1
  Nd  Nd2  1  0.391129  0.666582  0.161557  1
  Nd  Nd3  1  0.838443  0.608871  0.333418  1
  Nd  Nd4  1  0.333418  0.838443  0.608871  1
  Nd  Nd5  1  0.608871  0.333418  0.838443  1
  Dy  Dy6  1  0.000000  0.000000  0.000000  1
  Dy  Dy7  1  0.800471  0.800471  0.800471  1
  Dy  Dy8  1  0.199529  0.199529  0.199529  1
  Rh  Rh9  1  0.960411  0.157016  0.592591  1
  Rh  Rh10  1  0.592591  0.960411  0.157016  1
  Rh  Rh11  1  0.157016  0.592591  0.960411  1
  Rh  Rh12  1  0.039589  0.842984  0.407409  1
  Rh  Rh13  1  0.407409  0.039589  0.842984  1
  Rh  Rh14  1  0.842984  0.407409  0.039589  1
