# generated using pymatgen
data_Dy3Y5TiV3O20
_symmetry_space_group_name_H-M   'P 1'
_cell_length_a   3.73297900
_cell_length_b   10.41282681
_cell_length_c   11.30488111
_cell_angle_alpha   90.11470864
_cell_angle_beta   90.00000000
_cell_angle_gamma   90.00000000
_symmetry_Int_Tables_number   1
_chemical_formula_structural   Dy3Y5TiV3O20
_chemical_formula_sum   'Dy3 Y5 Ti1 V3 O20'
_cell_volume   439.42961340
_cell_formula_units_Z   1
loop_
 _symmetry_equiv_pos_site_id
 _symmetry_equiv_pos_as_xyz
  1  'x, y, z'
loop_
 _atom_site_type_symbol
 _atom_site_label
 _atom_site_symmetry_multiplicity
 _atom_site_fract_x
 _atom_site_fract_y
 _atom_site_fract_z
 _atom_site_occupancy
  Dy  Dy0  1  0.750000  0.879987  0.725930  1
  Dy  Dy1  1  0.250000  0.618035  0.225000  1
  Dy  Dy2  1  0.250000  0.118292  0.275006  1
  Y  Y3  1  0.250000  0.136289  0.943896  1
  Y  Y4  1  0.250000  0.637476  0.554675  1
  Y  Y5  1  0.750000  0.862642  0.055812  1
  Y  Y6  1  0.750000  0.363609  0.445141  1
  Y  Y7  1  0.750000  0.381070  0.773417  1
  Ti  Ti8  1  0.750000  0.327179  0.119296  1
  V  V9  1  0.250000  0.169924  0.618181  1
  V  V10  1  0.250000  0.670858  0.881507  1
  V  V11  1  0.750000  0.829320  0.381134  1
  O  O12  1  0.250000  0.225381  0.457161  1
  O  O13  1  0.250000  0.726553  0.042252  1
  O  O14  1  0.750000  0.774502  0.542656  1
  O  O15  1  0.750000  0.276387  0.957014  1
  O  O16  1  0.250000  0.494380  0.394760  1
  O  O17  1  0.250000  0.995370  0.105688  1
  O  O18  1  0.750000  0.505866  0.605659  1
  O  O19  1  0.750000  0.006119  0.894275  1
  O  O20  1  0.250000  0.265753  0.117204  1
  O  O21  1  0.250000  0.765869  0.383546  1
  O  O22  1  0.750000  0.734357  0.883511  1
  O  O23  1  0.750000  0.233259  0.615642  1
  O  O24  1  0.250000  0.007318  0.654025  1
  O  O25  1  0.250000  0.508078  0.845980  1
  O  O26  1  0.750000  0.992401  0.346110  1
  O  O27  1  0.750000  0.493829  0.154787  1
  O  O28  1  0.250000  0.256943  0.768778  1
  O  O29  1  0.250000  0.757853  0.731177  1
  O  O30  1  0.750000  0.743697  0.230795  1
  O  O31  1  0.750000  0.241406  0.269981  1
