# generated using pymatgen
data_Ho10Ga4Ru5Rh
_symmetry_space_group_name_H-M   'P 1'
_cell_length_a   8.31404754
_cell_length_b   8.31705082
_cell_length_c   8.31705100
_cell_angle_alpha   109.45142561
_cell_angle_beta   109.57032235
_cell_angle_gamma   109.40660091
_symmetry_Int_Tables_number   1
_chemical_formula_structural   Ho10Ga4Ru5Rh
_chemical_formula_sum   'Ho10 Ga4 Ru5 Rh1'
_cell_volume   442.63920611
_cell_formula_units_Z   1
loop_
 _symmetry_equiv_pos_site_id
 _symmetry_equiv_pos_as_xyz
  1  'x, y, z'
loop_
 _atom_site_type_symbol
 _atom_site_label
 _atom_site_symmetry_multiplicity
 _atom_site_fract_x
 _atom_site_fract_y
 _atom_site_fract_z
 _atom_site_occupancy
  Ho  Ho0  1  0.250000  0.680185  0.430185  1
  Ho  Ho1  1  0.750000  0.819169  0.069169  1
  Ho  Ho2  1  0.432606  0.250984  0.679840  1
  Ho  Ho3  1  0.682486  0.431934  0.252158  1
  Ho  Ho4  1  0.067394  0.747233  0.818378  1
  Ho  Ho5  1  0.817514  0.069672  0.749449  1
  Ho  Ho6  1  0.214236  0.216002  0.217063  1
  Ho  Ho7  1  0.500231  0.000081  0.285693  1
  Ho  Ho8  1  0.285764  0.502827  0.001764  1
  Ho  Ho9  1  0.999769  0.285463  0.499849  1
  Ga  Ga10  1  0.588305  0.588418  0.588206  1
  Ga  Ga11  1  0.500818  0.998205  0.910818  1
  Ga  Ga12  1  0.911695  0.499901  0.000113  1
  Ga  Ga13  1  0.999182  0.910001  0.497388  1
  Ru  Ru14  1  0.750000  0.375359  0.625359  1
  Ru  Ru15  1  0.873480  0.249745  0.123839  1
  Ru  Ru16  1  0.125698  0.876207  0.249739  1
  Ru  Ru17  1  0.626519  0.750357  0.376265  1
  Ru  Ru18  1  0.374302  0.624041  0.750510  1
  Rh  Rh19  1  0.250000  0.124214  0.874214  1
