# generated using pymatgen
data_Nd2B8Os5RuRh2
_symmetry_space_group_name_H-M   'P 1'
_cell_length_a   7.61774121
_cell_length_b   7.59503759
_cell_length_c   4.01547593
_cell_angle_alpha   89.94511246
_cell_angle_beta   90.06468906
_cell_angle_gamma   90.07293809
_symmetry_Int_Tables_number   1
_chemical_formula_structural   Nd2B8Os5RuRh2
_chemical_formula_sum   'Nd2 B8 Os5 Ru1 Rh2'
_cell_volume   232.32307233
_cell_formula_units_Z   1
loop_
 _symmetry_equiv_pos_site_id
 _symmetry_equiv_pos_as_xyz
  1  'x, y, z'
loop_
 _atom_site_type_symbol
 _atom_site_label
 _atom_site_symmetry_multiplicity
 _atom_site_fract_x
 _atom_site_fract_y
 _atom_site_fract_z
 _atom_site_occupancy
  Nd  Nd0  1  0.498202  0.499675  0.997067  1
  Nd  Nd1  1  0.999394  0.000627  0.491855  1
  B  B2  1  0.654583  0.775473  0.606879  1
  B  B3  1  0.166537  0.285912  0.892837  1
  B  B4  1  0.283882  0.837730  0.112094  1
  B  B5  1  0.713531  0.166697  0.108720  1
  B  B6  1  0.330769  0.209600  0.612126  1
  B  B7  1  0.834497  0.712058  0.886996  1
  B  B8  1  0.218829  0.665318  0.392606  1
  B  B9  1  0.791492  0.334734  0.388668  1
  Os  Os10  1  0.106313  0.647347  0.891320  1
  Os  Os11  1  0.145404  0.392763  0.391757  1
  Os  Os12  1  0.852180  0.607912  0.389082  1
  Os  Os13  1  0.892718  0.354228  0.889787  1
  Os  Os14  1  0.391023  0.857222  0.613635  1
  Ru  Ru15  1  0.358098  0.112896  0.111850  1
  Rh  Rh16  1  0.650422  0.891602  0.111838  1
  Rh  Rh17  1  0.612125  0.148204  0.610887  1
