# generated using pymatgen
data_Yb10Si4Bi2F
_symmetry_space_group_name_H-M   'P 1'
_cell_length_a   9.09148443
_cell_length_b   9.09149877
_cell_length_c   9.09124800
_cell_angle_alpha   129.84772816
_cell_angle_beta   129.84786104
_cell_angle_gamma   73.65230529
_symmetry_Int_Tables_number   1
_chemical_formula_structural   Yb10Si4Bi2F
_chemical_formula_sum   'Yb10 Si4 Bi2 F1'
_cell_volume   432.17396726
_cell_formula_units_Z   1
loop_
 _symmetry_equiv_pos_site_id
 _symmetry_equiv_pos_as_xyz
  1  'x, y, z'
loop_
 _atom_site_type_symbol
 _atom_site_label
 _atom_site_symmetry_multiplicity
 _atom_site_fract_x
 _atom_site_fract_y
 _atom_site_fract_z
 _atom_site_occupancy
  Yb  Yb0  1  0.767592  0.443574  0.000001  1
  Yb  Yb1  1  0.443574  0.767594  0.000003  1
  Yb  Yb2  1  0.945832  0.945831  0.664453  1
  Yb  Yb3  1  0.281367  0.281367  0.335539  1
  Yb  Yb4  1  0.718581  0.054185  0.000012  1
  Yb  Yb5  1  0.054185  0.718580  0.000012  1
  Yb  Yb6  1  0.556416  0.556416  0.323970  1
  Yb  Yb7  1  0.232438  0.232438  0.676028  1
  Yb  Yb8  1  0.250009  0.750005  0.499994  1
  Yb  Yb9  1  0.750006  0.250009  0.499995  1
  Si  Si10  1  0.134582  0.367169  0.999995  1
  Si  Si11  1  0.367169  0.134583  0.999996  1
  Si  Si12  1  0.865415  0.865415  0.232568  1
  Si  Si13  1  0.632861  0.632861  0.767442  1
  Bi  Bi14  1  0.999981  0.499977  0.499999  1
  Bi  Bi15  1  0.499979  0.999980  0.499999  1
  F  F16  1  0.500015  0.500016  0.999994  1
