# generated using pymatgen
data_Y12Fe4CuBi
_symmetry_space_group_name_H-M   'P 1'
_cell_length_a   8.42271012
_cell_length_b   8.42271123
_cell_length_c   8.42270986
_cell_angle_alpha   110.90887613
_cell_angle_beta   110.84931961
_cell_angle_gamma   106.69074209
_symmetry_Int_Tables_number   1
_chemical_formula_structural   Y12Fe4CuBi
_chemical_formula_sum   'Y12 Fe4 Cu1 Bi1'
_cell_volume   459.16687823
_cell_formula_units_Z   1
loop_
 _symmetry_equiv_pos_site_id
 _symmetry_equiv_pos_as_xyz
  1  'x, y, z'
loop_
 _atom_site_type_symbol
 _atom_site_label
 _atom_site_symmetry_multiplicity
 _atom_site_fract_x
 _atom_site_fract_y
 _atom_site_fract_z
 _atom_site_occupancy
  Y  Y0  1  0.286100  0.184894  0.470994  1
  Y  Y1  1  0.713900  0.815106  0.529006  1
  Y  Y2  1  0.286100  0.815106  0.101208  1
  Y  Y3  1  0.713900  0.184894  0.898792  1
  Y  Y4  1  0.614015  0.310031  0.303984  1
  Y  Y5  1  0.385985  0.689969  0.696016  1
  Y  Y6  1  0.006047  0.310031  0.696016  1
  Y  Y7  1  0.993953  0.689969  0.303984  1
  Y  Y8  1  0.214585  0.417947  0.203362  1
  Y  Y9  1  0.785415  0.582053  0.796638  1
  Y  Y10  1  0.214585  0.011224  0.796638  1
  Y  Y11  1  0.785415  0.988776  0.203362  1
  Fe  Fe12  1  0.000000  0.386415  0.386415  1
  Fe  Fe13  1  0.000000  0.613585  0.613585  1
  Fe  Fe14  1  0.393985  0.893985  0.500000  1
  Fe  Fe15  1  0.606015  0.106015  0.500000  1
  Cu  Cu16  1  0.000000  0.000000  0.000000  1
  Bi  Bi17  1  0.500000  0.500000  0.000000  1
