# generated using pymatgen
data_LuMnSbO6
_symmetry_space_group_name_H-M   'P 1'
_cell_length_a   5.11709652
_cell_length_b   5.11643800
_cell_length_c   4.79816434
_cell_angle_alpha   89.99595009
_cell_angle_beta   90.00718182
_cell_angle_gamma   119.99558159
_symmetry_Int_Tables_number   1
_chemical_formula_structural   LuMnSbO6
_chemical_formula_sum   'Lu1 Mn1 Sb1 O6'
_cell_volume   108.79687104
_cell_formula_units_Z   1
loop_
 _symmetry_equiv_pos_site_id
 _symmetry_equiv_pos_as_xyz
  1  'x, y, z'
loop_
 _atom_site_type_symbol
 _atom_site_label
 _atom_site_symmetry_multiplicity
 _atom_site_fract_x
 _atom_site_fract_y
 _atom_site_fract_z
 _atom_site_occupancy
  Lu  Lu0  1  0.517461  0.482594  0.499979  1
  Mn  Mn1  1  0.850675  0.149113  0.000024  1
  Sb  Sb2  1  0.184116  0.815903  0.999995  1
  O  O3  1  0.155163  0.130462  0.225240  1
  O  O4  1  0.527445  0.844728  0.225351  1
  O  O5  1  0.869610  0.472572  0.225184  1
  O  O6  1  0.527385  0.130480  0.774707  1
  O  O7  1  0.155280  0.472583  0.774752  1
  O  O8  1  0.869579  0.844872  0.774797  1
