# generated using pymatgen
data_TbMnAl10Co
_symmetry_space_group_name_H-M   'P 1'
_cell_length_a   6.79330225
_cell_length_b   6.76704465
_cell_length_c   8.99551600
_cell_angle_alpha   90.00000000
_cell_angle_beta   90.00000000
_cell_angle_gamma   97.30064822
_symmetry_Int_Tables_number   1
_chemical_formula_structural   TbMnAl10Co
_chemical_formula_sum   'Tb2 Mn2 Al20 Co2'
_cell_volume   410.17660677
_cell_formula_units_Z   2
loop_
 _symmetry_equiv_pos_site_id
 _symmetry_equiv_pos_as_xyz
  1  'x, y, z'
loop_
 _atom_site_type_symbol
 _atom_site_label
 _atom_site_symmetry_multiplicity
 _atom_site_fract_x
 _atom_site_fract_y
 _atom_site_fract_z
 _atom_site_occupancy
  Tb  Tb0  1  0.866662  0.119138  0.750000  1
  Tb  Tb1  1  0.133338  0.880862  0.250000  1
  Mn  Mn2  1  0.500000  0.000000  0.000000  1
  Mn  Mn3  1  0.500000  0.000000  0.500000  1
  Al  Al4  1  0.412399  0.135187  0.750000  1
  Al  Al5  1  0.135878  0.412955  0.250000  1
  Al  Al6  1  0.587601  0.864813  0.250000  1
  Al  Al7  1  0.864122  0.587045  0.750000  1
  Al  Al8  1  0.519170  0.778312  0.750000  1
  Al  Al9  1  0.782071  0.522399  0.250000  1
  Al  Al10  1  0.480830  0.221688  0.250000  1
  Al  Al11  1  0.217929  0.477601  0.750000  1
  Al  Al12  1  0.843754  0.157161  0.402125  1
  Al  Al13  1  0.156246  0.842839  0.597875  1
  Al  Al14  1  0.843754  0.157161  0.097875  1
  Al  Al15  1  0.156246  0.842839  0.902125  1
  Al  Al16  1  0.624052  0.373833  0.954507  1
  Al  Al17  1  0.375948  0.626167  0.045493  1
  Al  Al18  1  0.624052  0.373833  0.545493  1
  Al  Al19  1  0.375948  0.626167  0.454507  1
  Al  Al20  1  0.772432  0.773148  0.999657  1
  Al  Al21  1  0.772432  0.773148  0.500343  1
  Al  Al22  1  0.227568  0.226851  0.000343  1
  Al  Al23  1  0.227568  0.226851  0.499657  1
  Co  Co24  1  0.000000  0.500000  0.000000  1
  Co  Co25  1  0.000000  0.500000  0.500000  1
