# generated using pymatgen
data_Tm2Co5Si14Rh
_symmetry_space_group_name_H-M   'P 1'
_cell_length_a   7.69833082
_cell_length_b   7.68150763
_cell_length_c   7.68150620
_cell_angle_alpha   57.51020367
_cell_angle_beta   57.32203105
_cell_angle_gamma   57.32202989
_symmetry_Int_Tables_number   1
_chemical_formula_structural   Tm2Co5Si14Rh
_chemical_formula_sum   'Tm2 Co5 Si14 Rh1'
_cell_volume   301.86547802
_cell_formula_units_Z   1
loop_
 _symmetry_equiv_pos_site_id
 _symmetry_equiv_pos_as_xyz
  1  'x, y, z'
loop_
 _atom_site_type_symbol
 _atom_site_label
 _atom_site_symmetry_multiplicity
 _atom_site_fract_x
 _atom_site_fract_y
 _atom_site_fract_z
 _atom_site_occupancy
  Tm  Tm0  1  0.000580  0.999113  0.000910  1
  Tm  Tm1  1  0.499420  0.499090  0.500887  1
  Co  Co2  1  0.070379  0.428875  0.751050  1
  Co  Co3  1  0.250000  0.928656  0.571344  1
  Co  Co4  1  0.570170  0.250472  0.928813  1
  Co  Co5  1  0.929830  0.571187  0.249528  1
  Co  Co6  1  0.429621  0.748950  0.071125  1
  Si  Si7  1  0.750000  0.739802  0.760198  1
  Si  Si8  1  0.250000  0.250942  0.249058  1
  Si  Si9  1  0.855993  0.072751  0.671790  1
  Si  Si10  1  0.667021  0.849893  0.071776  1
  Si  Si11  1  0.074248  0.666601  0.849800  1
  Si  Si12  1  0.644007  0.828210  0.427249  1
  Si  Si13  1  0.425752  0.650200  0.833399  1
  Si  Si14  1  0.832979  0.428224  0.650107  1
  Si  Si15  1  0.163936  0.574372  0.351231  1
  Si  Si16  1  0.566694  0.358492  0.158997  1
  Si  Si17  1  0.339727  0.168902  0.574916  1
  Si  Si18  1  0.933306  0.341003  0.141508  1
  Si  Si19  1  0.336064  0.148769  0.925628  1
  Si  Si20  1  0.160273  0.925084  0.331098  1
  Rh  Rh21  1  0.750000  0.070413  0.429587  1
