# generated using pymatgen
data_Dy9ErS10
_symmetry_space_group_name_H-M   'P 1'
_cell_length_a   6.77135827
_cell_length_b   7.76578630
_cell_length_c   8.78536800
_cell_angle_alpha   103.20327336
_cell_angle_beta   97.02000880
_cell_angle_gamma   106.82417914
_symmetry_Int_Tables_number   1
_chemical_formula_structural   Dy9ErS10
_chemical_formula_sum   'Dy9 Er1 S10'
_cell_volume   421.63208899
_cell_formula_units_Z   1
loop_
 _symmetry_equiv_pos_site_id
 _symmetry_equiv_pos_as_xyz
  1  'x, y, z'
loop_
 _atom_site_type_symbol
 _atom_site_label
 _atom_site_symmetry_multiplicity
 _atom_site_fract_x
 _atom_site_fract_y
 _atom_site_fract_z
 _atom_site_occupancy
  Dy  Dy0  1  0.799504  0.600081  0.599773  1
  Dy  Dy1  1  0.599557  0.199632  0.200493  1
  Dy  Dy2  1  0.400443  0.800368  0.799507  1
  Dy  Dy3  1  0.600025  0.700795  0.200770  1
  Dy  Dy4  1  0.200496  0.399919  0.400227  1
  Dy  Dy5  1  0.399975  0.299205  0.799230  1
  Dy  Dy6  1  0.000000  0.000000  0.000000  1
  Dy  Dy7  1  0.200979  0.900593  0.400768  1
  Dy  Dy8  1  0.799021  0.099407  0.599232  1
  Er  Er9  1  0.000000  0.500000  0.000000  1
  S  S10  1  0.701170  0.649063  0.900660  1
  S  S11  1  0.500068  0.250311  0.499955  1
  S  S12  1  0.701508  0.151844  0.900694  1
  S  S13  1  0.298492  0.848156  0.099306  1
  S  S14  1  0.499932  0.749689  0.500045  1
  S  S15  1  0.099261  0.450156  0.701396  1
  S  S16  1  0.298830  0.350937  0.099340  1
  S  S17  1  0.900551  0.050203  0.300013  1
  S  S18  1  0.099449  0.949797  0.699987  1
  S  S19  1  0.900739  0.549844  0.298604  1
