# generated using pymatgen
data_Er20Cd6CoOs
_symmetry_space_group_name_H-M   'P 1'
_cell_length_a   9.49389500
_cell_length_b   9.49389540
_cell_length_c   9.71498800
_cell_angle_alpha   90.00000000
_cell_angle_beta   90.00000000
_cell_angle_gamma   119.99999513
_symmetry_Int_Tables_number   1
_chemical_formula_structural   Er20Cd6CoOs
_chemical_formula_sum   'Er20 Cd6 Co1 Os1'
_cell_volume   758.33620037
_cell_formula_units_Z   1
loop_
 _symmetry_equiv_pos_site_id
 _symmetry_equiv_pos_as_xyz
  1  'x, y, z'
loop_
 _atom_site_type_symbol
 _atom_site_label
 _atom_site_symmetry_multiplicity
 _atom_site_fract_x
 _atom_site_fract_y
 _atom_site_fract_z
 _atom_site_occupancy
  Er  Er0  1  0.000000  0.000000  0.500014  1
  Er  Er1  1  0.000000  0.000000  0.999986  1
  Er  Er2  1  0.540415  0.459585  0.250000  1
  Er  Er3  1  0.540415  0.080829  0.250000  1
  Er  Er4  1  0.919171  0.459585  0.250000  1
  Er  Er5  1  0.457771  0.542229  0.750000  1
  Er  Er6  1  0.457771  0.915542  0.750000  1
  Er  Er7  1  0.084458  0.542229  0.750000  1
  Er  Er8  1  0.209081  0.790919  0.440872  1
  Er  Er9  1  0.209081  0.418164  0.440872  1
  Er  Er10  1  0.581836  0.790919  0.440872  1
  Er  Er11  1  0.788356  0.211644  0.563251  1
  Er  Er12  1  0.788356  0.576711  0.563251  1
  Er  Er13  1  0.423289  0.211644  0.563251  1
  Er  Er14  1  0.788356  0.211644  0.936749  1
  Er  Er15  1  0.788356  0.576711  0.936749  1
  Er  Er16  1  0.423289  0.211644  0.936749  1
  Er  Er17  1  0.209081  0.790919  0.059128  1
  Er  Er18  1  0.209081  0.418164  0.059128  1
  Er  Er19  1  0.581836  0.790919  0.059128  1
  Cd  Cd20  1  0.885088  0.114912  0.250000  1
  Cd  Cd21  1  0.885088  0.770177  0.250000  1
  Cd  Cd22  1  0.229823  0.114912  0.250000  1
  Cd  Cd23  1  0.114895  0.885105  0.750000  1
  Cd  Cd24  1  0.114895  0.229790  0.750000  1
  Cd  Cd25  1  0.770210  0.885105  0.750000  1
  Co  Co26  1  0.666667  0.333333  0.750000  1
  Os  Os27  1  0.333333  0.666667  0.250000  1
