# generated using pymatgen
data_Zr9Ti7(NbSi4)4
_symmetry_space_group_name_H-M   'P 1'
_cell_length_a   6.89336252
_cell_length_b   6.89217664
_cell_length_c   12.66921968
_cell_angle_alpha   90.14663253
_cell_angle_beta   89.86881507
_cell_angle_gamma   90.00206226
_symmetry_Int_Tables_number   1
_chemical_formula_structural   Zr9Ti7(NbSi4)4
_chemical_formula_sum   'Zr9 Ti7 Nb4 Si16'
_cell_volume   601.91452540
_cell_formula_units_Z   1
loop_
 _symmetry_equiv_pos_site_id
 _symmetry_equiv_pos_as_xyz
  1  'x, y, z'
loop_
 _atom_site_type_symbol
 _atom_site_label
 _atom_site_symmetry_multiplicity
 _atom_site_fract_x
 _atom_site_fract_y
 _atom_site_fract_z
 _atom_site_occupancy
  Zr  Zr0  1  0.150574  0.001154  0.872543  1
  Zr  Zr1  1  0.000106  0.655102  0.033183  1
  Zr  Zr2  1  0.999071  0.345283  0.529759  1
  Zr  Zr3  1  0.654415  0.000741  0.968874  1
  Zr  Zr4  1  0.155150  0.500443  0.780993  1
  Zr  Zr5  1  0.844538  0.500328  0.281349  1
  Zr  Zr6  1  0.501317  0.156189  0.220246  1
  Zr  Zr7  1  0.499766  0.844396  0.716939  1
  Zr  Zr8  1  0.344481  0.000117  0.468171  1
  Ti  Ti9  1  0.348771  0.504952  0.377276  1
  Ti  Ti10  1  0.848578  0.994964  0.372701  1
  Ti  Ti11  1  0.006012  0.151629  0.127154  1
  Ti  Ti12  1  0.994323  0.849208  0.626901  1
  Ti  Ti13  1  0.651563  0.493768  0.877182  1
  Ti  Ti14  1  0.505778  0.350020  0.621375  1
  Ti  Ti15  1  0.496651  0.649963  0.124628  1
  Nb  Nb16  1  0.671641  0.672180  0.499600  1
  Nb  Nb17  1  0.826393  0.174145  0.748438  1
  Nb  Nb18  1  0.172115  0.827688  0.251172  1
  Nb  Nb19  1  0.330060  0.327892  0.001326  1
  Si  Si20  1  0.047607  0.706909  0.437371  1
  Si  Si21  1  0.948813  0.299882  0.938485  1
  Si  Si22  1  0.706475  0.048559  0.561766  1
  Si  Si23  1  0.206777  0.451730  0.188130  1
  Si  Si24  1  0.793687  0.547203  0.685958  1
  Si  Si25  1  0.456203  0.209555  0.810702  1
  Si  Si26  1  0.548331  0.793537  0.313133  1
  Si  Si27  1  0.297726  0.950659  0.067192  1
  Si  Si28  1  0.854209  0.789870  0.820936  1
  Si  Si29  1  0.135289  0.206382  0.323518  1
  Si  Si30  1  0.794290  0.865172  0.177392  1
  Si  Si31  1  0.292850  0.635826  0.572582  1
  Si  Si32  1  0.706103  0.363825  0.074309  1
  Si  Si33  1  0.635464  0.293780  0.426295  1
  Si  Si34  1  0.367350  0.698687  0.930071  1
  Si  Si35  1  0.207521  0.138258  0.672352  1
