# generated using pymatgen
data_LiLuHf2(SbPd)4
_symmetry_space_group_name_H-M   'P 1'
_cell_length_a   7.82190859
_cell_length_b   7.82252944
_cell_length_c   6.38693106
_cell_angle_alpha   114.08998482
_cell_angle_beta   114.08806749
_cell_angle_gamma   48.21804604
_symmetry_Int_Tables_number   1
_chemical_formula_structural   LiLuHf2(SbPd)4
_chemical_formula_sum   'Li1 Lu1 Hf2 Sb4 Pd4'
_cell_volume   260.65479515
_cell_formula_units_Z   1
loop_
 _symmetry_equiv_pos_site_id
 _symmetry_equiv_pos_as_xyz
  1  'x, y, z'
loop_
 _atom_site_type_symbol
 _atom_site_label
 _atom_site_symmetry_multiplicity
 _atom_site_fract_x
 _atom_site_fract_y
 _atom_site_fract_z
 _atom_site_occupancy
  Li  Li0  1  0.999916  0.750009  0.124950  1
  Lu  Lu1  1  0.249946  0.000043  0.874933  1
  Hf  Hf2  1  0.750133  0.500015  0.375190  1
  Hf  Hf3  1  0.500064  0.249871  0.624871  1
  Sb  Sb4  1  0.498971  0.248875  0.123952  1
  Sb  Sb5  1  0.244575  0.994597  0.369584  1
  Sb  Sb6  1  0.001110  0.751131  0.626138  1
  Sb  Sb7  1  0.755337  0.505381  0.880382  1
  Pd  Pd8  1  0.862247  0.139458  0.999134  1
  Pd  Pd9  1  0.622538  0.875706  0.262841  1
  Pd  Pd10  1  0.389269  0.612330  0.502526  1
  Pd  Pd11  1  0.125893  0.372587  0.735503  1
