# generated using pymatgen
data_Tb20Cd3Ni2Hg3
_symmetry_space_group_name_H-M   'P 1'
_cell_length_a   9.63361800
_cell_length_b   9.63361894
_cell_length_c   9.78801000
_cell_angle_alpha   90.00000000
_cell_angle_beta   90.00000000
_cell_angle_gamma   119.99999678
_symmetry_Int_Tables_number   1
_chemical_formula_structural   Tb20Cd3Ni2Hg3
_chemical_formula_sum   'Tb20 Cd3 Ni2 Hg3'
_cell_volume   786.69055313
_cell_formula_units_Z   1
loop_
 _symmetry_equiv_pos_site_id
 _symmetry_equiv_pos_as_xyz
  1  'x, y, z'
loop_
 _atom_site_type_symbol
 _atom_site_label
 _atom_site_symmetry_multiplicity
 _atom_site_fract_x
 _atom_site_fract_y
 _atom_site_fract_z
 _atom_site_occupancy
  Tb  Tb0  1  0.000000  0.000000  0.490973  1
  Tb  Tb1  1  0.000000  0.000000  0.009027  1
  Tb  Tb2  1  0.543452  0.456548  0.250000  1
  Tb  Tb3  1  0.543452  0.086904  0.250000  1
  Tb  Tb4  1  0.913096  0.456548  0.250000  1
  Tb  Tb5  1  0.456246  0.543754  0.750000  1
  Tb  Tb6  1  0.456246  0.912491  0.750000  1
  Tb  Tb7  1  0.087509  0.543754  0.750000  1
  Tb  Tb8  1  0.209935  0.790065  0.435617  1
  Tb  Tb9  1  0.209935  0.419870  0.435617  1
  Tb  Tb10  1  0.580130  0.790065  0.435617  1
  Tb  Tb11  1  0.789946  0.210054  0.563496  1
  Tb  Tb12  1  0.789946  0.579892  0.563496  1
  Tb  Tb13  1  0.420108  0.210054  0.563496  1
  Tb  Tb14  1  0.789946  0.210054  0.936504  1
  Tb  Tb15  1  0.789946  0.579892  0.936504  1
  Tb  Tb16  1  0.420108  0.210054  0.936504  1
  Tb  Tb17  1  0.209935  0.790065  0.064383  1
  Tb  Tb18  1  0.209935  0.419870  0.064383  1
  Tb  Tb19  1  0.580130  0.790065  0.064383  1
  Cd  Cd20  1  0.113440  0.886560  0.750000  1
  Cd  Cd21  1  0.113440  0.226880  0.750000  1
  Cd  Cd22  1  0.773120  0.886560  0.750000  1
  Ni  Ni23  1  0.333333  0.666667  0.250000  1
  Ni  Ni24  1  0.666667  0.333333  0.750000  1
  Hg  Hg25  1  0.878625  0.121375  0.250000  1
  Hg  Hg26  1  0.878625  0.757251  0.250000  1
  Hg  Hg27  1  0.242749  0.121375  0.250000  1
