# generated using pymatgen
data_La4Dy12Cd4OsPt3
_symmetry_space_group_name_H-M   'P 1'
_cell_length_a   9.80620485
_cell_length_b   9.81065969
_cell_length_c   9.81065849
_cell_angle_alpha   59.69930453
_cell_angle_beta   59.68560876
_cell_angle_gamma   59.68560737
_symmetry_Int_Tables_number   1
_chemical_formula_structural   La4Dy12Cd4OsPt3
_chemical_formula_sum   'La4 Dy12 Cd4 Os1 Pt3'
_cell_volume   662.69684170
_cell_formula_units_Z   1
loop_
 _symmetry_equiv_pos_site_id
 _symmetry_equiv_pos_as_xyz
  1  'x, y, z'
loop_
 _atom_site_type_symbol
 _atom_site_label
 _atom_site_symmetry_multiplicity
 _atom_site_fract_x
 _atom_site_fract_y
 _atom_site_fract_z
 _atom_site_occupancy
  La  La0  1  0.816503  0.184599  0.816458  1
  La  La1  1  0.188505  0.809594  0.183645  1
  La  La2  1  0.816503  0.816458  0.184599  1
  La  La3  1  0.188505  0.183645  0.809594  1
  Dy  Dy4  1  0.603352  0.600772  0.600772  1
  Dy  Dy5  1  0.595920  0.600740  0.205640  1
  Dy  Dy6  1  0.595920  0.205640  0.600740  1
  Dy  Dy7  1  0.202239  0.596468  0.596468  1
  Dy  Dy8  1  0.069866  0.434058  0.434058  1
  Dy  Dy9  1  0.436279  0.062721  0.062721  1
  Dy  Dy10  1  0.437790  0.065707  0.438101  1
  Dy  Dy11  1  0.059733  0.434332  0.060036  1
  Dy  Dy12  1  0.437790  0.438101  0.065707  1
  Dy  Dy13  1  0.059733  0.060036  0.434332  1
  Dy  Dy14  1  0.195821  0.802340  0.802340  1
  Dy  Dy15  1  0.793960  0.199852  0.199852  1
  Cd  Cd16  1  0.834228  0.826697  0.826697  1
  Cd  Cd17  1  0.826859  0.835248  0.509872  1
  Cd  Cd18  1  0.826859  0.509872  0.835248  1
  Cd  Cd19  1  0.512143  0.826868  0.826868  1
  Os  Os20  1  0.397099  0.390246  0.390246  1
  Pt  Pt21  1  0.390463  0.398965  0.824196  1
  Pt  Pt22  1  0.390463  0.824196  0.398965  1
  Pt  Pt23  1  0.823468  0.392849  0.392849  1
