# generated using pymatgen
data_Sc8CuIr4Os3
_symmetry_space_group_name_H-M   'P 1'
_cell_length_a   6.41128200
_cell_length_b   4.59031900
_cell_length_c   9.17468300
_cell_angle_alpha   89.99945062
_cell_angle_beta   89.99942676
_cell_angle_gamma   89.99985361
_symmetry_Int_Tables_number   1
_chemical_formula_structural   Sc8CuIr4Os3
_chemical_formula_sum   'Sc8 Cu1 Ir4 Os3'
_cell_volume   270.00935712
_cell_formula_units_Z   1
loop_
 _symmetry_equiv_pos_site_id
 _symmetry_equiv_pos_as_xyz
  1  'x, y, z'
loop_
 _atom_site_type_symbol
 _atom_site_label
 _atom_site_symmetry_multiplicity
 _atom_site_fract_x
 _atom_site_fract_y
 _atom_site_fract_z
 _atom_site_occupancy
  Sc  Sc0  1  0.997097  0.750001  0.127450  1
  Sc  Sc1  1  0.503034  0.750003  0.127484  1
  Sc  Sc2  1  0.999838  0.250001  0.375005  1
  Sc  Sc3  1  0.500308  0.250001  0.375023  1
  Sc  Sc4  1  0.502899  0.749999  0.622485  1
  Sc  Sc5  1  0.996959  0.750001  0.622541  1
  Sc  Sc6  1  0.504711  0.250000  0.874987  1
  Sc  Sc7  1  0.995132  0.249999  0.875015  1
  Cu  Cu8  1  0.250005  0.749996  0.874945  1
  Ir  Ir9  1  0.250056  0.249997  0.123215  1
  Ir  Ir10  1  0.750068  0.749999  0.375005  1
  Ir  Ir11  1  0.249946  0.249998  0.626796  1
  Ir  Ir12  1  0.749919  0.749998  0.875008  1
  Os  Os13  1  0.750033  0.249999  0.123567  1
  Os  Os14  1  0.250030  0.749997  0.374997  1
  Os  Os15  1  0.749966  0.250003  0.626478  1
