# generated using pymatgen
data_Nd4CdOs
_symmetry_space_group_name_H-M   'P 1'
_cell_length_a   9.94994009
_cell_length_b   9.97568865
_cell_length_c   9.94371611
_cell_angle_alpha   60.00050697
_cell_angle_beta   59.90402233
_cell_angle_gamma   60.03061856
_symmetry_Int_Tables_number   1
_chemical_formula_structural   Nd4CdOs
_chemical_formula_sum   'Nd16 Cd4 Os4'
_cell_volume   697.56225940
_cell_formula_units_Z   4
loop_
 _symmetry_equiv_pos_site_id
 _symmetry_equiv_pos_as_xyz
  1  'x, y, z'
loop_
 _atom_site_type_symbol
 _atom_site_label
 _atom_site_symmetry_multiplicity
 _atom_site_fract_x
 _atom_site_fract_y
 _atom_site_fract_z
 _atom_site_occupancy
  Nd  Nd0  1  0.345367  0.344981  0.345500  1
  Nd  Nd1  1  0.345383  0.344915  0.962731  1
  Nd  Nd2  1  0.344730  0.963321  0.344862  1
  Nd  Nd3  1  0.962691  0.344815  0.345442  1
  Nd  Nd4  1  0.808246  0.191274  0.191242  1
  Nd  Nd5  1  0.192494  0.809657  0.809468  1
  Nd  Nd6  1  0.191048  0.808588  0.190933  1
  Nd  Nd7  1  0.809577  0.192351  0.809547  1
  Nd  Nd8  1  0.191286  0.191250  0.808263  1
  Nd  Nd9  1  0.809542  0.809645  0.192409  1
  Nd  Nd10  1  0.938976  0.561099  0.560598  1
  Nd  Nd11  1  0.559949  0.941385  0.941578  1
  Nd  Nd12  1  0.560878  0.938777  0.560715  1
  Nd  Nd13  1  0.941577  0.560377  0.941583  1
  Nd  Nd14  1  0.560825  0.561118  0.938908  1
  Nd  Nd15  1  0.941615  0.941420  0.559684  1
  Cd  Cd16  1  0.578953  0.579480  0.578890  1
  Cd  Cd17  1  0.578686  0.579153  0.262130  1
  Cd  Cd18  1  0.578926  0.262165  0.578897  1
  Cd  Cd19  1  0.262141  0.579188  0.578689  1
  Os  Os20  1  0.137708  0.137306  0.137963  1
  Os  Os21  1  0.137090  0.136429  0.585444  1
  Os  Os22  1  0.136967  0.584925  0.137227  1
  Os  Os23  1  0.585339  0.136380  0.137294  1
