# generated using pymatgen
data_Tb16In6FeNi
_symmetry_space_group_name_H-M   'P 1'
_cell_length_a   10.45555401
_cell_length_b   10.45485566
_cell_length_c   7.03452900
_cell_angle_alpha   89.99902904
_cell_angle_beta   89.99986933
_cell_angle_gamma   120.00112993
_symmetry_Int_Tables_number   1
_chemical_formula_structural   Tb16In6FeNi
_chemical_formula_sum   'Tb16 In6 Fe1 Ni1'
_cell_volume   665.92574035
_cell_formula_units_Z   1
loop_
 _symmetry_equiv_pos_site_id
 _symmetry_equiv_pos_as_xyz
  1  'x, y, z'
loop_
 _atom_site_type_symbol
 _atom_site_label
 _atom_site_symmetry_multiplicity
 _atom_site_fract_x
 _atom_site_fract_y
 _atom_site_fract_z
 _atom_site_occupancy
  Tb  Tb0  1  0.822876  0.645847  0.493139  1
  Tb  Tb1  1  0.354156  0.177054  0.493034  1
  Tb  Tb2  1  0.822936  0.177090  0.492961  1
  Tb  Tb3  1  0.177451  0.354876  0.995988  1
  Tb  Tb4  1  0.645142  0.822565  0.996000  1
  Tb  Tb5  1  0.177447  0.822551  0.995859  1
  Tb  Tb6  1  0.666691  0.333372  0.175903  1
  Tb  Tb7  1  0.333322  0.666642  0.676758  1
  Tb  Tb8  1  0.533447  0.066839  0.788354  1
  Tb  Tb9  1  0.933195  0.466580  0.788337  1
  Tb  Tb10  1  0.533385  0.466546  0.788426  1
  Tb  Tb11  1  0.462495  0.925042  0.287038  1
  Tb  Tb12  1  0.074928  0.537493  0.287011  1
  Tb  Tb13  1  0.462520  0.537470  0.287085  1
  Tb  Tb14  1  0.000005  0.000064  0.773598  1
  Tb  Tb15  1  0.000008  0.999959  0.276491  1
  In  In16  1  0.836739  0.673464  0.033942  1
  In  In17  1  0.326567  0.163275  0.033982  1
  In  In18  1  0.836738  0.163369  0.033990  1
  In  In19  1  0.162639  0.325226  0.535098  1
  In  In20  1  0.674682  0.837364  0.535277  1
  In  In21  1  0.162590  0.837306  0.535208  1
  Fe  Fe22  1  0.333331  0.666656  0.060441  1
  Ni  Ni23  1  0.666707  0.333347  0.562155  1
