# generated using pymatgen
data_K3LiSn4
_symmetry_space_group_name_H-M   'P 1'
_cell_length_a   8.75773050
_cell_length_b   8.75773038
_cell_length_c   10.25383000
_cell_angle_alpha   90.00000000
_cell_angle_beta   90.00000000
_cell_angle_gamma   133.97358139
_symmetry_Int_Tables_number   1
_chemical_formula_structural   K3LiSn4
_chemical_formula_sum   'K6 Li2 Sn8'
_cell_volume   565.97420687
_cell_formula_units_Z   2
loop_
 _symmetry_equiv_pos_site_id
 _symmetry_equiv_pos_as_xyz
  1  'x, y, z'
loop_
 _atom_site_type_symbol
 _atom_site_label
 _atom_site_symmetry_multiplicity
 _atom_site_fract_x
 _atom_site_fract_y
 _atom_site_fract_z
 _atom_site_occupancy
  K  K0  1  0.232114  0.767886  0.250000  1
  K  K1  1  0.767886  0.232114  0.750000  1
  K  K2  1  0.612117  0.387883  0.049961  1
  K  K3  1  0.387883  0.612117  0.950039  1
  K  K4  1  0.387883  0.612117  0.549961  1
  K  K5  1  0.612117  0.387883  0.450039  1
  Li  Li6  1  0.000000  0.000000  0.000000  1
  Li  Li7  1  0.000000  0.000000  0.500000  1
  Sn  Sn8  1  0.189635  0.270343  0.250000  1
  Sn  Sn9  1  0.810365  0.729657  0.750000  1
  Sn  Sn10  1  0.729657  0.810365  0.250000  1
  Sn  Sn11  1  0.270343  0.189635  0.750000  1
  Sn  Sn12  1  0.830251  0.169749  0.105822  1
  Sn  Sn13  1  0.169749  0.830251  0.894178  1
  Sn  Sn14  1  0.169749  0.830251  0.605822  1
  Sn  Sn15  1  0.830251  0.169749  0.394178  1
