# generated using pymatgen
data_TbCrWO6
_symmetry_space_group_name_H-M   'P 1'
_cell_length_a   7.44448800
_cell_length_b   5.25554200
_cell_length_c   11.05293200
_cell_angle_alpha   90.00000000
_cell_angle_beta   90.00000000
_cell_angle_gamma   90.00000000
_symmetry_Int_Tables_number   1
_chemical_formula_structural   TbCrWO6
_chemical_formula_sum   'Tb4 Cr4 W4 O24'
_cell_volume   432.44396782
_cell_formula_units_Z   4
loop_
 _symmetry_equiv_pos_site_id
 _symmetry_equiv_pos_as_xyz
  1  'x, y, z'
loop_
 _atom_site_type_symbol
 _atom_site_label
 _atom_site_symmetry_multiplicity
 _atom_site_fract_x
 _atom_site_fract_y
 _atom_site_fract_z
 _atom_site_occupancy
  Tb  Tb0  1  0.253690  0.203059  0.045257  1
  Tb  Tb1  1  0.753689  0.703059  0.454743  1
  Tb  Tb2  1  0.253690  0.796940  0.545256  1
  Tb  Tb3  1  0.753689  0.296940  0.954743  1
  Cr  Cr4  1  0.505740  0.699069  0.133931  1
  Cr  Cr5  1  0.005740  0.199069  0.366069  1
  Cr  Cr6  1  0.505740  0.300930  0.633931  1
  Cr  Cr7  1  0.005740  0.800930  0.866069  1
  W  W8  1  0.998725  0.692099  0.143972  1
  W  W9  1  0.498726  0.192098  0.356028  1
  W  W10  1  0.998725  0.307900  0.643972  1
  W  W11  1  0.498726  0.807901  0.856028  1
  O  O12  1  0.543762  0.993128  0.020657  1
  O  O13  1  0.959817  0.983109  0.026781  1
  O  O14  1  0.755748  0.574721  0.117901  1
  O  O15  1  0.245833  0.812476  0.143657  1
  O  O16  1  0.068789  0.373168  0.208846  1
  O  O17  1  0.437997  0.362208  0.212955  1
  O  O18  1  0.937996  0.862208  0.287045  1
  O  O19  1  0.568789  0.873168  0.291154  1
  O  O20  1  0.745832  0.312478  0.356343  1
  O  O21  1  0.255748  0.074721  0.382099  1
  O  O22  1  0.459818  0.483110  0.473219  1
  O  O23  1  0.043762  0.493127  0.479343  1
  O  O24  1  0.543762  0.006871  0.520657  1
  O  O25  1  0.959817  0.016890  0.526781  1
  O  O26  1  0.755748  0.425278  0.617901  1
  O  O27  1  0.245833  0.187523  0.643657  1
  O  O28  1  0.068789  0.626831  0.708846  1
  O  O29  1  0.437997  0.637791  0.712955  1
  O  O30  1  0.937996  0.137791  0.787045  1
  O  O31  1  0.568789  0.126831  0.791154  1
  O  O32  1  0.745832  0.687521  0.856343  1
  O  O33  1  0.255748  0.925278  0.882099  1
  O  O34  1  0.459818  0.516889  0.973219  1
  O  O35  1  0.043762  0.506872  0.979343  1
