# generated using pymatgen
data_KPu(OF2)2
_symmetry_space_group_name_H-M   'P 1'
_cell_length_a   8.33900389
_cell_length_b   8.33900382
_cell_length_c   6.82696217
_cell_angle_alpha   89.34229910
_cell_angle_beta   89.34230278
_cell_angle_gamma   139.49589714
_symmetry_Int_Tables_number   1
_chemical_formula_structural   KPu(OF2)2
_chemical_formula_sum   'K2 Pu2 O4 F8'
_cell_volume   308.17524575
_cell_formula_units_Z   2
loop_
 _symmetry_equiv_pos_site_id
 _symmetry_equiv_pos_as_xyz
  1  'x, y, z'
loop_
 _atom_site_type_symbol
 _atom_site_label
 _atom_site_symmetry_multiplicity
 _atom_site_fract_x
 _atom_site_fract_y
 _atom_site_fract_z
 _atom_site_occupancy
  K  K0  1  0.615190  0.384810  0.750000  1
  K  K1  1  0.384810  0.615190  0.250000  1
  Pu  Pu2  1  0.875127  0.124873  0.750000  1
  Pu  Pu3  1  0.124873  0.875127  0.250000  1
  O  O4  1  0.815141  0.063325  0.495539  1
  O  O5  1  0.936675  0.184859  0.004461  1
  O  O6  1  0.184859  0.936675  0.504461  1
  O  O7  1  0.063325  0.815141  0.995539  1
  F  F8  1  0.226403  0.291631  0.691391  1
  F  F9  1  0.708369  0.773597  0.808609  1
  F  F10  1  0.773597  0.708369  0.308609  1
  F  F11  1  0.291631  0.226403  0.191391  1
  F  F12  1  0.019385  0.465228  0.706368  1
  F  F13  1  0.534772  0.980615  0.793632  1
  F  F14  1  0.980615  0.534772  0.293632  1
  F  F15  1  0.465228  0.019385  0.206368  1
