# generated using pymatgen
data_Ho2Pa(InIr)3
_symmetry_space_group_name_H-M   'P 1'
_cell_length_a   7.54867861
_cell_length_b   7.54867971
_cell_length_c   3.83969100
_cell_angle_alpha   90.00000000
_cell_angle_beta   90.00000000
_cell_angle_gamma   117.62692414
_symmetry_Int_Tables_number   1
_chemical_formula_structural   Ho2Pa(InIr)3
_chemical_formula_sum   'Ho2 Pa1 In3 Ir3'
_cell_volume   193.84962140
_cell_formula_units_Z   1
loop_
 _symmetry_equiv_pos_site_id
 _symmetry_equiv_pos_as_xyz
  1  'x, y, z'
loop_
 _atom_site_type_symbol
 _atom_site_label
 _atom_site_symmetry_multiplicity
 _atom_site_fract_x
 _atom_site_fract_y
 _atom_site_fract_z
 _atom_site_occupancy
  Ho  Ho0  1  0.403981  0.000594  0.000000  1
  Ho  Ho1  1  0.000594  0.403981  0.000000  1
  Pa  Pa2  1  0.583223  0.583223  0.000000  1
  In  In3  1  0.010245  0.741027  0.500000  1
  In  In4  1  0.245151  0.245151  0.500000  1
  In  In5  1  0.741027  0.010245  0.500000  1
  Ir  Ir6  1  0.990782  0.990782  0.000000  1
  Ir  Ir7  1  0.663850  0.361146  0.500000  1
  Ir  Ir8  1  0.361146  0.663850  0.500000  1
