# generated using pymatgen
data_Er3ZnIn3HgPt
_symmetry_space_group_name_H-M   'P 1'
_cell_length_a   7.85007500
_cell_length_b   7.85007406
_cell_length_c   3.85811800
_cell_angle_alpha   90.00000000
_cell_angle_beta   90.00000000
_cell_angle_gamma   120.00000817
_symmetry_Int_Tables_number   1
_chemical_formula_structural   Er3ZnIn3HgPt
_chemical_formula_sum   'Er3 Zn1 In3 Hg1 Pt1'
_cell_volume   205.89872745
_cell_formula_units_Z   1
loop_
 _symmetry_equiv_pos_site_id
 _symmetry_equiv_pos_as_xyz
  1  'x, y, z'
loop_
 _atom_site_type_symbol
 _atom_site_label
 _atom_site_symmetry_multiplicity
 _atom_site_fract_x
 _atom_site_fract_y
 _atom_site_fract_z
 _atom_site_occupancy
  Er  Er0  1  0.613534  0.025479  0.500000  1
  Er  Er1  1  0.411944  0.386466  0.500000  1
  Er  Er2  1  0.974521  0.588056  0.500000  1
  Zn  Zn3  1  0.000000  0.000000  0.500000  1
  In  In4  1  0.741122  0.741106  0.000000  1
  In  In5  1  0.999984  0.258878  0.000000  1
  In  In6  1  0.258894  0.000016  0.000000  1
  Hg  Hg7  1  0.333333  0.666667  0.000000  1
  Pt  Pt8  1  0.666667  0.333333  0.000000  1
