# generated using pymatgen
data_Dy5Er3Ga3Ir
_symmetry_space_group_name_H-M   'P 1'
_cell_length_a   10.01725600
_cell_length_b   10.01725622
_cell_length_c   7.05292900
_cell_angle_alpha   90.00000000
_cell_angle_beta   90.00000000
_cell_angle_gamma   119.99999268
_symmetry_Int_Tables_number   1
_chemical_formula_structural   Dy5Er3Ga3Ir
_chemical_formula_sum   'Dy10 Er6 Ga6 Ir2'
_cell_volume   612.91144415
_cell_formula_units_Z   2
loop_
 _symmetry_equiv_pos_site_id
 _symmetry_equiv_pos_as_xyz
  1  'x, y, z'
loop_
 _atom_site_type_symbol
 _atom_site_label
 _atom_site_symmetry_multiplicity
 _atom_site_fract_x
 _atom_site_fract_y
 _atom_site_fract_z
 _atom_site_occupancy
  Dy  Dy0  1  0.333333  0.666667  0.836661  1
  Dy  Dy1  1  0.666667  0.333333  0.336661  1
  Dy  Dy2  1  0.465146  0.534854  0.205483  1
  Dy  Dy3  1  0.069709  0.534854  0.205483  1
  Dy  Dy4  1  0.465146  0.930291  0.205483  1
  Dy  Dy5  1  0.534854  0.465146  0.705483  1
  Dy  Dy6  1  0.930291  0.465146  0.705483  1
  Dy  Dy7  1  0.534854  0.069709  0.705483  1
  Dy  Dy8  1  0.000000  0.000000  0.233525  1
  Dy  Dy9  1  0.000000  0.000000  0.733525  1
  Er  Er10  1  0.171257  0.828743  0.511148  1
  Er  Er11  1  0.657484  0.828743  0.511148  1
  Er  Er12  1  0.171257  0.342516  0.511148  1
  Er  Er13  1  0.828743  0.171257  0.011148  1
  Er  Er14  1  0.342516  0.171257  0.011148  1
  Er  Er15  1  0.828743  0.657484  0.011148  1
  Ga  Ga16  1  0.163204  0.836796  0.957226  1
  Ga  Ga17  1  0.673593  0.836796  0.957226  1
  Ga  Ga18  1  0.163204  0.326407  0.957226  1
  Ga  Ga19  1  0.836796  0.163204  0.457226  1
  Ga  Ga20  1  0.326407  0.163204  0.457226  1
  Ga  Ga21  1  0.836796  0.673593  0.457226  1
  Ir  Ir22  1  0.333333  0.666667  0.445661  1
  Ir  Ir23  1  0.666667  0.333333  0.945661  1
