# generated using pymatgen
data_Er6Zn16Ir7Se
_symmetry_space_group_name_H-M   'P 1'
_cell_length_a   8.97092666
_cell_length_b   8.97092691
_cell_length_c   8.97092700
_cell_angle_alpha   59.99999597
_cell_angle_beta   59.99999507
_cell_angle_gamma   59.99999974
_symmetry_Int_Tables_number   1
_chemical_formula_structural   Er6Zn16Ir7Se
_chemical_formula_sum   'Er6 Zn16 Ir7 Se1'
_cell_volume   510.50137839
_cell_formula_units_Z   1
loop_
 _symmetry_equiv_pos_site_id
 _symmetry_equiv_pos_as_xyz
  1  'x, y, z'
loop_
 _atom_site_type_symbol
 _atom_site_label
 _atom_site_symmetry_multiplicity
 _atom_site_fract_x
 _atom_site_fract_y
 _atom_site_fract_z
 _atom_site_occupancy
  Er  Er0  1  0.724463  0.275537  0.275537  1
  Er  Er1  1  0.724463  0.275537  0.724463  1
  Er  Er2  1  0.724463  0.724463  0.275537  1
  Er  Er3  1  0.275537  0.724463  0.724463  1
  Er  Er4  1  0.275537  0.724463  0.275537  1
  Er  Er5  1  0.275537  0.275537  0.724463  1
  Zn  Zn6  1  0.629777  0.123408  0.123408  1
  Zn  Zn7  1  0.123408  0.629777  0.123408  1
  Zn  Zn8  1  0.123408  0.123408  0.629777  1
  Zn  Zn9  1  0.123408  0.123408  0.123408  1
  Zn  Zn10  1  0.370223  0.876592  0.876592  1
  Zn  Zn11  1  0.876592  0.370223  0.876592  1
  Zn  Zn12  1  0.876592  0.876592  0.370223  1
  Zn  Zn13  1  0.876592  0.876592  0.876592  1
  Zn  Zn14  1  0.003971  0.332009  0.332009  1
  Zn  Zn15  1  0.332009  0.003971  0.332009  1
  Zn  Zn16  1  0.332009  0.332009  0.003971  1
  Zn  Zn17  1  0.332009  0.332009  0.332009  1
  Zn  Zn18  1  0.996029  0.667991  0.667991  1
  Zn  Zn19  1  0.667991  0.996029  0.667991  1
  Zn  Zn20  1  0.667991  0.667991  0.996029  1
  Zn  Zn21  1  0.667991  0.667991  0.667991  1
  Ir  Ir22  1  0.500000  0.000000  0.000000  1
  Ir  Ir23  1  0.500000  0.000000  0.500000  1
  Ir  Ir24  1  0.500000  0.500000  0.000000  1
  Ir  Ir25  1  0.000000  0.500000  0.500000  1
  Ir  Ir26  1  0.000000  0.500000  0.000000  1
  Ir  Ir27  1  0.000000  0.000000  0.500000  1
  Ir  Ir28  1  0.000000  0.000000  0.000000  1
  Se  Se29  1  0.500000  0.500000  0.500000  1
