# generated using pymatgen
data_TbSmMn2Co10P7
_symmetry_space_group_name_H-M   'P 1'
_cell_length_a   9.09789501
_cell_length_b   9.08553291
_cell_length_c   3.62358500
_cell_angle_alpha   90.00000000
_cell_angle_beta   90.00000000
_cell_angle_gamma   120.13072603
_symmetry_Int_Tables_number   1
_chemical_formula_structural   TbSmMn2Co10P7
_chemical_formula_sum   'Tb1 Sm1 Mn2 Co10 P7'
_cell_volume   259.05191935
_cell_formula_units_Z   1
loop_
 _symmetry_equiv_pos_site_id
 _symmetry_equiv_pos_as_xyz
  1  'x, y, z'
loop_
 _atom_site_type_symbol
 _atom_site_label
 _atom_site_symmetry_multiplicity
 _atom_site_fract_x
 _atom_site_fract_y
 _atom_site_fract_z
 _atom_site_occupancy
  Tb  Tb0  1  0.666265  0.333630  0.000000  1
  Sm  Sm1  1  0.334785  0.668647  0.500000  1
  Mn  Mn2  1  0.900187  0.119436  0.000000  1
  Mn  Mn3  1  0.881303  0.779882  0.000000  1
  Co  Co4  1  0.428245  0.060371  0.500000  1
  Co  Co5  1  0.939626  0.369950  0.500000  1
  Co  Co6  1  0.629581  0.569260  0.500000  1
  Co  Co7  1  0.156076  0.273021  0.500000  1
  Co  Co8  1  0.727144  0.883927  0.500000  1
  Co  Co9  1  0.118631  0.845217  0.500000  1
  Co  Co10  1  0.384771  0.432361  0.000000  1
  Co  Co11  1  0.565011  0.951581  0.000000  1
  Co  Co12  1  0.050260  0.615802  0.000000  1
  Co  Co13  1  0.217988  0.093995  0.000000  1
  P  P14  1  0.113726  0.404504  0.000000  1
  P  P15  1  0.599453  0.710016  0.000000  1
  P  P16  1  0.289107  0.889961  0.000000  1
  P  P17  1  0.001231  0.999647  0.500000  1
  P  P18  1  0.408391  0.298082  0.500000  1
  P  P19  1  0.698757  0.110699  0.500000  1
  P  P20  1  0.889460  0.590011  0.500000  1
