# generated using pymatgen
data_Dy5Ho10Er5Bi12
_symmetry_space_group_name_H-M   'P 1'
_cell_length_a   8.23957193
_cell_length_b   9.50416016
_cell_length_c   12.00749900
_cell_angle_alpha   89.99227722
_cell_angle_beta   90.02795376
_cell_angle_gamma   90.00711826
_symmetry_Int_Tables_number   1
_chemical_formula_structural   Dy5Ho10Er5Bi12
_chemical_formula_sum   'Dy5 Ho10 Er5 Bi12'
_cell_volume   940.30965565
_cell_formula_units_Z   1
loop_
 _symmetry_equiv_pos_site_id
 _symmetry_equiv_pos_as_xyz
  1  'x, y, z'
loop_
 _atom_site_type_symbol
 _atom_site_label
 _atom_site_symmetry_multiplicity
 _atom_site_fract_x
 _atom_site_fract_y
 _atom_site_fract_z
 _atom_site_occupancy
  Dy  Dy0  1  0.192270  0.563944  0.440959  1
  Dy  Dy1  1  0.312714  0.250005  0.218405  1
  Dy  Dy2  1  0.812869  0.250008  0.281585  1
  Dy  Dy3  1  0.687276  0.750062  0.781680  1
  Dy  Dy4  1  0.187492  0.750172  0.718564  1
  Ho  Ho5  1  0.353203  0.750360  0.216367  1
  Ho  Ho6  1  0.852509  0.750281  0.283329  1
  Ho  Ho7  1  0.647215  0.250092  0.783455  1
  Ho  Ho8  1  0.147314  0.250227  0.716543  1
  Ho  Ho9  1  0.692526  0.564911  0.059037  1
  Ho  Ho10  1  0.192525  0.935022  0.440834  1
  Ho  Ho11  1  0.307383  0.064821  0.940983  1
  Ho  Ho12  1  0.807622  0.435052  0.559035  1
  Ho  Ho13  1  0.307518  0.435148  0.940909  1
  Ho  Ho14  1  0.807141  0.064776  0.559211  1
  Er  Er15  1  0.692532  0.935063  0.059055  1
  Er  Er16  1  0.475909  0.250066  0.488448  1
  Er  Er17  1  0.975837  0.250118  0.011493  1
  Er  Er18  1  0.524390  0.750096  0.511603  1
  Er  Er19  1  0.024160  0.750044  0.988401  1
  Bi  Bi20  1  0.406012  0.750019  0.957853  1
  Bi  Bi21  1  0.905757  0.750298  0.542240  1
  Bi  Bi22  1  0.594096  0.249894  0.042110  1
  Bi  Bi23  1  0.093684  0.248716  0.458106  1
  Bi  Bi24  1  0.565487  0.995245  0.325809  1
  Bi  Bi25  1  0.065329  0.505014  0.173947  1
  Bi  Bi26  1  0.434553  0.495182  0.674243  1
  Bi  Bi27  1  0.934521  0.005061  0.825917  1
  Bi  Bi28  1  0.434581  0.005032  0.674178  1
  Bi  Bi29  1  0.934414  0.495146  0.825916  1
  Bi  Bi30  1  0.565761  0.504987  0.325765  1
  Bi  Bi31  1  0.065402  0.995139  0.174018  1
