# generated using pymatgen
data_Th4CuIr13
_symmetry_space_group_name_H-M   'P 1'
_cell_length_a   5.37243498
_cell_length_b   5.37243555
_cell_length_c   13.48712131
_cell_angle_alpha   78.51161649
_cell_angle_beta   78.51162780
_cell_angle_gamma   60.00000586
_symmetry_Int_Tables_number   1
_chemical_formula_structural   Th4CuIr13
_chemical_formula_sum   'Th4 Cu1 Ir13'
_cell_volume   328.08944021
_cell_formula_units_Z   1
loop_
 _symmetry_equiv_pos_site_id
 _symmetry_equiv_pos_as_xyz
  1  'x, y, z'
loop_
 _atom_site_type_symbol
 _atom_site_label
 _atom_site_symmetry_multiplicity
 _atom_site_fract_x
 _atom_site_fract_y
 _atom_site_fract_z
 _atom_site_occupancy
  Th  Th0  1  0.949569  0.949569  0.151295  1
  Th  Th1  1  0.049535  0.049535  0.851393  1
  Th  Th2  1  0.853152  0.853152  0.440542  1
  Th  Th3  1  0.146509  0.146509  0.560475  1
  Cu  Cu4  1  0.721415  0.721415  0.835753  1
  Ir  Ir5  1  0.498677  0.498677  0.503970  1
  Ir  Ir6  1  0.278408  0.278408  0.164778  1
  Ir  Ir7  1  0.611911  0.611911  0.164268  1
  Ir  Ir8  1  0.389507  0.389507  0.831478  1
  Ir  Ir9  1  0.001196  0.500195  0.998415  1
  Ir  Ir10  1  0.500195  0.001196  0.998415  1
  Ir  Ir11  1  0.500195  0.500195  0.998415  1
  Ir  Ir12  1  0.389716  0.389716  0.329821  1
  Ir  Ir13  1  0.890746  0.389716  0.329821  1
  Ir  Ir14  1  0.389716  0.890746  0.329821  1
  Ir  Ir15  1  0.613442  0.613442  0.670447  1
  Ir  Ir16  1  0.102670  0.613442  0.670447  1
  Ir  Ir17  1  0.613442  0.102670  0.670447  1
