# generated using pymatgen
data_PrP12OsRu3
_symmetry_space_group_name_H-M   'P 1'
_cell_length_a   7.02338131
_cell_length_b   7.02434062
_cell_length_c   7.02338201
_cell_angle_alpha   109.47398110
_cell_angle_beta   109.46845650
_cell_angle_gamma   109.47398358
_symmetry_Int_Tables_number   1
_chemical_formula_structural   PrP12OsRu3
_chemical_formula_sum   'Pr1 P12 Os1 Ru3'
_cell_volume   266.72358476
_cell_formula_units_Z   1
loop_
 _symmetry_equiv_pos_site_id
 _symmetry_equiv_pos_as_xyz
  1  'x, y, z'
loop_
 _atom_site_type_symbol
 _atom_site_label
 _atom_site_symmetry_multiplicity
 _atom_site_fract_x
 _atom_site_fract_y
 _atom_site_fract_z
 _atom_site_occupancy
  Pr  Pr0  1  0.000000  0.000000  0.000000  1
  P  P1  1  0.785476  0.143119  0.641605  1
  P  P2  1  0.214524  0.856881  0.358395  1
  P  P3  1  0.498513  0.856188  0.642253  1
  P  P4  1  0.856129  0.357642  0.214524  1
  P  P5  1  0.641605  0.498486  0.856129  1
  P  P6  1  0.357747  0.213935  0.856260  1
  P  P7  1  0.143871  0.642358  0.785476  1
  P  P8  1  0.642253  0.786065  0.143740  1
  P  P9  1  0.856260  0.642324  0.498513  1
  P  P10  1  0.143740  0.357676  0.501487  1
  P  P11  1  0.501487  0.143812  0.357747  1
  P  P12  1  0.358395  0.501514  0.143871  1
  Os  Os13  1  0.000000  0.500000  0.000000  1
  Ru  Ru14  1  0.500000  0.000000  0.000000  1
  Ru  Ru15  1  0.000000  0.000000  0.500000  1
  Ru  Ru16  1  0.500000  0.500000  0.500000  1
