# generated using pymatgen
data_Tb3YAl18(IrPd)3
_symmetry_space_group_name_H-M   'P 1'
_cell_length_a   7.60448247
_cell_length_b   7.60428217
_cell_length_c   9.46033300
_cell_angle_alpha   89.97925376
_cell_angle_beta   89.97956491
_cell_angle_gamma   119.65841550
_symmetry_Int_Tables_number   1
_chemical_formula_structural   Tb3YAl18(IrPd)3
_chemical_formula_sum   'Tb3 Y1 Al18 Ir3 Pd3'
_cell_volume   475.38931836
_cell_formula_units_Z   1
loop_
 _symmetry_equiv_pos_site_id
 _symmetry_equiv_pos_as_xyz
  1  'x, y, z'
loop_
 _atom_site_type_symbol
 _atom_site_label
 _atom_site_symmetry_multiplicity
 _atom_site_fract_x
 _atom_site_fract_y
 _atom_site_fract_z
 _atom_site_occupancy
  Tb  Tb0  1  0.005002  0.330134  0.749697  1
  Tb  Tb1  1  0.669879  0.995001  0.250304  1
  Tb  Tb2  1  0.329928  0.004252  0.749638  1
  Y  Y3  1  0.995746  0.670092  0.250369  1
  Al  Al4  1  0.127185  0.127983  0.250451  1
  Al  Al5  1  0.871994  0.872786  0.749548  1
  Al  Al6  1  0.000556  0.331526  0.076306  1
  Al  Al7  1  0.999321  0.668725  0.922957  1
  Al  Al8  1  0.996725  0.665015  0.574933  1
  Al  Al9  1  0.334955  0.003249  0.425051  1
  Al  Al10  1  0.996500  0.330816  0.425123  1
  Al  Al11  1  0.669212  0.003498  0.574878  1
  Al  Al12  1  0.668500  0.999443  0.923689  1
  Al  Al13  1  0.331243  0.000652  0.077053  1
  Al  Al14  1  0.333127  0.329955  0.552445  1
  Al  Al15  1  0.670067  0.666867  0.447542  1
  Al  Al16  1  0.668948  0.668864  0.055918  1
  Al  Al17  1  0.331134  0.331071  0.944091  1
  Al  Al18  1  0.340254  0.546666  0.250653  1
  Al  Al19  1  0.659126  0.452310  0.747563  1
  Al  Al20  1  0.547723  0.340881  0.252438  1
  Al  Al21  1  0.453353  0.659750  0.749346  1
  Ir  Ir22  1  0.671877  0.328147  0.499978  1
  Ir  Ir23  1  0.000005  0.999971  0.000020  1
  Ir  Ir24  1  0.000353  0.999633  0.499980  1
  Pd  Pd25  1  0.672041  0.328027  0.000028  1
  Pd  Pd26  1  0.327618  0.672347  0.000024  1
  Pd  Pd27  1  0.327628  0.672339  0.499975  1
