# generated using pymatgen
data_Hf18Ti2CoMo6Se
_symmetry_space_group_name_H-M   'P 1'
_cell_length_a   8.46032300
_cell_length_b   8.74250344
_cell_length_c   8.74251900
_cell_angle_alpha   119.99851321
_cell_angle_beta   90.00000000
_cell_angle_gamma   90.00000000
_symmetry_Int_Tables_number   1
_chemical_formula_structural   Hf18Ti2CoMo6Se
_chemical_formula_sum   'Hf18 Ti2 Co1 Mo6 Se1'
_cell_volume   560.01089800
_cell_formula_units_Z   1
loop_
 _symmetry_equiv_pos_site_id
 _symmetry_equiv_pos_as_xyz
  1  'x, y, z'
loop_
 _atom_site_type_symbol
 _atom_site_label
 _atom_site_symmetry_multiplicity
 _atom_site_fract_x
 _atom_site_fract_y
 _atom_site_fract_z
 _atom_site_occupancy
  Hf  Hf0  1  0.548051  0.806562  0.613127  1
  Hf  Hf1  1  0.548082  0.806562  0.193431  1
  Hf  Hf2  1  0.548063  0.386853  0.193425  1
  Hf  Hf3  1  0.441272  0.202807  0.405624  1
  Hf  Hf4  1  0.441252  0.202820  0.797177  1
  Hf  Hf5  1  0.441269  0.594379  0.797193  1
  Hf  Hf6  1  0.058728  0.202807  0.405624  1
  Hf  Hf7  1  0.058748  0.202820  0.797177  1
  Hf  Hf8  1  0.058731  0.594379  0.797193  1
  Hf  Hf9  1  0.951949  0.806562  0.613127  1
  Hf  Hf10  1  0.951918  0.806562  0.193431  1
  Hf  Hf11  1  0.951937  0.386853  0.193425  1
  Hf  Hf12  1  0.750000  0.453609  0.907225  1
  Hf  Hf13  1  0.750000  0.453615  0.546414  1
  Hf  Hf14  1  0.750000  0.092818  0.546427  1
  Hf  Hf15  1  0.250000  0.540955  0.081897  1
  Hf  Hf16  1  0.250000  0.540929  0.459059  1
  Hf  Hf17  1  0.250000  0.918101  0.459036  1
  Ti  Ti18  1  0.493895  0.999988  0.999993  1
  Ti  Ti19  1  0.006105  0.999988  0.999993  1
  Co  Co20  1  0.250000  0.333355  0.666646  1
  Mo  Mo21  1  0.750000  0.112015  0.224029  1
  Mo  Mo22  1  0.750000  0.112019  0.888000  1
  Mo  Mo23  1  0.750000  0.775990  0.888004  1
  Mo  Mo24  1  0.250000  0.884938  0.769860  1
  Mo  Mo25  1  0.250000  0.884938  0.115060  1
  Mo  Mo26  1  0.250000  0.230115  0.115050  1
  Se  Se27  1  0.750000  0.666662  0.333354  1
