# generated using pymatgen
data_Ho6LuCo16P12W
_symmetry_space_group_name_H-M   'P 1'
_cell_length_a   3.72332600
_cell_length_b   10.63671400
_cell_length_c   12.33454900
_cell_angle_alpha   90.00000000
_cell_angle_beta   90.00000000
_cell_angle_gamma   90.00000000
_symmetry_Int_Tables_number   1
_chemical_formula_structural   Ho6LuCo16P12W
_chemical_formula_sum   'Ho6 Lu1 Co16 P12 W1'
_cell_volume   488.49690863
_cell_formula_units_Z   1
loop_
 _symmetry_equiv_pos_site_id
 _symmetry_equiv_pos_as_xyz
  1  'x, y, z'
loop_
 _atom_site_type_symbol
 _atom_site_label
 _atom_site_symmetry_multiplicity
 _atom_site_fract_x
 _atom_site_fract_y
 _atom_site_fract_z
 _atom_site_occupancy
  Ho  Ho0  1  0.000000  0.500000  0.530445  1
  Ho  Ho1  1  0.500000  0.000000  0.475242  1
  Ho  Ho2  1  0.500000  0.822947  0.205561  1
  Ho  Ho3  1  0.500000  0.177053  0.205561  1
  Ho  Ho4  1  0.000000  0.680914  0.795065  1
  Ho  Ho5  1  0.000000  0.319086  0.795065  1
  Lu  Lu6  1  0.500000  0.500000  0.156166  1
  Co  Co7  1  0.000000  0.500000  0.982661  1
  Co  Co8  1  0.500000  0.000000  0.009600  1
  Co  Co9  1  0.500000  0.293179  0.435404  1
  Co  Co10  1  0.500000  0.706821  0.435404  1
  Co  Co11  1  0.000000  0.202914  0.569770  1
  Co  Co12  1  0.000000  0.797086  0.569770  1
  Co  Co13  1  0.500000  0.879261  0.705709  1
  Co  Co14  1  0.500000  0.120739  0.705709  1
  Co  Co15  1  0.000000  0.623718  0.301182  1
  Co  Co16  1  0.000000  0.376282  0.301182  1
  Co  Co17  1  0.500000  0.326279  0.988420  1
  Co  Co18  1  0.500000  0.673721  0.988420  1
  Co  Co19  1  0.000000  0.162435  0.003927  1
  Co  Co20  1  0.000000  0.837565  0.003927  1
  Co  Co21  1  0.500000  0.500000  0.702593  1
  Co  Co22  1  0.000000  0.000000  0.297247  1
  P  P23  1  0.500000  0.309413  0.617498  1
  P  P24  1  0.500000  0.690587  0.617498  1
  P  P25  1  0.000000  0.188085  0.385903  1
  P  P26  1  0.000000  0.811915  0.385903  1
  P  P27  1  0.500000  0.500000  0.882350  1
  P  P28  1  0.000000  0.000000  0.117299  1
  P  P29  1  0.500000  0.845751  0.887876  1
  P  P30  1  0.500000  0.154249  0.887876  1
  P  P31  1  0.000000  0.665608  0.101352  1
  P  P32  1  0.000000  0.334392  0.101352  1
  P  P33  1  0.500000  0.500000  0.364360  1
  P  P34  1  0.000000  0.000000  0.647168  1
  W  W35  1  0.000000  0.000000  0.839537  1
