# generated using pymatgen
data_Pr5Ho3(Si3Pt)4
_symmetry_space_group_name_H-M   'P 1'
_cell_length_a   8.21978700
_cell_length_b   8.21978781
_cell_length_c   8.48091200
_cell_angle_alpha   90.00000000
_cell_angle_beta   90.00000000
_cell_angle_gamma   120.00000077
_symmetry_Int_Tables_number   1
_chemical_formula_structural   Pr5Ho3(Si3Pt)4
_chemical_formula_sum   'Pr5 Ho3 Si12 Pt4'
_cell_volume   496.24295634
_cell_formula_units_Z   1
loop_
 _symmetry_equiv_pos_site_id
 _symmetry_equiv_pos_as_xyz
  1  'x, y, z'
loop_
 _atom_site_type_symbol
 _atom_site_label
 _atom_site_symmetry_multiplicity
 _atom_site_fract_x
 _atom_site_fract_y
 _atom_site_fract_z
 _atom_site_occupancy
  Pr  Pr0  1  0.000000  0.000000  0.250000  1
  Pr  Pr1  1  0.000000  0.000000  0.750000  1
  Pr  Pr2  1  0.500652  0.499348  0.250000  1
  Pr  Pr3  1  0.500652  0.001305  0.250000  1
  Pr  Pr4  1  0.998695  0.499348  0.250000  1
  Ho  Ho5  1  0.498492  0.501508  0.750000  1
  Ho  Ho6  1  0.498492  0.996986  0.750000  1
  Ho  Ho7  1  0.003014  0.501508  0.750000  1
  Si  Si8  1  0.166379  0.833621  0.503655  1
  Si  Si9  1  0.166379  0.332758  0.503655  1
  Si  Si10  1  0.667242  0.833621  0.503655  1
  Si  Si11  1  0.833569  0.166431  0.505051  1
  Si  Si12  1  0.833569  0.667140  0.505051  1
  Si  Si13  1  0.332860  0.166431  0.505051  1
  Si  Si14  1  0.833569  0.166431  0.994949  1
  Si  Si15  1  0.833569  0.667140  0.994949  1
  Si  Si16  1  0.332860  0.166431  0.994949  1
  Si  Si17  1  0.166379  0.833621  0.996345  1
  Si  Si18  1  0.166379  0.332758  0.996345  1
  Si  Si19  1  0.667242  0.833621  0.996345  1
  Pt  Pt20  1  0.333333  0.666667  0.513690  1
  Pt  Pt21  1  0.666667  0.333333  0.522458  1
  Pt  Pt22  1  0.666667  0.333333  0.977542  1
  Pt  Pt23  1  0.333333  0.666667  0.986310  1
