# generated using pymatgen
data_Cs2BaNpO6
_symmetry_space_group_name_H-M   'P 1'
_cell_length_a   6.63183300
_cell_length_b   6.63173203
_cell_length_c   6.63183300
_cell_angle_alpha   120.00049866
_cell_angle_beta   90.00000864
_cell_angle_gamma   120.00049367
_symmetry_Int_Tables_number   1
_chemical_formula_structural   Cs2BaNpO6
_chemical_formula_sum   'Cs2 Ba1 Np1 O6'
_cell_volume   206.23985161
_cell_formula_units_Z   1
loop_
 _symmetry_equiv_pos_site_id
 _symmetry_equiv_pos_as_xyz
  1  'x, y, z'
loop_
 _atom_site_type_symbol
 _atom_site_label
 _atom_site_symmetry_multiplicity
 _atom_site_fract_x
 _atom_site_fract_y
 _atom_site_fract_z
 _atom_site_occupancy
  Cs  Cs0  1  0.749998  0.499999  0.250000  1
  Cs  Cs1  1  0.249999  0.499999  0.750001  1
  Ba  Ba2  1  0.499999  0.000000  0.499999  1
  Np  Np3  1  0.000000  0.000000  0.000000  1
  O  O4  1  0.214177  0.000000  0.214177  1
  O  O5  1  0.785821  0.000000  0.214178  1
  O  O6  1  0.214180  0.428361  0.214180  1
  O  O7  1  0.214178  0.000000  0.785821  1
  O  O8  1  0.785819  0.571640  0.785819  1
  O  O9  1  0.785823  0.000000  0.785823  1
