# generated using pymatgen
data_DyY9Ag3Ru
_symmetry_space_group_name_H-M   'P 1'
_cell_length_a   9.54377400
_cell_length_b   9.54377423
_cell_length_c   9.70444700
_cell_angle_alpha   90.00000000
_cell_angle_beta   90.00000000
_cell_angle_gamma   119.99999920
_symmetry_Int_Tables_number   1
_chemical_formula_structural   DyY9Ag3Ru
_chemical_formula_sum   'Dy2 Y18 Ag6 Ru2'
_cell_volume   765.49389485
_cell_formula_units_Z   2
loop_
 _symmetry_equiv_pos_site_id
 _symmetry_equiv_pos_as_xyz
  1  'x, y, z'
loop_
 _atom_site_type_symbol
 _atom_site_label
 _atom_site_symmetry_multiplicity
 _atom_site_fract_x
 _atom_site_fract_y
 _atom_site_fract_z
 _atom_site_occupancy
  Dy  Dy0  1  0.000000  0.000000  0.500000  1
  Dy  Dy1  1  0.000000  0.000000  0.000000  1
  Y  Y2  1  0.208714  0.791286  0.440906  1
  Y  Y3  1  0.208714  0.417427  0.440906  1
  Y  Y4  1  0.582573  0.791286  0.440906  1
  Y  Y5  1  0.791286  0.208714  0.559094  1
  Y  Y6  1  0.791286  0.582573  0.559094  1
  Y  Y7  1  0.417427  0.208714  0.559094  1
  Y  Y8  1  0.791286  0.208714  0.940906  1
  Y  Y9  1  0.791286  0.582573  0.940906  1
  Y  Y10  1  0.417427  0.208714  0.940906  1
  Y  Y11  1  0.208714  0.791286  0.059094  1
  Y  Y12  1  0.208714  0.417427  0.059094  1
  Y  Y13  1  0.582573  0.791286  0.059094  1
  Y  Y14  1  0.541086  0.458914  0.250000  1
  Y  Y15  1  0.541086  0.082171  0.250000  1
  Y  Y16  1  0.917829  0.458914  0.250000  1
  Y  Y17  1  0.458914  0.541086  0.750000  1
  Y  Y18  1  0.458914  0.917829  0.750000  1
  Y  Y19  1  0.082171  0.541086  0.750000  1
  Ag  Ag20  1  0.883980  0.116020  0.250000  1
  Ag  Ag21  1  0.883980  0.767963  0.250000  1
  Ag  Ag22  1  0.232037  0.116020  0.250000  1
  Ag  Ag23  1  0.116020  0.883980  0.750000  1
  Ag  Ag24  1  0.116020  0.232037  0.750000  1
  Ag  Ag25  1  0.767963  0.883980  0.750000  1
  Ru  Ru26  1  0.333333  0.666667  0.250000  1
  Ru  Ru27  1  0.666667  0.333333  0.750000  1
