# generated using pymatgen
data_TaSn(PO4)3
_symmetry_space_group_name_H-M   'P 1'
_cell_length_a   8.75474792
_cell_length_b   8.75549698
_cell_length_c   9.06288589
_cell_angle_alpha   89.91350076
_cell_angle_beta   61.25784190
_cell_angle_gamma   120.06860105
_symmetry_Int_Tables_number   1
_chemical_formula_structural   TaSn(PO4)3
_chemical_formula_sum   'Ta2 Sn2 P6 O24'
_cell_volume   499.49981475
_cell_formula_units_Z   2
loop_
 _symmetry_equiv_pos_site_id
 _symmetry_equiv_pos_as_xyz
  1  'x, y, z'
loop_
 _atom_site_type_symbol
 _atom_site_label
 _atom_site_symmetry_multiplicity
 _atom_site_fract_x
 _atom_site_fract_y
 _atom_site_fract_z
 _atom_site_occupancy
  Ta  Ta0  1  0.784118  0.140932  0.075315  1
  Ta  Ta1  1  0.785467  0.641755  0.573232  1
  Sn  Sn2  1  0.207906  0.355251  0.436013  1
  Sn  Sn3  1  0.210354  0.856662  0.933237  1
  P  P4  1  0.283638  0.034742  0.250766  1
  P  P5  1  0.714151  0.747774  0.249228  1
  P  P6  1  0.283646  0.248200  0.752121  1
  P  P7  1  0.714115  0.966264  0.749717  1
  P  P8  1  0.003962  0.537980  0.749188  1
  P  P9  1  0.998555  0.463933  0.252179  1
  O  O10  1  0.488871  0.063399  0.220487  1
  O  O11  1  0.867949  0.365023  0.914032  1
  O  O12  1  0.894606  0.139094  0.585622  1
  O  O13  1  0.846139  0.550835  0.722705  1
  O  O14  1  0.133431  0.627418  0.085282  1
  O  O15  1  0.091835  0.856414  0.413469  1
  O  O16  1  0.148181  0.438791  0.272361  1
  O  O17  1  0.138792  0.718533  0.772444  1
  O  O18  1  0.154123  0.520830  0.581885  1
  O  O19  1  0.285337  0.206191  0.280108  1
  O  O20  1  0.285638  0.013897  0.083047  1
  O  O21  1  0.708410  0.921545  0.226638  1
  O  O22  1  0.516052  0.575757  0.276129  1
  O  O23  1  0.271623  0.261968  0.590807  1
  O  O24  1  0.853209  0.491799  0.418367  1
  O  O25  1  0.086073  0.219206  0.921509  1
  O  O26  1  0.904855  0.779368  0.077531  1
  O  O27  1  0.506422  0.915084  0.778188  1
  O  O28  1  0.731598  0.730078  0.410340  1
  O  O29  1  0.483394  0.434297  0.720070  1
  O  O30  1  0.310610  0.092222  0.771256  1
  O  O31  1  0.723466  0.998528  0.914699  1
  O  O32  1  0.734495  0.800236  0.715437  1
  O  O33  1  0.848980  0.285995  0.226593  1
