# generated using pymatgen
data_V(CrSe2)4
_symmetry_space_group_name_H-M   'P 1'
_cell_length_a   6.79737570
_cell_length_b   6.79737625
_cell_length_c   8.46261422
_cell_angle_alpha   56.07807764
_cell_angle_beta   56.07807504
_cell_angle_gamma   65.08175132
_symmetry_Int_Tables_number   1
_chemical_formula_structural   V(CrSe2)4
_chemical_formula_sum   'V1 Cr4 Se8'
_cell_volume   265.78491016
_cell_formula_units_Z   1
loop_
 _symmetry_equiv_pos_site_id
 _symmetry_equiv_pos_as_xyz
  1  'x, y, z'
loop_
 _atom_site_type_symbol
 _atom_site_label
 _atom_site_symmetry_multiplicity
 _atom_site_fract_x
 _atom_site_fract_y
 _atom_site_fract_z
 _atom_site_occupancy
  V  V0  1  0.000000  0.000000  0.000000  1
  Cr  Cr1  1  0.267012  0.267012  0.989290  1
  Cr  Cr2  1  0.732988  0.732988  0.010710  1
  Cr  Cr3  1  0.269361  0.730639  0.500000  1
  Cr  Cr4  1  0.730639  0.269361  0.500000  1
  Se  Se5  1  0.976761  0.976761  0.322475  1
  Se  Se6  1  0.023239  0.023239  0.677525  1
  Se  Se7  1  0.455007  0.455007  0.331643  1
  Se  Se8  1  0.544993  0.544993  0.668357  1
  Se  Se9  1  0.031555  0.544718  0.170465  1
  Se  Se10  1  0.544718  0.031555  0.170465  1
  Se  Se11  1  0.968445  0.455282  0.829535  1
  Se  Se12  1  0.455282  0.968445  0.829535  1
