# generated using pymatgen
data_YbGd4ErSi4
_symmetry_space_group_name_H-M   'P 1'
_cell_length_a   7.51569500
_cell_length_b   7.51569500
_cell_length_c   4.28382200
_cell_angle_alpha   90.00000000
_cell_angle_beta   90.00000000
_cell_angle_gamma   90.00000000
_symmetry_Int_Tables_number   1
_chemical_formula_structural   YbGd4ErSi4
_chemical_formula_sum   'Yb1 Gd4 Er1 Si4'
_cell_volume   241.97456154
_cell_formula_units_Z   1
loop_
 _symmetry_equiv_pos_site_id
 _symmetry_equiv_pos_as_xyz
  1  'x, y, z'
loop_
 _atom_site_type_symbol
 _atom_site_label
 _atom_site_symmetry_multiplicity
 _atom_site_fract_x
 _atom_site_fract_y
 _atom_site_fract_z
 _atom_site_occupancy
  Yb  Yb0  1  0.500000  0.500000  0.000000  1
  Gd  Gd1  1  0.674474  0.178966  0.500000  1
  Gd  Gd2  1  0.325526  0.821034  0.500000  1
  Gd  Gd3  1  0.178966  0.325526  0.500000  1
  Gd  Gd4  1  0.821034  0.674474  0.500000  1
  Er  Er5  1  0.000000  0.000000  0.000000  1
  Si  Si6  1  0.108244  0.619756  0.000000  1
  Si  Si7  1  0.891756  0.380244  0.000000  1
  Si  Si8  1  0.619756  0.891756  0.000000  1
  Si  Si9  1  0.380244  0.108244  0.000000  1
