# generated using pymatgen
data_Ca5Pu5O18
_symmetry_space_group_name_H-M   'P 1'
_cell_length_a   6.72211156
_cell_length_b   7.35424356
_cell_length_c   8.27445300
_cell_angle_alpha   98.99509249
_cell_angle_beta   98.77765449
_cell_angle_gamma   107.70962988
_symmetry_Int_Tables_number   1
_chemical_formula_structural   Ca5Pu5O18
_chemical_formula_sum   'Ca5 Pu5 O18'
_cell_volume   376.06905475
_cell_formula_units_Z   1
loop_
 _symmetry_equiv_pos_site_id
 _symmetry_equiv_pos_as_xyz
  1  'x, y, z'
loop_
 _atom_site_type_symbol
 _atom_site_label
 _atom_site_symmetry_multiplicity
 _atom_site_fract_x
 _atom_site_fract_y
 _atom_site_fract_z
 _atom_site_occupancy
  Ca  Ca0  1  0.798120  0.103217  0.575654  1
  Ca  Ca1  1  0.594227  0.695709  0.195403  1
  Ca  Ca2  1  0.405773  0.304291  0.804597  1
  Ca  Ca3  1  0.201880  0.896783  0.424346  1
  Ca  Ca4  1  0.000000  0.500000  0.000000  1
  Pu  Pu5  1  0.000000  0.000000  0.000000  1
  Pu  Pu6  1  0.785625  0.577779  0.587639  1
  Pu  Pu7  1  0.625976  0.202340  0.191098  1
  Pu  Pu8  1  0.374024  0.797660  0.808902  1
  Pu  Pu9  1  0.214375  0.422221  0.412361  1
  O  O10  1  0.822376  0.796526  0.467701  1
  O  O11  1  0.002352  0.249508  0.164528  1
  O  O12  1  0.672881  0.416409  0.062624  1
  O  O13  1  0.461940  0.001703  0.679128  1
  O  O14  1  0.864664  0.344929  0.421728  1
  O  O15  1  0.507701  0.406553  0.342829  1
  O  O16  1  0.252356  0.623190  0.278029  1
  O  O17  1  0.989374  0.835910  0.163369  1
  O  O18  1  0.660870  0.929885  0.006607  1
  O  O19  1  0.339130  0.070115  0.993393  1
  O  O20  1  0.010626  0.164090  0.836631  1
  O  O21  1  0.747644  0.376810  0.721971  1
  O  O22  1  0.492299  0.593447  0.657171  1
  O  O23  1  0.135336  0.655071  0.578272  1
  O  O24  1  0.538060  0.998297  0.320872  1
  O  O25  1  0.327119  0.583591  0.937376  1
  O  O26  1  0.997648  0.750492  0.835472  1
  O  O27  1  0.177624  0.203474  0.532299  1
