# generated using pymatgen
data_Dy2Ho2MnV3B16
_symmetry_space_group_name_H-M   'P 1'
_cell_length_a   3.44229400
_cell_length_b   5.96478188
_cell_length_c   11.54255220
_cell_angle_alpha   90.10370511
_cell_angle_beta   90.00000000
_cell_angle_gamma   90.00000000
_symmetry_Int_Tables_number   1
_chemical_formula_structural   Dy2Ho2MnV3B16
_chemical_formula_sum   'Dy2 Ho2 Mn1 V3 B16'
_cell_volume   236.99744421
_cell_formula_units_Z   1
loop_
 _symmetry_equiv_pos_site_id
 _symmetry_equiv_pos_as_xyz
  1  'x, y, z'
loop_
 _atom_site_type_symbol
 _atom_site_label
 _atom_site_symmetry_multiplicity
 _atom_site_fract_x
 _atom_site_fract_y
 _atom_site_fract_z
 _atom_site_occupancy
  Dy  Dy0  1  0.500000  0.624951  0.149245  1
  Dy  Dy1  1  0.500000  0.375786  0.849526  1
  Ho  Ho2  1  0.500000  0.124312  0.347983  1
  Ho  Ho3  1  0.500000  0.876184  0.653085  1
  Mn  Mn4  1  0.500000  0.875679  0.919131  1
  V  V5  1  0.500000  0.627029  0.417493  1
  V  V6  1  0.500000  0.372996  0.584916  1
  V  V7  1  0.500000  0.124722  0.079589  1
  B  B8  1  0.000000  0.975949  0.190829  1
  B  B9  1  0.000000  0.020618  0.809727  1
  B  B10  1  0.000000  0.475129  0.307082  1
  B  B11  1  0.000000  0.526194  0.693858  1
  B  B12  1  0.000000  0.785655  0.313466  1
  B  B13  1  0.000000  0.213641  0.687311  1
  B  B14  1  0.000000  0.283643  0.184196  1
  B  B15  1  0.000000  0.720793  0.818235  1
  B  B16  1  0.000000  0.864896  0.467406  1
  B  B17  1  0.000000  0.135036  0.533127  1
  B  B18  1  0.000000  0.364163  0.030921  1
  B  B19  1  0.000000  0.639102  0.966575  1
  B  B20  1  0.000000  0.884344  0.044313  1
  B  B21  1  0.000000  0.109494  0.951205  1
  B  B22  1  0.000000  0.384462  0.452717  1
  B  B23  1  0.000000  0.615221  0.548064  1
