# generated using pymatgen
data_Sr12In8NiPd7
_symmetry_space_group_name_H-M   'P 1'
_cell_length_a   6.28862742
_cell_length_b   8.73472726
_cell_length_c   14.71558663
_cell_angle_alpha   89.97658587
_cell_angle_beta   90.32799646
_cell_angle_gamma   89.87634372
_symmetry_Int_Tables_number   1
_chemical_formula_structural   Sr12In8NiPd7
_chemical_formula_sum   'Sr12 In8 Ni1 Pd7'
_cell_volume   808.30381306
_cell_formula_units_Z   1
loop_
 _symmetry_equiv_pos_site_id
 _symmetry_equiv_pos_as_xyz
  1  'x, y, z'
loop_
 _atom_site_type_symbol
 _atom_site_label
 _atom_site_symmetry_multiplicity
 _atom_site_fract_x
 _atom_site_fract_y
 _atom_site_fract_z
 _atom_site_occupancy
  Sr  Sr0  1  0.155172  0.602202  0.095272  1
  Sr  Sr1  1  0.151916  0.897156  0.906044  1
  Sr  Sr2  1  0.848139  0.106565  0.402887  1
  Sr  Sr3  1  0.848827  0.396994  0.595234  1
  Sr  Sr4  1  0.851943  0.397607  0.906997  1
  Sr  Sr5  1  0.853565  0.100377  0.094460  1
  Sr  Sr6  1  0.148503  0.897917  0.594609  1
  Sr  Sr7  1  0.147375  0.600024  0.403527  1
  Sr  Sr8  1  0.358345  0.249951  0.249065  1
  Sr  Sr9  1  0.363886  0.249630  0.752010  1
  Sr  Sr10  1  0.634992  0.753823  0.250215  1
  Sr  Sr11  1  0.635205  0.750666  0.751388  1
  In  In12  1  0.376247  0.255008  0.004259  1
  In  In13  1  0.634750  0.749082  0.499772  1
  In  In14  1  0.639674  0.741617  0.003707  1
  In  In15  1  0.364002  0.251495  0.499256  1
  In  In16  1  0.837993  0.402040  0.241316  1
  In  In17  1  0.850359  0.101213  0.751917  1
  In  In18  1  0.147645  0.898380  0.250073  1
  In  In19  1  0.146676  0.601044  0.749858  1
  Ni  Ni20  1  0.625437  0.467475  0.090032  1
  Pd  Pd21  1  0.628707  0.029282  0.909913  1
  Pd  Pd22  1  0.372487  0.966649  0.407629  1
  Pd  Pd23  1  0.372374  0.535115  0.592911  1
  Pd  Pd24  1  0.374694  0.534492  0.907716  1
  Pd  Pd25  1  0.375849  0.964739  0.092922  1
  Pd  Pd26  1  0.627230  0.034236  0.592791  1
  Pd  Pd27  1  0.628007  0.465220  0.404221  1
