# generated using pymatgen
data_Li6La7PrAu20
_symmetry_space_group_name_H-M   'P 1'
_cell_length_a   8.70346415
_cell_length_b   8.70346639
_cell_length_c   10.21524600
_cell_angle_alpha   90.01056587
_cell_angle_beta   90.01056588
_cell_angle_gamma   108.68392731
_symmetry_Int_Tables_number   1
_chemical_formula_structural   Li6La7PrAu20
_chemical_formula_sum   'Li6 La7 Pr1 Au20'
_cell_volume   733.02844668
_cell_formula_units_Z   1
loop_
 _symmetry_equiv_pos_site_id
 _symmetry_equiv_pos_as_xyz
  1  'x, y, z'
loop_
 _atom_site_type_symbol
 _atom_site_label
 _atom_site_symmetry_multiplicity
 _atom_site_fract_x
 _atom_site_fract_y
 _atom_site_fract_z
 _atom_site_occupancy
  Li  Li0  1  0.510026  0.011484  0.249250  1
  Li  Li1  1  0.988493  0.489956  0.750742  1
  Li  Li2  1  0.000351  0.999651  0.999999  1
  Li  Li3  1  0.009825  0.509973  0.249950  1
  Li  Li4  1  0.490056  0.990208  0.750049  1
  Li  Li5  1  0.500504  0.499502  0.499998  1
  La  La6  1  0.198632  0.801352  0.500007  1
  La  La7  1  0.797296  0.798437  0.301195  1
  La  La8  1  0.298300  0.298038  0.198282  1
  La  La9  1  0.801289  0.198745  0.500009  1
  La  La10  1  0.301333  0.698679  0.000010  1
  La  La11  1  0.701965  0.701705  0.801705  1
  La  La12  1  0.201550  0.202710  0.698809  1
  Pr  Pr13  1  0.698688  0.301256  0.999994  1
  Au  Au14  1  0.156850  0.437380  0.475620  1
  Au  Au15  1  0.902937  0.903467  0.596840  1
  Au  Au16  1  0.562624  0.843121  0.524387  1
  Au  Au17  1  0.884567  0.166475  0.205475  1
  Au  Au18  1  0.386023  0.666525  0.294107  1
  Au  Au19  1  0.666904  0.384593  0.292949  1
  Au  Au20  1  0.402863  0.402240  0.904327  1
  Au  Au21  1  0.937193  0.654049  0.023818  1
  Au  Au22  1  0.333477  0.613984  0.705868  1
  Au  Au23  1  0.345953  0.062814  0.976178  1
  Au  Au24  1  0.597719  0.597143  0.095678  1
  Au  Au25  1  0.656038  0.937530  0.023794  1
  Au  Au26  1  0.096533  0.097065  0.403165  1
  Au  Au27  1  0.615413  0.333105  0.707073  1
  Au  Au28  1  0.115580  0.834656  0.794712  1
  Au  Au29  1  0.062467  0.343950  0.976209  1
  Au  Au30  1  0.842396  0.562734  0.523571  1
  Au  Au31  1  0.165367  0.884418  0.205304  1
  Au  Au32  1  0.437253  0.157622  0.476419  1
  Au  Au33  1  0.833538  0.115430  0.794507  1
