# generated using pymatgen
data_Tb3YMnRuC8
_symmetry_space_group_name_H-M   'P 1'
_cell_length_a   6.65478800
_cell_length_b   6.65858422
_cell_length_c   6.66059119
_cell_angle_alpha   134.10059515
_cell_angle_beta   109.88834438
_cell_angle_gamma   87.94648499
_symmetry_Int_Tables_number   1
_chemical_formula_structural   Tb3YMnRuC8
_chemical_formula_sum   'Tb3 Y1 Mn1 Ru1 C8'
_cell_volume   190.27970935
_cell_formula_units_Z   1
loop_
 _symmetry_equiv_pos_site_id
 _symmetry_equiv_pos_as_xyz
  1  'x, y, z'
loop_
 _atom_site_type_symbol
 _atom_site_label
 _atom_site_symmetry_multiplicity
 _atom_site_fract_x
 _atom_site_fract_y
 _atom_site_fract_z
 _atom_site_occupancy
  Tb  Tb0  1  0.504478  0.355185  0.154583  1
  Tb  Tb1  1  0.495762  0.650160  0.850936  1
  Tb  Tb2  1  0.200280  0.849757  0.345253  1
  Y  Y3  1  0.798668  0.144594  0.648764  1
  Mn  Mn4  1  0.000082  0.750161  0.749997  1
  Ru  Ru5  1  0.000162  0.250226  0.250085  1
  C  C6  1  0.251018  0.053884  0.148954  1
  C  C7  1  0.749412  0.898358  0.803174  1
  C  C8  1  0.905295  0.601861  0.351402  1
  C  C9  1  0.094382  0.445645  0.696513  1
  C  C10  1  0.467685  0.127172  0.339476  1
  C  C11  1  0.532736  0.872158  0.659797  1
  C  C12  1  0.788264  0.628217  0.161047  1
  C  C13  1  0.211778  0.372624  0.840016  1
