# generated using pymatgen
data_Nd2Al4Si2Ir
_symmetry_space_group_name_H-M   'P 1'
_cell_length_a   4.22800095
_cell_length_b   4.22800007
_cell_length_c   10.28535300
_cell_angle_alpha   101.92456520
_cell_angle_beta   101.92454881
_cell_angle_gamma   89.93100760
_symmetry_Int_Tables_number   1
_chemical_formula_structural   Nd2Al4Si2Ir
_chemical_formula_sum   'Nd2 Al4 Si2 Ir1'
_cell_volume   175.84584543
_cell_formula_units_Z   1
loop_
 _symmetry_equiv_pos_site_id
 _symmetry_equiv_pos_as_xyz
  1  'x, y, z'
loop_
 _atom_site_type_symbol
 _atom_site_label
 _atom_site_symmetry_multiplicity
 _atom_site_fract_x
 _atom_site_fract_y
 _atom_site_fract_z
 _atom_site_occupancy
  Nd  Nd0  1  0.185638  0.185638  0.371215  1
  Nd  Nd1  1  0.814363  0.814363  0.628785  1
  Al  Al2  1  0.568975  0.068625  0.137421  1
  Al  Al3  1  0.068625  0.568975  0.137421  1
  Al  Al4  1  0.931375  0.431025  0.862579  1
  Al  Al5  1  0.431025  0.931375  0.862579  1
  Si  Si6  1  0.658411  0.658411  0.317392  1
  Si  Si7  1  0.341592  0.341592  0.682610  1
  Ir  Ir8  1  0.000000  0.000000  0.000000  1
