# generated using pymatgen
data_Hf6Fe15Si7Os
_symmetry_space_group_name_H-M   'P 1'
_cell_length_a   8.10997327
_cell_length_b   8.10970483
_cell_length_c   8.10970985
_cell_angle_alpha   59.77233495
_cell_angle_beta   59.77481805
_cell_angle_gamma   59.77838119
_symmetry_Int_Tables_number   1
_chemical_formula_structural   Hf6Fe15Si7Os
_chemical_formula_sum   'Hf6 Fe15 Si7 Os1'
_cell_volume   375.22544430
_cell_formula_units_Z   1
loop_
 _symmetry_equiv_pos_site_id
 _symmetry_equiv_pos_as_xyz
  1  'x, y, z'
loop_
 _atom_site_type_symbol
 _atom_site_label
 _atom_site_symmetry_multiplicity
 _atom_site_fract_x
 _atom_site_fract_y
 _atom_site_fract_z
 _atom_site_occupancy
  Hf  Hf0  1  0.299348  0.702473  0.702461  1
  Hf  Hf1  1  0.702454  0.702384  0.299429  1
  Hf  Hf2  1  0.293902  0.293936  0.705145  1
  Hf  Hf3  1  0.705139  0.293958  0.293982  1
  Hf  Hf4  1  0.702433  0.299438  0.702354  1
  Hf  Hf5  1  0.293865  0.705178  0.293926  1
  Fe  Fe6  1  0.026184  0.325151  0.325176  1
  Fe  Fe7  1  0.122611  0.122655  0.635645  1
  Fe  Fe8  1  0.325189  0.026229  0.325153  1
  Fe  Fe9  1  0.324292  0.324174  0.324161  1
  Fe  Fe10  1  0.673716  0.673602  0.973952  1
  Fe  Fe11  1  0.877213  0.877291  0.365554  1
  Fe  Fe12  1  0.675718  0.675540  0.675483  1
  Fe  Fe13  1  0.673712  0.973942  0.673584  1
  Fe  Fe14  1  0.325208  0.325151  0.026230  1
  Fe  Fe15  1  0.877244  0.365470  0.877301  1
  Fe  Fe16  1  0.635710  0.122635  0.122623  1
  Fe  Fe17  1  0.122617  0.635646  0.122652  1
  Fe  Fe18  1  0.122324  0.122382  0.122382  1
  Fe  Fe19  1  0.973974  0.673607  0.673588  1
  Fe  Fe20  1  0.365527  0.877283  0.877262  1
  Si  Si21  1  0.000980  0.000980  0.493950  1
  Si  Si22  1  0.001012  0.493955  0.001002  1
  Si  Si23  1  0.005422  0.005142  0.005228  1
  Si  Si24  1  0.499634  0.999852  0.499743  1
  Si  Si25  1  0.999816  0.499760  0.499695  1
  Si  Si26  1  0.493872  0.001005  0.000996  1
  Si  Si27  1  0.499540  0.499710  0.999918  1
  Os  Os28  1  0.881345  0.881473  0.881424  1
