# generated using pymatgen
data_Ho10Tm2InCo4Ir
_symmetry_space_group_name_H-M   'P 1'
_cell_length_a   8.24093951
_cell_length_b   8.24011592
_cell_length_c   8.24093974
_cell_angle_alpha   111.22787110
_cell_angle_beta   110.66936923
_cell_angle_gamma   106.55955331
_symmetry_Int_Tables_number   1
_chemical_formula_structural   Ho10Tm2InCo4Ir
_chemical_formula_sum   'Ho10 Tm2 In1 Co4 Ir1'
_cell_volume   429.92789843
_cell_formula_units_Z   1
loop_
 _symmetry_equiv_pos_site_id
 _symmetry_equiv_pos_as_xyz
  1  'x, y, z'
loop_
 _atom_site_type_symbol
 _atom_site_label
 _atom_site_symmetry_multiplicity
 _atom_site_fract_x
 _atom_site_fract_y
 _atom_site_fract_z
 _atom_site_occupancy
  Ho  Ho0  1  0.315422  0.010084  0.694662  1
  Ho  Ho1  1  0.684578  0.989916  0.305338  1
  Ho  Ho2  1  0.183777  0.285726  0.468848  1
  Ho  Ho3  1  0.816223  0.714274  0.531152  1
  Ho  Ho4  1  0.183122  0.714274  0.898051  1
  Ho  Ho5  1  0.816878  0.285726  0.101949  1
  Ho  Ho6  1  0.412424  0.217938  0.195196  1
  Ho  Ho7  1  0.587576  0.782062  0.804804  1
  Ho  Ho8  1  0.022742  0.217938  0.805514  1
  Ho  Ho9  1  0.977258  0.782062  0.194486  1
  Tm  Tm10  1  0.315484  0.621223  0.305739  1
  Tm  Tm11  1  0.684516  0.378777  0.694261  1
  In  In12  1  0.500000  0.500000  0.000000  1
  Co  Co13  1  0.112169  0.611962  0.499792  1
  Co  Co14  1  0.887831  0.388038  0.500208  1
  Co  Co15  1  0.378087  0.000000  0.378087  1
  Co  Co16  1  0.621913  0.000000  0.621913  1
  Ir  Ir17  1  0.000000  0.000000  0.000000  1
