# generated using pymatgen
data_Dy3Tm3CoBr10
_symmetry_space_group_name_H-M   'P 1'
_cell_length_a   7.28999822
_cell_length_b   9.12560550
_cell_length_c   9.09213933
_cell_angle_alpha   107.26949502
_cell_angle_beta   96.23950726
_cell_angle_gamma   105.16019175
_symmetry_Int_Tables_number   1
_chemical_formula_structural   Dy3Tm3CoBr10
_chemical_formula_sum   'Dy3 Tm3 Co1 Br10'
_cell_volume   545.98169217
_cell_formula_units_Z   1
loop_
 _symmetry_equiv_pos_site_id
 _symmetry_equiv_pos_as_xyz
  1  'x, y, z'
loop_
 _atom_site_type_symbol
 _atom_site_label
 _atom_site_symmetry_multiplicity
 _atom_site_fract_x
 _atom_site_fract_y
 _atom_site_fract_z
 _atom_site_occupancy
  Dy  Dy0  1  0.031100  0.705983  0.408981  1
  Dy  Dy1  1  0.880966  0.954117  0.736178  1
  Dy  Dy2  1  0.119804  0.045777  0.264266  1
  Tm  Tm3  1  0.650148  0.871345  0.328022  1
  Tm  Tm4  1  0.349966  0.130623  0.672426  1
  Tm  Tm5  1  0.969169  0.289875  0.589875  1
  Co  Co6  1  0.000208  0.999575  0.500017  1
  Br  Br7  1  0.546160  0.179037  0.414621  1
  Br  Br8  1  0.456117  0.823151  0.587163  1
  Br  Br9  1  0.228018  0.749870  0.158152  1
  Br  Br10  1  0.774667  0.252474  0.839661  1
  Br  Br11  1  0.913069  0.625167  0.674105  1
  Br  Br12  1  0.085747  0.371645  0.328193  1
  Br  Br13  1  0.751328  0.916292  0.044930  1
  Br  Br14  1  0.249518  0.084736  0.955252  1
  Br  Br15  1  0.650775  0.552403  0.227704  1
  Br  Br16  1  0.343238  0.447929  0.770453  1
