# generated using pymatgen
data_Na3CrFeN4
_symmetry_space_group_name_H-M   'P 1'
_cell_length_a   5.54263100
_cell_length_b   9.47359100
_cell_length_c   9.41442900
_cell_angle_alpha   90.00000000
_cell_angle_beta   90.00000000
_cell_angle_gamma   90.00000000
_symmetry_Int_Tables_number   1
_chemical_formula_structural   Na3CrFeN4
_chemical_formula_sum   'Na12 Cr4 Fe4 N16'
_cell_volume   494.33866695
_cell_formula_units_Z   4
loop_
 _symmetry_equiv_pos_site_id
 _symmetry_equiv_pos_as_xyz
  1  'x, y, z'
loop_
 _atom_site_type_symbol
 _atom_site_label
 _atom_site_symmetry_multiplicity
 _atom_site_fract_x
 _atom_site_fract_y
 _atom_site_fract_z
 _atom_site_occupancy
  Na  Na0  1  0.638750  0.157297  0.417797  1
  Na  Na1  1  0.861250  0.842703  0.417797  1
  Na  Na2  1  0.638750  0.342703  0.082203  1
  Na  Na3  1  0.861250  0.657297  0.082203  1
  Na  Na4  1  0.361250  0.842703  0.582203  1
  Na  Na5  1  0.138750  0.157297  0.582203  1
  Na  Na6  1  0.361250  0.657297  0.917797  1
  Na  Na7  1  0.138750  0.342703  0.917797  1
  Na  Na8  1  0.750000  0.500000  0.410265  1
  Na  Na9  1  0.750000  0.000000  0.089735  1
  Na  Na10  1  0.250000  0.500000  0.589735  1
  Na  Na11  1  0.250000  0.000000  0.910265  1
  Cr  Cr12  1  0.750000  0.500000  0.737461  1
  Cr  Cr13  1  0.750000  0.000000  0.762539  1
  Cr  Cr14  1  0.250000  0.500000  0.262539  1
  Cr  Cr15  1  0.250000  0.000000  0.237461  1
  Fe  Fe16  1  0.698289  0.250000  0.750000  1
  Fe  Fe17  1  0.801711  0.750000  0.750000  1
  Fe  Fe18  1  0.301711  0.750000  0.250000  1
  Fe  Fe19  1  0.198289  0.250000  0.250000  1
  N  N20  1  0.887117  0.360211  0.637547  1
  N  N21  1  0.612883  0.639789  0.637547  1
  N  N22  1  0.887117  0.139789  0.862453  1
  N  N23  1  0.612883  0.860211  0.862453  1
  N  N24  1  0.112883  0.639789  0.362453  1
  N  N25  1  0.387117  0.360211  0.362453  1
  N  N26  1  0.112883  0.860211  0.137547  1
  N  N27  1  0.387117  0.139789  0.137547  1
  N  N28  1  0.540705  0.396848  0.837697  1
  N  N29  1  0.959295  0.603152  0.837697  1
  N  N30  1  0.540705  0.103152  0.662303  1
  N  N31  1  0.959295  0.896848  0.662303  1
  N  N32  1  0.459295  0.603152  0.162303  1
  N  N33  1  0.040705  0.396848  0.162303  1
  N  N34  1  0.459295  0.896848  0.337697  1
  N  N35  1  0.040705  0.103152  0.337697  1
