# generated using pymatgen
data_Ce12Si5Tc6Sb
_symmetry_space_group_name_H-M   'P 1'
_cell_length_a   7.70463200
_cell_length_b   7.70463060
_cell_length_c   9.79574700
_cell_angle_alpha   90.00000000
_cell_angle_beta   90.00000000
_cell_angle_gamma   119.99999742
_symmetry_Int_Tables_number   1
_chemical_formula_structural   Ce12Si5Tc6Sb
_chemical_formula_sum   'Ce12 Si5 Tc6 Sb1'
_cell_volume   503.58400122
_cell_formula_units_Z   1
loop_
 _symmetry_equiv_pos_site_id
 _symmetry_equiv_pos_as_xyz
  1  'x, y, z'
loop_
 _atom_site_type_symbol
 _atom_site_label
 _atom_site_symmetry_multiplicity
 _atom_site_fract_x
 _atom_site_fract_y
 _atom_site_fract_z
 _atom_site_occupancy
  Ce  Ce0  1  0.000000  0.587428  0.500016  1
  Ce  Ce1  1  0.587428  0.000000  0.500016  1
  Ce  Ce2  1  0.412572  0.412572  0.500016  1
  Ce  Ce3  1  0.000000  0.420762  0.002062  1
  Ce  Ce4  1  0.420762  0.000000  0.002062  1
  Ce  Ce5  1  0.579238  0.579238  0.002062  1
  Ce  Ce6  1  0.000000  0.734792  0.181134  1
  Ce  Ce7  1  0.734792  0.000000  0.181134  1
  Ce  Ce8  1  0.265208  0.265208  0.181134  1
  Ce  Ce9  1  0.000000  0.265133  0.670735  1
  Ce  Ce10  1  0.265133  0.000000  0.670735  1
  Ce  Ce11  1  0.734867  0.734867  0.670735  1
  Si  Si12  1  0.666667  0.333333  0.273922  1
  Si  Si13  1  0.333333  0.666667  0.273922  1
  Si  Si14  1  0.333333  0.666667  0.770588  1
  Si  Si15  1  0.666667  0.333333  0.770588  1
  Si  Si16  1  0.000000  0.000000  0.421332  1
  Tc  Tc17  1  0.000000  0.342135  0.340047  1
  Tc  Tc18  1  0.342135  0.000000  0.340047  1
  Tc  Tc19  1  0.657865  0.657865  0.340047  1
  Tc  Tc20  1  0.000000  0.649568  0.836987  1
  Tc  Tc21  1  0.649568  0.000000  0.836987  1
  Tc  Tc22  1  0.350432  0.350432  0.836987  1
  Sb  Sb23  1  0.000000  0.000000  0.925949  1
