# generated using pymatgen
data_Nd2Gd4MnCl10
_symmetry_space_group_name_H-M   'P 1'
_cell_length_a   7.28652356
_cell_length_b   9.11393195
_cell_length_c   9.13488500
_cell_angle_alpha   108.71061964
_cell_angle_beta   95.56904408
_cell_angle_gamma   107.34141110
_symmetry_Int_Tables_number   1
_chemical_formula_structural   Nd2Gd4MnCl10
_chemical_formula_sum   'Nd2 Gd4 Mn1 Cl10'
_cell_volume   535.86255782
_cell_formula_units_Z   1
loop_
 _symmetry_equiv_pos_site_id
 _symmetry_equiv_pos_as_xyz
  1  'x, y, z'
loop_
 _atom_site_type_symbol
 _atom_site_label
 _atom_site_symmetry_multiplicity
 _atom_site_fract_x
 _atom_site_fract_y
 _atom_site_fract_z
 _atom_site_occupancy
  Nd  Nd0  1  0.641126  0.056432  0.754459  1
  Nd  Nd1  1  0.358874  0.943568  0.245541  1
  Gd  Gd2  1  0.858469  0.137694  0.180403  1
  Gd  Gd3  1  0.141531  0.862306  0.819597  1
  Gd  Gd4  1  0.527638  0.701499  0.902421  1
  Gd  Gd5  1  0.472362  0.298501  0.097579  1
  Mn  Mn6  1  0.500000  0.000000  0.000000  1
  Cl  Cl7  1  0.742224  0.079806  0.441429  1
  Cl  Cl8  1  0.257776  0.920194  0.558571  1
  Cl  Cl9  1  0.945156  0.828877  0.075758  1
  Cl  Cl10  1  0.054844  0.171123  0.924242  1
  Cl  Cl11  1  0.281996  0.248495  0.337909  1
  Cl  Cl12  1  0.718004  0.751505  0.662091  1
  Cl  Cl13  1  0.589188  0.372098  0.840330  1
  Cl  Cl14  1  0.410812  0.627902  0.159670  1
  Cl  Cl15  1  0.844835  0.444876  0.270269  1
  Cl  Cl16  1  0.155165  0.555124  0.729731  1
