# generated using pymatgen
data_Tm12Os3Pt
_symmetry_space_group_name_H-M   'P 1'
_cell_length_a   7.27024648
_cell_length_b   8.92083500
_cell_length_c   6.31388158
_cell_angle_alpha   90.00000000
_cell_angle_beta   89.84734784
_cell_angle_gamma   90.00000000
_symmetry_Int_Tables_number   1
_chemical_formula_structural   Tm12Os3Pt
_chemical_formula_sum   'Tm12 Os3 Pt1'
_cell_volume   409.49587579
_cell_formula_units_Z   1
loop_
 _symmetry_equiv_pos_site_id
 _symmetry_equiv_pos_as_xyz
  1  'x, y, z'
loop_
 _atom_site_type_symbol
 _atom_site_label
 _atom_site_symmetry_multiplicity
 _atom_site_fract_x
 _atom_site_fract_y
 _atom_site_fract_z
 _atom_site_occupancy
  Tm  Tm0  1  0.033286  0.250000  0.625112  1
  Tm  Tm1  1  0.963339  0.750000  0.375665  1
  Tm  Tm2  1  0.462930  0.750000  0.128955  1
  Tm  Tm3  1  0.538822  0.250000  0.877122  1
  Tm  Tm4  1  0.171537  0.058760  0.164689  1
  Tm  Tm5  1  0.823778  0.938019  0.829852  1
  Tm  Tm6  1  0.323383  0.934322  0.674722  1
  Tm  Tm7  1  0.823778  0.561981  0.829852  1
  Tm  Tm8  1  0.681206  0.058278  0.328521  1
  Tm  Tm9  1  0.171537  0.441240  0.164689  1
  Tm  Tm10  1  0.681206  0.441722  0.328521  1
  Tm  Tm11  1  0.323383  0.565678  0.674722  1
  Os  Os12  1  0.614952  0.750000  0.534925  1
  Os  Os13  1  0.115699  0.750000  0.966749  1
  Os  Os14  1  0.884159  0.250000  0.037920  1
  Pt  Pt15  1  0.387005  0.250000  0.457985  1
