# generated using pymatgen
data_Ho4ReB12Os
_symmetry_space_group_name_H-M   'P 1'
_cell_length_a   3.65835500
_cell_length_b   9.14604725
_cell_length_c   11.52754415
_cell_angle_alpha   90.14431783
_cell_angle_beta   90.00000000
_cell_angle_gamma   90.00000000
_symmetry_Int_Tables_number   1
_chemical_formula_structural   Ho4ReB12Os
_chemical_formula_sum   'Ho8 Re2 B24 Os2'
_cell_volume   385.70449788
_cell_formula_units_Z   2
loop_
 _symmetry_equiv_pos_site_id
 _symmetry_equiv_pos_as_xyz
  1  'x, y, z'
loop_
 _atom_site_type_symbol
 _atom_site_label
 _atom_site_symmetry_multiplicity
 _atom_site_fract_x
 _atom_site_fract_y
 _atom_site_fract_z
 _atom_site_occupancy
  Ho  Ho0  1  0.000000  0.320788  0.412432  1
  Ho  Ho1  1  0.000000  0.679212  0.587568  1
  Ho  Ho2  1  0.000000  0.824652  0.084724  1
  Ho  Ho3  1  0.000000  0.175348  0.915276  1
  Ho  Ho4  1  0.000000  0.943423  0.370754  1
  Ho  Ho5  1  0.000000  0.056577  0.629246  1
  Ho  Ho6  1  0.000000  0.442567  0.128828  1
  Ho  Ho7  1  0.000000  0.557433  0.871172  1
  Re  Re8  1  0.000000  0.138461  0.179542  1
  Re  Re9  1  0.000000  0.861539  0.820458  1
  B  B10  1  0.500000  0.553634  0.433189  1
  B  B11  1  0.500000  0.446366  0.566811  1
  B  B12  1  0.500000  0.053128  0.066772  1
  B  B13  1  0.500000  0.946872  0.933228  1
  B  B14  1  0.500000  0.748796  0.418820  1
  B  B15  1  0.500000  0.251204  0.581180  1
  B  B16  1  0.500000  0.248896  0.080877  1
  B  B17  1  0.500000  0.751104  0.919123  1
  B  B18  1  0.500000  0.790848  0.265829  1
  B  B19  1  0.500000  0.209152  0.734171  1
  B  B20  1  0.500000  0.291881  0.234706  1
  B  B21  1  0.500000  0.708119  0.765294  1
  B  B22  1  0.500000  0.630947  0.186001  1
  B  B23  1  0.500000  0.369053  0.813999  1
  B  B24  1  0.500000  0.131497  0.314976  1
  B  B25  1  0.500000  0.868503  0.685024  1
  B  B26  1  0.500000  0.982721  0.212431  1
  B  B27  1  0.500000  0.017279  0.787569  1
  B  B28  1  0.500000  0.483053  0.288071  1
  B  B29  1  0.500000  0.516947  0.711929  1
  B  B30  1  0.500000  0.603196  0.028901  1
  B  B31  1  0.500000  0.396804  0.971099  1
  B  B32  1  0.500000  0.103873  0.471431  1
  B  B33  1  0.500000  0.896127  0.528569  1
  Os  Os34  1  0.000000  0.637557  0.321905  1
  Os  Os35  1  0.000000  0.362443  0.678095  1
