# generated using pymatgen
data_TbY19(Cd3Ir)2
_symmetry_space_group_name_H-M   'P 1'
_cell_length_a   9.68456239
_cell_length_b   9.68456415
_cell_length_c   9.85102144
_cell_angle_alpha   90.03893927
_cell_angle_beta   89.96107087
_cell_angle_gamma   120.02334571
_symmetry_Int_Tables_number   1
_chemical_formula_structural   TbY19(Cd3Ir)2
_chemical_formula_sum   'Tb1 Y19 Cd6 Ir2'
_cell_volume   799.96250134
_cell_formula_units_Z   1
loop_
 _symmetry_equiv_pos_site_id
 _symmetry_equiv_pos_as_xyz
  1  'x, y, z'
loop_
 _atom_site_type_symbol
 _atom_site_label
 _atom_site_symmetry_multiplicity
 _atom_site_fract_x
 _atom_site_fract_y
 _atom_site_fract_z
 _atom_site_occupancy
  Tb  Tb0  1  0.209865  0.790135  0.439858  1
  Y  Y1  1  0.000081  0.999919  0.499981  1
  Y  Y2  1  0.999838  0.000162  0.000203  1
  Y  Y3  1  0.541839  0.458161  0.250238  1
  Y  Y4  1  0.541682  0.083302  0.249904  1
  Y  Y5  1  0.916698  0.458318  0.249904  1
  Y  Y6  1  0.458356  0.541644  0.749998  1
  Y  Y7  1  0.458423  0.916479  0.749957  1
  Y  Y8  1  0.083521  0.541577  0.749957  1
  Y  Y9  1  0.209357  0.418134  0.440529  1
  Y  Y10  1  0.581866  0.790643  0.440529  1
  Y  Y11  1  0.790690  0.209310  0.559593  1
  Y  Y12  1  0.790895  0.581387  0.559705  1
  Y  Y13  1  0.418613  0.209105  0.559705  1
  Y  Y14  1  0.790681  0.209319  0.940275  1
  Y  Y15  1  0.790690  0.581324  0.940369  1
  Y  Y16  1  0.418676  0.209310  0.940369  1
  Y  Y17  1  0.208891  0.791109  0.059080  1
  Y  Y18  1  0.209502  0.419089  0.059700  1
  Y  Y19  1  0.580911  0.790498  0.059700  1
  Cd  Cd20  1  0.884949  0.115051  0.250198  1
  Cd  Cd21  1  0.884729  0.769900  0.249824  1
  Cd  Cd22  1  0.230100  0.115271  0.249824  1
  Cd  Cd23  1  0.114981  0.885019  0.750324  1
  Cd  Cd24  1  0.114979  0.230107  0.750085  1
  Cd  Cd25  1  0.769893  0.885021  0.750085  1
  Ir  Ir26  1  0.332657  0.667343  0.250172  1
  Ir  Ir27  1  0.666637  0.333363  0.749938  1
