# generated using pymatgen
data_Zr3Sc7(In2Rh)4
_symmetry_space_group_name_H-M   'P 1'
_cell_length_a   3.36402300
_cell_length_b   7.76024533
_cell_length_c   17.64947876
_cell_angle_alpha   90.03346780
_cell_angle_beta   90.00000000
_cell_angle_gamma   90.00000000
_symmetry_Int_Tables_number   1
_chemical_formula_structural   Zr3Sc7(In2Rh)4
_chemical_formula_sum   'Zr3 Sc7 In8 Rh4'
_cell_volume   460.75092660
_cell_formula_units_Z   1
loop_
 _symmetry_equiv_pos_site_id
 _symmetry_equiv_pos_as_xyz
  1  'x, y, z'
loop_
 _atom_site_type_symbol
 _atom_site_label
 _atom_site_symmetry_multiplicity
 _atom_site_fract_x
 _atom_site_fract_y
 _atom_site_fract_z
 _atom_site_occupancy
  Zr  Zr0  1  0.000000  0.746168  0.778690  1
  Zr  Zr1  1  0.000000  0.254771  0.221207  1
  Zr  Zr2  1  0.000000  0.246772  0.720846  1
  Sc  Sc3  1  0.000000  0.000134  0.000250  1
  Sc  Sc4  1  0.000000  0.499292  0.500070  1
  Sc  Sc5  1  0.000000  0.754196  0.279376  1
  Sc  Sc6  1  0.000000  0.874849  0.583758  1
  Sc  Sc7  1  0.000000  0.124440  0.415485  1
  Sc  Sc8  1  0.000000  0.374478  0.916073  1
  Sc  Sc9  1  0.000000  0.625698  0.084561  1
  In  In10  1  0.500000  0.797290  0.433529  1
  In  In11  1  0.500000  0.203068  0.565692  1
  In  In12  1  0.500000  0.297237  0.065919  1
  In  In13  1  0.500000  0.703189  0.934279  1
  In  In14  1  0.500000  0.928096  0.149236  1
  In  In15  1  0.500000  0.070885  0.851642  1
  In  In16  1  0.500000  0.430031  0.351262  1
  In  In17  1  0.500000  0.570662  0.648163  1
  Rh  Rh18  1  0.500000  0.961500  0.694425  1
  Rh  Rh19  1  0.500000  0.039736  0.305797  1
  Rh  Rh20  1  0.500000  0.462007  0.805602  1
  Rh  Rh21  1  0.500000  0.535501  0.194136  1
