# generated using pymatgen
data_HoErTh(InIr)3
_symmetry_space_group_name_H-M   'P 1'
_cell_length_a   7.56581913
_cell_length_b   7.56518194
_cell_length_c   3.92316500
_cell_angle_alpha   90.00000000
_cell_angle_beta   90.00000000
_cell_angle_gamma   118.47228431
_symmetry_Int_Tables_number   1
_chemical_formula_structural   HoErTh(InIr)3
_chemical_formula_sum   'Ho1 Er1 Th1 In3 Ir3'
_cell_volume   197.38966489
_cell_formula_units_Z   1
loop_
 _symmetry_equiv_pos_site_id
 _symmetry_equiv_pos_as_xyz
  1  'x, y, z'
loop_
 _atom_site_type_symbol
 _atom_site_label
 _atom_site_symmetry_multiplicity
 _atom_site_fract_x
 _atom_site_fract_y
 _atom_site_fract_z
 _atom_site_occupancy
  Ho  Ho0  1  0.001710  0.405683  0.000000  1
  Er  Er1  1  0.405368  0.001722  0.000000  1
  Th  Th2  1  0.583880  0.583891  0.000000  1
  In  In3  1  0.010268  0.743173  0.500000  1
  In  In4  1  0.245147  0.244871  0.500000  1
  In  In5  1  0.742887  0.010076  0.500000  1
  Ir  Ir6  1  0.996075  0.995641  0.000000  1
  Ir  Ir7  1  0.667584  0.346568  0.500000  1
  Ir  Ir8  1  0.347081  0.668377  0.500000  1
