# generated using pymatgen
data_Sn16Ir3Pt
_symmetry_space_group_name_H-M   'P 1'
_cell_length_a   12.61782452
_cell_length_b   6.39680216
_cell_length_c   6.39680108
_cell_angle_alpha   89.98179570
_cell_angle_beta   104.68846659
_cell_angle_gamma   104.68845939
_symmetry_Int_Tables_number   1
_chemical_formula_structural   Sn16Ir3Pt
_chemical_formula_sum   'Sn16 Ir3 Pt1'
_cell_volume   481.98334459
_cell_formula_units_Z   1
loop_
 _symmetry_equiv_pos_site_id
 _symmetry_equiv_pos_as_xyz
  1  'x, y, z'
loop_
 _atom_site_type_symbol
 _atom_site_label
 _atom_site_symmetry_multiplicity
 _atom_site_fract_x
 _atom_site_fract_y
 _atom_site_fract_z
 _atom_site_occupancy
  Sn  Sn0  1  0.877437  0.270637  0.014145  1
  Sn  Sn1  1  0.375593  0.515528  0.109146  1
  Sn  Sn2  1  0.124407  0.233555  0.139936  1
  Sn  Sn3  1  0.622744  0.142799  0.235484  1
  Sn  Sn4  1  0.375023  0.015131  0.266159  1
  Sn  Sn5  1  0.877437  0.606799  0.363292  1
  Sn  Sn6  1  0.622563  0.636708  0.393202  1
  Sn  Sn7  1  0.124407  0.890854  0.484471  1
  Sn  Sn8  1  0.877256  0.112740  0.520055  1
  Sn  Sn9  1  0.375023  0.359891  0.608863  1
  Sn  Sn10  1  0.124977  0.391137  0.640109  1
  Sn  Sn11  1  0.622563  0.985856  0.729362  1
  Sn  Sn12  1  0.375593  0.860064  0.766446  1
  Sn  Sn13  1  0.877256  0.764517  0.857201  1
  Sn  Sn14  1  0.622744  0.479946  0.887259  1
  Sn  Sn15  1  0.124977  0.733842  0.984868  1
  Ir  Ir16  1  0.250000  0.625000  0.375001  1
  Ir  Ir17  1  0.750000  0.375000  0.625001  1
  Ir  Ir18  1  0.250000  0.125000  0.875000  1
  Pt  Pt19  1  0.750000  0.875000  0.124999  1
