# generated using pymatgen
data_Pr3Y2Bi3Cl
_symmetry_space_group_name_H-M   'P 1'
_cell_length_a   9.56884800
_cell_length_b   9.56884847
_cell_length_c   6.60634700
_cell_angle_alpha   90.00000000
_cell_angle_beta   90.00000000
_cell_angle_gamma   119.99999836
_symmetry_Int_Tables_number   1
_chemical_formula_structural   Pr3Y2Bi3Cl
_chemical_formula_sum   'Pr6 Y4 Bi6 Cl2'
_cell_volume   523.85531379
_cell_formula_units_Z   2
loop_
 _symmetry_equiv_pos_site_id
 _symmetry_equiv_pos_as_xyz
  1  'x, y, z'
loop_
 _atom_site_type_symbol
 _atom_site_label
 _atom_site_symmetry_multiplicity
 _atom_site_fract_x
 _atom_site_fract_y
 _atom_site_fract_z
 _atom_site_occupancy
  Pr  Pr0  1  0.266757  0.000000  0.750000  1
  Pr  Pr1  1  0.733243  0.000000  0.250000  1
  Pr  Pr2  1  0.000000  0.266757  0.750000  1
  Pr  Pr3  1  0.000000  0.733243  0.250000  1
  Pr  Pr4  1  0.733243  0.733243  0.750000  1
  Pr  Pr5  1  0.266757  0.266757  0.250000  1
  Y  Y6  1  0.333333  0.666667  0.500000  1
  Y  Y7  1  0.666667  0.333333  0.500000  1
  Y  Y8  1  0.666667  0.333333  0.000000  1
  Y  Y9  1  0.333333  0.666667  0.000000  1
  Bi  Bi10  1  0.610094  0.000000  0.750000  1
  Bi  Bi11  1  0.389906  0.000000  0.250000  1
  Bi  Bi12  1  0.000000  0.610094  0.750000  1
  Bi  Bi13  1  0.000000  0.389906  0.250000  1
  Bi  Bi14  1  0.389906  0.389906  0.750000  1
  Bi  Bi15  1  0.610094  0.610094  0.250000  1
  Cl  Cl16  1  0.000000  0.000000  0.500000  1
  Cl  Cl17  1  0.000000  0.000000  0.000000  1
