# generated using pymatgen
data_Dy5Y3(CdNi)2
_symmetry_space_group_name_H-M   'P 1'
_cell_length_a   9.56242614
_cell_length_b   9.56242600
_cell_length_c   9.56242600
_cell_angle_alpha   60.00000001
_cell_angle_beta   60.00000049
_cell_angle_gamma   59.99999785
_symmetry_Int_Tables_number   1
_chemical_formula_structural   Dy5Y3(CdNi)2
_chemical_formula_sum   'Dy10 Y6 Cd4 Ni4'
_cell_volume   618.28578991
_cell_formula_units_Z   2
loop_
 _symmetry_equiv_pos_site_id
 _symmetry_equiv_pos_as_xyz
  1  'x, y, z'
loop_
 _atom_site_type_symbol
 _atom_site_label
 _atom_site_symmetry_multiplicity
 _atom_site_fract_x
 _atom_site_fract_y
 _atom_site_fract_z
 _atom_site_occupancy
  Dy  Dy0  1  0.598828  0.598828  0.598828  1
  Dy  Dy1  1  0.598828  0.598828  0.203517  1
  Dy  Dy2  1  0.598828  0.203517  0.598828  1
  Dy  Dy3  1  0.203517  0.598828  0.598828  1
  Dy  Dy4  1  0.061109  0.438891  0.438891  1
  Dy  Dy5  1  0.438891  0.061109  0.061109  1
  Dy  Dy6  1  0.438891  0.061109  0.438891  1
  Dy  Dy7  1  0.061109  0.438891  0.061109  1
  Dy  Dy8  1  0.438891  0.438891  0.061109  1
  Dy  Dy9  1  0.061109  0.061109  0.438891  1
  Y  Y10  1  0.186735  0.813265  0.813265  1
  Y  Y11  1  0.813265  0.186735  0.186735  1
  Y  Y12  1  0.813265  0.186735  0.813265  1
  Y  Y13  1  0.186735  0.813265  0.186735  1
  Y  Y14  1  0.813265  0.813265  0.186735  1
  Y  Y15  1  0.186735  0.186735  0.813265  1
  Cd  Cd16  1  0.831226  0.831226  0.831226  1
  Cd  Cd17  1  0.831226  0.831226  0.506320  1
  Cd  Cd18  1  0.831226  0.506320  0.831226  1
  Cd  Cd19  1  0.506320  0.831226  0.831226  1
  Ni  Ni20  1  0.392616  0.392616  0.392616  1
  Ni  Ni21  1  0.392616  0.392616  0.822153  1
  Ni  Ni22  1  0.392616  0.822153  0.392616  1
  Ni  Ni23  1  0.822153  0.392616  0.392616  1
