# generated using pymatgen
data_Dy15Ho5(InGa2)4
_symmetry_space_group_name_H-M   'P 1'
_cell_length_a   7.73152903
_cell_length_b   7.73138002
_cell_length_c   14.34092502
_cell_angle_alpha   89.99641655
_cell_angle_beta   89.99580514
_cell_angle_gamma   89.99168509
_symmetry_Int_Tables_number   1
_chemical_formula_structural   Dy15Ho5(InGa2)4
_chemical_formula_sum   'Dy15 Ho5 In4 Ga8'
_cell_volume   857.23435941
_cell_formula_units_Z   1
loop_
 _symmetry_equiv_pos_site_id
 _symmetry_equiv_pos_as_xyz
  1  'x, y, z'
loop_
 _atom_site_type_symbol
 _atom_site_label
 _atom_site_symmetry_multiplicity
 _atom_site_fract_x
 _atom_site_fract_y
 _atom_site_fract_z
 _atom_site_occupancy
  Dy  Dy0  1  0.673505  0.660980  0.605919  1
  Dy  Dy1  1  0.673576  0.338946  0.105926  1
  Dy  Dy2  1  0.826508  0.839018  0.394056  1
  Dy  Dy3  1  0.173503  0.839092  0.894100  1
  Dy  Dy4  1  0.326509  0.339019  0.605931  1
  Dy  Dy5  1  0.326421  0.660974  0.105929  1
  Dy  Dy6  1  0.173501  0.160980  0.394050  1
  Dy  Dy7  1  0.826569  0.160971  0.894096  1
  Dy  Dy8  1  0.660971  0.326497  0.394057  1
  Dy  Dy9  1  0.339003  0.326493  0.894101  1
  Dy  Dy10  1  0.160982  0.826510  0.605925  1
  Dy  Dy11  1  0.839033  0.826547  0.105923  1
  Dy  Dy12  1  0.339015  0.673487  0.394063  1
  Dy  Dy13  1  0.660969  0.673488  0.894086  1
  Dy  Dy14  1  0.839031  0.173503  0.605920  1
  Ho  Ho15  1  0.999992  0.499988  0.760148  1
  Ho  Ho16  1  0.000033  0.499940  0.260129  1
  Ho  Ho17  1  0.499911  0.000045  0.239848  1
  Ho  Ho18  1  0.499987  0.999990  0.739828  1
  Ho  Ho19  1  0.160901  0.173495  0.106070  1
  In  In20  1  0.000010  0.499997  0.496200  1
  In  In21  1  0.000109  0.499872  0.996238  1
  In  In22  1  0.499991  0.000006  0.503806  1
  In  In23  1  0.499895  0.000093  0.003836  1
  Ga  Ga24  1  0.875830  0.875823  0.750003  1
  Ga  Ga25  1  0.875975  0.124194  0.249915  1
  Ga  Ga26  1  0.624143  0.624136  0.249984  1
  Ga  Ga27  1  0.375850  0.624152  0.750006  1
  Ga  Ga28  1  0.124156  0.124164  0.750004  1
  Ga  Ga29  1  0.124193  0.875966  0.249931  1
  Ga  Ga30  1  0.375781  0.375785  0.249966  1
  Ga  Ga31  1  0.624148  0.375848  0.750006  1
