# generated using pymatgen
data_Dy5Y11MgAg3Rh4
_symmetry_space_group_name_H-M   'P 1'
_cell_length_a   9.56952533
_cell_length_b   9.60527962
_cell_length_c   9.60469629
_cell_angle_alpha   60.11521376
_cell_angle_beta   60.24594209
_cell_angle_gamma   60.24888107
_symmetry_Int_Tables_number   1
_chemical_formula_structural   Dy5Y11MgAg3Rh4
_chemical_formula_sum   'Dy5 Y11 Mg1 Ag3 Rh4'
_cell_volume   627.13724702
_cell_formula_units_Z   1
loop_
 _symmetry_equiv_pos_site_id
 _symmetry_equiv_pos_as_xyz
  1  'x, y, z'
loop_
 _atom_site_type_symbol
 _atom_site_label
 _atom_site_symmetry_multiplicity
 _atom_site_fract_x
 _atom_site_fract_y
 _atom_site_fract_z
 _atom_site_occupancy
  Dy  Dy0  1  0.601857  0.598393  0.598441  1
  Dy  Dy1  1  0.599701  0.597611  0.204690  1
  Dy  Dy2  1  0.599659  0.204738  0.597625  1
  Dy  Dy3  1  0.185956  0.604599  0.604626  1
  Dy  Dy4  1  0.059882  0.438470  0.438464  1
  Y  Y5  1  0.436147  0.062738  0.062749  1
  Y  Y6  1  0.436298  0.062664  0.436626  1
  Y  Y7  1  0.059542  0.438943  0.060570  1
  Y  Y8  1  0.436317  0.436623  0.062660  1
  Y  Y9  1  0.059545  0.060567  0.438937  1
  Y  Y10  1  0.185344  0.813525  0.813515  1
  Y  Y11  1  0.815746  0.185240  0.185248  1
  Y  Y12  1  0.813815  0.186599  0.814533  1
  Y  Y13  1  0.184744  0.813356  0.187242  1
  Y  Y14  1  0.813784  0.814539  0.186614  1
  Y  Y15  1  0.184744  0.187248  0.813359  1
  Mg  Mg16  1  0.539468  0.820679  0.820638  1
  Ag  Ag17  1  0.832340  0.834661  0.834655  1
  Ag  Ag18  1  0.832771  0.834915  0.499168  1
  Ag  Ag19  1  0.832776  0.499164  0.834911  1
  Rh  Rh20  1  0.386080  0.395968  0.395949  1
  Rh  Rh21  1  0.390960  0.396295  0.818609  1
  Rh  Rh22  1  0.391002  0.818597  0.396294  1
  Rh  Rh23  1  0.821522  0.393872  0.393877  1
