# generated using pymatgen
data_CaCdRu4(PbO7)2
_symmetry_space_group_name_H-M   'P 1'
_cell_length_a   7.27955166
_cell_length_b   7.34979007
_cell_length_c   7.33360300
_cell_angle_alpha   60.07283210
_cell_angle_beta   59.75407903
_cell_angle_gamma   59.92178111
_symmetry_Int_Tables_number   1
_chemical_formula_structural   CaCdRu4(PbO7)2
_chemical_formula_sum   'Ca1 Cd1 Ru4 Pb2 O14'
_cell_volume   276.91671182
_cell_formula_units_Z   1
loop_
 _symmetry_equiv_pos_site_id
 _symmetry_equiv_pos_as_xyz
  1  'x, y, z'
loop_
 _atom_site_type_symbol
 _atom_site_label
 _atom_site_symmetry_multiplicity
 _atom_site_fract_x
 _atom_site_fract_y
 _atom_site_fract_z
 _atom_site_occupancy
  Ca  Ca0  1  0.625000  0.125000  0.625000  1
  Cd  Cd1  1  0.125000  0.625000  0.625000  1
  Ru  Ru2  1  0.625000  0.125000  0.125000  1
  Ru  Ru3  1  0.125000  0.625000  0.125000  1
  Ru  Ru4  1  0.125000  0.125000  0.625000  1
  Ru  Ru5  1  0.125000  0.125000  0.125000  1
  Pb  Pb6  1  0.625000  0.625000  0.125000  1
  Pb  Pb7  1  0.625000  0.625000  0.625000  1
  O  O8  1  0.191719  0.189463  0.809409  1
  O  O9  1  0.199873  0.804917  0.188721  1
  O  O10  1  0.449696  0.047762  0.055525  1
  O  O11  1  0.199873  0.804917  0.806489  1
  O  O12  1  0.050127  0.445083  0.443511  1
  O  O13  1  0.799355  0.800337  0.200154  1
  O  O14  1  0.450645  0.449663  0.049846  1
  O  O15  1  0.479747  0.499704  0.510275  1
  O  O16  1  0.058281  0.060537  0.440591  1
  O  O17  1  0.449696  0.047762  0.447016  1
  O  O18  1  0.050127  0.445083  0.061279  1
  O  O19  1  0.770253  0.750296  0.739725  1
  O  O20  1  0.800304  0.202238  0.802984  1
  O  O21  1  0.800304  0.202238  0.194475  1
