# generated using pymatgen
data_Th7Re2Au
_symmetry_space_group_name_H-M   'P 1'
_cell_length_a   10.16425008
_cell_length_b   10.16532775
_cell_length_c   6.33862179
_cell_angle_alpha   90.00000239
_cell_angle_beta   90.39721053
_cell_angle_gamma   120.00350560
_symmetry_Int_Tables_number   1
_chemical_formula_structural   Th7Re2Au
_chemical_formula_sum   'Th14 Re4 Au2'
_cell_volume   567.14347416
_cell_formula_units_Z   2
loop_
 _symmetry_equiv_pos_site_id
 _symmetry_equiv_pos_as_xyz
  1  'x, y, z'
loop_
 _atom_site_type_symbol
 _atom_site_label
 _atom_site_symmetry_multiplicity
 _atom_site_fract_x
 _atom_site_fract_y
 _atom_site_fract_z
 _atom_site_occupancy
  Th  Th0  1  0.454549  0.538940  0.295448  1
  Th  Th1  1  0.086626  0.543313  0.287170  1
  Th  Th2  1  0.937052  0.468526  0.768492  1
  Th  Th3  1  0.247929  0.123965  0.497117  1
  Th  Th4  1  0.528661  0.075706  0.785767  1
  Th  Th5  1  0.731337  0.865668  0.002735  1
  Th  Th6  1  0.656975  0.328487  0.321215  1
  Th  Th7  1  0.138367  0.882936  0.001497  1
  Th  Th8  1  0.454549  0.915609  0.295448  1
  Th  Th9  1  0.528661  0.452955  0.785767  1
  Th  Th10  1  0.876972  0.120333  0.514586  1
  Th  Th11  1  0.138367  0.255430  0.001497  1
  Th  Th12  1  0.876972  0.756640  0.514586  1
  Th  Th13  1  0.334016  0.667009  0.781937  1
  Re  Re14  1  0.631145  0.815573  0.553420  1
  Re  Re15  1  0.384614  0.192307  0.055676  1
  Re  Re16  1  0.181456  0.370506  0.552570  1
  Re  Re17  1  0.181456  0.810951  0.552570  1
  Au  Au18  1  0.815147  0.620452  0.058249  1
  Au  Au19  1  0.815147  0.194695  0.058249  1
