# generated using pymatgen
data_YbNb5(B2Ru5)2
_symmetry_space_group_name_H-M   'P 1'
_cell_length_a   9.52913624
_cell_length_b   9.52913624
_cell_length_c   3.04386300
_cell_angle_alpha   90.00000000
_cell_angle_beta   90.00000000
_cell_angle_gamma   90.30721295
_symmetry_Int_Tables_number   1
_chemical_formula_structural   YbNb5(B2Ru5)2
_chemical_formula_sum   'Yb1 Nb5 B4 Ru10'
_cell_volume   276.39229462
_cell_formula_units_Z   1
loop_
 _symmetry_equiv_pos_site_id
 _symmetry_equiv_pos_as_xyz
  1  'x, y, z'
loop_
 _atom_site_type_symbol
 _atom_site_label
 _atom_site_symmetry_multiplicity
 _atom_site_fract_x
 _atom_site_fract_y
 _atom_site_fract_z
 _atom_site_occupancy
  Yb  Yb0  1  0.825126  0.674874  0.000000  1
  Nb  Nb1  1  0.177433  0.322567  0.000000  1
  Nb  Nb2  1  0.325221  0.823532  0.000000  1
  Nb  Nb3  1  0.676468  0.174779  0.000000  1
  Nb  Nb4  1  0.502811  0.501423  0.000000  1
  Nb  Nb5  1  0.998577  0.997189  0.000000  1
  B  B6  1  0.620218  0.879782  0.000000  1
  B  B7  1  0.377220  0.122780  0.000000  1
  B  B8  1  0.122404  0.619741  0.000000  1
  B  B9  1  0.880259  0.377596  0.000000  1
  Ru  Ru10  1  0.557061  0.725419  0.500000  1
  Ru  Ru11  1  0.426279  0.283248  0.500000  1
  Ru  Ru12  1  0.083938  0.783361  0.500000  1
  Ru  Ru13  1  0.930367  0.216105  0.500000  1
  Ru  Ru14  1  0.283895  0.569633  0.500000  1
  Ru  Ru15  1  0.716639  0.416062  0.500000  1
  Ru  Ru16  1  0.216752  0.073721  0.500000  1
  Ru  Ru17  1  0.774581  0.942939  0.500000  1
  Ru  Ru18  1  0.495827  0.004173  0.500000  1
  Ru  Ru19  1  0.008923  0.491077  0.500000  1
