# generated using pymatgen
data_Mn3FeB4
_symmetry_space_group_name_H-M   'P 1'
_cell_length_a   2.97593000
_cell_length_b   4.09800026
_cell_length_c   5.45249935
_cell_angle_alpha   90.04082318
_cell_angle_beta   90.00000000
_cell_angle_gamma   90.00000000
_symmetry_Int_Tables_number   1
_chemical_formula_structural   Mn3FeB4
_chemical_formula_sum   'Mn3 Fe1 B4'
_cell_volume   66.49518598
_cell_formula_units_Z   1
loop_
 _symmetry_equiv_pos_site_id
 _symmetry_equiv_pos_as_xyz
  1  'x, y, z'
loop_
 _atom_site_type_symbol
 _atom_site_label
 _atom_site_symmetry_multiplicity
 _atom_site_fract_x
 _atom_site_fract_y
 _atom_site_fract_z
 _atom_site_occupancy
  Mn  Mn0  1  0.750000  0.622372  0.324270  1
  Mn  Mn1  1  0.750000  0.877722  0.823998  1
  Mn  Mn2  1  0.250000  0.121470  0.175471  1
  Fe  Fe3  1  0.250000  0.378843  0.675343  1
  B  B4  1  0.250000  0.884917  0.534139  1
  B  B5  1  0.750000  0.115083  0.466002  1
  B  B6  1  0.750000  0.384388  0.967089  1
  B  B7  1  0.250000  0.615204  0.033688  1
