# generated using pymatgen
data_HoTh(Si2Ni)2
_symmetry_space_group_name_H-M   'P 1'
_cell_length_a   8.42669359
_cell_length_b   8.42669435
_cell_length_c   4.04409400
_cell_angle_alpha   90.00000000
_cell_angle_beta   90.00000000
_cell_angle_gamma   151.98250507
_symmetry_Int_Tables_number   1
_chemical_formula_structural   HoTh(Si2Ni)2
_chemical_formula_sum   'Ho1 Th1 Si4 Ni2'
_cell_volume   134.89451369
_cell_formula_units_Z   1
loop_
 _symmetry_equiv_pos_site_id
 _symmetry_equiv_pos_as_xyz
  1  'x, y, z'
loop_
 _atom_site_type_symbol
 _atom_site_label
 _atom_site_symmetry_multiplicity
 _atom_site_fract_x
 _atom_site_fract_y
 _atom_site_fract_z
 _atom_site_occupancy
  Ho  Ho0  1  0.604221  0.395779  0.250000  1
  Th  Th1  1  0.394322  0.605678  0.750000  1
  Si  Si2  1  0.963378  0.036622  0.250000  1
  Si  Si3  1  0.041991  0.958009  0.750000  1
  Si  Si4  1  0.247590  0.752410  0.250000  1
  Si  Si5  1  0.747404  0.252596  0.750000  1
  Ni  Ni6  1  0.821359  0.178641  0.250000  1
  Ni  Ni7  1  0.179734  0.820266  0.750000  1
