# generated using pymatgen
data_Y3U5Re3TcB24
_symmetry_space_group_name_H-M   'P 1'
_cell_length_a   3.63861300
_cell_length_b   9.30585609
_cell_length_c   11.41396165
_cell_angle_alpha   89.98881602
_cell_angle_beta   90.00000000
_cell_angle_gamma   90.00000000
_symmetry_Int_Tables_number   1
_chemical_formula_structural   Y3U5Re3TcB24
_chemical_formula_sum   'Y3 U5 Re3 Tc1 B24'
_cell_volume   386.48140188
_cell_formula_units_Z   1
loop_
 _symmetry_equiv_pos_site_id
 _symmetry_equiv_pos_as_xyz
  1  'x, y, z'
loop_
 _atom_site_type_symbol
 _atom_site_label
 _atom_site_symmetry_multiplicity
 _atom_site_fract_x
 _atom_site_fract_y
 _atom_site_fract_z
 _atom_site_occupancy
  Y  Y0  1  0.000000  0.336946  0.407591  1
  Y  Y1  1  0.000000  0.663391  0.591901  1
  Y  Y2  1  0.000000  0.835564  0.093068  1
  U  U3  1  0.000000  0.163566  0.907171  1
  U  U4  1  0.000000  0.956070  0.396898  1
  U  U5  1  0.000000  0.042744  0.603336  1
  U  U6  1  0.000000  0.457578  0.103883  1
  U  U7  1  0.000000  0.543579  0.897358  1
  Re  Re8  1  0.000000  0.352320  0.683896  1
  Re  Re9  1  0.000000  0.146042  0.177923  1
  Re  Re10  1  0.000000  0.857647  0.819609  1
  Tc  Tc11  1  0.000000  0.645443  0.318810  1
  B  B12  1  0.500000  0.551705  0.430943  1
  B  B13  1  0.500000  0.447884  0.569605  1
  B  B14  1  0.500000  0.052514  0.067570  1
  B  B15  1  0.500000  0.950317  0.930445  1
  B  B16  1  0.500000  0.742824  0.423094  1
  B  B17  1  0.500000  0.257226  0.576722  1
  B  B18  1  0.500000  0.242781  0.075765  1
  B  B19  1  0.500000  0.756540  0.922792  1
  B  B20  1  0.500000  0.801932  0.275214  1
  B  B21  1  0.500000  0.196820  0.726255  1
  B  B22  1  0.500000  0.302044  0.224812  1
  B  B23  1  0.500000  0.698253  0.775000  1
  B  B24  1  0.500000  0.643529  0.188879  1
  B  B25  1  0.500000  0.355145  0.812135  1
  B  B26  1  0.500000  0.143769  0.310844  1
  B  B27  1  0.500000  0.855622  0.688527  1
  B  B28  1  0.500000  0.988937  0.219524  1
  B  B29  1  0.500000  0.013409  0.781042  1
  B  B30  1  0.500000  0.488520  0.280715  1
  B  B31  1  0.500000  0.511561  0.719568  1
  B  B32  1  0.500000  0.640709  0.039005  1
  B  B33  1  0.500000  0.357280  0.960467  1
  B  B34  1  0.500000  0.140062  0.460770  1
  B  B35  1  0.500000  0.859725  0.538864  1
