# generated using pymatgen
data_Hf3Zr6Ta2Re2O3
_symmetry_space_group_name_H-M   'P 1'
_cell_length_a   8.64124100
_cell_length_b   8.72531295
_cell_length_c   8.52541800
_cell_angle_alpha   90.00000000
_cell_angle_beta   90.00000000
_cell_angle_gamma   119.67993852
_symmetry_Int_Tables_number   1
_chemical_formula_structural   Hf3Zr6Ta2Re2O3
_chemical_formula_sum   'Hf6 Zr12 Ta4 Re4 O6'
_cell_volume   558.46388567
_cell_formula_units_Z   2
loop_
 _symmetry_equiv_pos_site_id
 _symmetry_equiv_pos_as_xyz
  1  'x, y, z'
loop_
 _atom_site_type_symbol
 _atom_site_label
 _atom_site_symmetry_multiplicity
 _atom_site_fract_x
 _atom_site_fract_y
 _atom_site_fract_z
 _atom_site_occupancy
  Hf  Hf0  1  0.454219  0.908431  0.250000  1
  Hf  Hf1  1  0.545781  0.091569  0.750000  1
  Hf  Hf2  1  0.093549  0.547306  0.250000  1
  Hf  Hf3  1  0.906451  0.452694  0.750000  1
  Hf  Hf4  1  0.453701  0.547303  0.250000  1
  Hf  Hf5  1  0.546299  0.452697  0.750000  1
  Zr  Zr6  1  0.203759  0.407509  0.563684  1
  Zr  Zr7  1  0.796241  0.592491  0.436316  1
  Zr  Zr8  1  0.589334  0.795484  0.562339  1
  Zr  Zr9  1  0.796241  0.592491  0.063684  1
  Zr  Zr10  1  0.410666  0.204516  0.437661  1
  Zr  Zr11  1  0.203759  0.407509  0.936316  1
  Zr  Zr12  1  0.206150  0.795480  0.562348  1
  Zr  Zr13  1  0.410666  0.204516  0.062339  1
  Zr  Zr14  1  0.793850  0.204520  0.437652  1
  Zr  Zr15  1  0.589334  0.795484  0.937661  1
  Zr  Zr16  1  0.793850  0.204520  0.062348  1
  Zr  Zr17  1  0.206150  0.795480  0.937652  1
  Ta  Ta18  1  0.110192  0.220408  0.250000  1
  Ta  Ta19  1  0.889808  0.779592  0.750000  1
  Ta  Ta20  1  0.000000  0.000000  0.000000  1
  Ta  Ta21  1  0.000000  0.000000  0.500000  1
  Re  Re22  1  0.774690  0.885623  0.250000  1
  Re  Re23  1  0.225310  0.114377  0.750000  1
  Re  Re24  1  0.110914  0.885635  0.250000  1
  Re  Re25  1  0.889086  0.114365  0.750000  1
  O  O26  1  0.500000  0.000000  0.000000  1
  O  O27  1  0.000000  0.500000  0.000000  1
  O  O28  1  0.500000  0.000000  0.500000  1
  O  O29  1  0.500000  0.500000  0.000000  1
  O  O30  1  0.000000  0.500000  0.500000  1
  O  O31  1  0.500000  0.500000  0.500000  1
