# generated using pymatgen
data_Ho3Sn3GeIr2
_symmetry_space_group_name_H-M   'P 1'
_cell_length_a   7.38716900
_cell_length_b   7.38716774
_cell_length_c   4.16470900
_cell_angle_alpha   90.00000000
_cell_angle_beta   90.00000000
_cell_angle_gamma   119.99999878
_symmetry_Int_Tables_number   1
_chemical_formula_structural   Ho3Sn3GeIr2
_chemical_formula_sum   'Ho3 Sn3 Ge1 Ir2'
_cell_volume   196.82093634
_cell_formula_units_Z   1
loop_
 _symmetry_equiv_pos_site_id
 _symmetry_equiv_pos_as_xyz
  1  'x, y, z'
loop_
 _atom_site_type_symbol
 _atom_site_label
 _atom_site_symmetry_multiplicity
 _atom_site_fract_x
 _atom_site_fract_y
 _atom_site_fract_z
 _atom_site_occupancy
  Ho  Ho0  1  0.400540  0.414086  0.500000  1
  Ho  Ho1  1  0.585914  0.986454  0.500000  1
  Ho  Ho2  1  0.013546  0.599460  0.500000  1
  Sn  Sn3  1  0.741783  0.755411  0.000000  1
  Sn  Sn4  1  0.244589  0.986372  0.000000  1
  Sn  Sn5  1  0.013628  0.258217  0.000000  1
  Ge  Ge6  1  0.666667  0.333333  0.000000  1
  Ir  Ir7  1  0.333333  0.666667  0.000000  1
  Ir  Ir8  1  0.000000  0.000000  0.500000  1
