# generated using pymatgen
data_YHoTcB6
_symmetry_space_group_name_H-M   'P 1'
_cell_length_a   3.68020800
_cell_length_b   9.15476000
_cell_length_c   11.53775400
_cell_angle_alpha   90.00000000
_cell_angle_beta   90.00000000
_cell_angle_gamma   90.00000000
_symmetry_Int_Tables_number   1
_chemical_formula_structural   YHoTcB6
_chemical_formula_sum   'Y4 Ho4 Tc4 B24'
_cell_volume   388.72332729
_cell_formula_units_Z   4
loop_
 _symmetry_equiv_pos_site_id
 _symmetry_equiv_pos_as_xyz
  1  'x, y, z'
loop_
 _atom_site_type_symbol
 _atom_site_label
 _atom_site_symmetry_multiplicity
 _atom_site_fract_x
 _atom_site_fract_y
 _atom_site_fract_z
 _atom_site_occupancy
  Y  Y0  1  0.000000  0.323850  0.414328  1
  Y  Y1  1  0.000000  0.676150  0.585672  1
  Y  Y2  1  0.000000  0.823850  0.085672  1
  Y  Y3  1  0.000000  0.176150  0.914328  1
  Ho  Ho4  1  0.000000  0.942999  0.369465  1
  Ho  Ho5  1  0.000000  0.057001  0.630535  1
  Ho  Ho6  1  0.000000  0.442999  0.130535  1
  Ho  Ho7  1  0.000000  0.557001  0.869465  1
  Tc  Tc8  1  0.000000  0.639107  0.320327  1
  Tc  Tc9  1  0.000000  0.360893  0.679673  1
  Tc  Tc10  1  0.000000  0.139107  0.179673  1
  Tc  Tc11  1  0.000000  0.860893  0.820327  1
  B  B12  1  0.500000  0.553694  0.432681  1
  B  B13  1  0.500000  0.446306  0.567319  1
  B  B14  1  0.500000  0.053694  0.067319  1
  B  B15  1  0.500000  0.946306  0.932681  1
  B  B16  1  0.500000  0.749180  0.418271  1
  B  B17  1  0.500000  0.250820  0.581729  1
  B  B18  1  0.500000  0.249180  0.081729  1
  B  B19  1  0.500000  0.750820  0.918271  1
  B  B20  1  0.500000  0.792130  0.265496  1
  B  B21  1  0.500000  0.207870  0.734504  1
  B  B22  1  0.500000  0.292130  0.234504  1
  B  B23  1  0.500000  0.707870  0.765496  1
  B  B24  1  0.500000  0.630659  0.185715  1
  B  B25  1  0.500000  0.369341  0.814285  1
  B  B26  1  0.500000  0.130659  0.314285  1
  B  B27  1  0.500000  0.869341  0.685715  1
  B  B28  1  0.500000  0.982378  0.211955  1
  B  B29  1  0.500000  0.017622  0.788045  1
  B  B30  1  0.500000  0.482378  0.288045  1
  B  B31  1  0.500000  0.517622  0.711955  1
  B  B32  1  0.500000  0.599372  0.027761  1
  B  B33  1  0.500000  0.400628  0.972239  1
  B  B34  1  0.500000  0.099372  0.472239  1
  B  B35  1  0.500000  0.900628  0.527761  1
