# generated using pymatgen
data_RbZrCr9Se16
_symmetry_space_group_name_H-M   'P 1'
_cell_length_a   7.34653068
_cell_length_b   9.79248900
_cell_length_c   9.95467277
_cell_angle_alpha   72.34517184
_cell_angle_beta   68.37891029
_cell_angle_gamma   79.21824963
_symmetry_Int_Tables_number   1
_chemical_formula_structural   RbZrCr9Se16
_chemical_formula_sum   'Rb1 Zr1 Cr9 Se16'
_cell_volume   632.10591974
_cell_formula_units_Z   1
loop_
 _symmetry_equiv_pos_site_id
 _symmetry_equiv_pos_as_xyz
  1  'x, y, z'
loop_
 _atom_site_type_symbol
 _atom_site_label
 _atom_site_symmetry_multiplicity
 _atom_site_fract_x
 _atom_site_fract_y
 _atom_site_fract_z
 _atom_site_occupancy
  Rb  Rb0  1  0.001470  0.002187  0.995602  1
  Zr  Zr1  1  0.836321  0.701972  0.475728  1
  Cr  Cr2  1  0.338998  0.680053  0.481105  1
  Cr  Cr3  1  0.659726  0.316204  0.520693  1
  Cr  Cr4  1  0.162614  0.314988  0.520211  1
  Cr  Cr5  1  0.815146  0.406835  0.164684  1
  Cr  Cr6  1  0.317263  0.404019  0.165253  1
  Cr  Cr7  1  0.684929  0.590385  0.835564  1
  Cr  Cr8  1  0.182184  0.587346  0.841282  1
  Cr  Cr9  1  0.501067  0.998647  0.500400  1
  Cr  Cr10  1  0.999407  0.999331  0.500185  1
  Se  Se11  1  0.787292  0.151141  0.348992  1
  Se  Se12  1  0.287576  0.149444  0.351710  1
  Se  Se13  1  0.699043  0.859312  0.672829  1
  Se  Se14  1  0.213035  0.845992  0.650723  1
  Se  Se15  1  0.960866  0.473282  0.341523  1
  Se  Se16  1  0.459618  0.475131  0.343807  1
  Se  Se17  1  0.532335  0.518624  0.661149  1
  Se  Se18  1  0.046469  0.518669  0.661273  1
  Se  Se19  1  0.616833  0.836281  0.314846  1
  Se  Se20  1  0.149254  0.836535  0.314959  1
  Se  Se21  1  0.874087  0.171913  0.666215  1
  Se  Se22  1  0.374741  0.170685  0.666400  1
  Se  Se23  1  0.342088  0.650818  0.992479  1
  Se  Se24  1  0.840374  0.652848  0.991524  1
  Se  Se25  1  0.158022  0.341977  0.012121  1
  Se  Se26  1  0.659242  0.345382  0.008744  1
