# generated using pymatgen
data_Pr2Y2Ho2RuI10
_symmetry_space_group_name_H-M   'P 1'
_cell_length_a   7.83255558
_cell_length_b   9.88497940
_cell_length_c   9.84557598
_cell_angle_alpha   106.59792451
_cell_angle_beta   95.88438000
_cell_angle_gamma   105.15265418
_symmetry_Int_Tables_number   1
_chemical_formula_structural   Pr2Y2Ho2RuI10
_chemical_formula_sum   'Pr2 Y2 Ho2 Ru1 I10'
_cell_volume   692.07214861
_cell_formula_units_Z   1
loop_
 _symmetry_equiv_pos_site_id
 _symmetry_equiv_pos_as_xyz
  1  'x, y, z'
loop_
 _atom_site_type_symbol
 _atom_site_label
 _atom_site_symmetry_multiplicity
 _atom_site_fract_x
 _atom_site_fract_y
 _atom_site_fract_z
 _atom_site_occupancy
  Pr  Pr0  1  0.114074  0.043134  0.769011  1
  Pr  Pr1  1  0.885016  0.956622  0.230555  1
  Y  Y2  1  0.351895  0.127329  0.166812  1
  Y  Y3  1  0.030040  0.710082  0.913112  1
  Ho  Ho4  1  0.969758  0.286398  0.085874  1
  Ho  Ho5  1  0.651860  0.874354  0.834729  1
  Ru  Ru6  1  0.000013  0.999940  0.999844  1
  I  I7  1  0.344539  0.447006  0.268300  1
  I  I8  1  0.651865  0.554355  0.731073  1
  I  I9  1  0.734455  0.911840  0.546643  1
  I  I10  1  0.084261  0.377687  0.824945  1
  I  I11  1  0.915358  0.621991  0.175586  1
  I  I12  1  0.450186  0.818230  0.089108  1
  I  I13  1  0.550171  0.181375  0.910139  1
  I  I14  1  0.775362  0.261035  0.340565  1
  I  I15  1  0.226906  0.740910  0.659986  1
  I  I16  1  0.264243  0.087712  0.453716  1
