# generated using pymatgen
data_Ba5Tb4Pr4Mn4O21
_symmetry_space_group_name_H-M   'P 1'
_cell_length_a   10.52513941
_cell_length_b   10.52515757
_cell_length_c   10.52501822
_cell_angle_alpha   94.52619611
_cell_angle_beta   94.52536885
_cell_angle_gamma   147.37176049
_symmetry_Int_Tables_number   1
_chemical_formula_structural   Ba5Tb4Pr4Mn4O21
_chemical_formula_sum   'Ba5 Tb4 Pr4 Mn4 O21'
_cell_volume   603.34984665
_cell_formula_units_Z   1
loop_
 _symmetry_equiv_pos_site_id
 _symmetry_equiv_pos_as_xyz
  1  'x, y, z'
loop_
 _atom_site_type_symbol
 _atom_site_label
 _atom_site_symmetry_multiplicity
 _atom_site_fract_x
 _atom_site_fract_y
 _atom_site_fract_z
 _atom_site_occupancy
  Ba  Ba0  1  0.000000  0.000000  0.000000  1
  Ba  Ba1  1  0.138166  0.529093  0.667263  1
  Ba  Ba2  1  0.861834  0.470907  0.332737  1
  Ba  Ba3  1  0.470897  0.138161  0.609057  1
  Ba  Ba4  1  0.529103  0.861839  0.390943  1
  Tb  Tb5  1  0.360345  0.412900  0.773240  1
  Tb  Tb6  1  0.639655  0.587100  0.226760  1
  Tb  Tb7  1  0.587095  0.360347  0.947436  1
  Tb  Tb8  1  0.412905  0.639653  0.052564  1
  Pr  Pr9  1  0.168464  0.247424  0.415885  1
  Pr  Pr10  1  0.831536  0.752576  0.584115  1
  Pr  Pr11  1  0.752574  0.168468  0.921043  1
  Pr  Pr12  1  0.247426  0.831532  0.078957  1
  Mn  Mn13  1  0.248864  0.039986  0.288893  1
  Mn  Mn14  1  0.751136  0.960014  0.711107  1
  Mn  Mn15  1  0.960006  0.248906  0.208917  1
  Mn  Mn16  1  0.039994  0.751094  0.791083  1
  O  O17  1  0.500000  0.500000  0.000000  1
  O  O18  1  0.966915  0.624419  0.591327  1
  O  O19  1  0.033085  0.375581  0.408673  1
  O  O20  1  0.375570  0.966911  0.342480  1
  O  O21  1  0.624430  0.033089  0.657520  1
  O  O22  1  0.299167  0.429509  0.220418  1
  O  O23  1  0.209098  0.078757  0.779583  1
  O  O24  1  0.078764  0.299184  0.869676  1
  O  O25  1  0.429512  0.209092  0.130323  1
  O  O26  1  0.700833  0.570491  0.779582  1
  O  O27  1  0.790902  0.921243  0.220417  1
  O  O28  1  0.921236  0.700816  0.130324  1
  O  O29  1  0.570488  0.790908  0.869677  1
  O  O30  1  0.492615  0.602445  0.600373  1
  O  O31  1  0.002078  0.892246  0.399626  1
  O  O32  1  0.892242  0.492600  0.890172  1
  O  O33  1  0.602427  0.002069  0.109827  1
  O  O34  1  0.507385  0.397555  0.399627  1
  O  O35  1  0.997922  0.107754  0.600374  1
  O  O36  1  0.107758  0.507400  0.109828  1
  O  O37  1  0.397573  0.997931  0.890173  1
