# generated using pymatgen
data_YbAlClO2
_symmetry_space_group_name_H-M   'P 1'
_cell_length_a   5.15083078
_cell_length_b   5.15083027
_cell_length_c   8.78632695
_cell_angle_alpha   102.47962247
_cell_angle_beta   102.47961871
_cell_angle_gamma   41.68585759
_symmetry_Int_Tables_number   1
_chemical_formula_structural   YbAlClO2
_chemical_formula_sum   'Yb2 Al2 Cl2 O4'
_cell_volume   150.82803099
_cell_formula_units_Z   2
loop_
 _symmetry_equiv_pos_site_id
 _symmetry_equiv_pos_as_xyz
  1  'x, y, z'
loop_
 _atom_site_type_symbol
 _atom_site_label
 _atom_site_symmetry_multiplicity
 _atom_site_fract_x
 _atom_site_fract_y
 _atom_site_fract_z
 _atom_site_occupancy
  Yb  Yb0  1  0.395211  0.395211  0.209628  1
  Yb  Yb1  1  0.604789  0.604789  0.790372  1
  Al  Al2  1  0.860997  0.860997  0.494080  1
  Al  Al3  1  0.139003  0.139003  0.505920  1
  Cl  Cl4  1  0.663652  0.663652  0.123575  1
  Cl  Cl5  1  0.336349  0.336349  0.876425  1
  O  O6  1  0.979544  0.979544  0.348978  1
  O  O7  1  0.311146  0.311146  0.444470  1
  O  O8  1  0.688855  0.688855  0.555530  1
  O  O9  1  0.020457  0.020457  0.651022  1
