# generated using pymatgen
data_Nd2LuCo8TcP6
_symmetry_space_group_name_H-M   'P 1'
_cell_length_a   3.74029300
_cell_length_b   10.57306800
_cell_length_c   12.31082000
_cell_angle_alpha   90.00000000
_cell_angle_beta   90.00000000
_cell_angle_gamma   90.00000000
_symmetry_Int_Tables_number   1
_chemical_formula_structural   Nd2LuCo8TcP6
_chemical_formula_sum   'Nd4 Lu2 Co16 Tc2 P12'
_cell_volume   486.84827016
_cell_formula_units_Z   2
loop_
 _symmetry_equiv_pos_site_id
 _symmetry_equiv_pos_as_xyz
  1  'x, y, z'
loop_
 _atom_site_type_symbol
 _atom_site_label
 _atom_site_symmetry_multiplicity
 _atom_site_fract_x
 _atom_site_fract_y
 _atom_site_fract_z
 _atom_site_occupancy
  Nd  Nd0  1  0.000000  0.500000  0.522631  1
  Nd  Nd1  1  0.500000  0.000000  0.474844  1
  Nd  Nd2  1  0.000000  0.682930  0.794468  1
  Nd  Nd3  1  0.000000  0.317070  0.794468  1
  Lu  Lu4  1  0.500000  0.818339  0.205112  1
  Lu  Lu5  1  0.500000  0.181661  0.205112  1
  Co  Co6  1  0.500000  0.500000  0.704511  1
  Co  Co7  1  0.000000  0.000000  0.293532  1
  Co  Co8  1  0.000000  0.500000  0.991438  1
  Co  Co9  1  0.500000  0.000000  0.016822  1
  Co  Co10  1  0.500000  0.330174  0.994780  1
  Co  Co11  1  0.500000  0.669826  0.994780  1
  Co  Co12  1  0.000000  0.166334  0.013577  1
  Co  Co13  1  0.000000  0.833666  0.013577  1
  Co  Co14  1  0.500000  0.295630  0.425880  1
  Co  Co15  1  0.500000  0.704370  0.425880  1
  Co  Co16  1  0.000000  0.203008  0.566432  1
  Co  Co17  1  0.000000  0.796992  0.566432  1
  Co  Co18  1  0.500000  0.881336  0.708778  1
  Co  Co19  1  0.500000  0.118664  0.708778  1
  Co  Co20  1  0.000000  0.621485  0.288221  1
  Co  Co21  1  0.000000  0.378515  0.288221  1
  Tc  Tc22  1  0.500000  0.500000  0.155284  1
  Tc  Tc23  1  0.000000  0.000000  0.846373  1
  P  P24  1  0.500000  0.500000  0.887719  1
  P  P25  1  0.000000  0.000000  0.120566  1
  P  P26  1  0.500000  0.500000  0.344002  1
  P  P27  1  0.000000  0.000000  0.655064  1
  P  P28  1  0.500000  0.306388  0.612273  1
  P  P29  1  0.500000  0.693612  0.612273  1
  P  P30  1  0.000000  0.190383  0.378964  1
  P  P31  1  0.000000  0.809617  0.378964  1
  P  P32  1  0.500000  0.849157  0.896656  1
  P  P33  1  0.500000  0.150843  0.896656  1
  P  P34  1  0.000000  0.656013  0.108463  1
  P  P35  1  0.000000  0.343987  0.108463  1
