# generated using pymatgen
data_BaNd2(FeH6)2
_symmetry_space_group_name_H-M   'P 1'
_cell_length_a   4.97920600
_cell_length_b   4.97920696
_cell_length_c   8.40657600
_cell_angle_alpha   90.00000000
_cell_angle_beta   90.00000000
_cell_angle_gamma   119.99999359
_symmetry_Int_Tables_number   1
_chemical_formula_structural   BaNd2(FeH6)2
_chemical_formula_sum   'Ba1 Nd2 Fe2 H12'
_cell_volume   180.49703658
_cell_formula_units_Z   1
loop_
 _symmetry_equiv_pos_site_id
 _symmetry_equiv_pos_as_xyz
  1  'x, y, z'
loop_
 _atom_site_type_symbol
 _atom_site_label
 _atom_site_symmetry_multiplicity
 _atom_site_fract_x
 _atom_site_fract_y
 _atom_site_fract_z
 _atom_site_occupancy
  Ba  Ba0  1  0.000000  0.000000  0.000000  1
  Nd  Nd1  1  0.666667  0.333333  0.362250  1
  Nd  Nd2  1  0.333333  0.666667  0.637750  1
  Fe  Fe3  1  0.666667  0.333333  0.726079  1
  Fe  Fe4  1  0.333333  0.666667  0.273921  1
  H  H5  1  0.177973  0.822027  0.378213  1
  H  H6  1  0.644054  0.822027  0.378213  1
  H  H7  1  0.177973  0.355946  0.378213  1
  H  H8  1  0.822027  0.177973  0.621787  1
  H  H9  1  0.355946  0.177973  0.621787  1
  H  H10  1  0.822027  0.644054  0.621787  1
  H  H11  1  0.520974  0.041948  0.843277  1
  H  H12  1  0.520974  0.479026  0.843277  1
  H  H13  1  0.958052  0.479026  0.843277  1
  H  H14  1  0.479026  0.958052  0.156723  1
  H  H15  1  0.479026  0.520974  0.156723  1
  H  H16  1  0.041948  0.520974  0.156723  1
