# generated using pymatgen
data_Dy2HoEr7Ru4
_symmetry_space_group_name_H-M   'P 1'
_cell_length_a   6.28751509
_cell_length_b   7.25301653
_cell_length_c   8.41368702
_cell_angle_alpha   96.78377869
_cell_angle_beta   112.04475082
_cell_angle_gamma   89.99045988
_symmetry_Int_Tables_number   1
_chemical_formula_structural   Dy2HoEr7Ru4
_chemical_formula_sum   'Dy2 Ho1 Er7 Ru4'
_cell_volume   352.74501361
_cell_formula_units_Z   1
loop_
 _symmetry_equiv_pos_site_id
 _symmetry_equiv_pos_as_xyz
  1  'x, y, z'
loop_
 _atom_site_type_symbol
 _atom_site_label
 _atom_site_symmetry_multiplicity
 _atom_site_fract_x
 _atom_site_fract_y
 _atom_site_fract_z
 _atom_site_occupancy
  Dy  Dy0  1  0.977534  0.915841  0.186642  1
  Dy  Dy1  1  0.209429  0.415748  0.187123  1
  Ho  Ho2  1  0.790929  0.584178  0.812473  1
  Er  Er3  1  0.021917  0.084562  0.813315  1
  Er  Er4  1  0.205714  0.684716  0.565869  1
  Er  Er5  1  0.640329  0.815553  0.435008  1
  Er  Er6  1  0.794510  0.315170  0.434615  1
  Er  Er7  1  0.359696  0.184752  0.565722  1
  Er  Er8  1  0.419509  0.749788  0.999579  1
  Er  Er9  1  0.580043  0.250197  0.999882  1
  Ru  Ru10  1  0.602440  0.924541  0.778973  1
  Ru  Ru11  1  0.822344  0.576430  0.220900  1
  Ru  Ru12  1  0.398495  0.075520  0.220691  1
  Ru  Ru13  1  0.177110  0.423006  0.779209  1
