# generated using pymatgen
data_K4CaV3F14
_symmetry_space_group_name_H-M   'P 1'
_cell_length_a   7.99934811
_cell_length_b   7.99934676
_cell_length_c   7.86999338
_cell_angle_alpha   120.37640328
_cell_angle_beta   117.30585557
_cell_angle_gamma   92.93346321
_symmetry_Int_Tables_number   1
_chemical_formula_structural   K4CaV3F14
_chemical_formula_sum   'K4 Ca1 V3 F14'
_cell_volume   358.75237965
_cell_formula_units_Z   1
loop_
 _symmetry_equiv_pos_site_id
 _symmetry_equiv_pos_as_xyz
  1  'x, y, z'
loop_
 _atom_site_type_symbol
 _atom_site_label
 _atom_site_symmetry_multiplicity
 _atom_site_fract_x
 _atom_site_fract_y
 _atom_site_fract_z
 _atom_site_occupancy
  K  K0  1  0.500000  0.000000  0.000000  1
  K  K1  1  0.500000  0.500000  0.500000  1
  K  K2  1  0.000000  0.000000  0.000000  1
  K  K3  1  0.500000  0.500000  0.000000  1
  Ca  Ca4  1  0.000000  0.000000  0.500000  1
  V  V5  1  0.500000  0.000000  0.500000  1
  V  V6  1  0.000000  0.500000  0.500000  1
  V  V7  1  0.000000  0.500000  0.000000  1
  F  F8  1  0.114433  0.264442  0.878875  1
  F  F9  1  0.885567  0.735558  0.121125  1
  F  F10  1  0.704137  0.416537  0.291526  1
  F  F11  1  0.295863  0.583463  0.708474  1
  F  F12  1  0.625011  0.912610  0.708474  1
  F  F13  1  0.374989  0.087390  0.291526  1
  F  F14  1  0.950634  0.200126  0.370515  1
  F  F15  1  0.039204  0.437781  0.245691  1
  F  F16  1  0.307909  0.706487  0.245691  1
  F  F17  1  0.670389  0.919881  0.370515  1
  F  F18  1  0.049366  0.799874  0.629485  1
  F  F19  1  0.960796  0.562219  0.754309  1
  F  F20  1  0.692091  0.293513  0.754309  1
  F  F21  1  0.329611  0.080119  0.629485  1
