# generated using pymatgen
data_La4In(Ga2Cu)5
_symmetry_space_group_name_H-M   'P 1'
_cell_length_a   8.60236926
_cell_length_b   8.60236923
_cell_length_c   8.60236900
_cell_angle_alpha   137.87869307
_cell_angle_beta   105.63933331
_cell_angle_gamma   89.35211025
_symmetry_Int_Tables_number   1
_chemical_formula_structural   La4In(Ga2Cu)5
_chemical_formula_sum   'La4 In1 Ga10 Cu5'
_cell_volume   393.22112550
_cell_formula_units_Z   1
loop_
 _symmetry_equiv_pos_site_id
 _symmetry_equiv_pos_as_xyz
  1  'x, y, z'
loop_
 _atom_site_type_symbol
 _atom_site_label
 _atom_site_symmetry_multiplicity
 _atom_site_fract_x
 _atom_site_fract_y
 _atom_site_fract_z
 _atom_site_occupancy
  La  La0  1  0.633621  0.875344  0.763772  1
  La  La1  1  0.366379  0.130150  0.241723  1
  La  La2  1  0.111573  0.369850  0.736228  1
  La  La3  1  0.888427  0.624656  0.258277  1
  In  In4  1  0.500000  0.250000  0.750000  1
  Ga  Ga5  1  0.254590  0.004590  0.750000  1
  Ga  Ga6  1  0.741369  0.991369  0.250000  1
  Ga  Ga7  1  0.745410  0.495410  0.750000  1
  Ga  Ga8  1  0.258631  0.508631  0.250000  1
  Ga  Ga9  1  0.467409  0.639073  0.865911  1
  Ga  Ga10  1  0.532591  0.398502  0.171666  1
  Ga  Ga11  1  0.773163  0.101498  0.634089  1
  Ga  Ga12  1  0.226837  0.860927  0.328334  1
  Ga  Ga13  1  0.000000  0.750000  0.750000  1
  Ga  Ga14  1  0.000000  0.250000  0.250000  1
  Cu  Cu15  1  0.244103  0.628473  0.614610  1
  Cu  Cu16  1  0.755897  0.370507  0.384371  1
  Cu  Cu17  1  0.013863  0.129493  0.885390  1
  Cu  Cu18  1  0.986137  0.871527  0.115629  1
  Cu  Cu19  1  0.500000  0.750000  0.250000  1
