# generated using pymatgen
data_LaTb2Dy4CoI12
_symmetry_space_group_name_H-M   'P 1'
_cell_length_a   9.79759753
_cell_length_b   9.79623500
_cell_length_c   9.79957198
_cell_angle_alpha   106.31501480
_cell_angle_beta   106.33186364
_cell_angle_gamma   106.31401007
_symmetry_Int_Tables_number   1
_chemical_formula_structural   LaTb2Dy4CoI12
_chemical_formula_sum   'La1 Tb2 Dy4 Co1 I12'
_cell_volume   797.38435077
_cell_formula_units_Z   1
loop_
 _symmetry_equiv_pos_site_id
 _symmetry_equiv_pos_as_xyz
  1  'x, y, z'
loop_
 _atom_site_type_symbol
 _atom_site_label
 _atom_site_symmetry_multiplicity
 _atom_site_fract_x
 _atom_site_fract_y
 _atom_site_fract_z
 _atom_site_occupancy
  La  La0  1  0.996180  0.996239  0.996141  1
  Tb  Tb1  1  0.516780  0.589028  0.784601  1
  Tb  Tb2  1  0.784678  0.516944  0.588754  1
  Dy  Dy3  1  0.588190  0.783237  0.516541  1
  Dy  Dy4  1  0.481067  0.409827  0.215386  1
  Dy  Dy5  1  0.215390  0.481251  0.409456  1
  Dy  Dy6  1  0.409414  0.215148  0.480945  1
  Co  Co7  1  0.499353  0.499442  0.499354  1
  I  I8  1  0.276376  0.822435  0.426408  1
  I  I9  1  0.426175  0.275586  0.822243  1
  I  I10  1  0.822333  0.426184  0.275595  1
  I  I11  1  0.721863  0.175423  0.571834  1
  I  I12  1  0.572033  0.722344  0.176415  1
  I  I13  1  0.175775  0.571939  0.721986  1
  I  I14  1  0.044894  0.123396  0.350672  1
  I  I15  1  0.350705  0.044898  0.123441  1
  I  I16  1  0.123391  0.350664  0.044880  1
  I  I17  1  0.953039  0.874516  0.643036  1
  I  I18  1  0.643231  0.953611  0.874003  1
  I  I19  1  0.874501  0.643253  0.953675  1
