# generated using pymatgen
data_Na3Pt(NO3)8
_symmetry_space_group_name_H-M   'P 1'
_cell_length_a   7.87664542
_cell_length_b   7.87664431
_cell_length_c   7.87664500
_cell_angle_alpha   91.21653784
_cell_angle_beta   91.21653767
_cell_angle_gamma   91.21654555
_symmetry_Int_Tables_number   1
_chemical_formula_structural   Na3Pt(NO3)8
_chemical_formula_sum   'Na3 Pt1 N8 O24'
_cell_volume   488.34393619
_cell_formula_units_Z   1
loop_
 _symmetry_equiv_pos_site_id
 _symmetry_equiv_pos_as_xyz
  1  'x, y, z'
loop_
 _atom_site_type_symbol
 _atom_site_label
 _atom_site_symmetry_multiplicity
 _atom_site_fract_x
 _atom_site_fract_y
 _atom_site_fract_z
 _atom_site_occupancy
  Na  Na0  1  0.500000  0.500000  0.000000  1
  Na  Na1  1  0.000000  0.500000  0.500000  1
  Na  Na2  1  0.500000  0.000000  0.500000  1
  Pt  Pt3  1  0.000000  0.000000  0.000000  1
  N  N4  1  0.301838  0.153824  0.824898  1
  N  N5  1  0.824898  0.301838  0.153824  1
  N  N6  1  0.153824  0.824898  0.301838  1
  N  N7  1  0.667360  0.667360  0.667360  1
  N  N8  1  0.698162  0.846176  0.175102  1
  N  N9  1  0.175102  0.698162  0.846176  1
  N  N10  1  0.846176  0.175102  0.698162  1
  N  N11  1  0.332640  0.332640  0.332640  1
  O  O12  1  0.410032  0.269428  0.818520  1
  O  O13  1  0.818520  0.410032  0.269428  1
  O  O14  1  0.269428  0.818520  0.410032  1
  O  O15  1  0.198501  0.167482  0.957414  1
  O  O16  1  0.284889  0.034059  0.722160  1
  O  O17  1  0.722160  0.284889  0.034059  1
  O  O18  1  0.687242  0.547085  0.767699  1
  O  O19  1  0.167482  0.957414  0.198501  1
  O  O20  1  0.767699  0.687242  0.547085  1
  O  O21  1  0.957414  0.198501  0.167482  1
  O  O22  1  0.547085  0.767699  0.687242  1
  O  O23  1  0.034059  0.722160  0.284889  1
  O  O24  1  0.589968  0.730572  0.181480  1
  O  O25  1  0.181480  0.589968  0.730572  1
  O  O26  1  0.730572  0.181480  0.589968  1
  O  O27  1  0.801499  0.832518  0.042586  1
  O  O28  1  0.715111  0.965941  0.277840  1
  O  O29  1  0.277840  0.715111  0.965941  1
  O  O30  1  0.312758  0.452915  0.232301  1
  O  O31  1  0.832518  0.042586  0.801499  1
  O  O32  1  0.232301  0.312758  0.452915  1
  O  O33  1  0.042586  0.801499  0.832518  1
  O  O34  1  0.452915  0.232301  0.312758  1
  O  O35  1  0.965941  0.277840  0.715111  1
