# generated using pymatgen
data_PaFeH6
_symmetry_space_group_name_H-M   'P 1'
_cell_length_a   4.34050181
_cell_length_b   4.34050265
_cell_length_c   4.34032203
_cell_angle_alpha   59.06379848
_cell_angle_beta   59.06379437
_cell_angle_gamma   59.06277416
_symmetry_Int_Tables_number   1
_chemical_formula_structural   PaFeH6
_chemical_formula_sum   'Pa1 Fe1 H6'
_cell_volume   56.58640022
_cell_formula_units_Z   1
loop_
 _symmetry_equiv_pos_site_id
 _symmetry_equiv_pos_as_xyz
  1  'x, y, z'
loop_
 _atom_site_type_symbol
 _atom_site_label
 _atom_site_symmetry_multiplicity
 _atom_site_fract_x
 _atom_site_fract_y
 _atom_site_fract_z
 _atom_site_occupancy
  Pa  Pa0  1  0.500000  0.500000  0.500000  1
  Fe  Fe1  1  0.000000  0.000000  0.000000  1
  H  H2  1  0.560469  0.105228  0.105190  1
  H  H3  1  0.105228  0.560469  0.105190  1
  H  H4  1  0.894820  0.894820  0.439533  1
  H  H5  1  0.105180  0.105180  0.560466  1
  H  H6  1  0.894772  0.439530  0.894810  1
  H  H7  1  0.439530  0.894772  0.894810  1
