# generated using pymatgen
data_Ca20In3Ga8Sn
_symmetry_space_group_name_H-M   'P 1'
_cell_length_a   8.13085500
_cell_length_b   8.13085500
_cell_length_c   14.78414000
_cell_angle_alpha   90.00000000
_cell_angle_beta   90.00000000
_cell_angle_gamma   90.00000000
_symmetry_Int_Tables_number   1
_chemical_formula_structural   Ca20In3Ga8Sn
_chemical_formula_sum   'Ca20 In3 Ga8 Sn1'
_cell_volume   977.39136752
_cell_formula_units_Z   1
loop_
 _symmetry_equiv_pos_site_id
 _symmetry_equiv_pos_as_xyz
  1  'x, y, z'
loop_
 _atom_site_type_symbol
 _atom_site_label
 _atom_site_symmetry_multiplicity
 _atom_site_fract_x
 _atom_site_fract_y
 _atom_site_fract_z
 _atom_site_occupancy
  Ca  Ca0  1  0.677693  0.171556  0.107525  1
  Ca  Ca1  1  0.175566  0.674471  0.609083  1
  Ca  Ca2  1  0.322307  0.828444  0.107525  1
  Ca  Ca3  1  0.824434  0.325529  0.609083  1
  Ca  Ca4  1  0.828444  0.677693  0.107525  1
  Ca  Ca5  1  0.325529  0.175566  0.609083  1
  Ca  Ca6  1  0.171556  0.322307  0.107525  1
  Ca  Ca7  1  0.674471  0.824434  0.609083  1
  Ca  Ca8  1  0.828444  0.322307  0.892475  1
  Ca  Ca9  1  0.325529  0.824434  0.390917  1
  Ca  Ca10  1  0.171556  0.677693  0.892475  1
  Ca  Ca11  1  0.674471  0.175566  0.390917  1
  Ca  Ca12  1  0.677693  0.828444  0.892475  1
  Ca  Ca13  1  0.175566  0.325529  0.390917  1
  Ca  Ca14  1  0.322307  0.171556  0.892475  1
  Ca  Ca15  1  0.824434  0.674471  0.390917  1
  Ca  Ca16  1  0.500000  0.500000  0.753480  1
  Ca  Ca17  1  0.000000  0.000000  0.249899  1
  Ca  Ca18  1  0.000000  0.000000  0.750101  1
  Ca  Ca19  1  0.500000  0.500000  0.246520  1
  In  In20  1  0.500000  0.500000  0.500000  1
  In  In21  1  0.500000  0.500000  0.000000  1
  In  In22  1  0.000000  0.000000  0.500000  1
  Ga  Ga23  1  0.610163  0.111225  0.751987  1
  Ga  Ga24  1  0.111225  0.610163  0.248013  1
  Ga  Ga25  1  0.888775  0.389837  0.248013  1
  Ga  Ga26  1  0.389837  0.888775  0.751987  1
  Ga  Ga27  1  0.888775  0.610163  0.751987  1
  Ga  Ga28  1  0.389837  0.111225  0.248013  1
  Ga  Ga29  1  0.111225  0.389837  0.751987  1
  Ga  Ga30  1  0.610163  0.888775  0.248013  1
  Sn  Sn31  1  0.000000  0.000000  0.000000  1
