# generated using pymatgen
data_Tb3HoAl18VPd5
_symmetry_space_group_name_H-M   'P 1'
_cell_length_a   7.61659965
_cell_length_b   7.61758663
_cell_length_c   9.55217394
_cell_angle_alpha   89.55691272
_cell_angle_beta   89.53546931
_cell_angle_gamma   118.64564766
_symmetry_Int_Tables_number   1
_chemical_formula_structural   Tb3HoAl18VPd5
_chemical_formula_sum   'Tb3 Ho1 Al18 V1 Pd5'
_cell_volume   486.32396706
_cell_formula_units_Z   1
loop_
 _symmetry_equiv_pos_site_id
 _symmetry_equiv_pos_as_xyz
  1  'x, y, z'
loop_
 _atom_site_type_symbol
 _atom_site_label
 _atom_site_symmetry_multiplicity
 _atom_site_fract_x
 _atom_site_fract_y
 _atom_site_fract_z
 _atom_site_occupancy
  Tb  Tb0  1  0.995062  0.678369  0.247038  1
  Tb  Tb1  1  0.005131  0.321671  0.752890  1
  Tb  Tb2  1  0.678265  0.994949  0.247112  1
  Ho  Ho3  1  0.321270  0.005001  0.753189  1
  Al  Al4  1  0.132168  0.132107  0.246002  1
  Al  Al5  1  0.868313  0.868058  0.753971  1
  Al  Al6  1  0.004861  0.333548  0.074957  1
  Al  Al7  1  0.995616  0.666866  0.924731  1
  Al  Al8  1  0.998482  0.661499  0.577382  1
  Al  Al9  1  0.338670  0.001706  0.423112  1
  Al  Al10  1  0.001753  0.338759  0.422853  1
  Al  Al11  1  0.660933  0.998226  0.577400  1
  Al  Al12  1  0.666160  0.995209  0.924794  1
  Al  Al13  1  0.333581  0.004850  0.074600  1
  Al  Al14  1  0.333009  0.332746  0.552931  1
  Al  Al15  1  0.666992  0.666985  0.447462  1
  Al  Al16  1  0.669830  0.669838  0.049893  1
  Al  Al17  1  0.330236  0.329850  0.949710  1
  Al  Al18  1  0.341067  0.549084  0.250364  1
  Al  Al19  1  0.658652  0.450510  0.749620  1
  Al  Al20  1  0.549055  0.341022  0.250380  1
  Al  Al21  1  0.450724  0.659106  0.749607  1
  V  V22  1  0.000190  0.000019  0.999806  1
  Pd  Pd23  1  0.673280  0.326677  0.999943  1
  Pd  Pd24  1  0.326697  0.673368  0.999912  1
  Pd  Pd25  1  0.328274  0.671811  0.500085  1
  Pd  Pd26  1  0.671587  0.328154  0.500105  1
  Pd  Pd27  1  0.000139  0.000013  0.500151  1
