# generated using pymatgen
data_Sc9Ga5(TcGe)11
_symmetry_space_group_name_H-M   'P 1'
_cell_length_a   6.80180891
_cell_length_b   6.83303678
_cell_length_c   12.77517031
_cell_angle_alpha   89.91746268
_cell_angle_beta   90.00798642
_cell_angle_gamma   90.49528639
_symmetry_Int_Tables_number   1
_chemical_formula_structural   Sc9Ga5(TcGe)11
_chemical_formula_sum   'Sc9 Ga5 Tc11 Ge11'
_cell_volume   593.72891947
_cell_formula_units_Z   1
loop_
 _symmetry_equiv_pos_site_id
 _symmetry_equiv_pos_as_xyz
  1  'x, y, z'
loop_
 _atom_site_type_symbol
 _atom_site_label
 _atom_site_symmetry_multiplicity
 _atom_site_fract_x
 _atom_site_fract_y
 _atom_site_fract_z
 _atom_site_occupancy
  Sc  Sc0  1  0.478859  0.670535  0.592384  1
  Sc  Sc1  1  0.984426  0.828664  0.908278  1
  Sc  Sc2  1  0.516610  0.328778  0.089456  1
  Sc  Sc3  1  0.016984  0.175805  0.409898  1
  Sc  Sc4  1  0.515829  0.330694  0.410532  1
  Sc  Sc5  1  0.012716  0.176343  0.089649  1
  Sc  Sc6  1  0.479898  0.673552  0.908851  1
  Sc  Sc7  1  0.985991  0.830715  0.591590  1
  Sc  Sc8  1  0.661772  0.987620  0.249755  1
  Ga  Ga9  1  0.677951  0.954329  0.459342  1
  Ga  Ga10  1  0.463478  0.359500  0.751352  1
  Ga  Ga11  1  0.987496  0.133666  0.750288  1
  Ga  Ga12  1  0.518660  0.618590  0.250962  1
  Ga  Ga13  1  0.038569  0.864333  0.248435  1
  Tc  Tc14  1  0.679394  0.144197  0.631772  1
  Tc  Tc15  1  0.162854  0.359636  0.885537  1
  Tc  Tc16  1  0.339625  0.856936  0.122366  1
  Tc  Tc17  1  0.825233  0.648292  0.376663  1
  Tc  Tc18  1  0.333757  0.857036  0.376862  1
  Tc  Tc19  1  0.821715  0.647510  0.121374  1
  Tc  Tc20  1  0.680579  0.140445  0.870230  1
  Tc  Tc21  1  0.163868  0.357562  0.615201  1
  Tc  Tc22  1  0.830340  0.501536  0.749831  1
  Tc  Tc23  1  0.340212  0.982053  0.750112  1
  Tc  Tc24  1  0.162611  0.501979  0.249664  1
  Ge  Ge25  1  0.172517  0.555405  0.051431  1
  Ge  Ge26  1  0.330910  0.052878  0.947895  1
  Ge  Ge27  1  0.820312  0.452693  0.549275  1
  Ge  Ge28  1  0.336579  0.052246  0.551000  1
  Ge  Ge29  1  0.819757  0.452215  0.949592  1
  Ge  Ge30  1  0.679128  0.955588  0.042021  1
  Ge  Ge31  1  0.172103  0.555224  0.449037  1
  Ge  Ge32  1  0.690406  0.841406  0.749245  1
  Ge  Ge33  1  0.184556  0.641676  0.750005  1
  Ge  Ge34  1  0.302836  0.157126  0.249535  1
  Ge  Ge35  1  0.811469  0.353240  0.250579  1
