# generated using pymatgen
data_YbZr3(Al3Ir)6
_symmetry_space_group_name_H-M   'P 1'
_cell_length_a   7.48514753
_cell_length_b   7.48319790
_cell_length_c   9.33691200
_cell_angle_alpha   90.00000000
_cell_angle_beta   90.00000000
_cell_angle_gamma   119.68546729
_symmetry_Int_Tables_number   1
_chemical_formula_structural   YbZr3(Al3Ir)6
_chemical_formula_sum   'Yb1 Zr3 Al18 Ir6'
_cell_volume   454.34866420
_cell_formula_units_Z   1
loop_
 _symmetry_equiv_pos_site_id
 _symmetry_equiv_pos_as_xyz
  1  'x, y, z'
loop_
 _atom_site_type_symbol
 _atom_site_label
 _atom_site_symmetry_multiplicity
 _atom_site_fract_x
 _atom_site_fract_y
 _atom_site_fract_z
 _atom_site_occupancy
  Yb  Yb0  1  0.328066  0.005529  0.750000  1
  Zr  Zr1  1  0.995537  0.672900  0.250000  1
  Zr  Zr2  1  0.005720  0.328938  0.750000  1
  Zr  Zr3  1  0.670312  0.993594  0.250000  1
  Al  Al4  1  0.122871  0.123501  0.250000  1
  Al  Al5  1  0.871152  0.875618  0.750000  1
  Al  Al6  1  0.997958  0.334630  0.078368  1
  Al  Al7  1  0.000531  0.663713  0.925630  1
  Al  Al8  1  0.000531  0.663713  0.574370  1
  Al  Al9  1  0.335293  0.999207  0.421204  1
  Al  Al10  1  0.997958  0.334630  0.421632  1
  Al  Al11  1  0.666400  0.001775  0.574640  1
  Al  Al12  1  0.666400  0.001775  0.925360  1
  Al  Al13  1  0.335293  0.999207  0.078796  1
  Al  Al14  1  0.331589  0.332800  0.556068  1
  Al  Al15  1  0.668583  0.668135  0.440265  1
  Al  Al16  1  0.668583  0.668135  0.059735  1
  Al  Al17  1  0.331589  0.332800  0.943932  1
  Al  Al18  1  0.338692  0.552725  0.250000  1
  Al  Al19  1  0.667299  0.451845  0.750000  1
  Al  Al20  1  0.554359  0.339461  0.250000  1
  Al  Al21  1  0.445142  0.654567  0.750000  1
  Ir  Ir22  1  0.673420  0.328922  0.001635  1
  Ir  Ir23  1  0.328383  0.672607  0.002375  1
  Ir  Ir24  1  0.328383  0.672607  0.497625  1
  Ir  Ir25  1  0.673420  0.328922  0.498365  1
  Ir  Ir26  1  0.998268  0.998870  0.001570  1
  Ir  Ir27  1  0.998268  0.998870  0.498430  1
