# generated using pymatgen
data_Ba2Sr(InP2)2
_symmetry_space_group_name_H-M   'P 1'
_cell_length_a   8.81705800
_cell_length_b   8.81705859
_cell_length_c   7.06093028
_cell_angle_alpha   89.83010752
_cell_angle_beta   89.83010650
_cell_angle_gamma   76.92540545
_symmetry_Int_Tables_number   1
_chemical_formula_structural   Ba2Sr(InP2)2
_chemical_formula_sum   'Ba4 Sr2 In4 P8'
_cell_volume   534.68652819
_cell_formula_units_Z   2
loop_
 _symmetry_equiv_pos_site_id
 _symmetry_equiv_pos_as_xyz
  1  'x, y, z'
loop_
 _atom_site_type_symbol
 _atom_site_label
 _atom_site_symmetry_multiplicity
 _atom_site_fract_x
 _atom_site_fract_y
 _atom_site_fract_z
 _atom_site_occupancy
  Ba  Ba0  1  0.007930  0.746262  0.042952  1
  Ba  Ba1  1  0.253738  0.992070  0.457048  1
  Ba  Ba2  1  0.992070  0.253738  0.957048  1
  Ba  Ba3  1  0.746262  0.007930  0.542952  1
  Sr  Sr4  1  0.403801  0.596199  0.750000  1
  Sr  Sr5  1  0.596199  0.403801  0.250000  1
  In  In6  1  0.421839  0.175658  0.914376  1
  In  In7  1  0.824342  0.578162  0.585624  1
  In  In8  1  0.578161  0.824342  0.085624  1
  In  In9  1  0.175658  0.421839  0.414376  1
  P  P10  1  0.733301  0.567002  0.934595  1
  P  P11  1  0.432998  0.266699  0.565405  1
  P  P12  1  0.266699  0.432998  0.065405  1
  P  P13  1  0.567002  0.733301  0.434595  1
  P  P14  1  0.061853  0.710297  0.533115  1
  P  P15  1  0.289703  0.938147  0.966885  1
  P  P16  1  0.710297  0.061853  0.033115  1
  P  P17  1  0.938147  0.289703  0.466885  1
