# generated using pymatgen
data_Er5Zr5(Sn3N)2
_symmetry_space_group_name_H-M   'P 1'
_cell_length_a   8.70234575
_cell_length_b   8.65505878
_cell_length_c   6.02668300
_cell_angle_alpha   90.00000000
_cell_angle_beta   90.00000000
_cell_angle_gamma   119.82040641
_symmetry_Int_Tables_number   1
_chemical_formula_structural   Er5Zr5(Sn3N)2
_chemical_formula_sum   'Er5 Zr5 Sn6 N2'
_cell_volume   393.82060875
_cell_formula_units_Z   1
loop_
 _symmetry_equiv_pos_site_id
 _symmetry_equiv_pos_as_xyz
  1  'x, y, z'
loop_
 _atom_site_type_symbol
 _atom_site_label
 _atom_site_symmetry_multiplicity
 _atom_site_fract_x
 _atom_site_fract_y
 _atom_site_fract_z
 _atom_site_occupancy
  Er  Er0  1  0.781947  0.778520  0.750000  1
  Er  Er1  1  0.218053  0.996573  0.750000  1
  Er  Er2  1  0.000000  0.214321  0.750000  1
  Er  Er3  1  0.218595  0.219082  0.250000  1
  Er  Er4  1  0.781405  0.000487  0.250000  1
  Zr  Zr5  1  0.667458  0.335101  0.000334  1
  Zr  Zr6  1  0.332542  0.667645  0.000334  1
  Zr  Zr7  1  0.332542  0.667645  0.499666  1
  Zr  Zr8  1  0.667458  0.335101  0.499666  1
  Zr  Zr9  1  0.000000  0.788574  0.250000  1
  Sn  Sn10  1  0.406325  0.406252  0.750000  1
  Sn  Sn11  1  0.593675  0.999927  0.750000  1
  Sn  Sn12  1  0.000000  0.590629  0.750000  1
  Sn  Sn13  1  0.598499  0.596641  0.250000  1
  Sn  Sn14  1  0.401501  0.998142  0.250000  1
  Sn  Sn15  1  0.000000  0.413321  0.250000  1
  N  N16  1  0.000000  0.996019  0.003883  1
  N  N17  1  0.000000  0.996019  0.496117  1
