# generated using pymatgen
data_La7Ce3(Zn2Ru3)2
_symmetry_space_group_name_H-M   'P 1'
_cell_length_a   8.63767093
_cell_length_b   8.63767047
_cell_length_c   8.63767300
_cell_angle_alpha   110.22541103
_cell_angle_beta   110.22541699
_cell_angle_gamma   110.22541098
_symmetry_Int_Tables_number   1
_chemical_formula_structural   La7Ce3(Zn2Ru3)2
_chemical_formula_sum   'La7 Ce3 Zn4 Ru6'
_cell_volume   481.74876794
_cell_formula_units_Z   1
loop_
 _symmetry_equiv_pos_site_id
 _symmetry_equiv_pos_as_xyz
  1  'x, y, z'
loop_
 _atom_site_type_symbol
 _atom_site_label
 _atom_site_symmetry_multiplicity
 _atom_site_fract_x
 _atom_site_fract_y
 _atom_site_fract_z
 _atom_site_occupancy
  La  La0  1  0.786493  0.786493  0.786493  1
  La  La1  1  0.309797  0.561299  0.754788  1
  La  La2  1  0.754788  0.309797  0.561299  1
  La  La3  1  0.561299  0.754788  0.309797  1
  La  La4  1  0.724693  0.499872  0.994599  1
  La  La5  1  0.994599  0.724693  0.499872  1
  La  La6  1  0.499872  0.994599  0.724693  1
  Ce  Ce7  1  0.250524  0.199918  0.945889  1
  Ce  Ce8  1  0.945889  0.250524  0.199918  1
  Ce  Ce9  1  0.199918  0.945889  0.250524  1
  Zn  Zn10  1  0.410086  0.410086  0.410086  1
  Zn  Zn11  1  0.090815  0.497018  0.007352  1
  Zn  Zn12  1  0.007352  0.090815  0.497018  1
  Zn  Zn13  1  0.497018  0.007352  0.090815  1
  Ru  Ru14  1  0.912811  0.119054  0.760700  1
  Ru  Ru15  1  0.760700  0.912811  0.119054  1
  Ru  Ru16  1  0.119054  0.760700  0.912811  1
  Ru  Ru17  1  0.214669  0.589240  0.370384  1
  Ru  Ru18  1  0.370384  0.214669  0.589240  1
  Ru  Ru19  1  0.589240  0.370384  0.214669  1
