# generated using pymatgen
data_Sc5Si4Tc3(PIr2)8
_symmetry_space_group_name_H-M   'P 1'
_cell_length_a   12.62166403
_cell_length_b   12.63995781
_cell_length_c   3.92019700
_cell_angle_alpha   90.00000000
_cell_angle_beta   90.00000000
_cell_angle_gamma   120.21000755
_symmetry_Int_Tables_number   1
_chemical_formula_structural   Sc5Si4Tc3(PIr2)8
_chemical_formula_sum   'Sc5 Si4 Tc3 P8 Ir16'
_cell_volume   540.47775646
_cell_formula_units_Z   1
loop_
 _symmetry_equiv_pos_site_id
 _symmetry_equiv_pos_as_xyz
  1  'x, y, z'
loop_
 _atom_site_type_symbol
 _atom_site_label
 _atom_site_symmetry_multiplicity
 _atom_site_fract_x
 _atom_site_fract_y
 _atom_site_fract_z
 _atom_site_occupancy
  Sc  Sc0  1  0.333841  0.666899  0.000000  1
  Sc  Sc1  1  0.666917  0.335101  0.000000  1
  Sc  Sc2  1  0.811222  0.998767  0.500000  1
  Sc  Sc3  1  0.000844  0.811257  0.500000  1
  Sc  Sc4  1  0.185698  0.187204  0.500000  1
  Si  Si5  1  0.167029  0.483445  0.500000  1
  Si  Si6  1  0.516877  0.683336  0.500000  1
  Si  Si7  1  0.318006  0.833722  0.500000  1
  Si  Si8  1  0.684624  0.516850  0.500000  1
  Tc  Tc9  1  0.452564  0.003042  0.000000  1
  Tc  Tc10  1  0.999293  0.449482  0.000000  1
  Tc  Tc11  1  0.551595  0.548716  0.000000  1
  P  P12  1  0.176122  0.999563  0.000000  1
  P  P13  1  0.997330  0.174992  0.000000  1
  P  P14  1  0.825169  0.822816  0.000000  1
  P  P15  1  0.830918  0.315094  0.500000  1
  P  P16  1  0.482797  0.170100  0.500000  1
  P  P17  1  0.633731  0.995810  0.000000  1
  P  P18  1  0.002815  0.636009  0.000000  1
  P  P19  1  0.363305  0.365881  0.000000  1
  Ir  Ir20  1  0.356611  0.484573  0.500000  1
  Ir  Ir21  1  0.517306  0.874355  0.500000  1
  Ir  Ir22  1  0.129547  0.643406  0.500000  1
  Ir  Ir23  1  0.867458  0.506733  0.500000  1
  Ir  Ir24  1  0.641520  0.137995  0.500000  1
  Ir  Ir25  1  0.488190  0.355056  0.500000  1
  Ir  Ir26  1  0.177130  0.368863  0.000000  1
  Ir  Ir27  1  0.628994  0.806812  0.000000  1
  Ir  Ir28  1  0.192524  0.821822  0.000000  1
  Ir  Ir29  1  0.812316  0.628440  0.000000  1
  Ir  Ir30  1  0.815465  0.187911  0.000000  1
  Ir  Ir31  1  0.369905  0.181476  0.000000  1
  Ir  Ir32  1  0.282084  0.003505  0.500000  1
  Ir  Ir33  1  0.994424  0.277170  0.500000  1
  Ir  Ir34  1  0.725137  0.722910  0.500000  1
  Ir  Ir35  1  0.000695  0.000886  0.000000  1
