# generated using pymatgen
data_KZrIrSe4
_symmetry_space_group_name_H-M   'P 1'
_cell_length_a   3.83082900
_cell_length_b   8.50757924
_cell_length_c   6.15542796
_cell_angle_alpha   70.26288770
_cell_angle_beta   90.00000000
_cell_angle_gamma   90.00000673
_symmetry_Int_Tables_number   1
_chemical_formula_structural   KZrIrSe4
_chemical_formula_sum   'K1 Zr1 Ir1 Se4'
_cell_volume   188.82649593
_cell_formula_units_Z   1
loop_
 _symmetry_equiv_pos_site_id
 _symmetry_equiv_pos_as_xyz
  1  'x, y, z'
loop_
 _atom_site_type_symbol
 _atom_site_label
 _atom_site_symmetry_multiplicity
 _atom_site_fract_x
 _atom_site_fract_y
 _atom_site_fract_z
 _atom_site_occupancy
  K  K0  1  0.500000  0.507413  0.652717  1
  Zr  Zr1  1  0.000000  0.991108  0.953701  1
  Ir  Ir2  1  0.500000  0.005241  0.535698  1
  Se  Se3  1  0.000000  0.843559  0.440031  1
  Se  Se4  1  0.500000  0.776305  0.940480  1
  Se  Se5  1  0.000000  0.207650  0.541801  1
  Se  Se6  1  0.500000  0.167845  0.102531  1
