# generated using pymatgen
data_Sr21Mg(Ga5Sb2)2
_symmetry_space_group_name_H-M   'P 1'
_cell_length_a   11.90771956
_cell_length_b   11.97809914
_cell_length_c   11.97809900
_cell_angle_alpha   59.71854072
_cell_angle_beta   60.19417526
_cell_angle_gamma   60.19417717
_symmetry_Int_Tables_number   1
_chemical_formula_structural   Sr21Mg(Ga5Sb2)2
_chemical_formula_sum   'Sr21 Mg1 Ga10 Sb4'
_cell_volume   1208.98289369
_cell_formula_units_Z   1
loop_
 _symmetry_equiv_pos_site_id
 _symmetry_equiv_pos_as_xyz
  1  'x, y, z'
loop_
 _atom_site_type_symbol
 _atom_site_label
 _atom_site_symmetry_multiplicity
 _atom_site_fract_x
 _atom_site_fract_y
 _atom_site_fract_z
 _atom_site_occupancy
  Sr  Sr0  1  0.000000  0.005969  0.994031  1
  Sr  Sr1  1  0.134377  0.133790  0.122490  1
  Sr  Sr2  1  0.390656  0.877510  0.866210  1
  Sr  Sr3  1  0.873363  0.389556  0.863718  1
  Sr  Sr4  1  0.868706  0.868815  0.393775  1
  Sr  Sr5  1  0.131294  0.606225  0.131185  1
  Sr  Sr6  1  0.126637  0.136282  0.610444  1
  Sr  Sr7  1  0.609344  0.133790  0.122490  1
  Sr  Sr8  1  0.865623  0.877510  0.866210  1
  Sr  Sr9  1  0.497643  0.823695  0.502726  1
  Sr  Sr10  1  0.822711  0.492356  0.507644  1
  Sr  Sr11  1  0.500000  0.823109  0.176891  1
  Sr  Sr12  1  0.176283  0.494844  0.823657  1
  Sr  Sr13  1  0.824064  0.497274  0.176305  1
  Sr  Sr14  1  0.505216  0.494844  0.823657  1
  Sr  Sr15  1  0.175936  0.823695  0.502726  1
  Sr  Sr16  1  0.500000  0.176222  0.823778  1
  Sr  Sr17  1  0.502357  0.497274  0.176305  1
  Sr  Sr18  1  0.823717  0.176343  0.505156  1
  Sr  Sr19  1  0.177289  0.492356  0.507644  1
  Sr  Sr20  1  0.494784  0.176343  0.505156  1
  Mg  Mg21  1  0.500000  0.502217  0.497783  1
  Ga  Ga22  1  0.213360  0.212364  0.787636  1
  Ga  Ga23  1  0.786640  0.212364  0.787636  1
  Ga  Ga24  1  0.308766  0.307558  0.305155  1
  Ga  Ga25  1  0.921478  0.694845  0.692442  1
  Ga  Ga26  1  0.693603  0.922428  0.690366  1
  Ga  Ga27  1  0.693445  0.692873  0.920238  1
  Ga  Ga28  1  0.306555  0.079762  0.307127  1
  Ga  Ga29  1  0.306397  0.309634  0.077572  1
  Ga  Ga30  1  0.078522  0.307558  0.305155  1
  Ga  Ga31  1  0.691235  0.694845  0.692441  1
  Sb  Sb32  1  0.209367  0.786682  0.213318  1
  Sb  Sb33  1  0.209710  0.786485  0.794094  1
  Sb  Sb34  1  0.790290  0.205906  0.213515  1
  Sb  Sb35  1  0.790633  0.786682  0.213318  1
