# generated using pymatgen
data_Th2BeB10
_symmetry_space_group_name_H-M   'P 1'
_cell_length_a   5.59125600
_cell_length_b   11.10481600
_cell_length_c   4.16876100
_cell_angle_alpha   90.00000000
_cell_angle_beta   90.00000000
_cell_angle_gamma   90.00000000
_symmetry_Int_Tables_number   1
_chemical_formula_structural   Th2BeB10
_chemical_formula_sum   'Th4 Be2 B20'
_cell_volume   258.83782475
_cell_formula_units_Z   2
loop_
 _symmetry_equiv_pos_site_id
 _symmetry_equiv_pos_as_xyz
  1  'x, y, z'
loop_
 _atom_site_type_symbol
 _atom_site_label
 _atom_site_symmetry_multiplicity
 _atom_site_fract_x
 _atom_site_fract_y
 _atom_site_fract_z
 _atom_site_occupancy
  Th  Th0  1  0.701448  0.133879  0.500000  1
  Th  Th1  1  0.201450  0.366122  0.500000  1
  Th  Th2  1  0.798552  0.633878  0.500000  1
  Th  Th3  1  0.298551  0.866121  0.500000  1
  Be  Be4  1  0.000000  0.000000  0.000000  1
  Be  Be5  1  0.500001  0.500000  0.000000  1
  B  B6  1  0.371195  0.038727  0.000000  1
  B  B7  1  0.031329  0.186178  0.000000  1
  B  B8  1  0.343866  0.196571  0.000000  1
  B  B9  1  0.843865  0.303428  0.000000  1
  B  B10  1  0.531329  0.313822  0.000000  1
  B  B11  1  0.871194  0.461272  0.000000  1
  B  B12  1  0.128806  0.538728  0.000000  1
  B  B13  1  0.468672  0.686178  0.000000  1
  B  B14  1  0.156135  0.696572  0.000000  1
  B  B15  1  0.656135  0.803429  0.000000  1
  B  B16  1  0.968671  0.813822  0.000000  1
  B  B17  1  0.628806  0.961273  0.000000  1
  B  B18  1  0.200006  0.112048  0.299920  1
  B  B19  1  0.700005  0.387953  0.299920  1
  B  B20  1  0.299995  0.612047  0.299920  1
  B  B21  1  0.799995  0.887952  0.299920  1
  B  B22  1  0.200006  0.112048  0.700080  1
  B  B23  1  0.700005  0.387953  0.700080  1
  B  B24  1  0.299995  0.612047  0.700080  1
  B  B25  1  0.799995  0.887952  0.700080  1
