# generated using pymatgen
data_Cs2NaAsSe4
_symmetry_space_group_name_H-M   'P 1'
_cell_length_a   14.61849916
_cell_length_b   13.09618287
_cell_length_c   8.10294275
_cell_angle_alpha   83.65173376
_cell_angle_beta   62.91983663
_cell_angle_gamma   33.42842746
_symmetry_Int_Tables_number   1
_chemical_formula_structural   Cs2NaAsSe4
_chemical_formula_sum   'Cs4 Na2 As2 Se8'
_cell_volume   635.90644389
_cell_formula_units_Z   2
loop_
 _symmetry_equiv_pos_site_id
 _symmetry_equiv_pos_as_xyz
  1  'x, y, z'
loop_
 _atom_site_type_symbol
 _atom_site_label
 _atom_site_symmetry_multiplicity
 _atom_site_fract_x
 _atom_site_fract_y
 _atom_site_fract_z
 _atom_site_occupancy
  Cs  Cs0  1  0.679592  0.679592  0.320408  1
  Cs  Cs1  1  0.320408  0.320408  0.679592  1
  Cs  Cs2  1  0.929592  0.929592  0.570408  1
  Cs  Cs3  1  0.570408  0.570408  0.929592  1
  Na  Na4  1  0.000000  0.000000  0.000000  1
  Na  Na5  1  0.250000  0.250000  0.250000  1
  As  As6  1  0.750000  0.750000  0.750000  1
  As  As7  1  0.500000  0.500000  0.500000  1
  Se  Se8  1  0.406449  0.985861  0.903192  1
  Se  Se9  1  0.704500  0.903192  0.985861  1
  Se  Se10  1  0.903192  0.704500  0.406449  1
  Se  Se11  1  0.985861  0.406449  0.704500  1
  Se  Se12  1  0.264139  0.843551  0.545500  1
  Se  Se13  1  0.545500  0.346808  0.264139  1
  Se  Se14  1  0.346808  0.545500  0.843551  1
  Se  Se15  1  0.843551  0.264139  0.346808  1
