# generated using pymatgen
data_Na5YbB10(Pt8Rh)2
_symmetry_space_group_name_H-M   'P 1'
_cell_length_a   6.38473166
_cell_length_b   6.38473174
_cell_length_c   15.30039003
_cell_angle_alpha   90.21230402
_cell_angle_beta   89.78769529
_cell_angle_gamma   128.24806155
_symmetry_Int_Tables_number   1
_chemical_formula_structural   Na5YbB10(Pt8Rh)2
_chemical_formula_sum   'Na5 Yb1 B10 Pt16 Rh2'
_cell_volume   489.82468334
_cell_formula_units_Z   1
loop_
 _symmetry_equiv_pos_site_id
 _symmetry_equiv_pos_as_xyz
  1  'x, y, z'
loop_
 _atom_site_type_symbol
 _atom_site_label
 _atom_site_symmetry_multiplicity
 _atom_site_fract_x
 _atom_site_fract_y
 _atom_site_fract_z
 _atom_site_occupancy
  Na  Na0  1  0.312713  0.687287  0.747613  1
  Na  Na1  1  0.691214  0.308786  0.257990  1
  Na  Na2  1  0.436347  0.563653  0.907746  1
  Na  Na3  1  0.441324  0.558676  0.584544  1
  Na  Na4  1  0.558103  0.441897  0.416485  1
  Yb  Yb5  1  0.559870  0.440130  0.082838  1
  B  B6  1  0.945374  0.054626  0.144538  1
  B  B7  1  0.054844  0.945156  0.854831  1
  B  B8  1  0.055501  0.944499  0.643477  1
  B  B9  1  0.945375  0.054625  0.356809  1
  B  B10  1  0.184401  0.815599  0.027655  1
  B  B11  1  0.813583  0.186417  0.971715  1
  B  B12  1  0.815398  0.184602  0.527586  1
  B  B13  1  0.184660  0.815340  0.472886  1
  B  B14  1  0.725692  0.274308  0.749452  1
  B  B15  1  0.275479  0.724521  0.252092  1
  Pt  Pt16  1  0.664484  0.829437  0.249842  1
  Pt  Pt17  1  0.831605  0.663105  0.749649  1
  Pt  Pt18  1  0.336895  0.168395  0.749649  1
  Pt  Pt19  1  0.170563  0.335516  0.249842  1
  Pt  Pt20  1  0.129332  0.870668  0.158384  1
  Pt  Pt21  1  0.871575  0.128425  0.842651  1
  Pt  Pt22  1  0.872334  0.127666  0.657494  1
  Pt  Pt23  1  0.128338  0.871662  0.343221  1
  Pt  Pt24  1  0.567164  0.935375  0.079024  1
  Pt  Pt25  1  0.932430  0.569150  0.921051  1
  Pt  Pt26  1  0.433510  0.063597  0.579412  1
  Pt  Pt27  1  0.064220  0.433038  0.420553  1
  Pt  Pt28  1  0.430850  0.067570  0.921051  1
  Pt  Pt29  1  0.064625  0.432836  0.079024  1
  Pt  Pt30  1  0.566962  0.935780  0.420553  1
  Pt  Pt31  1  0.936403  0.566490  0.579412  1
  Rh  Rh32  1  0.998903  0.001097  0.000852  1
  Rh  Rh33  1  0.999929  0.000071  0.500076  1
