# generated using pymatgen
data_Dy13Er2Th(CdCo)4
_symmetry_space_group_name_H-M   'P 1'
_cell_length_a   9.50120558
_cell_length_b   9.53584459
_cell_length_c   9.49718200
_cell_angle_alpha   60.13403660
_cell_angle_beta   60.01401460
_cell_angle_gamma   60.11151725
_symmetry_Int_Tables_number   1
_chemical_formula_structural   Dy13Er2Th(CdCo)4
_chemical_formula_sum   'Dy13 Er2 Th1 Cd4 Co4'
_cell_volume   609.63124826
_cell_formula_units_Z   1
loop_
 _symmetry_equiv_pos_site_id
 _symmetry_equiv_pos_as_xyz
  1  'x, y, z'
loop_
 _atom_site_type_symbol
 _atom_site_label
 _atom_site_symmetry_multiplicity
 _atom_site_fract_x
 _atom_site_fract_y
 _atom_site_fract_z
 _atom_site_occupancy
  Dy  Dy0  1  0.937242  0.562914  0.562174  1
  Dy  Dy1  1  0.542738  0.151586  0.152838  1
  Dy  Dy2  1  0.152562  0.151191  0.542617  1
  Dy  Dy3  1  0.937489  0.940184  0.561164  1
  Dy  Dy4  1  0.312327  0.688931  0.311536  1
  Dy  Dy5  1  0.561321  0.940008  0.937730  1
  Dy  Dy6  1  0.561321  0.940008  0.560942  1
  Dy  Dy7  1  0.687230  0.688227  0.312272  1
  Dy  Dy8  1  0.562237  0.562594  0.937584  1
  Dy  Dy9  1  0.937242  0.562914  0.937670  1
  Dy  Dy10  1  0.312327  0.688931  0.687205  1
  Dy  Dy11  1  0.152562  0.151191  0.153630  1
  Dy  Dy12  1  0.312386  0.312136  0.687739  1
  Er  Er13  1  0.688633  0.312208  0.687536  1
  Er  Er14  1  0.688633  0.312208  0.311623  1
  Th  Th15  1  0.157298  0.528199  0.157251  1
  Cd  Cd16  1  0.919208  0.241087  0.919853  1
  Cd  Cd17  1  0.918375  0.919798  0.918357  1
  Cd  Cd18  1  0.918375  0.919798  0.243471  1
  Cd  Cd19  1  0.243413  0.919363  0.918612  1
  Co  Co20  1  0.355943  0.360917  0.927268  1
  Co  Co21  1  0.358514  0.923723  0.358883  1
  Co  Co22  1  0.926685  0.360968  0.356174  1
  Co  Co23  1  0.355943  0.360917  0.355873  1
