# generated using pymatgen
data_Y10(TlSb)3
_symmetry_space_group_name_H-M   'P 1'
_cell_length_a   9.01080100
_cell_length_b   9.00959404
_cell_length_c   6.68658300
_cell_angle_alpha   90.00000000
_cell_angle_beta   90.00000000
_cell_angle_gamma   120.00444260
_symmetry_Int_Tables_number   1
_chemical_formula_structural   Y10(TlSb)3
_chemical_formula_sum   'Y10 Tl3 Sb3'
_cell_volume   470.09328672
_cell_formula_units_Z   1
loop_
 _symmetry_equiv_pos_site_id
 _symmetry_equiv_pos_as_xyz
  1  'x, y, z'
loop_
 _atom_site_type_symbol
 _atom_site_label
 _atom_site_symmetry_multiplicity
 _atom_site_fract_x
 _atom_site_fract_y
 _atom_site_fract_z
 _atom_site_occupancy
  Y  Y0  1  0.331678  0.666088  0.999852  1
  Y  Y1  1  0.665591  0.333912  0.500148  1
  Y  Y2  1  0.665591  0.333912  0.999852  1
  Y  Y3  1  0.331678  0.666088  0.500148  1
  Y  Y4  1  0.238295  0.000000  0.250000  1
  Y  Y5  1  0.239866  0.238702  0.750000  1
  Y  Y6  1  0.001164  0.761298  0.750000  1
  Y  Y7  1  0.003042  0.241972  0.250000  1
  Y  Y8  1  0.761069  0.758028  0.250000  1
  Y  Y9  1  0.759940  0.000000  0.750000  1
  Tl  Tl10  1  0.998375  0.603326  0.250000  1
  Tl  Tl11  1  0.395050  0.396674  0.250000  1
  Tl  Tl12  1  0.396561  0.000000  0.750000  1
  Sb  Sb13  1  0.608459  0.000000  0.250000  1
  Sb  Sb14  1  0.605734  0.607825  0.750000  1
  Sb  Sb15  1  0.997909  0.392175  0.750000  1
