# generated using pymatgen
data_La2Nd3YTa2O14
_symmetry_space_group_name_H-M   'P 1'
_cell_length_a   6.67458610
_cell_length_b   6.67385868
_cell_length_c   7.74064200
_cell_angle_alpha   90.00000000
_cell_angle_beta   90.00000000
_cell_angle_gamma   108.94692096
_symmetry_Int_Tables_number   1
_chemical_formula_structural   La2Nd3YTa2O14
_chemical_formula_sum   'La2 Nd3 Y1 Ta2 O14'
_cell_volume   326.12697246
_cell_formula_units_Z   1
loop_
 _symmetry_equiv_pos_site_id
 _symmetry_equiv_pos_as_xyz
  1  'x, y, z'
loop_
 _atom_site_type_symbol
 _atom_site_label
 _atom_site_symmetry_multiplicity
 _atom_site_fract_x
 _atom_site_fract_y
 _atom_site_fract_z
 _atom_site_occupancy
  La  La0  1  0.518280  0.515136  0.498828  1
  La  La1  1  0.518280  0.515136  0.001172  1
  Nd  Nd2  1  0.004422  0.463402  0.750000  1
  Nd  Nd3  1  0.533139  0.002450  0.750000  1
  Nd  Nd4  1  0.461599  0.002403  0.250000  1
  Y  Y5  1  0.002405  0.528926  0.250000  1
  Ta  Ta6  1  0.999478  0.999909  0.498228  1
  Ta  Ta7  1  0.999478  0.999909  0.001772  1
  O  O8  1  0.944133  0.056380  0.750000  1
  O  O9  1  0.057283  0.939273  0.250000  1
  O  O10  1  0.353906  0.636880  0.250000  1
  O  O11  1  0.641360  0.367548  0.750000  1
  O  O12  1  0.371296  0.632475  0.750000  1
  O  O13  1  0.643712  0.375307  0.250000  1
  O  O14  1  0.310581  0.069212  0.969989  1
  O  O15  1  0.681732  0.924793  0.471747  1
  O  O16  1  0.310581  0.069212  0.530011  1
  O  O17  1  0.681732  0.924793  0.028253  1
  O  O18  1  0.047834  0.305188  0.461478  1
  O  O19  1  0.935467  0.683241  0.975624  1
  O  O20  1  0.935467  0.683241  0.524376  1
  O  O21  1  0.047834  0.305188  0.038522  1
