# generated using pymatgen
data_Tm3Lu4Pa(ReB6)4
_symmetry_space_group_name_H-M   'P 1'
_cell_length_a   3.64650400
_cell_length_b   9.08234904
_cell_length_c   11.44543105
_cell_angle_alpha   90.12391144
_cell_angle_beta   90.00000000
_cell_angle_gamma   90.00000000
_symmetry_Int_Tables_number   1
_chemical_formula_structural   Tm3Lu4Pa(ReB6)4
_chemical_formula_sum   'Tm3 Lu4 Pa1 Re4 B24'
_cell_volume   379.05830821
_cell_formula_units_Z   1
loop_
 _symmetry_equiv_pos_site_id
 _symmetry_equiv_pos_as_xyz
  1  'x, y, z'
loop_
 _atom_site_type_symbol
 _atom_site_label
 _atom_site_symmetry_multiplicity
 _atom_site_fract_x
 _atom_site_fract_y
 _atom_site_fract_z
 _atom_site_occupancy
  Tm  Tm0  1  0.000000  0.680123  0.587032  1
  Tm  Tm1  1  0.000000  0.822784  0.085270  1
  Tm  Tm2  1  0.000000  0.176103  0.913439  1
  Lu  Lu3  1  0.000000  0.942819  0.371755  1
  Lu  Lu4  1  0.000000  0.054824  0.629387  1
  Lu  Lu5  1  0.000000  0.443877  0.127231  1
  Lu  Lu6  1  0.000000  0.557061  0.870744  1
  Pa  Pa7  1  0.000000  0.322866  0.413928  1
  Re  Re8  1  0.000000  0.636656  0.321174  1
  Re  Re9  1  0.000000  0.361745  0.677495  1
  Re  Re10  1  0.000000  0.140985  0.181490  1
  Re  Re11  1  0.000000  0.861170  0.820837  1
  B  B12  1  0.500000  0.553375  0.432353  1
  B  B13  1  0.500000  0.446119  0.567363  1
  B  B14  1  0.500000  0.053636  0.066779  1
  B  B15  1  0.500000  0.946861  0.933983  1
  B  B16  1  0.500000  0.750323  0.418931  1
  B  B17  1  0.500000  0.249293  0.581616  1
  B  B18  1  0.500000  0.249970  0.079715  1
  B  B19  1  0.500000  0.749748  0.919516  1
  B  B20  1  0.500000  0.792831  0.265310  1
  B  B21  1  0.500000  0.207064  0.735569  1
  B  B22  1  0.500000  0.292377  0.234021  1
  B  B23  1  0.500000  0.707249  0.765541  1
  B  B24  1  0.500000  0.631119  0.183728  1
  B  B25  1  0.500000  0.370059  0.815265  1
  B  B26  1  0.500000  0.130837  0.315108  1
  B  B27  1  0.500000  0.869132  0.685290  1
  B  B28  1  0.500000  0.981475  0.212204  1
  B  B29  1  0.500000  0.018457  0.788077  1
  B  B30  1  0.500000  0.482585  0.286607  1
  B  B31  1  0.500000  0.518861  0.713404  1
  B  B32  1  0.500000  0.600628  0.027355  1
  B  B33  1  0.500000  0.399539  0.971347  1
  B  B34  1  0.500000  0.101344  0.472116  1
  B  B35  1  0.500000  0.896108  0.529018  1
