# generated using pymatgen
data_ZrSi4Mo3Ir4
_symmetry_space_group_name_H-M   'P 1'
_cell_length_a   3.89120100
_cell_length_b   6.33334502
_cell_length_c   7.24082790
_cell_angle_alpha   89.62439497
_cell_angle_beta   90.00000000
_cell_angle_gamma   90.00000000
_symmetry_Int_Tables_number   1
_chemical_formula_structural   ZrSi4Mo3Ir4
_chemical_formula_sum   'Zr1 Si4 Mo3 Ir4'
_cell_volume   178.44143443
_cell_formula_units_Z   1
loop_
 _symmetry_equiv_pos_site_id
 _symmetry_equiv_pos_as_xyz
  1  'x, y, z'
loop_
 _atom_site_type_symbol
 _atom_site_label
 _atom_site_symmetry_multiplicity
 _atom_site_fract_x
 _atom_site_fract_y
 _atom_site_fract_z
 _atom_site_occupancy
  Zr  Zr0  1  0.750000  0.474814  0.824535  1
  Si  Si1  1  0.250000  0.251966  0.614788  1
  Si  Si2  1  0.250000  0.777223  0.876783  1
  Si  Si3  1  0.750000  0.737637  0.377828  1
  Si  Si4  1  0.750000  0.227489  0.132602  1
  Mo  Mo5  1  0.250000  0.024896  0.327855  1
  Mo  Mo6  1  0.250000  0.528290  0.175973  1
  Mo  Mo7  1  0.750000  0.974627  0.667267  1
  Ir  Ir8  1  0.250000  0.149714  0.940146  1
  Ir  Ir9  1  0.250000  0.646076  0.561423  1
  Ir  Ir10  1  0.750000  0.853249  0.063552  1
  Ir  Ir11  1  0.750000  0.354019  0.437247  1
