# generated using pymatgen
data_Tb16In3AgOsRh3
_symmetry_space_group_name_H-M   'P 1'
_cell_length_a   9.65853873
_cell_length_b   9.70535564
_cell_length_c   9.65853791
_cell_angle_alpha   60.08157299
_cell_angle_beta   59.81338340
_cell_angle_gamma   60.08156561
_symmetry_Int_Tables_number   1
_chemical_formula_structural   Tb16In3AgOsRh3
_chemical_formula_sum   'Tb16 In3 Ag1 Os1 Rh3'
_cell_volume   640.08237333
_cell_formula_units_Z   1
loop_
 _symmetry_equiv_pos_site_id
 _symmetry_equiv_pos_as_xyz
  1  'x, y, z'
loop_
 _atom_site_type_symbol
 _atom_site_label
 _atom_site_symmetry_multiplicity
 _atom_site_fract_x
 _atom_site_fract_y
 _atom_site_fract_z
 _atom_site_occupancy
  Tb  Tb0  1  0.809193  0.806961  0.192227  1
  Tb  Tb1  1  0.808644  0.193155  0.808644  1
  Tb  Tb2  1  0.188637  0.191416  0.812598  1
  Tb  Tb3  1  0.648800  0.050626  0.648800  1
  Tb  Tb4  1  0.061704  0.061507  0.439149  1
  Tb  Tb5  1  0.444558  0.436142  0.063028  1
  Tb  Tb6  1  0.650526  0.650799  0.650526  1
  Tb  Tb7  1  0.812598  0.191416  0.188637  1
  Tb  Tb8  1  0.192227  0.806961  0.809193  1
  Tb  Tb9  1  0.047234  0.650066  0.650871  1
  Tb  Tb10  1  0.439149  0.061507  0.061704  1
  Tb  Tb11  1  0.437524  0.063996  0.437524  1
  Tb  Tb12  1  0.060043  0.437645  0.060043  1
  Tb  Tb13  1  0.650871  0.650066  0.047234  1
  Tb  Tb14  1  0.190595  0.810925  0.190595  1
  Tb  Tb15  1  0.063028  0.436142  0.444558  1
  In  In16  1  0.418123  0.417895  0.745171  1
  In  In17  1  0.418542  0.744459  0.418542  1
  In  In18  1  0.745171  0.417895  0.418123  1
  Ag  Ag19  1  0.417727  0.416397  0.417727  1
  Os  Os20  1  0.856737  0.424803  0.856737  1
  Rh  Rh21  1  0.856963  0.860567  0.856963  1
  Rh  Rh22  1  0.857558  0.859325  0.423849  1
  Rh  Rh23  1  0.423849  0.859325  0.857558  1
