# generated using pymatgen
data_YTh3(CdPt2)2
_symmetry_space_group_name_H-M   'P 1'
_cell_length_a   7.94097951
_cell_length_b   7.94097951
_cell_length_c   3.78922800
_cell_angle_alpha   90.00000000
_cell_angle_beta   90.00000000
_cell_angle_gamma   90.57368319
_symmetry_Int_Tables_number   1
_chemical_formula_structural   YTh3(CdPt2)2
_chemical_formula_sum   'Y1 Th3 Cd2 Pt4'
_cell_volume   238.93354074
_cell_formula_units_Z   1
loop_
 _symmetry_equiv_pos_site_id
 _symmetry_equiv_pos_as_xyz
  1  'x, y, z'
loop_
 _atom_site_type_symbol
 _atom_site_label
 _atom_site_symmetry_multiplicity
 _atom_site_fract_x
 _atom_site_fract_y
 _atom_site_fract_z
 _atom_site_occupancy
  Y  Y0  1  0.327401  0.172599  0.500001  1
  Th  Th1  1  0.830241  0.325998  0.500001  1
  Th  Th2  1  0.174002  0.669759  0.500001  1
  Th  Th3  1  0.668334  0.831666  0.500001  1
  Cd  Cd4  1  0.005591  0.002416  0.000000  1
  Cd  Cd5  1  0.497584  0.494409  0.000000  1
  Pt  Pt6  1  0.632062  0.128690  0.000000  1
  Pt  Pt7  1  0.126085  0.373915  0.000000  1
  Pt  Pt8  1  0.867391  0.632609  0.000000  1
  Pt  Pt9  1  0.371310  0.867938  0.000000  1
