# generated using pymatgen
data_Tb3Al7Pd2
_symmetry_space_group_name_H-M   'P 1'
_cell_length_a   9.23987993
_cell_length_b   9.23987999
_cell_length_c   9.23988034
_cell_angle_alpha   34.94167112
_cell_angle_beta   34.94167300
_cell_angle_gamma   34.94167229
_symmetry_Int_Tables_number   1
_chemical_formula_structural   Tb3Al7Pd2
_chemical_formula_sum   'Tb3 Al7 Pd2'
_cell_volume   231.02958497
_cell_formula_units_Z   1
loop_
 _symmetry_equiv_pos_site_id
 _symmetry_equiv_pos_as_xyz
  1  'x, y, z'
loop_
 _atom_site_type_symbol
 _atom_site_label
 _atom_site_symmetry_multiplicity
 _atom_site_fract_x
 _atom_site_fract_y
 _atom_site_fract_z
 _atom_site_occupancy
  Tb  Tb0  1  0.000000  0.000000  0.000000  1
  Tb  Tb1  1  0.142717  0.142717  0.142717  1
  Tb  Tb2  1  0.857283  0.857283  0.857283  1
  Al  Al3  1  0.582426  0.582426  0.073091  1
  Al  Al4  1  0.926909  0.417575  0.417574  1
  Al  Al5  1  0.417575  0.926909  0.417574  1
  Al  Al6  1  0.500000  0.500000  0.500000  1
  Al  Al7  1  0.582426  0.073091  0.582426  1
  Al  Al8  1  0.073091  0.582426  0.582426  1
  Al  Al9  1  0.417574  0.417574  0.926909  1
  Pd  Pd10  1  0.335447  0.335447  0.335447  1
  Pd  Pd11  1  0.664553  0.664553  0.664553  1
