# generated using pymatgen
data_Tb2Fe2Si5Rh
_symmetry_space_group_name_H-M   'P 1'
_cell_length_a   7.98563913
_cell_length_b   7.98984298
_cell_length_c   5.59621246
_cell_angle_alpha   70.71245942
_cell_angle_beta   70.56917047
_cell_angle_gamma   93.81008450
_symmetry_Int_Tables_number   1
_chemical_formula_structural   Tb2Fe2Si5Rh
_chemical_formula_sum   'Tb4 Fe4 Si10 Rh2'
_cell_volume   311.52574093
_cell_formula_units_Z   2
loop_
 _symmetry_equiv_pos_site_id
 _symmetry_equiv_pos_as_xyz
  1  'x, y, z'
loop_
 _atom_site_type_symbol
 _atom_site_label
 _atom_site_symmetry_multiplicity
 _atom_site_fract_x
 _atom_site_fract_y
 _atom_site_fract_z
 _atom_site_occupancy
  Tb  Tb0  1  0.868203  0.597004  0.768274  1
  Tb  Tb1  1  0.404363  0.136678  0.729166  1
  Tb  Tb2  1  0.129219  0.400660  0.247099  1
  Tb  Tb3  1  0.598648  0.870369  0.255978  1
  Fe  Fe4  1  0.995856  0.000721  0.251047  1
  Fe  Fe5  1  0.456012  0.738943  0.879974  1
  Fe  Fe6  1  0.737760  0.456631  0.372788  1
  Fe  Fe7  1  0.543191  0.255823  0.129827  1
  Si  Si8  1  0.059438  0.257039  0.850819  1
  Si  Si9  1  0.730658  0.930416  0.657329  1
  Si  Si10  1  0.928873  0.730425  0.182945  1
  Si  Si11  1  0.266555  0.068531  0.319525  1
  Si  Si12  1  0.518951  0.488423  0.760005  1
  Si  Si13  1  0.502046  0.509114  0.225657  1
  Si  Si14  1  0.768110  0.232775  0.751754  1
  Si  Si15  1  0.786630  0.211837  0.252650  1
  Si  Si16  1  0.217597  0.793709  0.754046  1
  Si  Si17  1  0.224641  0.782818  0.237494  1
  Rh  Rh18  1  0.999399  0.994827  0.750633  1
  Rh  Rh19  1  0.263851  0.543258  0.622987  1
