# generated using pymatgen
data_Tb7Ce3(Al2Co3)2
_symmetry_space_group_name_H-M   'P 1'
_cell_length_a   8.32603926
_cell_length_b   8.32603884
_cell_length_c   8.32603934
_cell_angle_alpha   110.34323848
_cell_angle_beta   110.34324015
_cell_angle_gamma   110.34324024
_symmetry_Int_Tables_number   1
_chemical_formula_structural   Tb7Ce3(Al2Co3)2
_chemical_formula_sum   'Tb7 Ce3 Al4 Co6'
_cell_volume   429.37427388
_cell_formula_units_Z   1
loop_
 _symmetry_equiv_pos_site_id
 _symmetry_equiv_pos_as_xyz
  1  'x, y, z'
loop_
 _atom_site_type_symbol
 _atom_site_label
 _atom_site_symmetry_multiplicity
 _atom_site_fract_x
 _atom_site_fract_y
 _atom_site_fract_z
 _atom_site_occupancy
  Tb  Tb0  1  0.792955  0.792955  0.792955  1
  Tb  Tb1  1  0.306732  0.564498  0.751545  1
  Tb  Tb2  1  0.751545  0.306732  0.564498  1
  Tb  Tb3  1  0.564498  0.751545  0.306732  1
  Tb  Tb4  1  0.712692  0.505799  0.990210  1
  Tb  Tb5  1  0.990210  0.712692  0.505799  1
  Tb  Tb6  1  0.505799  0.990210  0.712692  1
  Ce  Ce7  1  0.256064  0.205612  0.948187  1
  Ce  Ce8  1  0.948187  0.256064  0.205612  1
  Ce  Ce9  1  0.205612  0.948187  0.256064  1
  Al  Al10  1  0.412907  0.412907  0.412907  1
  Al  Al11  1  0.092280  0.495621  0.005223  1
  Al  Al12  1  0.005223  0.092280  0.495621  1
  Al  Al13  1  0.495621  0.005223  0.092280  1
  Co  Co14  1  0.918553  0.123886  0.754072  1
  Co  Co15  1  0.754072  0.918553  0.123886  1
  Co  Co16  1  0.123886  0.754072  0.918553  1
  Co  Co17  1  0.216690  0.585027  0.361446  1
  Co  Co18  1  0.361446  0.216690  0.585027  1
  Co  Co19  1  0.585027  0.361446  0.216690  1
