# generated using pymatgen
data_TbTm2(Al3Ru)4
_symmetry_space_group_name_H-M   'P 1'
_cell_length_a   8.77669461
_cell_length_b   8.77669387
_cell_length_c   9.60323400
_cell_angle_alpha   90.00000000
_cell_angle_beta   90.00000000
_cell_angle_gamma   120.01625446
_symmetry_Int_Tables_number   1
_chemical_formula_structural   TbTm2(Al3Ru)4
_chemical_formula_sum   'Tb2 Tm4 Al24 Ru8'
_cell_volume   640.52918695
_cell_formula_units_Z   2
loop_
 _symmetry_equiv_pos_site_id
 _symmetry_equiv_pos_as_xyz
  1  'x, y, z'
loop_
 _atom_site_type_symbol
 _atom_site_label
 _atom_site_symmetry_multiplicity
 _atom_site_fract_x
 _atom_site_fract_y
 _atom_site_fract_z
 _atom_site_occupancy
  Tb  Tb0  1  0.807046  0.192954  0.750000  1
  Tb  Tb1  1  0.192954  0.807046  0.250000  1
  Tm  Tm2  1  0.388998  0.194510  0.750000  1
  Tm  Tm3  1  0.611002  0.805490  0.250000  1
  Tm  Tm4  1  0.805490  0.611002  0.750000  1
  Tm  Tm5  1  0.194510  0.388998  0.250000  1
  Al  Al6  1  0.666462  0.333538  0.981305  1
  Al  Al7  1  0.333538  0.666462  0.018695  1
  Al  Al8  1  0.333538  0.666462  0.481305  1
  Al  Al9  1  0.666462  0.333538  0.518695  1
  Al  Al10  1  0.837413  0.162587  0.421995  1
  Al  Al11  1  0.162587  0.837413  0.578005  1
  Al  Al12  1  0.325563  0.163196  0.422882  1
  Al  Al13  1  0.162587  0.837413  0.921995  1
  Al  Al14  1  0.674437  0.836804  0.577118  1
  Al  Al15  1  0.837413  0.162587  0.078005  1
  Al  Al16  1  0.836804  0.674437  0.422882  1
  Al  Al17  1  0.674437  0.836804  0.922882  1
  Al  Al18  1  0.163196  0.325563  0.577118  1
  Al  Al19  1  0.325563  0.163196  0.077118  1
  Al  Al20  1  0.163196  0.325563  0.922882  1
  Al  Al21  1  0.836804  0.674437  0.077118  1
  Al  Al22  1  0.438802  0.561198  0.750000  1
  Al  Al23  1  0.561198  0.438802  0.250000  1
  Al  Al24  1  0.123526  0.562261  0.750000  1
  Al  Al25  1  0.876474  0.437739  0.250000  1
  Al  Al26  1  0.437739  0.876474  0.750000  1
  Al  Al27  1  0.562261  0.123526  0.250000  1
  Al  Al28  1  0.001341  0.998659  0.750000  1
  Al  Al29  1  0.998659  0.001341  0.250000  1
  Ru  Ru30  1  0.500000  0.500000  0.000000  1
  Ru  Ru31  1  0.000000  0.500000  0.000000  1
  Ru  Ru32  1  0.500000  0.500000  0.500000  1
  Ru  Ru33  1  0.500000  0.000000  0.000000  1
  Ru  Ru34  1  0.000000  0.500000  0.500000  1
  Ru  Ru35  1  0.500000  0.000000  0.500000  1
  Ru  Ru36  1  0.000000  0.000000  0.000000  1
  Ru  Ru37  1  0.000000  0.000000  0.500000  1
