# generated using pymatgen
data_CsBi(BrO3)4
_symmetry_space_group_name_H-M   'P 1'
_cell_length_a   5.93646300
_cell_length_b   7.84105448
_cell_length_c   8.87922134
_cell_angle_alpha   109.92731822
_cell_angle_beta   90.00000000
_cell_angle_gamma   112.24390173
_symmetry_Int_Tables_number   1
_chemical_formula_structural   CsBi(BrO3)4
_chemical_formula_sum   'Cs1 Bi1 Br4 O12'
_cell_volume   355.67248328
_cell_formula_units_Z   1
loop_
 _symmetry_equiv_pos_site_id
 _symmetry_equiv_pos_as_xyz
  1  'x, y, z'
loop_
 _atom_site_type_symbol
 _atom_site_label
 _atom_site_symmetry_multiplicity
 _atom_site_fract_x
 _atom_site_fract_y
 _atom_site_fract_z
 _atom_site_occupancy
  Cs  Cs0  1  0.069007  0.000000  0.000000  1
  Bi  Bi1  1  0.084675  0.000000  0.500000  1
  Br  Br2  1  0.223854  0.628697  0.158176  1
  Br  Br3  1  0.595156  0.371303  0.841824  1
  Br  Br4  1  0.687091  0.251447  0.361999  1
  Br  Br5  1  0.435644  0.748553  0.638001  1
  O  O6  1  0.073803  0.788556  0.249876  1
  O  O7  1  0.285247  0.211444  0.750124  1
  O  O8  1  0.084012  0.429226  0.204340  1
  O  O9  1  0.654785  0.570773  0.795660  1
  O  O10  1  0.130726  0.573681  0.965074  1
  O  O11  1  0.557046  0.426319  0.034926  1
  O  O12  1  0.633535  0.051726  0.197869  1
  O  O13  1  0.581811  0.948274  0.802131  1
  O  O14  1  0.849793  0.230269  0.505853  1
  O  O15  1  0.619524  0.769731  0.494147  1
  O  O16  1  0.400687  0.223301  0.424592  1
  O  O17  1  0.177386  0.776699  0.575408  1
