# generated using pymatgen
data_La7NdAl5Ga3Rh8
_symmetry_space_group_name_H-M   'P 1'
_cell_length_a   4.26462200
_cell_length_b   7.32275808
_cell_length_c   16.17896524
_cell_angle_alpha   90.23275676
_cell_angle_beta   90.00000000
_cell_angle_gamma   90.00000000
_symmetry_Int_Tables_number   1
_chemical_formula_structural   La7NdAl5Ga3Rh8
_chemical_formula_sum   'La7 Nd1 Al5 Ga3 Rh8'
_cell_volume   505.24542293
_cell_formula_units_Z   1
loop_
 _symmetry_equiv_pos_site_id
 _symmetry_equiv_pos_as_xyz
  1  'x, y, z'
loop_
 _atom_site_type_symbol
 _atom_site_label
 _atom_site_symmetry_multiplicity
 _atom_site_fract_x
 _atom_site_fract_y
 _atom_site_fract_z
 _atom_site_occupancy
  La  La0  1  0.250000  0.522269  0.779863  1
  La  La1  1  0.750000  0.976497  0.280464  1
  La  La2  1  0.250000  0.023648  0.719783  1
  La  La3  1  0.250000  0.655968  0.560293  1
  La  La4  1  0.750000  0.342170  0.438386  1
  La  La5  1  0.750000  0.843579  0.059735  1
  La  La6  1  0.250000  0.157201  0.939762  1
  Nd  Nd7  1  0.750000  0.482867  0.220799  1
  Al  Al8  1  0.250000  0.156073  0.149882  1
  Al  Al9  1  0.250000  0.503847  0.063062  1
  Al  Al10  1  0.750000  0.494866  0.940285  1
  Al  Al11  1  0.750000  0.995523  0.559755  1
  Al  Al12  1  0.250000  0.000665  0.439215  1
  Ga  Ga13  1  0.250000  0.645823  0.349041  1
  Ga  Ga14  1  0.750000  0.350854  0.648528  1
  Ga  Ga15  1  0.750000  0.850533  0.850897  1
  Rh  Rh16  1  0.250000  0.773716  0.177532  1
  Rh  Rh17  1  0.750000  0.235910  0.822049  1
  Rh  Rh18  1  0.750000  0.739551  0.678278  1
  Rh  Rh19  1  0.250000  0.259360  0.320851  1
  Rh  Rh20  1  0.250000  0.712429  0.929839  1
  Rh  Rh21  1  0.750000  0.282363  0.072603  1
  Rh  Rh22  1  0.750000  0.779348  0.428499  1
  Rh  Rh23  1  0.250000  0.214939  0.570598  1
