# generated using pymatgen
data_Ti4Nb6Al12Ir7
_symmetry_space_group_name_H-M   'P 1'
_cell_length_a   8.65876932
_cell_length_b   8.65876975
_cell_length_c   8.65876900
_cell_angle_alpha   59.99999903
_cell_angle_beta   59.99999740
_cell_angle_gamma   60.00000210
_symmetry_Int_Tables_number   1
_chemical_formula_structural   Ti4Nb6Al12Ir7
_chemical_formula_sum   'Ti4 Nb6 Al12 Ir7'
_cell_volume   459.04315066
_cell_formula_units_Z   1
loop_
 _symmetry_equiv_pos_site_id
 _symmetry_equiv_pos_as_xyz
  1  'x, y, z'
loop_
 _atom_site_type_symbol
 _atom_site_label
 _atom_site_symmetry_multiplicity
 _atom_site_fract_x
 _atom_site_fract_y
 _atom_site_fract_z
 _atom_site_occupancy
  Ti  Ti0  1  0.879689  0.879689  0.360933  1
  Ti  Ti1  1  0.879689  0.360933  0.879689  1
  Ti  Ti2  1  0.360933  0.879689  0.879689  1
  Ti  Ti3  1  0.879689  0.879689  0.879689  1
  Nb  Nb4  1  0.688026  0.688026  0.311974  1
  Nb  Nb5  1  0.311974  0.688026  0.311974  1
  Nb  Nb6  1  0.688026  0.311974  0.311974  1
  Nb  Nb7  1  0.311974  0.311974  0.688026  1
  Nb  Nb8  1  0.688026  0.311974  0.688026  1
  Nb  Nb9  1  0.311974  0.688026  0.688026  1
  Al  Al10  1  0.121139  0.121139  0.636584  1
  Al  Al11  1  0.121139  0.636584  0.121139  1
  Al  Al12  1  0.636584  0.121139  0.121139  1
  Al  Al13  1  0.121139  0.121139  0.121139  1
  Al  Al14  1  0.659823  0.659823  0.020531  1
  Al  Al15  1  0.659823  0.020531  0.659823  1
  Al  Al16  1  0.020531  0.659823  0.659823  1
  Al  Al17  1  0.659823  0.659823  0.659823  1
  Al  Al18  1  0.340181  0.340181  0.979460  1
  Al  Al19  1  0.340181  0.979460  0.340181  1
  Al  Al20  1  0.979460  0.340181  0.340181  1
  Al  Al21  1  0.340181  0.340181  0.340181  1
  Ir  Ir22  1  0.000000  0.000000  0.000000  1
  Ir  Ir23  1  0.998614  0.998614  0.501386  1
  Ir  Ir24  1  0.501386  0.998614  0.501386  1
  Ir  Ir25  1  0.998614  0.501386  0.501386  1
  Ir  Ir26  1  0.501386  0.501386  0.998614  1
  Ir  Ir27  1  0.998614  0.501386  0.998614  1
  Ir  Ir28  1  0.501386  0.998614  0.998614  1
