# generated using pymatgen
data_Ac8Mn3NiN12
_symmetry_space_group_name_H-M   'P 1'
_cell_length_a   6.40085006
_cell_length_b   6.40084953
_cell_length_c   12.43628605
_cell_angle_alpha   89.71828962
_cell_angle_beta   90.28170989
_cell_angle_gamma   127.73123989
_symmetry_Int_Tables_number   1
_chemical_formula_structural   Ac8Mn3NiN12
_chemical_formula_sum   'Ac8 Mn3 Ni1 N12'
_cell_volume   402.97261980
_cell_formula_units_Z   1
loop_
 _symmetry_equiv_pos_site_id
 _symmetry_equiv_pos_as_xyz
  1  'x, y, z'
loop_
 _atom_site_type_symbol
 _atom_site_label
 _atom_site_symmetry_multiplicity
 _atom_site_fract_x
 _atom_site_fract_y
 _atom_site_fract_z
 _atom_site_occupancy
  Ac  Ac0  1  0.434271  0.565729  0.347947  1
  Ac  Ac1  1  0.560416  0.439584  0.644888  1
  Ac  Ac2  1  0.059284  0.940716  0.853011  1
  Ac  Ac3  1  0.948842  0.051158  0.137983  1
  Ac  Ac4  1  0.140657  0.859343  0.426414  1
  Ac  Ac5  1  0.855397  0.144603  0.576108  1
  Ac  Ac6  1  0.354740  0.645260  0.930948  1
  Ac  Ac7  1  0.650075  0.349925  0.077648  1
  Mn  Mn8  1  0.739660  0.260340  0.835529  1
  Mn  Mn9  1  0.242040  0.757960  0.663492  1
  Mn  Mn10  1  0.761572  0.238428  0.336775  1
  Ni  Ni11  1  0.258884  0.741116  0.160353  1
  N  N12  1  0.146170  0.853830  0.034472  1
  N  N13  1  0.847012  0.152988  0.954302  1
  N  N14  1  0.344937  0.655063  0.542137  1
  N  N15  1  0.659203  0.340797  0.455125  1
  N  N16  1  0.441459  0.558541  0.130227  1
  N  N17  1  0.570478  0.429522  0.866362  1
  N  N18  1  0.071515  0.928485  0.627990  1
  N  N19  1  0.924937  0.075063  0.370874  1
  N  N20  1  0.992183  0.509172  0.262125  1
  N  N21  1  0.501902  0.996461  0.751583  1
  N  N22  1  0.003539  0.498098  0.751583  1
  N  N23  1  0.490828  0.007817  0.262125  1
