# generated using pymatgen
data_Dy3LuC7
_symmetry_space_group_name_H-M   'P 1'
_cell_length_a   13.71878200
_cell_length_b   3.68965189
_cell_length_c   6.44786507
_cell_angle_alpha   74.69194875
_cell_angle_beta   90.00000000
_cell_angle_gamma   90.00000000
_symmetry_Int_Tables_number   1
_chemical_formula_structural   Dy3LuC7
_chemical_formula_sum   'Dy6 Lu2 C14'
_cell_volume   314.79532554
_cell_formula_units_Z   2
loop_
 _symmetry_equiv_pos_site_id
 _symmetry_equiv_pos_as_xyz
  1  'x, y, z'
loop_
 _atom_site_type_symbol
 _atom_site_label
 _atom_site_symmetry_multiplicity
 _atom_site_fract_x
 _atom_site_fract_y
 _atom_site_fract_z
 _atom_site_occupancy
  Dy  Dy0  1  0.944501  0.374973  0.260513  1
  Dy  Dy1  1  0.444501  0.625027  0.239487  1
  Dy  Dy2  1  0.056437  0.640153  0.738858  1
  Dy  Dy3  1  0.556437  0.359847  0.761142  1
  Dy  Dy4  1  0.664680  0.052445  0.335878  1
  Dy  Dy5  1  0.164680  0.947555  0.164122  1
  Lu  Lu6  1  0.342194  0.936384  0.659739  1
  Lu  Lu7  1  0.842194  0.063616  0.840261  1
  C  C8  1  0.498671  0.999582  0.498853  1
  C  C9  1  0.998671  0.000418  0.001147  1
  C  C10  1  0.783284  0.478294  0.062297  1
  C  C11  1  0.283284  0.521706  0.437703  1
  C  C12  1  0.216467  0.550066  0.924698  1
  C  C13  1  0.716467  0.449934  0.575302  1
  C  C14  1  0.195065  0.369599  0.462065  1
  C  C15  1  0.695065  0.630401  0.037935  1
  C  C16  1  0.393623  0.257522  0.944425  1
  C  C17  1  0.893623  0.742478  0.555575  1
  C  C18  1  0.602228  0.728855  0.052412  1
  C  C19  1  0.102228  0.271145  0.447588  1
  C  C20  1  0.302849  0.383667  0.950195  1
  C  C21  1  0.802849  0.616333  0.549805  1
