# generated using pymatgen
data_TbEr9In8(CoNi)2
_symmetry_space_group_name_H-M   'P 1'
_cell_length_a   3.54321900
_cell_length_b   7.95234612
_cell_length_c   17.83112906
_cell_angle_alpha   89.93209016
_cell_angle_beta   90.00000000
_cell_angle_gamma   90.00000000
_symmetry_Int_Tables_number   1
_chemical_formula_structural   TbEr9In8(CoNi)2
_chemical_formula_sum   'Tb1 Er9 In8 Co2 Ni2'
_cell_volume   502.42565637
_cell_formula_units_Z   1
loop_
 _symmetry_equiv_pos_site_id
 _symmetry_equiv_pos_as_xyz
  1  'x, y, z'
loop_
 _atom_site_type_symbol
 _atom_site_label
 _atom_site_symmetry_multiplicity
 _atom_site_fract_x
 _atom_site_fract_y
 _atom_site_fract_z
 _atom_site_occupancy
  Tb  Tb0  1  0.000000  0.000000  0.000000  1
  Er  Er1  1  0.000000  0.500000  0.500000  1
  Er  Er2  1  0.000000  0.740333  0.277365  1
  Er  Er3  1  0.000000  0.259667  0.722635  1
  Er  Er4  1  0.000000  0.745422  0.778367  1
  Er  Er5  1  0.000000  0.254578  0.221633  1
  Er  Er6  1  0.000000  0.616117  0.090276  1
  Er  Er7  1  0.000000  0.383883  0.909724  1
  Er  Er8  1  0.000000  0.882183  0.589066  1
  Er  Er9  1  0.000000  0.117817  0.410934  1
  In  In10  1  0.500000  0.704066  0.929777  1
  In  In11  1  0.500000  0.295934  0.070223  1
  In  In12  1  0.500000  0.795179  0.430908  1
  In  In13  1  0.500000  0.204821  0.569092  1
  In  In14  1  0.500000  0.569315  0.651888  1
  In  In15  1  0.500000  0.430685  0.348112  1
  In  In16  1  0.500000  0.929222  0.152627  1
  In  In17  1  0.500000  0.070778  0.847373  1
  Co  Co18  1  0.500000  0.520433  0.195280  1
  Co  Co19  1  0.500000  0.479567  0.804720  1
  Ni  Ni20  1  0.500000  0.978914  0.695722  1
  Ni  Ni21  1  0.500000  0.021086  0.304278  1
