# generated using pymatgen
data_Ho5TaCoO12
_symmetry_space_group_name_H-M   'P 1'
_cell_length_a   6.77791211
_cell_length_b   6.77791187
_cell_length_c   7.28117493
_cell_angle_alpha   74.29678874
_cell_angle_beta   74.29678651
_cell_angle_gamma   50.85797400
_symmetry_Int_Tables_number   1
_chemical_formula_structural   Ho5TaCoO12
_chemical_formula_sum   'Ho5 Ta1 Co1 O12'
_cell_volume   247.50681126
_cell_formula_units_Z   1
loop_
 _symmetry_equiv_pos_site_id
 _symmetry_equiv_pos_as_xyz
  1  'x, y, z'
loop_
 _atom_site_type_symbol
 _atom_site_label
 _atom_site_symmetry_multiplicity
 _atom_site_fract_x
 _atom_site_fract_y
 _atom_site_fract_z
 _atom_site_occupancy
  Ho  Ho0  1  0.291031  0.314507  0.359116  1
  Ho  Ho1  1  0.685493  0.708969  0.640884  1
  Ho  Ho2  1  0.299749  0.317002  0.831303  1
  Ho  Ho3  1  0.682998  0.700251  0.168697  1
  Ho  Ho4  1  0.005293  0.994707  0.500000  1
  Ta  Ta5  1  0.783933  0.216067  0.000000  1
  Co  Co6  1  0.259936  0.740064  0.000000  1
  O  O7  1  0.899608  0.432888  0.917956  1
  O  O8  1  0.418361  0.900668  0.918343  1
  O  O9  1  0.099332  0.581639  0.081657  1
  O  O10  1  0.567112  0.100392  0.082044  1
  O  O11  1  0.090466  0.600149  0.574395  1
  O  O12  1  0.593182  0.104527  0.575845  1
  O  O13  1  0.895473  0.406818  0.424155  1
  O  O14  1  0.399851  0.909534  0.425605  1
  O  O15  1  0.016329  0.983848  0.811621  1
  O  O16  1  0.016152  0.983671  0.188379  1
  O  O17  1  0.498008  0.502307  0.818904  1
  O  O18  1  0.497693  0.501992  0.181096  1
