# generated using pymatgen
data_Er8Tm2Si5Bi
_symmetry_space_group_name_H-M   'P 1'
_cell_length_a   8.48830906
_cell_length_b   8.48830850
_cell_length_c   6.28121300
_cell_angle_alpha   90.00156145
_cell_angle_beta   90.00156731
_cell_angle_gamma   120.27449437
_symmetry_Int_Tables_number   1
_chemical_formula_structural   Er8Tm2Si5Bi
_chemical_formula_sum   'Er8 Tm2 Si5 Bi1'
_cell_volume   390.84861763
_cell_formula_units_Z   1
loop_
 _symmetry_equiv_pos_site_id
 _symmetry_equiv_pos_as_xyz
  1  'x, y, z'
loop_
 _atom_site_type_symbol
 _atom_site_label
 _atom_site_symmetry_multiplicity
 _atom_site_fract_x
 _atom_site_fract_y
 _atom_site_fract_z
 _atom_site_occupancy
  Er  Er0  1  0.677004  0.330750  0.505054  1
  Er  Er1  1  0.330750  0.677004  0.505054  1
  Er  Er2  1  0.768626  0.768626  0.249942  1
  Er  Er3  1  0.239082  0.984294  0.249947  1
  Er  Er4  1  0.984294  0.239082  0.249947  1
  Er  Er5  1  0.239373  0.239373  0.750041  1
  Er  Er6  1  0.755618  0.998604  0.750061  1
  Er  Er7  1  0.998604  0.755618  0.750061  1
  Tm  Tm8  1  0.330776  0.677021  0.994945  1
  Tm  Tm9  1  0.677021  0.330776  0.994945  1
  Si  Si10  1  0.603782  0.998629  0.249809  1
  Si  Si11  1  0.998629  0.603782  0.249809  1
  Si  Si12  1  0.606990  0.606990  0.750121  1
  Si  Si13  1  0.393506  0.002677  0.750203  1
  Si  Si14  1  0.002677  0.393506  0.750203  1
  Bi  Bi15  1  0.393268  0.393268  0.249857  1
