# generated using pymatgen
data_La6Ge2P11Rh20
_symmetry_space_group_name_H-M   'P 1'
_cell_length_a   13.69838931
_cell_length_b   13.71103022
_cell_length_c   3.97006273
_cell_angle_alpha   90.02941995
_cell_angle_beta   90.03931341
_cell_angle_gamma   119.93835835
_symmetry_Int_Tables_number   1
_chemical_formula_structural   La6Ge2P11Rh20
_chemical_formula_sum   'La6 Ge2 P11 Rh20'
_cell_volume   646.15498991
_cell_formula_units_Z   1
loop_
 _symmetry_equiv_pos_site_id
 _symmetry_equiv_pos_as_xyz
  1  'x, y, z'
loop_
 _atom_site_type_symbol
 _atom_site_label
 _atom_site_symmetry_multiplicity
 _atom_site_fract_x
 _atom_site_fract_y
 _atom_site_fract_z
 _atom_site_occupancy
  La  La0  1  0.528930  0.716886  0.247339  1
  La  La1  1  0.281683  0.810824  0.247609  1
  La  La2  1  0.188352  0.470404  0.247870  1
  La  La3  1  0.469620  0.285214  0.752835  1
  La  La4  1  0.722603  0.189975  0.752391  1
  La  La5  1  0.812582  0.530761  0.751809  1
  Ge  Ge6  1  0.523018  0.134818  0.251847  1
  Ge  Ge7  1  0.999548  0.999851  0.999824  1
  P  P8  1  0.869386  0.388378  0.250998  1
  P  P9  1  0.613279  0.481802  0.251166  1
  P  P10  1  0.948942  0.722422  0.252493  1
  P  P11  1  0.276443  0.224987  0.252352  1
  P  P12  1  0.772280  0.048928  0.252234  1
  P  P13  1  0.386979  0.519781  0.748920  1
  P  P14  1  0.479984  0.867170  0.748762  1
  P  P15  1  0.132848  0.612954  0.749019  1
  P  P16  1  0.723169  0.774265  0.748013  1
  P  P17  1  0.227308  0.950873  0.748133  1
  P  P18  1  0.050813  0.276967  0.747821  1
  Rh  Rh19  1  0.333363  0.665657  0.751368  1
  Rh  Rh20  1  0.926004  0.251726  0.252487  1
  Rh  Rh21  1  0.748109  0.674375  0.253354  1
  Rh  Rh22  1  0.320494  0.073729  0.252100  1
  Rh  Rh23  1  0.431525  0.014722  0.750644  1
  Rh  Rh24  1  0.974729  0.415933  0.750827  1
  Rh  Rh25  1  0.583906  0.558663  0.750741  1
  Rh  Rh26  1  0.673690  0.342903  0.247505  1
  Rh  Rh27  1  0.095114  0.195155  0.249487  1
  Rh  Rh28  1  0.806482  0.900535  0.251354  1
  Rh  Rh29  1  0.097226  0.903845  0.250969  1
  Rh  Rh30  1  0.027174  0.584712  0.249078  1
  Rh  Rh31  1  0.415470  0.441814  0.249353  1
  Rh  Rh32  1  0.560598  0.970112  0.249417  1
  Rh  Rh33  1  0.674569  0.923408  0.748002  1
  Rh  Rh34  1  0.074695  0.748364  0.747439  1
  Rh  Rh35  1  0.251081  0.326943  0.746439  1
  Rh  Rh36  1  0.904655  0.804722  0.750267  1
  Rh  Rh37  1  0.192719  0.099999  0.748950  1
  Rh  Rh38  1  0.900627  0.095422  0.748784  1
