# generated using pymatgen
data_Rb4Sc9Sb3Te20
_symmetry_space_group_name_H-M   'P 1'
_cell_length_a   4.24233400
_cell_length_b   12.97778294
_cell_length_c   22.96845212
_cell_angle_alpha   90.48785481
_cell_angle_beta   90.00000000
_cell_angle_gamma   90.00000000
_symmetry_Int_Tables_number   1
_chemical_formula_structural   Rb4Sc9Sb3Te20
_chemical_formula_sum   'Rb4 Sc9 Sb3 Te20'
_cell_volume   1264.50732360
_cell_formula_units_Z   1
loop_
 _symmetry_equiv_pos_site_id
 _symmetry_equiv_pos_as_xyz
  1  'x, y, z'
loop_
 _atom_site_type_symbol
 _atom_site_label
 _atom_site_symmetry_multiplicity
 _atom_site_fract_x
 _atom_site_fract_y
 _atom_site_fract_z
 _atom_site_occupancy
  Rb  Rb0  1  0.250000  0.345588  0.092134  1
  Rb  Rb1  1  0.750000  0.649690  0.914047  1
  Rb  Rb2  1  0.750000  0.855009  0.413442  1
  Rb  Rb3  1  0.250000  0.150239  0.584293  1
  Sc  Sc4  1  0.250000  0.046846  0.198122  1
  Sc  Sc5  1  0.250000  0.795234  0.666636  1
  Sc  Sc6  1  0.750000  0.198647  0.326980  1
  Sc  Sc7  1  0.750000  0.295846  0.834517  1
  Sc  Sc8  1  0.250000  0.710557  0.168961  1
  Sc  Sc9  1  0.250000  0.386804  0.442759  1
  Sc  Sc10  1  0.750000  0.611112  0.555770  1
  Sc  Sc11  1  0.750000  0.894776  0.057432  1
  Sc  Sc12  1  0.250000  0.110150  0.946251  1
  Sb  Sb13  1  0.250000  0.447382  0.700699  1
  Sb  Sb14  1  0.750000  0.550220  0.299019  1
  Sb  Sb15  1  0.750000  0.948290  0.798964  1
  Te  Te16  1  0.250000  0.453080  0.567126  1
  Te  Te17  1  0.750000  0.546121  0.432600  1
  Te  Te18  1  0.750000  0.951770  0.934252  1
  Te  Te19  1  0.250000  0.052079  0.070375  1
  Te  Te20  1  0.250000  0.769336  0.541932  1
  Te  Te21  1  0.750000  0.228765  0.454308  1
  Te  Te22  1  0.750000  0.268409  0.959497  1
  Te  Te23  1  0.250000  0.736966  0.044410  1
  Te  Te24  1  0.250000  0.791206  0.796428  1
  Te  Te25  1  0.750000  0.196781  0.198910  1
  Te  Te26  1  0.750000  0.290447  0.704005  1
  Te  Te27  1  0.250000  0.708687  0.298048  1
  Te  Te28  1  0.250000  0.449952  0.834060  1
  Te  Te29  1  0.750000  0.556991  0.166206  1
  Te  Te30  1  0.750000  0.950244  0.667513  1
  Te  Te31  1  0.250000  0.043468  0.325517  1
  Te  Te32  1  0.250000  0.363476  0.316182  1
  Te  Te33  1  0.750000  0.635020  0.682811  1
  Te  Te34  1  0.750000  0.876325  0.186638  1
  Te  Te35  1  0.250000  0.134488  0.819158  1
