# generated using pymatgen
data_Tb3Yb3Al17Si7Os8
_symmetry_space_group_name_H-M   'P 1'
_cell_length_a   8.69280738
_cell_length_b   8.67598642
_cell_length_c   9.57666700
_cell_angle_alpha   90.00000000
_cell_angle_beta   90.00000000
_cell_angle_gamma   120.17645159
_symmetry_Int_Tables_number   1
_chemical_formula_structural   Tb3Yb3Al17Si7Os8
_chemical_formula_sum   'Tb3 Yb3 Al17 Si7 Os8'
_cell_volume   624.38001581
_cell_formula_units_Z   1
loop_
 _symmetry_equiv_pos_site_id
 _symmetry_equiv_pos_as_xyz
  1  'x, y, z'
loop_
 _atom_site_type_symbol
 _atom_site_label
 _atom_site_symmetry_multiplicity
 _atom_site_fract_x
 _atom_site_fract_y
 _atom_site_fract_z
 _atom_site_occupancy
  Tb  Tb0  1  0.192641  0.387557  0.250000  1
  Tb  Tb1  1  0.611385  0.807414  0.250000  1
  Tb  Tb2  1  0.195763  0.805505  0.250000  1
  Yb  Yb3  1  0.806142  0.612609  0.750000  1
  Yb  Yb4  1  0.390105  0.191669  0.750000  1
  Yb  Yb5  1  0.800597  0.192152  0.750000  1
  Al  Al6  1  0.165697  0.332610  0.578549  1
  Al  Al7  1  0.833259  0.669010  0.422307  1
  Al  Al8  1  0.668794  0.834200  0.577825  1
  Al  Al9  1  0.833259  0.669010  0.077693  1
  Al  Al10  1  0.332142  0.166805  0.423875  1
  Al  Al11  1  0.165697  0.332610  0.921451  1
  Al  Al12  1  0.165128  0.833362  0.576658  1
  Al  Al13  1  0.332142  0.166805  0.076125  1
  Al  Al14  1  0.834189  0.165087  0.423690  1
  Al  Al15  1  0.668794  0.834200  0.922175  1
  Al  Al16  1  0.834189  0.165087  0.076310  1
  Al  Al17  1  0.165128  0.833362  0.923342  1
  Al  Al18  1  0.125201  0.565537  0.750000  1
  Al  Al19  1  0.565008  0.434131  0.250000  1
  Al  Al20  1  0.439051  0.565818  0.750000  1
  Al  Al21  1  0.999790  0.998789  0.250000  1
  Al  Al22  1  0.999999  0.001441  0.750000  1
  Si  Si23  1  0.333461  0.664706  0.039538  1
  Si  Si24  1  0.666562  0.336003  0.960736  1
  Si  Si25  1  0.666562  0.336003  0.539264  1
  Si  Si26  1  0.333461  0.664706  0.460462  1
  Si  Si27  1  0.565851  0.125930  0.250000  1
  Si  Si28  1  0.435073  0.871470  0.750000  1
  Si  Si29  1  0.873004  0.433262  0.250000  1
  Os  Os30  1  0.500466  0.000063  0.004046  1
  Os  Os31  1  0.999201  0.499877  0.009412  1
  Os  Os32  1  0.500466  0.000063  0.495954  1
  Os  Os33  1  0.500450  0.500849  0.003000  1
  Os  Os34  1  0.999201  0.499877  0.490588  1
  Os  Os35  1  0.500450  0.500849  0.497000  1
  Os  Os36  1  0.000845  0.000786  0.999029  1
  Os  Os37  1  0.000845  0.000786  0.500971  1
