# generated using pymatgen
data_Tb4LuRu2
_symmetry_space_group_name_H-M   'P 1'
_cell_length_a   6.35041363
_cell_length_b   7.24749213
_cell_length_c   8.50018325
_cell_angle_alpha   96.59358419
_cell_angle_beta   111.93445810
_cell_angle_gamma   89.99999813
_symmetry_Int_Tables_number   1
_chemical_formula_structural   Tb4LuRu2
_chemical_formula_sum   'Tb8 Lu2 Ru4'
_cell_volume   360.10667795
_cell_formula_units_Z   2
loop_
 _symmetry_equiv_pos_site_id
 _symmetry_equiv_pos_as_xyz
  1  'x, y, z'
loop_
 _atom_site_type_symbol
 _atom_site_label
 _atom_site_symmetry_multiplicity
 _atom_site_fract_x
 _atom_site_fract_y
 _atom_site_fract_z
 _atom_site_occupancy
  Tb  Tb0  1  0.522742  0.083522  0.814795  1
  Tb  Tb1  1  0.477258  0.916478  0.185205  1
  Tb  Tb2  1  0.707947  0.416478  0.185205  1
  Tb  Tb3  1  0.292053  0.583522  0.814795  1
  Tb  Tb4  1  0.296320  0.312559  0.431449  1
  Tb  Tb5  1  0.703680  0.687441  0.568551  1
  Tb  Tb6  1  0.864872  0.187441  0.568551  1
  Tb  Tb7  1  0.135128  0.812559  0.431449  1
  Lu  Lu8  1  0.076305  0.250000  0.000000  1
  Lu  Lu9  1  0.923695  0.750000  0.000000  1
  Ru  Ru10  1  0.318662  0.575061  0.217409  1
  Ru  Ru11  1  0.681338  0.424939  0.782591  1
  Ru  Ru12  1  0.101253  0.924939  0.782591  1
  Ru  Ru13  1  0.898747  0.075061  0.217409  1
