# generated using pymatgen
data_CeAs2O7
_symmetry_space_group_name_H-M   'P 1'
_cell_length_a   7.43448500
_cell_length_b   9.33531600
_cell_length_c   6.01587900
_cell_angle_alpha   90.00000000
_cell_angle_beta   90.00000000
_cell_angle_gamma   90.00000000
_symmetry_Int_Tables_number   1
_chemical_formula_structural   CeAs2O7
_chemical_formula_sum   'Ce2 As4 O14'
_cell_volume   417.52165511
_cell_formula_units_Z   2
loop_
 _symmetry_equiv_pos_site_id
 _symmetry_equiv_pos_as_xyz
  1  'x, y, z'
loop_
 _atom_site_type_symbol
 _atom_site_label
 _atom_site_symmetry_multiplicity
 _atom_site_fract_x
 _atom_site_fract_y
 _atom_site_fract_z
 _atom_site_occupancy
  Ce  Ce0  1  0.500000  0.000000  0.000000  1
  Ce  Ce1  1  0.000000  0.500000  0.499999  1
  As  As2  1  0.307588  0.391285  0.000000  1
  As  As3  1  0.692412  0.608715  0.000000  1
  As  As4  1  0.807587  0.108715  0.499999  1
  As  As5  1  0.192412  0.891285  0.499999  1
  O  O6  1  0.379621  0.219035  0.000000  1
  O  O7  1  0.500000  0.500000  0.000000  1
  O  O8  1  0.620378  0.780965  0.000000  1
  O  O9  1  0.192231  0.431335  0.235278  1
  O  O10  1  0.807768  0.568665  0.235278  1
  O  O11  1  0.692231  0.068665  0.264721  1
  O  O12  1  0.307769  0.931335  0.264721  1
  O  O13  1  0.000000  0.000000  0.499999  1
  O  O14  1  0.879621  0.280965  0.499999  1
  O  O15  1  0.120378  0.719035  0.499999  1
  O  O16  1  0.692231  0.068665  0.735279  1
  O  O17  1  0.307769  0.931335  0.735279  1
  O  O18  1  0.192231  0.431335  0.764723  1
  O  O19  1  0.807768  0.568665  0.764723  1
