# generated using pymatgen
data_Sr3NdSi7Hg
_symmetry_space_group_name_H-M   'P 1'
_cell_length_a   4.29654800
_cell_length_b   4.53799900
_cell_length_c   14.32157200
_cell_angle_alpha   90.00000000
_cell_angle_beta   90.00000000
_cell_angle_gamma   90.00000000
_symmetry_Int_Tables_number   1
_chemical_formula_structural   Sr3NdSi7Hg
_chemical_formula_sum   'Sr3 Nd1 Si7 Hg1'
_cell_volume   279.23815159
_cell_formula_units_Z   1
loop_
 _symmetry_equiv_pos_site_id
 _symmetry_equiv_pos_as_xyz
  1  'x, y, z'
loop_
 _atom_site_type_symbol
 _atom_site_label
 _atom_site_symmetry_multiplicity
 _atom_site_fract_x
 _atom_site_fract_y
 _atom_site_fract_z
 _atom_site_occupancy
  Sr  Sr0  1  0.000000  0.000000  0.507057  1
  Sr  Sr1  1  0.500000  0.000000  0.755707  1
  Sr  Sr2  1  0.000000  0.500000  0.236712  1
  Nd  Nd3  1  0.500000  0.500000  0.998925  1
  Si  Si4  1  0.000000  0.000000  0.916541  1
  Si  Si5  1  0.000000  0.500000  0.843178  1
  Si  Si6  1  0.500000  0.000000  0.321099  1
  Si  Si7  1  0.000000  0.000000  0.075545  1
  Si  Si8  1  0.500000  0.500000  0.595545  1
  Si  Si9  1  0.500000  0.000000  0.158379  1
  Si  Si10  1  0.000000  0.500000  0.677447  1
  Hg  Hg11  1  0.500000  0.500000  0.413862  1
