# generated using pymatgen
data_NdBi3(AuO3)4
_symmetry_space_group_name_H-M   'P 1'
_cell_length_a   4.03198800
_cell_length_b   5.67754700
_cell_length_c   13.30717535
_cell_angle_alpha   90.00000000
_cell_angle_beta   90.64991310
_cell_angle_gamma   90.00000000
_symmetry_Int_Tables_number   1
_chemical_formula_structural   NdBi3(AuO3)4
_chemical_formula_sum   'Nd1 Bi3 Au4 O12'
_cell_volume   304.60561741
_cell_formula_units_Z   1
loop_
 _symmetry_equiv_pos_site_id
 _symmetry_equiv_pos_as_xyz
  1  'x, y, z'
loop_
 _atom_site_type_symbol
 _atom_site_label
 _atom_site_symmetry_multiplicity
 _atom_site_fract_x
 _atom_site_fract_y
 _atom_site_fract_z
 _atom_site_occupancy
  Nd  Nd0  1  0.745594  0.750000  0.578871  1
  Bi  Bi1  1  0.275974  0.750000  0.075880  1
  Bi  Bi2  1  0.278300  0.250000  0.424049  1
  Bi  Bi3  1  0.720571  0.250000  0.926267  1
  Au  Au4  1  0.080441  0.750000  0.828675  1
  Au  Au5  1  0.079751  0.250000  0.668973  1
  Au  Au6  1  0.917229  0.250000  0.171109  1
  Au  Au7  1  0.915403  0.750000  0.330218  1
  O  O8  1  0.162242  0.498498  0.251755  1
  O  O9  1  0.834261  0.993531  0.744714  1
  O  O10  1  0.834261  0.506469  0.744714  1
  O  O11  1  0.162242  0.001502  0.251755  1
  O  O12  1  0.738184  0.490604  0.071565  1
  O  O13  1  0.740182  0.505065  0.426038  1
  O  O14  1  0.255984  0.990955  0.928245  1
  O  O15  1  0.262515  0.004742  0.575662  1
  O  O16  1  0.740182  0.994935  0.426038  1
  O  O17  1  0.738184  0.009396  0.071565  1
  O  O18  1  0.262515  0.495258  0.575662  1
  O  O19  1  0.255984  0.509045  0.928245  1
