# generated using pymatgen
data_TbPr7(PBr6)2
_symmetry_space_group_name_H-M   'P 1'
_cell_length_a   4.18142800
_cell_length_b   13.66897687
_cell_length_c   14.42644155
_cell_angle_alpha   90.41746191
_cell_angle_beta   90.00000000
_cell_angle_gamma   90.00000000
_symmetry_Int_Tables_number   1
_chemical_formula_structural   TbPr7(PBr6)2
_chemical_formula_sum   'Tb1 Pr7 P2 Br12'
_cell_volume   824.53353673
_cell_formula_units_Z   1
loop_
 _symmetry_equiv_pos_site_id
 _symmetry_equiv_pos_as_xyz
  1  'x, y, z'
loop_
 _atom_site_type_symbol
 _atom_site_label
 _atom_site_symmetry_multiplicity
 _atom_site_fract_x
 _atom_site_fract_y
 _atom_site_fract_z
 _atom_site_occupancy
  Tb  Tb0  1  0.500000  0.382146  0.841793  1
  Pr  Pr1  1  0.500000  0.118001  0.341950  1
  Pr  Pr2  1  0.500000  0.882334  0.658219  1
  Pr  Pr3  1  0.500000  0.616504  0.156269  1
  Pr  Pr4  1  0.000000  0.117760  0.578662  1
  Pr  Pr5  1  0.000000  0.883333  0.422134  1
  Pr  Pr6  1  0.000000  0.617263  0.923366  1
  Pr  Pr7  1  0.000000  0.384142  0.078514  1
  P  P8  1  0.500000  0.000811  0.500502  1
  P  P9  1  0.500000  0.496487  0.995335  1
  Br  Br10  1  0.500000  0.242271  0.161401  1
  Br  Br11  1  0.500000  0.756586  0.836813  1
  Br  Br12  1  0.500000  0.741774  0.336650  1
  Br  Br13  1  0.500000  0.260616  0.669139  1
  Br  Br14  1  0.000000  0.257426  0.413619  1
  Br  Br15  1  0.000000  0.742700  0.586779  1
  Br  Br16  1  0.000000  0.757338  0.087527  1
  Br  Br17  1  0.000000  0.251381  0.905759  1
  Br  Br18  1  0.000000  0.999369  0.241801  1
  Br  Br19  1  0.000000  0.000965  0.758623  1
  Br  Br20  1  0.000000  0.500206  0.258323  1
  Br  Br21  1  0.000000  0.490586  0.746823  1
