# generated using pymatgen
data_Pa4Ta3WC8
_symmetry_space_group_name_H-M   'P 1'
_cell_length_a   3.35621700
_cell_length_b   5.81798813
_cell_length_c   11.21121725
_cell_angle_alpha   90.02436153
_cell_angle_beta   90.00000000
_cell_angle_gamma   90.00000000
_symmetry_Int_Tables_number   1
_chemical_formula_structural   Pa4Ta3WC8
_chemical_formula_sum   'Pa4 Ta3 W1 C8'
_cell_volume   218.91503667
_cell_formula_units_Z   1
loop_
 _symmetry_equiv_pos_site_id
 _symmetry_equiv_pos_as_xyz
  1  'x, y, z'
loop_
 _atom_site_type_symbol
 _atom_site_label
 _atom_site_symmetry_multiplicity
 _atom_site_fract_x
 _atom_site_fract_y
 _atom_site_fract_z
 _atom_site_occupancy
  Pa  Pa0  1  0.250000  0.082960  0.858249  1
  Pa  Pa1  1  0.250000  0.581854  0.640192  1
  Pa  Pa2  1  0.750000  0.916668  0.141073  1
  Pa  Pa3  1  0.750000  0.418882  0.360426  1
  Ta  Ta4  1  0.250000  0.414631  0.104285  1
  Ta  Ta5  1  0.250000  0.917593  0.397835  1
  Ta  Ta6  1  0.750000  0.584185  0.893986  1
  W  W7  1  0.750000  0.084431  0.604319  1
  C  C8  1  0.250000  0.162729  0.246744  1
  C  C9  1  0.250000  0.662708  0.255116  1
  C  C10  1  0.750000  0.839620  0.751032  1
  C  C11  1  0.750000  0.334777  0.743248  1
  C  C12  1  0.250000  0.743461  0.991886  1
  C  C13  1  0.250000  0.239742  0.511203  1
  C  C14  1  0.750000  0.257151  0.006502  1
  C  C15  1  0.750000  0.758609  0.493904  1
