# generated using pymatgen
data_DyHoFe6(P3Rh2)2
_symmetry_space_group_name_H-M   'P 1'
_cell_length_a   3.76651800
_cell_length_b   10.33161500
_cell_length_c   12.18737300
_cell_angle_alpha   90.00000000
_cell_angle_beta   90.00000000
_cell_angle_gamma   90.00000000
_symmetry_Int_Tables_number   1
_chemical_formula_structural   DyHoFe6(P3Rh2)2
_chemical_formula_sum   'Dy2 Ho2 Fe12 P12 Rh8'
_cell_volume   474.26203939
_cell_formula_units_Z   2
loop_
 _symmetry_equiv_pos_site_id
 _symmetry_equiv_pos_as_xyz
  1  'x, y, z'
loop_
 _atom_site_type_symbol
 _atom_site_label
 _atom_site_symmetry_multiplicity
 _atom_site_fract_x
 _atom_site_fract_y
 _atom_site_fract_z
 _atom_site_occupancy
  Dy  Dy0  1  0.250000  0.580704  0.711460  1
  Dy  Dy1  1  0.250000  0.919296  0.211460  1
  Ho  Ho2  1  0.750000  0.419297  0.288526  1
  Ho  Ho3  1  0.750000  0.080703  0.788526  1
  Fe  Fe4  1  0.250000  0.224082  0.170730  1
  Fe  Fe5  1  0.250000  0.275918  0.670730  1
  Fe  Fe6  1  0.750000  0.776114  0.829291  1
  Fe  Fe7  1  0.750000  0.723886  0.329291  1
  Fe  Fe8  1  0.250000  0.877477  0.697091  1
  Fe  Fe9  1  0.250000  0.622523  0.197091  1
  Fe  Fe10  1  0.750000  0.122785  0.302996  1
  Fe  Fe11  1  0.750000  0.377215  0.802996  1
  Fe  Fe12  1  0.250000  0.458920  0.935357  1
  Fe  Fe13  1  0.250000  0.041080  0.435357  1
  Fe  Fe14  1  0.750000  0.540993  0.064757  1
  Fe  Fe15  1  0.750000  0.959007  0.564757  1
  P  P16  1  0.250000  0.429571  0.112843  1
  P  P17  1  0.250000  0.070429  0.612843  1
  P  P18  1  0.750000  0.570345  0.887370  1
  P  P19  1  0.750000  0.929655  0.387370  1
  P  P20  1  0.250000  0.273379  0.852794  1
  P  P21  1  0.250000  0.226621  0.352794  1
  P  P22  1  0.750000  0.726369  0.147155  1
  P  P23  1  0.750000  0.773631  0.647155  1
  P  P24  1  0.250000  0.605724  0.377576  1
  P  P25  1  0.250000  0.894276  0.877576  1
  P  P26  1  0.750000  0.394034  0.622344  1
  P  P27  1  0.750000  0.105966  0.122344  1
  Rh  Rh28  1  0.250000  0.707658  0.984990  1
  Rh  Rh29  1  0.250000  0.792342  0.484990  1
  Rh  Rh30  1  0.750000  0.292295  0.014998  1
  Rh  Rh31  1  0.750000  0.207705  0.514998  1
  Rh  Rh32  1  0.250000  0.404870  0.478485  1
  Rh  Rh33  1  0.250000  0.095130  0.978485  1
  Rh  Rh34  1  0.750000  0.595060  0.521236  1
  Rh  Rh35  1  0.750000  0.904940  0.021236  1
