# generated using pymatgen
data_Pr9Th(Bi3C)2
_symmetry_space_group_name_H-M   'P 1'
_cell_length_a   9.54182956
_cell_length_b   9.54183069
_cell_length_c   6.72260900
_cell_angle_alpha   90.00000000
_cell_angle_beta   90.00000000
_cell_angle_gamma   120.20020465
_symmetry_Int_Tables_number   1
_chemical_formula_structural   Pr9Th(Bi3C)2
_chemical_formula_sum   'Pr9 Th1 Bi6 C2'
_cell_volume   528.99572485
_cell_formula_units_Z   1
loop_
 _symmetry_equiv_pos_site_id
 _symmetry_equiv_pos_as_xyz
  1  'x, y, z'
loop_
 _atom_site_type_symbol
 _atom_site_label
 _atom_site_symmetry_multiplicity
 _atom_site_fract_x
 _atom_site_fract_y
 _atom_site_fract_z
 _atom_site_occupancy
  Pr  Pr0  1  0.666664  0.334731  0.999779  1
  Pr  Pr1  1  0.334731  0.666664  0.999779  1
  Pr  Pr2  1  0.334731  0.666664  0.500221  1
  Pr  Pr3  1  0.666664  0.334731  0.500221  1
  Pr  Pr4  1  0.220420  0.002870  0.750000  1
  Pr  Pr5  1  0.002870  0.220420  0.750000  1
  Pr  Pr6  1  0.215226  0.215226  0.250000  1
  Pr  Pr7  1  0.784123  0.999381  0.250000  1
  Pr  Pr8  1  0.999381  0.784123  0.250000  1
  Th  Th9  1  0.798044  0.798044  0.750000  1
  Bi  Bi10  1  0.401626  0.401626  0.750000  1
  Bi  Bi11  1  0.599151  0.001024  0.750000  1
  Bi  Bi12  1  0.001024  0.599151  0.750000  1
  Bi  Bi13  1  0.597040  0.597040  0.250000  1
  Bi  Bi14  1  0.399910  0.999951  0.250000  1
  Bi  Bi15  1  0.999951  0.399910  0.250000  1
  C  C16  1  0.989222  0.989222  0.993199  1
  C  C17  1  0.989222  0.989222  0.506801  1
