# generated using pymatgen
data_Sm2Sc3Tl4
_symmetry_space_group_name_H-M   'P 1'
_cell_length_a   7.78963700
_cell_length_b   8.06019400
_cell_length_c   15.28301400
_cell_angle_alpha   90.00000000
_cell_angle_beta   90.00000000
_cell_angle_gamma   90.00000000
_symmetry_Int_Tables_number   1
_chemical_formula_structural   Sm2Sc3Tl4
_chemical_formula_sum   'Sm8 Sc12 Tl16'
_cell_volume   959.55909402
_cell_formula_units_Z   4
loop_
 _symmetry_equiv_pos_site_id
 _symmetry_equiv_pos_as_xyz
  1  'x, y, z'
loop_
 _atom_site_type_symbol
 _atom_site_label
 _atom_site_symmetry_multiplicity
 _atom_site_fract_x
 _atom_site_fract_y
 _atom_site_fract_z
 _atom_site_occupancy
  Sm  Sm0  1  0.001605  0.180846  0.093898  1
  Sm  Sm1  1  0.998395  0.819154  0.906102  1
  Sm  Sm2  1  0.498395  0.680846  0.906102  1
  Sm  Sm3  1  0.998395  0.819154  0.593898  1
  Sm  Sm4  1  0.501605  0.319154  0.093898  1
  Sm  Sm5  1  0.001605  0.180846  0.406102  1
  Sm  Sm6  1  0.501605  0.319154  0.406102  1
  Sm  Sm7  1  0.498395  0.680846  0.593898  1
  Sc  Sc8  1  0.164151  0.495751  0.750000  1
  Sc  Sc9  1  0.835849  0.504249  0.250000  1
  Sc  Sc10  1  0.335849  0.995751  0.250000  1
  Sc  Sc11  1  0.664151  0.004249  0.750000  1
  Sc  Sc12  1  0.333202  0.159214  0.625825  1
  Sc  Sc13  1  0.666798  0.840786  0.374175  1
  Sc  Sc14  1  0.166798  0.659214  0.374175  1
  Sc  Sc15  1  0.666798  0.840786  0.125825  1
  Sc  Sc16  1  0.833202  0.340786  0.625825  1
  Sc  Sc17  1  0.333202  0.159214  0.874175  1
  Sc  Sc18  1  0.833202  0.340786  0.874175  1
  Sc  Sc19  1  0.166798  0.659214  0.125825  1
  Tl  Tl20  1  0.024376  0.126092  0.750000  1
  Tl  Tl21  1  0.975624  0.873908  0.250000  1
  Tl  Tl22  1  0.475624  0.626092  0.250000  1
  Tl  Tl23  1  0.524376  0.373908  0.750000  1
  Tl  Tl24  1  0.298024  0.858173  0.750000  1
  Tl  Tl25  1  0.701976  0.141827  0.250000  1
  Tl  Tl26  1  0.201976  0.358173  0.250000  1
  Tl  Tl27  1  0.798024  0.641827  0.750000  1
  Tl  Tl28  1  0.178280  0.456757  0.542223  1
  Tl  Tl29  1  0.821720  0.543243  0.457777  1
  Tl  Tl30  1  0.321720  0.956757  0.457777  1
  Tl  Tl31  1  0.821720  0.543243  0.042223  1
  Tl  Tl32  1  0.678280  0.043243  0.542223  1
  Tl  Tl33  1  0.178280  0.456757  0.957777  1
  Tl  Tl34  1  0.678280  0.043243  0.957777  1
  Tl  Tl35  1  0.321720  0.956757  0.042223  1
