# generated using pymatgen
data_Y3ZnIn2Ga2Cu
_symmetry_space_group_name_H-M   'P 1'
_cell_length_a   7.06123400
_cell_length_b   7.13002091
_cell_length_c   4.38026500
_cell_angle_alpha   90.00000000
_cell_angle_beta   90.00000000
_cell_angle_gamma   119.68137299
_symmetry_Int_Tables_number   1
_chemical_formula_structural   Y3ZnIn2Ga2Cu
_chemical_formula_sum   'Y3 Zn1 In2 Ga2 Cu1'
_cell_volume   191.59663506
_cell_formula_units_Z   1
loop_
 _symmetry_equiv_pos_site_id
 _symmetry_equiv_pos_as_xyz
  1  'x, y, z'
loop_
 _atom_site_type_symbol
 _atom_site_label
 _atom_site_symmetry_multiplicity
 _atom_site_fract_x
 _atom_site_fract_y
 _atom_site_fract_z
 _atom_site_occupancy
  Y  Y0  1  0.420570  0.000000  0.500000  1
  Y  Y1  1  0.999079  0.411490  0.500000  1
  Y  Y2  1  0.587590  0.588510  0.500000  1
  Zn  Zn3  1  0.753032  0.000000  0.000000  1
  In  In4  1  0.994769  0.755770  0.000000  1
  In  In5  1  0.238999  0.244230  0.000000  1
  Ga  Ga6  1  0.345654  0.677468  0.000000  1
  Ga  Ga7  1  0.668187  0.322532  0.000000  1
  Cu  Cu8  1  0.992119  0.000000  0.500000  1
