# generated using pymatgen
data_La2ErCoSn6
_symmetry_space_group_name_H-M   'P 1'
_cell_length_a   8.55918427
_cell_length_b   8.55918565
_cell_length_c   13.51000500
_cell_angle_alpha   90.00000000
_cell_angle_beta   90.00000000
_cell_angle_gamma   148.37628175
_symmetry_Int_Tables_number   1
_chemical_formula_structural   La2ErCoSn6
_chemical_formula_sum   'La4 Er2 Co2 Sn12'
_cell_volume   518.95778692
_cell_formula_units_Z   2
loop_
 _symmetry_equiv_pos_site_id
 _symmetry_equiv_pos_as_xyz
  1  'x, y, z'
loop_
 _atom_site_type_symbol
 _atom_site_label
 _atom_site_symmetry_multiplicity
 _atom_site_fract_x
 _atom_site_fract_y
 _atom_site_fract_z
 _atom_site_occupancy
  La  La0  1  0.900625  0.099375  0.093301  1
  La  La1  1  0.099375  0.900625  0.593301  1
  La  La2  1  0.099375  0.900625  0.906699  1
  La  La3  1  0.900625  0.099375  0.406699  1
  Er  Er4  1  0.898376  0.101624  0.750000  1
  Er  Er5  1  0.101624  0.898376  0.250000  1
  Co  Co6  1  0.295999  0.704001  0.250000  1
  Co  Co7  1  0.704001  0.295999  0.750000  1
  Sn  Sn8  1  0.755061  0.244939  0.572233  1
  Sn  Sn9  1  0.427126  0.572874  0.580587  1
  Sn  Sn10  1  0.572874  0.427126  0.419413  1
  Sn  Sn11  1  0.731476  0.268524  0.250000  1
  Sn  Sn12  1  0.268524  0.731476  0.750000  1
  Sn  Sn13  1  0.244939  0.755061  0.072233  1
  Sn  Sn14  1  0.244939  0.755061  0.427767  1
  Sn  Sn15  1  0.572874  0.427126  0.080587  1
  Sn  Sn16  1  0.454523  0.545477  0.250000  1
  Sn  Sn17  1  0.545477  0.454523  0.750000  1
  Sn  Sn18  1  0.755061  0.244939  0.927767  1
  Sn  Sn19  1  0.427126  0.572874  0.919413  1
