# generated using pymatgen
data_Tm12Fe3Hg2
_symmetry_space_group_name_H-M   'P 1'
_cell_length_a   8.18998314
_cell_length_b   8.18998284
_cell_length_c   8.18998363
_cell_angle_alpha   108.50969017
_cell_angle_beta   108.50968735
_cell_angle_gamma   111.41189089
_symmetry_Int_Tables_number   1
_chemical_formula_structural   Tm12Fe3Hg2
_chemical_formula_sum   'Tm12 Fe3 Hg2'
_cell_volume   422.52447584
_cell_formula_units_Z   1
loop_
 _symmetry_equiv_pos_site_id
 _symmetry_equiv_pos_as_xyz
  1  'x, y, z'
loop_
 _atom_site_type_symbol
 _atom_site_label
 _atom_site_symmetry_multiplicity
 _atom_site_fract_x
 _atom_site_fract_y
 _atom_site_fract_z
 _atom_site_occupancy
  Tm  Tm0  1  0.188842  0.427373  0.238530  1
  Tm  Tm1  1  0.811158  0.572627  0.761470  1
  Tm  Tm2  1  0.188842  0.950313  0.761470  1
  Tm  Tm3  1  0.950313  0.188842  0.761470  1
  Tm  Tm4  1  0.811158  0.049687  0.238530  1
  Tm  Tm5  1  0.049687  0.811158  0.238530  1
  Tm  Tm6  1  0.427373  0.188842  0.238530  1
  Tm  Tm7  1  0.572627  0.811158  0.761470  1
  Tm  Tm8  1  0.308245  0.308245  0.616491  1
  Tm  Tm9  1  0.691755  0.691755  0.383509  1
  Tm  Tm10  1  0.691755  0.308245  0.000000  1
  Tm  Tm11  1  0.308245  0.691755  0.000000  1
  Fe  Fe12  1  0.382799  0.382799  0.000000  1
  Fe  Fe13  1  0.617201  0.617201  0.000000  1
  Fe  Fe14  1  0.000000  0.000000  0.000000  1
  Hg  Hg15  1  0.000000  0.500000  0.500000  1
  Hg  Hg16  1  0.500000  0.000000  0.500000  1
