# generated using pymatgen
data_Cs13Ti2(In3As5)2
_symmetry_space_group_name_H-M   'P 1'
_cell_length_a   9.86778676
_cell_length_b   9.91433837
_cell_length_c   14.16349585
_cell_angle_alpha   83.14738662
_cell_angle_beta   79.71445995
_cell_angle_gamma   64.21950061
_symmetry_Int_Tables_number   1
_chemical_formula_structural   Cs13Ti2(In3As5)2
_chemical_formula_sum   'Cs13 Ti2 In6 As10'
_cell_volume   1226.32435773
_cell_formula_units_Z   1
loop_
 _symmetry_equiv_pos_site_id
 _symmetry_equiv_pos_as_xyz
  1  'x, y, z'
loop_
 _atom_site_type_symbol
 _atom_site_label
 _atom_site_symmetry_multiplicity
 _atom_site_fract_x
 _atom_site_fract_y
 _atom_site_fract_z
 _atom_site_occupancy
  Cs  Cs0  1  0.494232  0.868344  0.354666  1
  Cs  Cs1  1  0.505768  0.131656  0.645334  1
  Cs  Cs2  1  0.852468  0.583864  0.882007  1
  Cs  Cs3  1  0.147532  0.416136  0.117993  1
  Cs  Cs4  1  0.090116  0.783226  0.428890  1
  Cs  Cs5  1  0.909884  0.216774  0.571110  1
  Cs  Cs6  1  0.741957  0.686672  0.595809  1
  Cs  Cs7  1  0.258043  0.313328  0.404191  1
  Cs  Cs8  1  0.500000  0.500000  0.000000  1
  Cs  Cs9  1  0.316985  0.928730  0.087119  1
  Cs  Cs10  1  0.683015  0.071270  0.912881  1
  Cs  Cs11  1  0.892603  0.859326  0.166826  1
  Cs  Cs12  1  0.107397  0.140674  0.833174  1
  Ti  Ti13  1  0.377914  0.736604  0.774122  1
  Ti  Ti14  1  0.622086  0.263396  0.225878  1
  In  In15  1  0.040110  0.803690  0.709101  1
  In  In16  1  0.959890  0.196310  0.290899  1
  In  In17  1  0.595119  0.445810  0.409143  1
  In  In18  1  0.404881  0.554190  0.590857  1
  In  In19  1  0.721570  0.553404  0.174435  1
  In  In20  1  0.278430  0.446596  0.825565  1
  As  As21  1  0.439865  0.541200  0.253572  1
  As  As22  1  0.560135  0.458800  0.746428  1
  As  As23  1  0.141729  0.744506  0.889476  1
  As  As24  1  0.858271  0.255494  0.110524  1
  As  As25  1  0.706949  0.138670  0.387026  1
  As  As26  1  0.293051  0.861330  0.612974  1
  As  As27  1  0.851488  0.502919  0.352048  1
  As  As28  1  0.148512  0.497081  0.647952  1
  As  As29  1  0.496049  0.862525  0.839019  1
  As  As30  1  0.503951  0.137475  0.160981  1
