# generated using pymatgen
data_Tb8Dy12IrRu11
_symmetry_space_group_name_H-M   'P 1'
_cell_length_a   10.83591721
_cell_length_b   10.83796012
_cell_length_c   6.38351513
_cell_angle_alpha   89.96579186
_cell_angle_beta   89.96730402
_cell_angle_gamma   89.99345785
_symmetry_Int_Tables_number   1
_chemical_formula_structural   Tb8Dy12IrRu11
_chemical_formula_sum   'Tb8 Dy12 Ir1 Ru11'
_cell_volume   749.67489558
_cell_formula_units_Z   1
loop_
 _symmetry_equiv_pos_site_id
 _symmetry_equiv_pos_as_xyz
  1  'x, y, z'
loop_
 _atom_site_type_symbol
 _atom_site_label
 _atom_site_symmetry_multiplicity
 _atom_site_fract_x
 _atom_site_fract_y
 _atom_site_fract_z
 _atom_site_occupancy
  Tb  Tb0  1  0.291398  0.087134  0.377541  1
  Tb  Tb1  1  0.291312  0.914040  0.877863  1
  Tb  Tb2  1  0.708838  0.087194  0.877562  1
  Tb  Tb3  1  0.708911  0.912898  0.377696  1
  Tb  Tb4  1  0.587371  0.791835  0.877536  1
  Tb  Tb5  1  0.587069  0.207994  0.377289  1
  Tb  Tb6  1  0.413356  0.792124  0.377328  1
  Tb  Tb7  1  0.412894  0.209073  0.877598  1
  Dy  Dy8  1  0.207006  0.413547  0.622083  1
  Dy  Dy9  1  0.206696  0.585921  0.122035  1
  Dy  Dy10  1  0.793193  0.413767  0.122312  1
  Dy  Dy11  1  0.792183  0.586268  0.621926  1
  Dy  Dy12  1  0.913709  0.707357  0.122124  1
  Dy  Dy13  1  0.913579  0.292411  0.622049  1
  Dy  Dy14  1  0.085330  0.707417  0.621838  1
  Dy  Dy15  1  0.086279  0.292372  0.122041  1
  Dy  Dy16  1  0.000183  0.000168  0.500213  1
  Dy  Dy17  1  0.999786  0.999816  0.000222  1
  Dy  Dy18  1  0.501348  0.499567  0.001096  1
  Dy  Dy19  1  0.500427  0.498677  0.499411  1
  Ir  Ir20  1  0.345802  0.652697  0.750495  1
  Ru  Ru21  1  0.848071  0.153125  0.250338  1
  Ru  Ru22  1  0.847997  0.846541  0.750004  1
  Ru  Ru23  1  0.152243  0.153191  0.750689  1
  Ru  Ru24  1  0.152960  0.845910  0.250342  1
  Ru  Ru25  1  0.653072  0.348045  0.750371  1
  Ru  Ru26  1  0.652283  0.652419  0.250767  1
  Ru  Ru27  1  0.346423  0.348873  0.249967  1
  Ru  Ru28  1  0.500140  0.999587  0.123973  1
  Ru  Ru29  1  0.500015  0.000235  0.624736  1
  Ru  Ru30  1  0.999741  0.499937  0.874930  1
  Ru  Ru31  1  0.000386  0.499858  0.375625  1
