# generated using pymatgen
data_TbDy2Mn2Co9B4
_symmetry_space_group_name_H-M   'P 1'
_cell_length_a   5.08672300
_cell_length_b   5.08377529
_cell_length_c   9.68747200
_cell_angle_alpha   89.99993407
_cell_angle_beta   90.00009798
_cell_angle_gamma   120.01918888
_symmetry_Int_Tables_number   1
_chemical_formula_structural   TbDy2Mn2Co9B4
_chemical_formula_sum   'Tb1 Dy2 Mn2 Co9 B4'
_cell_volume   216.91097116
_cell_formula_units_Z   1
loop_
 _symmetry_equiv_pos_site_id
 _symmetry_equiv_pos_as_xyz
  1  'x, y, z'
loop_
 _atom_site_type_symbol
 _atom_site_label
 _atom_site_symmetry_multiplicity
 _atom_site_fract_x
 _atom_site_fract_y
 _atom_site_fract_z
 _atom_site_occupancy
  Tb  Tb0  1  0.999981  0.000000  0.999981  1
  Dy  Dy1  1  0.999996  0.000000  0.341257  1
  Dy  Dy2  1  0.000003  0.000000  0.658877  1
  Mn  Mn3  1  0.333307  0.666649  0.999955  1
  Mn  Mn4  1  0.666658  0.333351  0.999955  1
  Co  Co5  1  0.499999  0.000000  0.500020  1
  Co  Co6  1  0.499997  0.500001  0.500038  1
  Co  Co7  1  0.999997  0.499999  0.500038  1
  Co  Co8  1  0.499993  0.000000  0.205605  1
  Co  Co9  1  0.499992  0.500000  0.205541  1
  Co  Co10  1  0.999992  0.500000  0.205541  1
  Co  Co11  1  0.500001  0.000000  0.794422  1
  Co  Co12  1  0.499999  0.500001  0.794368  1
  Co  Co13  1  0.999998  0.499999  0.794368  1
  B  B14  1  0.333421  0.666851  0.350456  1
  B  B15  1  0.666569  0.333149  0.350456  1
  B  B16  1  0.666644  0.333291  0.649563  1
  B  B17  1  0.333352  0.666709  0.649563  1
