# generated using pymatgen
data_La5PrGa3Sn7
_symmetry_space_group_name_H-M   'P 1'
_cell_length_a   6.61150186
_cell_length_b   6.61150232
_cell_length_c   10.42734381
_cell_angle_alpha   90.20839634
_cell_angle_beta   90.20839660
_cell_angle_gamma   102.32089644
_symmetry_Int_Tables_number   1
_chemical_formula_structural   La5PrGa3Sn7
_chemical_formula_sum   'La5 Pr1 Ga3 Sn7'
_cell_volume   445.29408373
_cell_formula_units_Z   1
loop_
 _symmetry_equiv_pos_site_id
 _symmetry_equiv_pos_as_xyz
  1  'x, y, z'
loop_
 _atom_site_type_symbol
 _atom_site_label
 _atom_site_symmetry_multiplicity
 _atom_site_fract_x
 _atom_site_fract_y
 _atom_site_fract_z
 _atom_site_occupancy
  La  La0  1  0.362390  0.362390  0.751660  1
  La  La1  1  0.204919  0.800218  0.499950  1
  La  La2  1  0.204349  0.794631  0.001649  1
  La  La3  1  0.800218  0.204919  0.499950  1
  La  La4  1  0.794631  0.204349  0.001649  1
  Pr  Pr5  1  0.638863  0.638863  0.239131  1
  Ga  Ga6  1  0.308189  0.308189  0.044796  1
  Ga  Ga7  1  0.689921  0.689921  0.952500  1
  Ga  Ga8  1  0.306796  0.306796  0.454731  1
  Sn  Sn9  1  0.027451  0.027451  0.249319  1
  Sn  Sn10  1  0.974258  0.974258  0.754196  1
  Sn  Sn11  1  0.679166  0.679166  0.540284  1
  Sn  Sn12  1  0.489985  0.094021  0.250119  1
  Sn  Sn13  1  0.914922  0.509919  0.754974  1
  Sn  Sn14  1  0.509919  0.914922  0.754974  1
  Sn  Sn15  1  0.094021  0.489985  0.250119  1
