# generated using pymatgen
data_KP4RhO12
_symmetry_space_group_name_H-M   'P 1'
_cell_length_a   10.62910702
_cell_length_b   10.62910672
_cell_length_c   5.22906447
_cell_angle_alpha   80.82485995
_cell_angle_beta   80.82485917
_cell_angle_gamma   71.73945929
_symmetry_Int_Tables_number   1
_chemical_formula_structural   KP4RhO12
_chemical_formula_sum   'K2 P8 Rh2 O24'
_cell_volume   550.05045779
_cell_formula_units_Z   2
loop_
 _symmetry_equiv_pos_site_id
 _symmetry_equiv_pos_as_xyz
  1  'x, y, z'
loop_
 _atom_site_type_symbol
 _atom_site_label
 _atom_site_symmetry_multiplicity
 _atom_site_fract_x
 _atom_site_fract_y
 _atom_site_fract_z
 _atom_site_occupancy
  K  K0  1  0.407509  0.407509  0.734860  1
  K  K1  1  0.592491  0.592491  0.265140  1
  P  P2  1  0.798204  0.354986  0.838226  1
  P  P3  1  0.068600  0.307783  0.534551  1
  P  P4  1  0.307783  0.068600  0.534551  1
  P  P5  1  0.645014  0.201796  0.161774  1
  P  P6  1  0.354986  0.798204  0.838226  1
  P  P7  1  0.692217  0.931400  0.465449  1
  P  P8  1  0.931400  0.692217  0.465449  1
  P  P9  1  0.201796  0.645014  0.161774  1
  Rh  Rh10  1  0.500000  0.000000  0.000000  1
  Rh  Rh11  1  0.000000  0.500000  0.000000  1
  O  O12  1  0.426624  0.842119  0.022557  1
  O  O13  1  0.400231  0.102637  0.687876  1
  O  O14  1  0.428437  0.677663  0.709289  1
  O  O15  1  0.157881  0.573376  0.977443  1
  O  O16  1  0.573376  0.157881  0.977443  1
  O  O17  1  0.908128  0.664330  0.758979  1
  O  O18  1  0.215114  0.784886  0.000000  1
  O  O19  1  0.571563  0.322337  0.290711  1
  O  O20  1  0.599769  0.897363  0.312124  1
  O  O21  1  0.706524  0.076343  0.373662  1
  O  O22  1  0.322337  0.571563  0.290711  1
  O  O23  1  0.897363  0.599769  0.312124  1
  O  O24  1  0.842119  0.426624  0.022557  1
  O  O25  1  0.076343  0.706524  0.373662  1
  O  O26  1  0.156238  0.156238  0.608269  1
  O  O27  1  0.102637  0.400231  0.687876  1
  O  O28  1  0.677663  0.428437  0.709289  1
  O  O29  1  0.293476  0.923657  0.626338  1
  O  O30  1  0.784886  0.215114  0.000000  1
  O  O31  1  0.335670  0.091872  0.241021  1
  O  O32  1  0.664330  0.908128  0.758979  1
  O  O33  1  0.843762  0.843762  0.391731  1
  O  O34  1  0.923657  0.293476  0.626338  1
  O  O35  1  0.091872  0.335670  0.241021  1
