# generated using pymatgen
data_La3PrGa9GeIr6
_symmetry_space_group_name_H-M   'P 1'
_cell_length_a   8.67234247
_cell_length_b   8.73242866
_cell_length_c   8.73242743
_cell_angle_alpha   140.60550004
_cell_angle_beta   108.16041513
_cell_angle_gamma   85.24478986
_symmetry_Int_Tables_number   1
_chemical_formula_structural   La3PrGa9GeIr6
_chemical_formula_sum   'La3 Pr1 Ga9 Ge1 Ir6'
_cell_volume   384.87427476
_cell_formula_units_Z   1
loop_
 _symmetry_equiv_pos_site_id
 _symmetry_equiv_pos_as_xyz
  1  'x, y, z'
loop_
 _atom_site_type_symbol
 _atom_site_label
 _atom_site_symmetry_multiplicity
 _atom_site_fract_x
 _atom_site_fract_y
 _atom_site_fract_z
 _atom_site_occupancy
  La  La0  1  0.865411  0.635564  0.229846  1
  La  La1  1  0.135100  0.364984  0.770115  1
  La  La2  1  0.403780  0.135484  0.268296  1
  Pr  Pr3  1  0.592578  0.863523  0.729055  1
  Ga  Ga4  1  0.501432  0.751021  0.251937  1
  Ga  Ga5  1  0.501432  0.249495  0.750412  1
  Ga  Ga6  1  0.209899  0.960086  0.748922  1
  Ga  Ga7  1  0.789904  0.541576  0.750401  1
  Ga  Ga8  1  0.789904  0.039504  0.248327  1
  Ga  Ga9  1  0.209899  0.460978  0.249814  1
  Ga  Ga10  1  0.074845  0.906331  0.168515  1
  Ga  Ga11  1  0.923005  0.089899  0.833106  1
  Ga  Ga12  1  0.740432  0.408425  0.332007  1
  Ge  Ge13  1  0.258443  0.592530  0.665912  1
  Ir  Ir14  1  0.002753  0.750175  0.753034  1
  Ir  Ir15  1  0.002753  0.249720  0.252578  1
  Ir  Ir16  1  0.256114  0.853630  0.402485  1
  Ir  Ir17  1  0.746745  0.147890  0.598855  1
  Ir  Ir18  1  0.450363  0.353314  0.097049  1
  Ir  Ir19  1  0.545206  0.645870  0.899336  1
