# generated using pymatgen
data_Tl4Si(PS3)4
_symmetry_space_group_name_H-M   'P 1'
_cell_length_a   7.35136881
_cell_length_b   7.35136856
_cell_length_c   23.44256900
_cell_angle_alpha   80.98301340
_cell_angle_beta   80.98301371
_cell_angle_gamma   66.42797153
_symmetry_Int_Tables_number   1
_chemical_formula_structural   Tl4Si(PS3)4
_chemical_formula_sum   'Tl8 Si2 P8 S24'
_cell_volume   1140.62872102
_cell_formula_units_Z   2
loop_
 _symmetry_equiv_pos_site_id
 _symmetry_equiv_pos_as_xyz
  1  'x, y, z'
loop_
 _atom_site_type_symbol
 _atom_site_label
 _atom_site_symmetry_multiplicity
 _atom_site_fract_x
 _atom_site_fract_y
 _atom_site_fract_z
 _atom_site_occupancy
  Tl  Tl0  1  0.825617  0.794599  0.544944  1
  Tl  Tl1  1  0.205401  0.174383  0.955056  1
  Tl  Tl2  1  0.174383  0.205401  0.455056  1
  Tl  Tl3  1  0.794599  0.825617  0.044944  1
  Tl  Tl4  1  0.685223  0.516252  0.824263  1
  Tl  Tl5  1  0.483748  0.314777  0.675737  1
  Tl  Tl6  1  0.314777  0.483748  0.175737  1
  Tl  Tl7  1  0.516252  0.685223  0.324263  1
  Si  Si8  1  0.024793  0.975207  0.750000  1
  Si  Si9  1  0.975207  0.024793  0.250000  1
  P  P10  1  0.105840  0.701558  0.872507  1
  P  P11  1  0.298442  0.894160  0.627493  1
  P  P12  1  0.894160  0.298442  0.127493  1
  P  P13  1  0.701558  0.105840  0.372507  1
  P  P14  1  0.078329  0.214192  0.617940  1
  P  P15  1  0.785808  0.921671  0.882060  1
  P  P16  1  0.921671  0.785808  0.382060  1
  P  P17  1  0.214192  0.078329  0.117940  1
  S  S18  1  0.211596  0.642968  0.948513  1
  S  S19  1  0.357032  0.788404  0.551487  1
  S  S20  1  0.788404  0.357032  0.051487  1
  S  S21  1  0.642968  0.211596  0.448513  1
  S  S22  1  0.130206  0.474874  0.830885  1
  S  S23  1  0.525126  0.869794  0.669115  1
  S  S24  1  0.869794  0.525126  0.169115  1
  S  S25  1  0.474874  0.130206  0.330885  1
  S  S26  1  0.097227  0.778149  0.684097  1
  S  S27  1  0.221851  0.902773  0.815903  1
  S  S28  1  0.902773  0.221851  0.315903  1
  S  S29  1  0.778149  0.097227  0.184097  1
  S  S30  1  0.226890  0.383536  0.579327  1
  S  S31  1  0.616464  0.773110  0.920673  1
  S  S32  1  0.773110  0.616464  0.420673  1
  S  S33  1  0.383536  0.226890  0.079327  1
  S  S34  1  0.843410  0.244329  0.579754  1
  S  S35  1  0.755671  0.156590  0.920246  1
  S  S36  1  0.156590  0.755671  0.420246  1
  S  S37  1  0.244329  0.843410  0.079754  1
  S  S38  1  0.009373  0.265402  0.709305  1
  S  S39  1  0.734598  0.990627  0.790695  1
  S  S40  1  0.990627  0.734598  0.290695  1
  S  S41  1  0.265402  0.009373  0.209305  1
