# generated using pymatgen
data_Sm2NO
_symmetry_space_group_name_H-M   'P 1'
_cell_length_a   6.14196225
_cell_length_b   6.14196232
_cell_length_c   6.14196246
_cell_angle_alpha   131.86522931
_cell_angle_beta   131.86522855
_cell_angle_gamma   70.44195877
_symmetry_Int_Tables_number   1
_chemical_formula_structural   Sm2NO
_chemical_formula_sum   'Sm4 N2 O2'
_cell_volume   125.91738614
_cell_formula_units_Z   2
loop_
 _symmetry_equiv_pos_site_id
 _symmetry_equiv_pos_as_xyz
  1  'x, y, z'
loop_
 _atom_site_type_symbol
 _atom_site_label
 _atom_site_symmetry_multiplicity
 _atom_site_fract_x
 _atom_site_fract_y
 _atom_site_fract_z
 _atom_site_occupancy
  Sm  Sm0  1  0.254933  0.254933  0.000000  1
  Sm  Sm1  1  0.004933  0.504933  0.500000  1
  Sm  Sm2  1  0.745067  0.745067  0.000000  1
  Sm  Sm3  1  0.495067  0.995067  0.500000  1
  N  N4  1  0.500000  0.500000  0.000000  1
  N  N5  1  0.250000  0.750000  0.500000  1
  O  O6  1  0.750000  0.250000  0.500000  1
  O  O7  1  0.000000  0.000000  0.000000  1
