# generated using pymatgen
data_NaLa6ReBr12
_symmetry_space_group_name_H-M   'P 1'
_cell_length_a   9.58037864
_cell_length_b   9.79070119
_cell_length_c   9.77957336
_cell_angle_alpha   107.64692290
_cell_angle_beta   107.18523074
_cell_angle_gamma   107.13031456
_symmetry_Int_Tables_number   1
_chemical_formula_structural   NaLa6ReBr12
_chemical_formula_sum   'Na1 La6 Re1 Br12'
_cell_volume   757.14536879
_cell_formula_units_Z   1
loop_
 _symmetry_equiv_pos_site_id
 _symmetry_equiv_pos_as_xyz
  1  'x, y, z'
loop_
 _atom_site_type_symbol
 _atom_site_label
 _atom_site_symmetry_multiplicity
 _atom_site_fract_x
 _atom_site_fract_y
 _atom_site_fract_z
 _atom_site_occupancy
  Na  Na0  1  0.500000  0.500000  0.500000  1
  La  La1  1  0.311265  0.109824  0.029654  1
  La  La2  1  0.030557  0.325749  0.117647  1
  La  La3  1  0.118583  0.032740  0.326100  1
  La  La4  1  0.881416  0.967260  0.673900  1
  La  La5  1  0.969443  0.674251  0.882352  1
  La  La6  1  0.688735  0.890176  0.970345  1
  Re  Re7  1  0.000000  0.000000  0.000000  1
  Br  Br8  1  0.680918  0.214658  0.070428  1
  Br  Br9  1  0.374180  0.455002  0.160243  1
  Br  Br10  1  0.071470  0.685758  0.214464  1
  Br  Br11  1  0.782583  0.928235  0.315173  1
  Br  Br12  1  0.460700  0.162020  0.373320  1
  Br  Br13  1  0.156939  0.371586  0.456048  1
  Br  Br14  1  0.843062  0.628414  0.543953  1
  Br  Br15  1  0.539300  0.837981  0.626680  1
  Br  Br16  1  0.217416  0.071765  0.684827  1
  Br  Br17  1  0.928530  0.314242  0.785535  1
  Br  Br18  1  0.625821  0.544999  0.839757  1
  Br  Br19  1  0.319082  0.785341  0.929572  1
