# generated using pymatgen
data_Cu3BS4
_symmetry_space_group_name_H-M   'P 1'
_cell_length_a   5.96604900
_cell_length_b   6.09598300
_cell_length_c   7.00870500
_cell_angle_alpha   90.00000000
_cell_angle_beta   90.00000000
_cell_angle_gamma   90.00000000
_symmetry_Int_Tables_number   1
_chemical_formula_structural   Cu3BS4
_chemical_formula_sum   'Cu6 B2 S8'
_cell_volume   254.89912453
_cell_formula_units_Z   2
loop_
 _symmetry_equiv_pos_site_id
 _symmetry_equiv_pos_as_xyz
  1  'x, y, z'
loop_
 _atom_site_type_symbol
 _atom_site_label
 _atom_site_symmetry_multiplicity
 _atom_site_fract_x
 _atom_site_fract_y
 _atom_site_fract_z
 _atom_site_occupancy
  Cu  Cu0  1  0.911041  0.824981  0.251005  1
  Cu  Cu1  1  0.411041  0.175019  0.248995  1
  Cu  Cu2  1  0.411041  0.175019  0.751005  1
  Cu  Cu3  1  0.911041  0.824981  0.748995  1
  Cu  Cu4  1  0.406706  0.648373  0.500000  1
  Cu  Cu5  1  0.906706  0.351627  0.000000  1
  B  B6  1  0.402226  0.673412  0.000000  1
  B  B7  1  0.902226  0.326588  0.500000  1
  S  S8  1  0.292170  0.819797  0.774341  1
  S  S9  1  0.792170  0.180203  0.725659  1
  S  S10  1  0.787655  0.623296  0.500000  1
  S  S11  1  0.287655  0.376704  0.000000  1
  S  S12  1  0.792170  0.180203  0.274341  1
  S  S13  1  0.292170  0.819797  0.225659  1
  S  S14  1  0.727750  0.678316  0.000000  1
  S  S15  1  0.227750  0.321684  0.500000  1
