# generated using pymatgen
data_Nd5Th3Zn8(Ir3Rh)2
_symmetry_space_group_name_H-M   'P 1'
_cell_length_a   3.97062600
_cell_length_b   7.46646461
_cell_length_c   16.62160292
_cell_angle_alpha   90.05456069
_cell_angle_beta   90.00000000
_cell_angle_gamma   90.00000000
_symmetry_Int_Tables_number   1
_chemical_formula_structural   Nd5Th3Zn8(Ir3Rh)2
_chemical_formula_sum   'Nd5 Th3 Zn8 Ir6 Rh2'
_cell_volume   492.77276770
_cell_formula_units_Z   1
loop_
 _symmetry_equiv_pos_site_id
 _symmetry_equiv_pos_as_xyz
  1  'x, y, z'
loop_
 _atom_site_type_symbol
 _atom_site_label
 _atom_site_symmetry_multiplicity
 _atom_site_fract_x
 _atom_site_fract_y
 _atom_site_fract_z
 _atom_site_occupancy
  Nd  Nd0  1  0.750000  0.945376  0.284214  1
  Nd  Nd1  1  0.750000  0.830876  0.061621  1
  Nd  Nd2  1  0.750000  0.447594  0.214841  1
  Nd  Nd3  1  0.250000  0.053250  0.715262  1
  Nd  Nd4  1  0.250000  0.551571  0.785492  1
  Th  Th5  1  0.250000  0.171321  0.940144  1
  Th  Th6  1  0.250000  0.671444  0.561509  1
  Th  Th7  1  0.750000  0.327846  0.438323  1
  Zn  Zn8  1  0.750000  0.006481  0.561153  1
  Zn  Zn9  1  0.250000  0.618766  0.346455  1
  Zn  Zn10  1  0.750000  0.381591  0.653904  1
  Zn  Zn11  1  0.250000  0.502721  0.059790  1
  Zn  Zn12  1  0.750000  0.509007  0.939979  1
  Zn  Zn13  1  0.250000  0.992939  0.438391  1
  Zn  Zn14  1  0.250000  0.117295  0.151700  1
  Zn  Zn15  1  0.750000  0.880434  0.846296  1
  Ir  Ir16  1  0.750000  0.743785  0.440016  1
  Ir  Ir17  1  0.250000  0.248153  0.318462  1
  Ir  Ir18  1  0.750000  0.247611  0.820141  1
  Ir  Ir19  1  0.750000  0.748788  0.680512  1
  Ir  Ir20  1  0.250000  0.255174  0.560377  1
  Ir  Ir21  1  0.750000  0.250189  0.060497  1
  Rh  Rh22  1  0.250000  0.745587  0.186246  1
  Rh  Rh23  1  0.250000  0.752202  0.934675  1
