# generated using pymatgen
data_Tb2FeCo8P6Ru
_symmetry_space_group_name_H-M   'P 1'
_cell_length_a   3.68959400
_cell_length_b   10.34110200
_cell_length_c   11.80985000
_cell_angle_alpha   90.00000000
_cell_angle_beta   90.00000000
_cell_angle_gamma   90.00000000
_symmetry_Int_Tables_number   1
_chemical_formula_structural   Tb2FeCo8P6Ru
_chemical_formula_sum   'Tb4 Fe2 Co16 P12 Ru2'
_cell_volume   450.59854264
_cell_formula_units_Z   2
loop_
 _symmetry_equiv_pos_site_id
 _symmetry_equiv_pos_as_xyz
  1  'x, y, z'
loop_
 _atom_site_type_symbol
 _atom_site_label
 _atom_site_symmetry_multiplicity
 _atom_site_fract_x
 _atom_site_fract_y
 _atom_site_fract_z
 _atom_site_occupancy
  Tb  Tb0  1  0.250000  0.581540  0.702155  1
  Tb  Tb1  1  0.250000  0.918460  0.202155  1
  Tb  Tb2  1  0.750000  0.414294  0.295424  1
  Tb  Tb3  1  0.750000  0.085706  0.795424  1
  Fe  Fe4  1  0.750000  0.289147  0.012197  1
  Fe  Fe5  1  0.750000  0.210853  0.512197  1
  Co  Co6  1  0.250000  0.405307  0.486688  1
  Co  Co7  1  0.250000  0.094693  0.986688  1
  Co  Co8  1  0.750000  0.591897  0.510238  1
  Co  Co9  1  0.750000  0.908103  0.010238  1
  Co  Co10  1  0.250000  0.220370  0.176274  1
  Co  Co11  1  0.250000  0.279630  0.676274  1
  Co  Co12  1  0.750000  0.778750  0.823158  1
  Co  Co13  1  0.750000  0.721250  0.323158  1
  Co  Co14  1  0.250000  0.886447  0.701504  1
  Co  Co15  1  0.250000  0.613553  0.201504  1
  Co  Co16  1  0.750000  0.116492  0.301514  1
  Co  Co17  1  0.750000  0.383508  0.801514  1
  Co  Co18  1  0.250000  0.465093  0.933553  1
  Co  Co19  1  0.250000  0.034907  0.433553  1
  Co  Co20  1  0.750000  0.532872  0.068226  1
  Co  Co21  1  0.750000  0.967128  0.568226  1
  P  P22  1  0.250000  0.417177  0.112241  1
  P  P23  1  0.250000  0.082823  0.612241  1
  P  P24  1  0.750000  0.578890  0.886969  1
  P  P25  1  0.750000  0.921110  0.386969  1
  P  P26  1  0.250000  0.271227  0.867416  1
  P  P27  1  0.250000  0.228773  0.367416  1
  P  P28  1  0.750000  0.728631  0.133356  1
  P  P29  1  0.750000  0.771369  0.633356  1
  P  P30  1  0.250000  0.595421  0.390866  1
  P  P31  1  0.250000  0.904579  0.890866  1
  P  P32  1  0.750000  0.396307  0.607760  1
  P  P33  1  0.750000  0.103693  0.107760  1
  Ru  Ru34  1  0.250000  0.713584  0.990461  1
  Ru  Ru35  1  0.250000  0.786416  0.490461  1
