# generated using pymatgen
data_SmEr3(WN3)4
_symmetry_space_group_name_H-M   'P 1'
_cell_length_a   7.34160239
_cell_length_b   7.34160310
_cell_length_c   6.28002750
_cell_angle_alpha   73.81251847
_cell_angle_beta   73.81251756
_cell_angle_gamma   81.81579071
_symmetry_Int_Tables_number   1
_chemical_formula_structural   SmEr3(WN3)4
_chemical_formula_sum   'Sm1 Er3 W4 N12'
_cell_volume   311.41344611
_cell_formula_units_Z   1
loop_
 _symmetry_equiv_pos_site_id
 _symmetry_equiv_pos_as_xyz
  1  'x, y, z'
loop_
 _atom_site_type_symbol
 _atom_site_label
 _atom_site_symmetry_multiplicity
 _atom_site_fract_x
 _atom_site_fract_y
 _atom_site_fract_z
 _atom_site_occupancy
  Sm  Sm0  1  0.708203  0.291797  0.750000  1
  Er  Er1  1  0.090984  0.909016  0.750000  1
  Er  Er2  1  0.287927  0.712073  0.250000  1
  Er  Er3  1  0.911986  0.088014  0.250000  1
  W  W4  1  0.378793  0.200056  0.232084  1
  W  W5  1  0.619130  0.799306  0.771043  1
  W  W6  1  0.799944  0.621207  0.267916  1
  W  W7  1  0.200694  0.380870  0.728957  1
  N  N8  1  0.624252  0.111234  0.167082  1
  N  N9  1  0.347258  0.367235  0.432634  1
  N  N10  1  0.005500  0.214165  0.849464  1
  N  N11  1  0.373813  0.889162  0.840355  1
  N  N12  1  0.785835  0.994500  0.650536  1
  N  N13  1  0.110838  0.626187  0.659645  1
  N  N14  1  0.888766  0.375748  0.332918  1
  N  N15  1  0.652882  0.638516  0.562650  1
  N  N16  1  0.632765  0.652742  0.067366  1
  N  N17  1  0.361484  0.347118  0.937350  1
  N  N18  1  0.001052  0.782110  0.151779  1
  N  N19  1  0.217890  0.998948  0.348221  1
