# generated using pymatgen
data_HfSc2Sn3Ir2Rh
_symmetry_space_group_name_H-M   'P 1'
_cell_length_a   7.61620633
_cell_length_b   7.66132079
_cell_length_c   3.39302700
_cell_angle_alpha   90.00000000
_cell_angle_beta   90.00000000
_cell_angle_gamma   120.19612685
_symmetry_Int_Tables_number   1
_chemical_formula_structural   HfSc2Sn3Ir2Rh
_chemical_formula_sum   'Hf1 Sc2 Sn3 Ir2 Rh1'
_cell_volume   171.11914463
_cell_formula_units_Z   1
loop_
 _symmetry_equiv_pos_site_id
 _symmetry_equiv_pos_as_xyz
  1  'x, y, z'
loop_
 _atom_site_type_symbol
 _atom_site_label
 _atom_site_symmetry_multiplicity
 _atom_site_fract_x
 _atom_site_fract_y
 _atom_site_fract_z
 _atom_site_occupancy
  Hf  Hf0  1  0.000000  0.607631  0.500000  1
  Sc  Sc1  1  0.391445  0.392305  0.500000  1
  Sc  Sc2  1  0.608555  0.000860  0.500000  1
  Sn  Sn3  1  0.716709  0.723769  0.000000  1
  Sn  Sn4  1  0.283291  0.007059  0.000000  1
  Sn  Sn5  1  0.000000  0.268264  0.000000  1
  Ir  Ir6  1  0.678394  0.343795  0.000000  1
  Ir  Ir7  1  0.321606  0.665401  0.000000  1
  Rh  Rh8  1  0.000000  0.990914  0.500000  1
