# generated using pymatgen
data_Ho2Er6Cd2IrPt
_symmetry_space_group_name_H-M   'P 1'
_cell_length_a   9.58512319
_cell_length_b   9.58359952
_cell_length_c   9.56605812
_cell_angle_alpha   60.07106796
_cell_angle_beta   60.05523734
_cell_angle_gamma   60.16274359
_symmetry_Int_Tables_number   1
_chemical_formula_structural   Ho2Er6Cd2IrPt
_chemical_formula_sum   'Ho4 Er12 Cd4 Ir2 Pt2'
_cell_volume   622.71680086
_cell_formula_units_Z   2
loop_
 _symmetry_equiv_pos_site_id
 _symmetry_equiv_pos_as_xyz
  1  'x, y, z'
loop_
 _atom_site_type_symbol
 _atom_site_label
 _atom_site_symmetry_multiplicity
 _atom_site_fract_x
 _atom_site_fract_y
 _atom_site_fract_z
 _atom_site_occupancy
  Ho  Ho0  1  0.815077  0.187077  0.812100  1
  Ho  Ho1  1  0.187077  0.815077  0.185746  1
  Ho  Ho2  1  0.814082  0.814082  0.185918  1
  Ho  Ho3  1  0.186722  0.186722  0.813278  1
  Er  Er4  1  0.600654  0.600784  0.596148  1
  Er  Er5  1  0.600784  0.600654  0.202415  1
  Er  Er6  1  0.605930  0.194432  0.599790  1
  Er  Er7  1  0.194432  0.605930  0.599849  1
  Er  Er8  1  0.057040  0.439794  0.440338  1
  Er  Er9  1  0.439794  0.057040  0.062829  1
  Er  Er10  1  0.439801  0.057099  0.440350  1
  Er  Er11  1  0.057099  0.439801  0.062752  1
  Er  Er12  1  0.440832  0.440832  0.059168  1
  Er  Er13  1  0.061314  0.061314  0.438686  1
  Er  Er14  1  0.187113  0.815027  0.812012  1
  Er  Er15  1  0.815027  0.187113  0.185848  1
  Cd  Cd16  1  0.831426  0.831252  0.831989  1
  Cd  Cd17  1  0.831252  0.831426  0.505331  1
  Cd  Cd18  1  0.830555  0.505530  0.832046  1
  Cd  Cd19  1  0.505530  0.830555  0.831870  1
  Ir  Ir20  1  0.390728  0.823695  0.392866  1
  Ir  Ir21  1  0.823695  0.390728  0.392713  1
  Pt  Pt22  1  0.392128  0.391910  0.394741  1
  Pt  Pt23  1  0.391910  0.392128  0.821221  1
