# generated using pymatgen
data_Ho16In4IrPd3
_symmetry_space_group_name_H-M   'P 1'
_cell_length_a   9.65412295
_cell_length_b   9.65412233
_cell_length_c   9.69939671
_cell_angle_alpha   60.15428419
_cell_angle_beta   60.15428711
_cell_angle_gamma   60.00000203
_symmetry_Int_Tables_number   1
_chemical_formula_structural   Ho16In4IrPd3
_chemical_formula_sum   'Ho16 In4 Ir1 Pd3'
_cell_volume   640.71400054
_cell_formula_units_Z   1
loop_
 _symmetry_equiv_pos_site_id
 _symmetry_equiv_pos_as_xyz
  1  'x, y, z'
loop_
 _atom_site_type_symbol
 _atom_site_label
 _atom_site_symmetry_multiplicity
 _atom_site_fract_x
 _atom_site_fract_y
 _atom_site_fract_z
 _atom_site_occupancy
  Ho  Ho0  1  0.437214  0.437214  0.061494  1
  Ho  Ho1  1  0.646934  0.646934  0.059198  1
  Ho  Ho2  1  0.183905  0.811313  0.193469  1
  Ho  Ho3  1  0.064078  0.437214  0.061494  1
  Ho  Ho4  1  0.189323  0.810282  0.811072  1
  Ho  Ho5  1  0.061570  0.440930  0.435930  1
  Ho  Ho6  1  0.811313  0.183905  0.193469  1
  Ho  Ho7  1  0.650808  0.650808  0.643393  1
  Ho  Ho8  1  0.810282  0.189323  0.811072  1
  Ho  Ho9  1  0.189323  0.189323  0.811072  1
  Ho  Ho10  1  0.054992  0.650808  0.643393  1
  Ho  Ho11  1  0.437214  0.064078  0.061494  1
  Ho  Ho12  1  0.061570  0.061570  0.435930  1
  Ho  Ho13  1  0.650808  0.054992  0.643393  1
  Ho  Ho14  1  0.811313  0.811313  0.193469  1
  Ho  Ho15  1  0.440930  0.061570  0.435930  1
  In  In16  1  0.416690  0.416690  0.416507  1
  In  In17  1  0.416271  0.416271  0.751187  1
  In  In18  1  0.416690  0.750114  0.416507  1
  In  In19  1  0.750114  0.416690  0.416507  1
  Ir  Ir20  1  0.856561  0.856561  0.430315  1
  Pd  Pd21  1  0.432167  0.854965  0.857901  1
  Pd  Pd22  1  0.854965  0.854965  0.857901  1
  Pd  Pd23  1  0.854965  0.432167  0.857901  1
