# generated using pymatgen
data_Ca12Ac7ScPb16
_symmetry_space_group_name_H-M   'P 1'
_cell_length_a   8.27763554
_cell_length_b   16.70773063
_cell_length_c   8.84012600
_cell_angle_alpha   90.08678870
_cell_angle_beta   89.95511240
_cell_angle_gamma   90.03115800
_symmetry_Int_Tables_number   1
_chemical_formula_structural   Ca12Ac7ScPb16
_chemical_formula_sum   'Ca12 Ac7 Sc1 Pb16'
_cell_volume   1222.59193085
_cell_formula_units_Z   1
loop_
 _symmetry_equiv_pos_site_id
 _symmetry_equiv_pos_as_xyz
  1  'x, y, z'
loop_
 _atom_site_type_symbol
 _atom_site_label
 _atom_site_symmetry_multiplicity
 _atom_site_fract_x
 _atom_site_fract_y
 _atom_site_fract_z
 _atom_site_occupancy
  Ca  Ca0  1  0.669292  0.622574  0.162256  1
  Ca  Ca1  1  0.168710  0.875299  0.334759  1
  Ca  Ca2  1  0.330994  0.124460  0.835405  1
  Ca  Ca3  1  0.829853  0.377117  0.665692  1
  Ca  Ca4  1  0.332817  0.377898  0.832451  1
  Ca  Ca5  1  0.830201  0.123525  0.664855  1
  Ca  Ca6  1  0.668839  0.875968  0.163291  1
  Ca  Ca7  1  0.171620  0.623426  0.337193  1
  Ca  Ca8  1  0.497903  0.596684  0.689126  1
  Ca  Ca9  1  0.833452  0.747343  0.497180  1
  Ca  Ca10  1  0.336903  0.747461  0.000617  1
  Ca  Ca11  1  0.165631  0.250976  0.502003  1
  Ac  Ac12  1  0.003854  0.903104  0.813610  1
  Ac  Ac13  1  0.498248  0.093370  0.316876  1
  Ac  Ac14  1  0.998443  0.407769  0.184213  1
  Ac  Ac15  1  0.498990  0.409635  0.320251  1
  Ac  Ac16  1  0.998996  0.093819  0.183555  1
  Ac  Ac17  1  0.503319  0.904678  0.685342  1
  Ac  Ac18  1  0.001930  0.594785  0.813050  1
  Sc  Sc19  1  0.667735  0.251714  0.996559  1
  Pb  Pb20  1  0.671815  0.453030  0.964018  1
  Pb  Pb21  1  0.170663  0.041309  0.541065  1
  Pb  Pb22  1  0.328431  0.959601  0.039624  1
  Pb  Pb23  1  0.820475  0.541725  0.465288  1
  Pb  Pb24  1  0.329384  0.540009  0.037676  1
  Pb  Pb25  1  0.828373  0.959192  0.459153  1
  Pb  Pb26  1  0.670884  0.045847  0.961869  1
  Pb  Pb27  1  0.168823  0.459776  0.540558  1
  Pb  Pb28  1  0.470753  0.750283  0.384840  1
  Pb  Pb29  1  0.970204  0.749439  0.111697  1
  Pb  Pb30  1  0.533324  0.249884  0.619678  1
  Pb  Pb31  1  0.018557  0.250268  0.896237  1
  Pb  Pb32  1  0.705447  0.747815  0.857955  1
  Pb  Pb33  1  0.209971  0.749439  0.638620  1
  Pb  Pb34  1  0.307154  0.250693  0.134442  1
  Pb  Pb35  1  0.788010  0.250084  0.349002  1
