# generated using pymatgen
data_CeHo3(IrO4)4
_symmetry_space_group_name_H-M   'P 1'
_cell_length_a   5.35715825
_cell_length_b   7.41512296
_cell_length_c   7.62625029
_cell_angle_alpha   81.21255230
_cell_angle_beta   90.68555397
_cell_angle_gamma   90.26173841
_symmetry_Int_Tables_number   1
_chemical_formula_structural   CeHo3(IrO4)4
_chemical_formula_sum   'Ce1 Ho3 Ir4 O16'
_cell_volume   299.36647910
_cell_formula_units_Z   1
loop_
 _symmetry_equiv_pos_site_id
 _symmetry_equiv_pos_as_xyz
  1  'x, y, z'
loop_
 _atom_site_type_symbol
 _atom_site_label
 _atom_site_symmetry_multiplicity
 _atom_site_fract_x
 _atom_site_fract_y
 _atom_site_fract_z
 _atom_site_occupancy
  Ce  Ce0  1  0.724010  0.889118  0.354828  1
  Ho  Ho1  1  0.275503  0.112032  0.653131  1
  Ho  Ho2  1  0.781952  0.388075  0.347654  1
  Ho  Ho3  1  0.212029  0.606330  0.658997  1
  Ir  Ir4  1  0.770264  0.299683  0.839797  1
  Ir  Ir5  1  0.230103  0.698865  0.158985  1
  Ir  Ir6  1  0.274871  0.201282  0.160340  1
  Ir  Ir7  1  0.725339  0.800114  0.838719  1
  O  O8  1  0.910840  0.807553  0.058935  1
  O  O9  1  0.097107  0.196596  0.935628  1
  O  O10  1  0.381941  0.945963  0.161818  1
  O  O11  1  0.622673  0.055720  0.828034  1
  O  O12  1  0.125497  0.442754  0.173962  1
  O  O13  1  0.876153  0.555370  0.834559  1
  O  O14  1  0.599458  0.306427  0.064172  1
  O  O15  1  0.405105  0.691577  0.936600  1
  O  O16  1  0.973788  0.327237  0.609261  1
  O  O17  1  0.028569  0.675169  0.389991  1
  O  O18  1  0.475997  0.175113  0.393523  1
  O  O19  1  0.512751  0.824646  0.609773  1
  O  O20  1  0.524498  0.620349  0.308518  1
  O  O21  1  0.479996  0.381966  0.691190  1
  O  O22  1  0.984347  0.116660  0.310834  1
  O  O23  1  0.007209  0.881398  0.680751  1
