# generated using pymatgen
data_RbDy(NbCl3)6
_symmetry_space_group_name_H-M   'P 1'
_cell_length_a   10.24941882
_cell_length_b   10.24941847
_cell_length_c   10.24941899
_cell_angle_alpha   55.40054774
_cell_angle_beta   55.40054834
_cell_angle_gamma   55.40054889
_symmetry_Int_Tables_number   1
_chemical_formula_structural   RbDy(NbCl3)6
_chemical_formula_sum   'Rb1 Dy1 Nb6 Cl18'
_cell_volume   680.00746750
_cell_formula_units_Z   1
loop_
 _symmetry_equiv_pos_site_id
 _symmetry_equiv_pos_as_xyz
  1  'x, y, z'
loop_
 _atom_site_type_symbol
 _atom_site_label
 _atom_site_symmetry_multiplicity
 _atom_site_fract_x
 _atom_site_fract_y
 _atom_site_fract_z
 _atom_site_occupancy
  Rb  Rb0  1  0.222058  0.222058  0.222058  1
  Dy  Dy1  1  0.498405  0.498405  0.498405  1
  Nb  Nb2  1  0.800999  0.149140  0.911923  1
  Nb  Nb3  1  0.911923  0.800999  0.149140  1
  Nb  Nb4  1  0.149140  0.911923  0.800999  1
  Nb  Nb5  1  0.200264  0.851362  0.086850  1
  Nb  Nb6  1  0.086850  0.200264  0.851362  1
  Nb  Nb7  1  0.851362  0.086850  0.200264  1
  Cl  Cl8  1  0.864302  0.411628  0.726993  1
  Cl  Cl9  1  0.726993  0.864302  0.411628  1
  Cl  Cl10  1  0.411628  0.726993  0.864302  1
  Cl  Cl11  1  0.134665  0.588173  0.275453  1
  Cl  Cl12  1  0.275453  0.134665  0.588173  1
  Cl  Cl13  1  0.588173  0.275453  0.134665  1
  Cl  Cl14  1  0.536578  0.341851  0.799943  1
  Cl  Cl15  1  0.799943  0.536578  0.341851  1
  Cl  Cl16  1  0.341851  0.799943  0.536578  1
  Cl  Cl17  1  0.460150  0.660263  0.201775  1
  Cl  Cl18  1  0.201775  0.460150  0.660263  1
  Cl  Cl19  1  0.660263  0.201775  0.460150  1
  Cl  Cl20  1  0.663113  0.939448  0.070662  1
  Cl  Cl21  1  0.070662  0.663113  0.939448  1
  Cl  Cl22  1  0.939448  0.070662  0.663113  1
  Cl  Cl23  1  0.340069  0.059661  0.925406  1
  Cl  Cl24  1  0.925406  0.340069  0.059661  1
  Cl  Cl25  1  0.059661  0.925406  0.340069  1
