# generated using pymatgen
data_TaTi4Sn3Ge
_symmetry_space_group_name_H-M   'P 1'
_cell_length_a   8.27087200
_cell_length_b   8.27087350
_cell_length_c   5.58583100
_cell_angle_alpha   90.00000000
_cell_angle_beta   90.00000000
_cell_angle_gamma   119.99999399
_symmetry_Int_Tables_number   1
_chemical_formula_structural   TaTi4Sn3Ge
_chemical_formula_sum   'Ta2 Ti8 Sn6 Ge2'
_cell_volume   330.91856196
_cell_formula_units_Z   2
loop_
 _symmetry_equiv_pos_site_id
 _symmetry_equiv_pos_as_xyz
  1  'x, y, z'
loop_
 _atom_site_type_symbol
 _atom_site_label
 _atom_site_symmetry_multiplicity
 _atom_site_fract_x
 _atom_site_fract_y
 _atom_site_fract_z
 _atom_site_occupancy
  Ta  Ta0  1  0.333333  0.666667  0.500000  1
  Ta  Ta1  1  0.666667  0.333333  0.500000  1
  Ti  Ti2  1  0.265275  0.000000  0.748794  1
  Ti  Ti3  1  0.734725  0.000000  0.251206  1
  Ti  Ti4  1  0.000000  0.265275  0.748794  1
  Ti  Ti5  1  0.000000  0.734725  0.251206  1
  Ti  Ti6  1  0.734725  0.734725  0.748794  1
  Ti  Ti7  1  0.265275  0.265275  0.251206  1
  Ti  Ti8  1  0.666667  0.333333  0.000000  1
  Ti  Ti9  1  0.333333  0.666667  0.000000  1
  Sn  Sn10  1  0.608681  0.000000  0.753634  1
  Sn  Sn11  1  0.391319  0.000000  0.246366  1
  Sn  Sn12  1  0.000000  0.608681  0.753634  1
  Sn  Sn13  1  0.000000  0.391319  0.246366  1
  Sn  Sn14  1  0.391319  0.391319  0.753634  1
  Sn  Sn15  1  0.608681  0.608681  0.246366  1
  Ge  Ge16  1  0.000000  0.000000  0.500000  1
  Ge  Ge17  1  0.000000  0.000000  0.000000  1
