# generated using pymatgen
data_Th14ReNi3Ru2
_symmetry_space_group_name_H-M   'P 1'
_cell_length_a   9.90021227
_cell_length_b   9.91490524
_cell_length_c   6.25092685
_cell_angle_alpha   89.74030644
_cell_angle_beta   89.74384268
_cell_angle_gamma   119.57879779
_symmetry_Int_Tables_number   1
_chemical_formula_structural   Th14ReNi3Ru2
_chemical_formula_sum   'Th14 Re1 Ni3 Ru2'
_cell_volume   533.60319427
_cell_formula_units_Z   1
loop_
 _symmetry_equiv_pos_site_id
 _symmetry_equiv_pos_as_xyz
  1  'x, y, z'
loop_
 _atom_site_type_symbol
 _atom_site_label
 _atom_site_symmetry_multiplicity
 _atom_site_fract_x
 _atom_site_fract_y
 _atom_site_fract_z
 _atom_site_occupancy
  Th  Th0  1  0.466385  0.549498  0.294569  1
  Th  Th1  1  0.086177  0.545067  0.292717  1
  Th  Th2  1  0.915600  0.454111  0.798449  1
  Th  Th3  1  0.249671  0.125853  0.496603  1
  Th  Th4  1  0.542093  0.087330  0.790564  1
  Th  Th5  1  0.752890  0.878316  0.998682  1
  Th  Th6  1  0.664422  0.331167  0.298239  1
  Th  Th7  1  0.127351  0.875415  0.004628  1
  Th  Th8  1  0.457985  0.913875  0.291263  1
  Th  Th9  1  0.538170  0.450769  0.794655  1
  Th  Th10  1  0.871812  0.125246  0.498927  1
  Th  Th11  1  0.129632  0.258064  0.001556  1
  Th  Th12  1  0.872541  0.743847  0.508587  1
  Th  Th13  1  0.334410  0.667934  0.798632  1
  Re  Re14  1  0.808492  0.623358  0.056559  1
  Ni  Ni15  1  0.807102  0.179742  0.055185  1
  Ni  Ni16  1  0.627089  0.818863  0.557021  1
  Ni  Ni17  1  0.371405  0.182014  0.052408  1
  Ru  Ru18  1  0.185560  0.370707  0.546398  1
  Ru  Ru19  1  0.191213  0.818828  0.548356  1
