# generated using pymatgen
data_Sm8ErLu11Pb16
_symmetry_space_group_name_H-M   'P 1'
_cell_length_a   8.17316964
_cell_length_b   8.26918492
_cell_length_c   15.55700800
_cell_angle_alpha   89.98314908
_cell_angle_beta   89.97728686
_cell_angle_gamma   89.90012805
_symmetry_Int_Tables_number   1
_chemical_formula_structural   Sm8ErLu11Pb16
_chemical_formula_sum   'Sm8 Er1 Lu11 Pb16'
_cell_volume   1051.42567889
_cell_formula_units_Z   1
loop_
 _symmetry_equiv_pos_site_id
 _symmetry_equiv_pos_as_xyz
  1  'x, y, z'
loop_
 _atom_site_type_symbol
 _atom_site_label
 _atom_site_symmetry_multiplicity
 _atom_site_fract_x
 _atom_site_fract_y
 _atom_site_fract_z
 _atom_site_occupancy
  Sm  Sm0  1  0.470812  0.677391  0.597625  1
  Sm  Sm1  1  0.971194  0.821603  0.902749  1
  Sm  Sm2  1  0.529363  0.322109  0.097779  1
  Sm  Sm3  1  0.028445  0.177632  0.402617  1
  Sm  Sm4  1  0.529693  0.322900  0.401544  1
  Sm  Sm5  1  0.029450  0.177963  0.097272  1
  Sm  Sm6  1  0.470623  0.677734  0.902755  1
  Sm  Sm7  1  0.970760  0.821662  0.597156  1
  Er  Er8  1  0.630966  0.158501  0.622334  1
  Lu  Lu9  1  0.131465  0.342884  0.877481  1
  Lu  Lu10  1  0.368370  0.842327  0.123081  1
  Lu  Lu11  1  0.868474  0.657411  0.376386  1
  Lu  Lu12  1  0.368170  0.842751  0.377140  1
  Lu  Lu13  1  0.867850  0.657267  0.122930  1
  Lu  Lu14  1  0.631933  0.157123  0.876969  1
  Lu  Lu15  1  0.132423  0.342193  0.623105  1
  Lu  Lu16  1  0.799530  0.494167  0.750439  1
  Lu  Lu17  1  0.298837  0.006339  0.750426  1
  Lu  Lu18  1  0.201024  0.506465  0.250068  1
  Lu  Lu19  1  0.700844  0.993430  0.249693  1
  Pb  Pb20  1  0.708546  0.959369  0.455646  1
  Pb  Pb21  1  0.208834  0.539670  0.043648  1
  Pb  Pb22  1  0.291759  0.039461  0.956836  1
  Pb  Pb23  1  0.792610  0.462077  0.542870  1
  Pb  Pb24  1  0.289340  0.038657  0.543212  1
  Pb  Pb25  1  0.790880  0.459974  0.956985  1
  Pb  Pb26  1  0.708764  0.960672  0.043455  1
  Pb  Pb27  1  0.208741  0.539683  0.456668  1
  Pb  Pb28  1  0.436639  0.372530  0.750899  1
  Pb  Pb29  1  0.937763  0.128657  0.750355  1
  Pb  Pb30  1  0.562675  0.627379  0.250160  1
  Pb  Pb31  1  0.062886  0.872508  0.249721  1
  Pb  Pb32  1  0.660393  0.846153  0.750219  1
  Pb  Pb33  1  0.160494  0.653742  0.749949  1
  Pb  Pb34  1  0.339146  0.153561  0.250040  1
  Pb  Pb35  1  0.840303  0.346055  0.249786  1
