# generated using pymatgen
data_TbEr15(AlNi)4
_symmetry_space_group_name_H-M   'P 1'
_cell_length_a   9.40684324
_cell_length_b   9.37733146
_cell_length_c   9.37732991
_cell_angle_alpha   59.81446319
_cell_angle_beta   59.89583423
_cell_angle_gamma   59.89583160
_symmetry_Int_Tables_number   1
_chemical_formula_structural   TbEr15(AlNi)4
_chemical_formula_sum   'Tb1 Er15 Al4 Ni4'
_cell_volume   583.16444235
_cell_formula_units_Z   1
loop_
 _symmetry_equiv_pos_site_id
 _symmetry_equiv_pos_as_xyz
  1  'x, y, z'
loop_
 _atom_site_type_symbol
 _atom_site_label
 _atom_site_symmetry_multiplicity
 _atom_site_fract_x
 _atom_site_fract_y
 _atom_site_fract_z
 _atom_site_occupancy
  Tb  Tb0  1  0.185685  0.814315  0.814315  1
  Er  Er1  1  0.813276  0.186724  0.186724  1
  Er  Er2  1  0.812494  0.187421  0.813755  1
  Er  Er3  1  0.186330  0.813755  0.187421  1
  Er  Er4  1  0.812494  0.813755  0.187421  1
  Er  Er5  1  0.186330  0.187421  0.813755  1
  Er  Er6  1  0.602027  0.600099  0.600099  1
  Er  Er7  1  0.600271  0.601369  0.198088  1
  Er  Er8  1  0.600271  0.198088  0.601369  1
  Er  Er9  1  0.197774  0.600099  0.600099  1
  Er  Er10  1  0.059115  0.440885  0.440885  1
  Er  Er11  1  0.440780  0.059220  0.059220  1
  Er  Er12  1  0.441607  0.059403  0.439833  1
  Er  Er13  1  0.059156  0.439833  0.059403  1
  Er  Er14  1  0.441607  0.439833  0.059403  1
  Er  Er15  1  0.059156  0.059403  0.439833  1
  Al  Al16  1  0.826808  0.827116  0.827116  1
  Al  Al17  1  0.827451  0.827215  0.517881  1
  Al  Al18  1  0.827451  0.517881  0.827215  1
  Al  Al19  1  0.518958  0.827116  0.827116  1
  Ni  Ni20  1  0.393098  0.393033  0.393033  1
  Ni  Ni21  1  0.393510  0.392103  0.820876  1
  Ni  Ni22  1  0.393510  0.820876  0.392103  1
  Ni  Ni23  1  0.820835  0.393033  0.393033  1
