# generated using pymatgen
data_Tm5LuAl16(SiOs)8
_symmetry_space_group_name_H-M   'P 1'
_cell_length_a   8.66775737
_cell_length_b   8.66645729
_cell_length_c   9.38299300
_cell_angle_alpha   90.00000000
_cell_angle_beta   90.00000000
_cell_angle_gamma   120.09812265
_symmetry_Int_Tables_number   1
_chemical_formula_structural   Tm5LuAl16(SiOs)8
_chemical_formula_sum   'Tm5 Lu1 Al16 Si8 Os8'
_cell_volume   609.80378161
_cell_formula_units_Z   1
loop_
 _symmetry_equiv_pos_site_id
 _symmetry_equiv_pos_as_xyz
  1  'x, y, z'
loop_
 _atom_site_type_symbol
 _atom_site_label
 _atom_site_symmetry_multiplicity
 _atom_site_fract_x
 _atom_site_fract_y
 _atom_site_fract_z
 _atom_site_occupancy
  Tm  Tm0  1  0.807369  0.611302  0.750000  1
  Tm  Tm1  1  0.610852  0.807039  0.250000  1
  Tm  Tm2  1  0.388655  0.192558  0.750000  1
  Tm  Tm3  1  0.195642  0.804293  0.250000  1
  Tm  Tm4  1  0.804552  0.195394  0.750000  1
  Lu  Lu5  1  0.193462  0.390178  0.250000  1
  Al  Al6  1  0.165419  0.328941  0.578577  1
  Al  Al7  1  0.834616  0.670964  0.421104  1
  Al  Al8  1  0.671078  0.834578  0.578740  1
  Al  Al9  1  0.834616  0.670964  0.078896  1
  Al  Al10  1  0.328944  0.165422  0.421020  1
  Al  Al11  1  0.165419  0.328941  0.921423  1
  Al  Al12  1  0.164468  0.835521  0.578650  1
  Al  Al13  1  0.328944  0.165422  0.078980  1
  Al  Al14  1  0.835578  0.164641  0.421146  1
  Al  Al15  1  0.671078  0.834578  0.921260  1
  Al  Al16  1  0.835578  0.164641  0.078854  1
  Al  Al17  1  0.164468  0.835521  0.921350  1
  Al  Al18  1  0.564664  0.434998  0.250000  1
  Al  Al19  1  0.435266  0.564681  0.750000  1
  Al  Al20  1  0.000540  0.000054  0.250000  1
  Al  Al21  1  0.999715  0.000290  0.750000  1
  Si  Si22  1  0.334718  0.664718  0.042074  1
  Si  Si23  1  0.665004  0.334898  0.958466  1
  Si  Si24  1  0.665004  0.334898  0.541534  1
  Si  Si25  1  0.334718  0.664718  0.457926  1
  Si  Si26  1  0.563549  0.124111  0.250000  1
  Si  Si27  1  0.436374  0.876146  0.750000  1
  Si  Si28  1  0.876232  0.436368  0.250000  1
  Si  Si29  1  0.123790  0.563543  0.750000  1
  Os  Os30  1  0.499890  0.999804  0.999919  1
  Os  Os31  1  0.000219  0.499969  0.000134  1
  Os  Os32  1  0.499890  0.999804  0.500081  1
  Os  Os33  1  0.499791  0.499911  0.000212  1
  Os  Os34  1  0.000219  0.499969  0.499866  1
  Os  Os35  1  0.499791  0.499911  0.499788  1
  Os  Os36  1  0.999946  0.000157  0.000042  1
  Os  Os37  1  0.999946  0.000157  0.499958  1
