# generated using pymatgen
data_Dy7YSi12IrRh3
_symmetry_space_group_name_H-M   'P 1'
_cell_length_a   8.17940600
_cell_length_b   8.17940740
_cell_length_c   7.92555700
_cell_angle_alpha   90.00000000
_cell_angle_beta   90.00000000
_cell_angle_gamma   119.99999434
_symmetry_Int_Tables_number   1
_chemical_formula_structural   Dy7YSi12IrRh3
_chemical_formula_sum   'Dy7 Y1 Si12 Ir1 Rh3'
_cell_volume   459.20230143
_cell_formula_units_Z   1
loop_
 _symmetry_equiv_pos_site_id
 _symmetry_equiv_pos_as_xyz
  1  'x, y, z'
loop_
 _atom_site_type_symbol
 _atom_site_label
 _atom_site_symmetry_multiplicity
 _atom_site_fract_x
 _atom_site_fract_y
 _atom_site_fract_z
 _atom_site_occupancy
  Dy  Dy0  1  0.000000  0.000000  0.750346  1
  Dy  Dy1  1  0.508592  0.491408  0.250166  1
  Dy  Dy2  1  0.508592  0.017185  0.250166  1
  Dy  Dy3  1  0.982815  0.491408  0.250166  1
  Dy  Dy4  1  0.490819  0.509181  0.749873  1
  Dy  Dy5  1  0.490819  0.981636  0.749873  1
  Dy  Dy6  1  0.018364  0.509181  0.749873  1
  Y  Y7  1  0.000000  0.000000  0.249027  1
  Si  Si8  1  0.166506  0.833494  0.499359  1
  Si  Si9  1  0.166506  0.333015  0.499359  1
  Si  Si10  1  0.666985  0.833494  0.499359  1
  Si  Si11  1  0.832823  0.167177  0.500271  1
  Si  Si12  1  0.832823  0.665645  0.500271  1
  Si  Si13  1  0.334355  0.167177  0.500271  1
  Si  Si14  1  0.833031  0.166969  0.999641  1
  Si  Si15  1  0.833031  0.666061  0.999641  1
  Si  Si16  1  0.333939  0.166969  0.999641  1
  Si  Si17  1  0.166885  0.833115  0.999685  1
  Si  Si18  1  0.166885  0.333771  0.999685  1
  Si  Si19  1  0.666229  0.833115  0.999685  1
  Ir  Ir20  1  0.333333  0.666667  0.468767  1
  Rh  Rh21  1  0.666667  0.333333  0.533143  1
  Rh  Rh22  1  0.666667  0.333333  0.966348  1
  Rh  Rh23  1  0.333333  0.666667  0.035380  1
