# generated using pymatgen
data_Er3U(Co5P3)4
_symmetry_space_group_name_H-M   'P 1'
_cell_length_a   3.64084600
_cell_length_b   10.27595412
_cell_length_c   11.68183884
_cell_angle_alpha   89.84562503
_cell_angle_beta   90.00000000
_cell_angle_gamma   90.00000000
_symmetry_Int_Tables_number   1
_chemical_formula_structural   Er3U(Co5P3)4
_chemical_formula_sum   'Er3 U1 Co20 P12'
_cell_volume   437.05299446
_cell_formula_units_Z   1
loop_
 _symmetry_equiv_pos_site_id
 _symmetry_equiv_pos_as_xyz
  1  'x, y, z'
loop_
 _atom_site_type_symbol
 _atom_site_label
 _atom_site_symmetry_multiplicity
 _atom_site_fract_x
 _atom_site_fract_y
 _atom_site_fract_z
 _atom_site_occupancy
  Er  Er0  1  0.250000  0.915728  0.202382  1
  Er  Er1  1  0.750000  0.416905  0.298669  1
  Er  Er2  1  0.750000  0.083863  0.796883  1
  U  U3  1  0.250000  0.583494  0.702948  1
  Co  Co4  1  0.250000  0.716372  0.989391  1
  Co  Co5  1  0.250000  0.783339  0.490390  1
  Co  Co6  1  0.750000  0.282284  0.007191  1
  Co  Co7  1  0.750000  0.215364  0.507344  1
  Co  Co8  1  0.250000  0.408370  0.487768  1
  Co  Co9  1  0.250000  0.092407  0.987625  1
  Co  Co10  1  0.750000  0.591911  0.517345  1
  Co  Co11  1  0.750000  0.906476  0.012174  1
  Co  Co12  1  0.250000  0.220992  0.176253  1
  Co  Co13  1  0.250000  0.279167  0.677476  1
  Co  Co14  1  0.750000  0.780247  0.823570  1
  Co  Co15  1  0.750000  0.719819  0.324125  1
  Co  Co16  1  0.250000  0.883091  0.698445  1
  Co  Co17  1  0.250000  0.617015  0.198146  1
  Co  Co18  1  0.750000  0.116578  0.300267  1
  Co  Co19  1  0.750000  0.385509  0.801000  1
  Co  Co20  1  0.250000  0.468335  0.930929  1
  Co  Co21  1  0.250000  0.032336  0.431167  1
  Co  Co22  1  0.750000  0.531114  0.068814  1
  Co  Co23  1  0.750000  0.969064  0.568011  1
  P  P24  1  0.250000  0.418266  0.113624  1
  P  P25  1  0.250000  0.082491  0.612489  1
  P  P26  1  0.750000  0.583647  0.888769  1
  P  P27  1  0.750000  0.917813  0.387186  1
  P  P28  1  0.250000  0.269934  0.871063  1
  P  P29  1  0.250000  0.229585  0.369619  1
  P  P30  1  0.750000  0.728937  0.129818  1
  P  P31  1  0.750000  0.773561  0.630393  1
  P  P32  1  0.250000  0.601326  0.390415  1
  P  P33  1  0.250000  0.899953  0.891076  1
  P  P34  1  0.750000  0.394201  0.608669  1
  P  P35  1  0.750000  0.100502  0.108570  1
