# generated using pymatgen
data_Ba20PdAu15
_symmetry_space_group_name_H-M   'P 1'
_cell_length_a   8.78305844
_cell_length_b   8.79213191
_cell_length_c   17.28894700
_cell_angle_alpha   89.71759068
_cell_angle_beta   89.87944669
_cell_angle_gamma   89.54286728
_symmetry_Int_Tables_number   1
_chemical_formula_structural   Ba20PdAu15
_chemical_formula_sum   'Ba20 Pd1 Au15'
_cell_volume   1335.02219704
_cell_formula_units_Z   1
loop_
 _symmetry_equiv_pos_site_id
 _symmetry_equiv_pos_as_xyz
  1  'x, y, z'
loop_
 _atom_site_type_symbol
 _atom_site_label
 _atom_site_symmetry_multiplicity
 _atom_site_fract_x
 _atom_site_fract_y
 _atom_site_fract_z
 _atom_site_occupancy
  Ba  Ba0  1  0.676430  0.671995  0.999333  1
  Ba  Ba1  1  0.993625  0.352013  0.044972  1
  Ba  Ba2  1  0.013654  0.847965  0.123599  1
  Ba  Ba3  1  0.487172  0.348285  0.122908  1
  Ba  Ba4  1  0.502909  0.855960  0.200941  1
  Ba  Ba5  1  0.825478  0.174612  0.249679  1
  Ba  Ba6  1  0.145815  0.499016  0.296520  1
  Ba  Ba7  1  0.652563  0.513380  0.373658  1
  Ba  Ba8  1  0.155625  0.985388  0.375279  1
  Ba  Ba9  1  0.646033  0.999478  0.452687  1
  Ba  Ba10  1  0.323445  0.323948  0.500092  1
  Ba  Ba11  1  0.999199  0.645866  0.548015  1
  Ba  Ba12  1  0.985438  0.154729  0.625326  1
  Ba  Ba13  1  0.514045  0.651870  0.626540  1
  Ba  Ba14  1  0.498975  0.146272  0.703122  1
  Ba  Ba15  1  0.173242  0.823381  0.751736  1
  Ba  Ba16  1  0.853240  0.498733  0.801547  1
  Ba  Ba17  1  0.354237  0.481911  0.875783  1
  Ba  Ba18  1  0.842126  0.020611  0.875802  1
  Ba  Ba19  1  0.358217  0.004452  0.951940  1
  Pd  Pd20  1  0.649707  0.299013  0.947875  1
  Au  Au21  1  0.301213  0.651274  0.053708  1
  Au  Au22  1  0.704218  0.057597  0.059939  1
  Au  Au23  1  0.796313  0.554190  0.187368  1
  Au  Au24  1  0.200278  0.149510  0.194135  1
  Au  Au25  1  0.852767  0.799882  0.304765  1
  Au  Au26  1  0.446354  0.205306  0.311178  1
  Au  Au27  1  0.946292  0.294261  0.437649  1
  Au  Au28  1  0.349721  0.697130  0.447577  1
  Au  Au29  1  0.696559  0.348297  0.552906  1
  Au  Au30  1  0.294691  0.945688  0.562545  1
  Au  Au31  1  0.205264  0.445271  0.688938  1
  Au  Au32  1  0.799043  0.851352  0.695718  1
  Au  Au33  1  0.148882  0.199896  0.805482  1
  Au  Au34  1  0.552734  0.795755  0.812665  1
  Au  Au35  1  0.054487  0.705707  0.938077  1
