# generated using pymatgen
data_PrSi2IrRu
_symmetry_space_group_name_H-M   'P 1'
_cell_length_a   5.82816019
_cell_length_b   5.82816036
_cell_length_c   5.82816007
_cell_angle_alpha   137.89509299
_cell_angle_beta   137.89508738
_cell_angle_gamma   61.06370907
_symmetry_Int_Tables_number   1
_chemical_formula_structural   PrSi2IrRu
_chemical_formula_sum   'Pr1 Si2 Ir1 Ru1'
_cell_volume   88.01558383
_cell_formula_units_Z   1
loop_
 _symmetry_equiv_pos_site_id
 _symmetry_equiv_pos_as_xyz
  1  'x, y, z'
loop_
 _atom_site_type_symbol
 _atom_site_label
 _atom_site_symmetry_multiplicity
 _atom_site_fract_x
 _atom_site_fract_y
 _atom_site_fract_z
 _atom_site_occupancy
  Pr  Pr0  1  0.000000  0.000000  0.000000  1
  Si  Si1  1  0.631150  0.631150  0.000000  1
  Si  Si2  1  0.368850  0.368850  0.000000  1
  Ir  Ir3  1  0.250000  0.750000  0.500000  1
  Ru  Ru4  1  0.750000  0.250000  0.500000  1
