# generated using pymatgen
data_PrSnF7
_symmetry_space_group_name_H-M   'P 1'
_cell_length_a   5.78970100
_cell_length_b   9.30670620
_cell_length_c   12.51347680
_cell_angle_alpha   61.98286295
_cell_angle_beta   90.00000000
_cell_angle_gamma   90.00000000
_symmetry_Int_Tables_number   1
_chemical_formula_structural   PrSnF7
_chemical_formula_sum   'Pr4 Sn4 F28'
_cell_volume   595.24528939
_cell_formula_units_Z   4
loop_
 _symmetry_equiv_pos_site_id
 _symmetry_equiv_pos_as_xyz
  1  'x, y, z'
loop_
 _atom_site_type_symbol
 _atom_site_label
 _atom_site_symmetry_multiplicity
 _atom_site_fract_x
 _atom_site_fract_y
 _atom_site_fract_z
 _atom_site_occupancy
  Pr  Pr0  1  0.757655  0.811350  0.764544  1
  Pr  Pr1  1  0.257655  0.188650  0.735456  1
  Pr  Pr2  1  0.242345  0.188650  0.235456  1
  Pr  Pr3  1  0.742345  0.811350  0.264544  1
  Sn  Sn4  1  0.756064  0.273110  0.957907  1
  Sn  Sn5  1  0.256064  0.726890  0.542093  1
  Sn  Sn6  1  0.243936  0.726890  0.042093  1
  Sn  Sn7  1  0.743936  0.273110  0.457907  1
  F  F8  1  0.443114  0.709755  0.917821  1
  F  F9  1  0.943114  0.290245  0.582179  1
  F  F10  1  0.556886  0.290245  0.082179  1
  F  F11  1  0.056886  0.709755  0.417821  1
  F  F12  1  0.453396  0.280793  0.543138  1
  F  F13  1  0.953396  0.719207  0.956862  1
  F  F14  1  0.546604  0.719207  0.456862  1
  F  F15  1  0.046604  0.280793  0.043138  1
  F  F16  1  0.770976  0.515033  0.862450  1
  F  F17  1  0.270976  0.484967  0.637550  1
  F  F18  1  0.229024  0.484967  0.137550  1
  F  F19  1  0.729024  0.515033  0.362450  1
  F  F20  1  0.760806  0.030860  0.053047  1
  F  F21  1  0.260806  0.969140  0.446953  1
  F  F22  1  0.239194  0.969140  0.946953  1
  F  F23  1  0.739194  0.030860  0.553047  1
  F  F24  1  0.975457  0.729610  0.634879  1
  F  F25  1  0.475457  0.270390  0.865121  1
  F  F26  1  0.024543  0.270390  0.365121  1
  F  F27  1  0.524543  0.729610  0.134879  1
  F  F28  1  0.052945  0.743354  0.169782  1
  F  F29  1  0.552945  0.256646  0.330218  1
  F  F30  1  0.947055  0.256646  0.830218  1
  F  F31  1  0.447055  0.743354  0.669782  1
  F  F32  1  0.411028  0.967119  0.231696  1
  F  F33  1  0.911028  0.032881  0.268304  1
  F  F34  1  0.588972  0.032881  0.768304  1
  F  F35  1  0.088972  0.967119  0.731696  1
