# generated using pymatgen
data_PrReTc3Ge2
_symmetry_space_group_name_H-M   'P 1'
_cell_length_a   7.55864438
_cell_length_b   7.55864479
_cell_length_c   4.14656300
_cell_angle_alpha   90.00000000
_cell_angle_beta   90.00000000
_cell_angle_gamma   147.89176787
_symmetry_Int_Tables_number   1
_chemical_formula_structural   PrReTc3Ge2
_chemical_formula_sum   'Pr1 Re1 Tc3 Ge2'
_cell_volume   125.92036173
_cell_formula_units_Z   1
loop_
 _symmetry_equiv_pos_site_id
 _symmetry_equiv_pos_as_xyz
  1  'x, y, z'
loop_
 _atom_site_type_symbol
 _atom_site_label
 _atom_site_symmetry_multiplicity
 _atom_site_fract_x
 _atom_site_fract_y
 _atom_site_fract_z
 _atom_site_occupancy
  Pr  Pr0  1  0.000337  0.999663  0.000000  1
  Re  Re1  1  0.299744  0.700255  0.000000  1
  Tc  Tc2  1  0.698815  0.301184  0.000000  1
  Tc  Tc3  1  0.807460  0.192540  0.500000  1
  Tc  Tc4  1  0.192832  0.807168  0.500000  1
  Ge  Ge5  1  0.590136  0.409863  0.500000  1
  Ge  Ge6  1  0.410675  0.589324  0.500000  1
