# generated using pymatgen
data_Tb2ErBe2Co9B4
_symmetry_space_group_name_H-M   'P 1'
_cell_length_a   5.02564600
_cell_length_b   5.02564677
_cell_length_c   9.34762600
_cell_angle_alpha   90.00000000
_cell_angle_beta   90.00000000
_cell_angle_gamma   119.99999491
_symmetry_Int_Tables_number   1
_chemical_formula_structural   Tb2ErBe2Co9B4
_chemical_formula_sum   'Tb2 Er1 Be2 Co9 B4'
_cell_volume   204.46352183
_cell_formula_units_Z   1
loop_
 _symmetry_equiv_pos_site_id
 _symmetry_equiv_pos_as_xyz
  1  'x, y, z'
loop_
 _atom_site_type_symbol
 _atom_site_label
 _atom_site_symmetry_multiplicity
 _atom_site_fract_x
 _atom_site_fract_y
 _atom_site_fract_z
 _atom_site_occupancy
  Tb  Tb0  1  0.000000  0.000000  0.000141  1
  Tb  Tb1  1  0.000000  0.000000  0.662002  1
  Er  Er2  1  0.000000  0.000000  0.337837  1
  Be  Be3  1  0.666667  0.333333  0.000089  1
  Be  Be4  1  0.333333  0.666667  0.000089  1
  Co  Co5  1  0.500000  0.500000  0.499527  1
  Co  Co6  1  0.500000  0.000000  0.499527  1
  Co  Co7  1  0.000000  0.500000  0.499527  1
  Co  Co8  1  0.500000  0.500000  0.810539  1
  Co  Co9  1  0.500000  0.000000  0.810539  1
  Co  Co10  1  0.000000  0.500000  0.810539  1
  Co  Co11  1  0.500000  0.500000  0.189983  1
  Co  Co12  1  0.500000  0.000000  0.189983  1
  Co  Co13  1  0.000000  0.500000  0.189983  1
  B  B14  1  0.666667  0.333333  0.657947  1
  B  B15  1  0.333333  0.666667  0.657947  1
  B  B16  1  0.333333  0.666667  0.341900  1
  B  B17  1  0.666667  0.333333  0.341900  1
