# generated using pymatgen
data_TbY2Tm(Ga3Ir)6
_symmetry_space_group_name_H-M   'P 1'
_cell_length_a   7.59376400
_cell_length_b   7.59645906
_cell_length_c   9.49818200
_cell_angle_alpha   90.00000000
_cell_angle_beta   90.00000000
_cell_angle_gamma   119.91187305
_symmetry_Int_Tables_number   1
_chemical_formula_structural   TbY2Tm(Ga3Ir)6
_chemical_formula_sum   'Tb1 Y2 Tm1 Ga18 Ir6'
_cell_volume   474.92430560
_cell_formula_units_Z   1
loop_
 _symmetry_equiv_pos_site_id
 _symmetry_equiv_pos_as_xyz
  1  'x, y, z'
loop_
 _atom_site_type_symbol
 _atom_site_label
 _atom_site_symmetry_multiplicity
 _atom_site_fract_x
 _atom_site_fract_y
 _atom_site_fract_z
 _atom_site_occupancy
  Tb  Tb0  1  0.002659  0.330630  0.250000  1
  Y  Y1  1  0.997262  0.669140  0.750000  1
  Y  Y2  1  0.669151  0.997197  0.750000  1
  Tm  Tm3  1  0.330389  0.002525  0.250000  1
  Ga  Ga4  1  0.128455  0.128193  0.750000  1
  Ga  Ga5  1  0.872307  0.871951  0.250000  1
  Ga  Ga6  1  0.999607  0.334485  0.579943  1
  Ga  Ga7  1  0.001519  0.666269  0.418574  1
  Ga  Ga8  1  0.001519  0.666269  0.081426  1
  Ga  Ga9  1  0.334482  0.999496  0.920846  1
  Ga  Ga10  1  0.999607  0.334485  0.920057  1
  Ga  Ga11  1  0.664643  0.000825  0.081458  1
  Ga  Ga12  1  0.664643  0.000825  0.418542  1
  Ga  Ga13  1  0.334482  0.999496  0.579154  1
  Ga  Ga14  1  0.332460  0.331775  0.065909  1
  Ga  Ga15  1  0.667449  0.667450  0.936379  1
  Ga  Ga16  1  0.667449  0.667450  0.563621  1
  Ga  Ga17  1  0.332460  0.331775  0.434091  1
  Ga  Ga18  1  0.339184  0.546612  0.750000  1
  Ga  Ga19  1  0.660012  0.452336  0.250000  1
  Ga  Ga20  1  0.546468  0.338871  0.750000  1
  Ga  Ga21  1  0.453128  0.661124  0.250000  1
  Ir  Ir22  1  0.671478  0.328740  0.499703  1
  Ir  Ir23  1  0.328596  0.671381  0.499691  1
  Ir  Ir24  1  0.328596  0.671381  0.000309  1
  Ir  Ir25  1  0.671478  0.328740  0.000297  1
  Ir  Ir26  1  0.000260  0.000290  0.499447  1
  Ir  Ir27  1  0.000260  0.000290  0.000553  1
