# generated using pymatgen
data_SmHo4Tl2(InPd)2
_symmetry_space_group_name_H-M   'P 1'
_cell_length_a   3.62563600
_cell_length_b   8.22258300
_cell_length_c   18.42186200
_cell_angle_alpha   90.00000000
_cell_angle_beta   90.00000000
_cell_angle_gamma   90.00000000
_symmetry_Int_Tables_number   1
_chemical_formula_structural   SmHo4Tl2(InPd)2
_chemical_formula_sum   'Sm2 Ho8 Tl4 In4 Pd4'
_cell_volume   549.19426203
_cell_formula_units_Z   2
loop_
 _symmetry_equiv_pos_site_id
 _symmetry_equiv_pos_as_xyz
  1  'x, y, z'
loop_
 _atom_site_type_symbol
 _atom_site_label
 _atom_site_symmetry_multiplicity
 _atom_site_fract_x
 _atom_site_fract_y
 _atom_site_fract_z
 _atom_site_occupancy
  Sm  Sm0  1  0.000000  0.500000  0.500000  1
  Sm  Sm1  1  0.000000  0.000000  0.000000  1
  Ho  Ho2  1  0.000000  0.739727  0.280844  1
  Ho  Ho3  1  0.000000  0.260273  0.719156  1
  Ho  Ho4  1  0.000000  0.760273  0.780844  1
  Ho  Ho5  1  0.000000  0.239727  0.219156  1
  Ho  Ho6  1  0.000000  0.618402  0.085202  1
  Ho  Ho7  1  0.000000  0.381598  0.914798  1
  Ho  Ho8  1  0.000000  0.881598  0.585202  1
  Ho  Ho9  1  0.000000  0.118402  0.414798  1
  Tl  Tl10  1  0.500000  0.705142  0.932080  1
  Tl  Tl11  1  0.500000  0.294858  0.067920  1
  Tl  Tl12  1  0.500000  0.794858  0.432080  1
  Tl  Tl13  1  0.500000  0.205142  0.567920  1
  In  In14  1  0.500000  0.583160  0.652080  1
  In  In15  1  0.500000  0.416840  0.347920  1
  In  In16  1  0.500000  0.916840  0.152080  1
  In  In17  1  0.500000  0.083160  0.847920  1
  Pd  Pd18  1  0.500000  0.526442  0.197028  1
  Pd  Pd19  1  0.500000  0.473558  0.802972  1
  Pd  Pd20  1  0.500000  0.973558  0.697028  1
  Pd  Pd21  1  0.500000  0.026442  0.302972  1
