# generated using pymatgen
data_SrYb7(CdIn)4
_symmetry_space_group_name_H-M   'P 1'
_cell_length_a   7.75837603
_cell_length_b   7.76863030
_cell_length_c   7.51176705
_cell_angle_alpha   90.00014372
_cell_angle_beta   90.00325017
_cell_angle_gamma   90.11857551
_symmetry_Int_Tables_number   1
_chemical_formula_structural   SrYb7(CdIn)4
_chemical_formula_sum   'Sr1 Yb7 Cd4 In4'
_cell_volume   452.74791562
_cell_formula_units_Z   1
loop_
 _symmetry_equiv_pos_site_id
 _symmetry_equiv_pos_as_xyz
  1  'x, y, z'
loop_
 _atom_site_type_symbol
 _atom_site_label
 _atom_site_symmetry_multiplicity
 _atom_site_fract_x
 _atom_site_fract_y
 _atom_site_fract_z
 _atom_site_occupancy
  Sr  Sr0  1  0.500104  0.999916  0.752971  1
  Yb  Yb1  1  0.499931  0.499944  0.247229  1
  Yb  Yb2  1  0.499938  0.000070  0.248389  1
  Yb  Yb3  1  0.000079  0.499936  0.252858  1
  Yb  Yb4  1  0.000064  0.000071  0.252369  1
  Yb  Yb5  1  0.999956  0.999950  0.747594  1
  Yb  Yb6  1  0.999932  0.500082  0.747372  1
  Yb  Yb7  1  0.500062  0.500055  0.752230  1
  Cd  Cd8  1  0.761329  0.256283  0.005204  1
  Cd  Cd9  1  0.238676  0.743739  0.005197  1
  Cd  Cd10  1  0.751331  0.256521  0.494480  1
  Cd  Cd11  1  0.248677  0.743519  0.494491  1
  In  In12  1  0.758570  0.744585  0.005514  1
  In  In13  1  0.751521  0.744939  0.494353  1
  In  In14  1  0.248468  0.254967  0.494742  1
  In  In15  1  0.241361  0.255426  0.005005  1
