# generated using pymatgen
data_K4As3PPt4
_symmetry_space_group_name_H-M   'P 1'
_cell_length_a   6.70939432
_cell_length_b   6.70939422
_cell_length_c   6.70939432
_cell_angle_alpha   89.88696705
_cell_angle_beta   90.11302721
_cell_angle_gamma   90.11302227
_symmetry_Int_Tables_number   1
_chemical_formula_structural   K4As3PPt4
_chemical_formula_sum   'K4 As3 P1 Pt4'
_cell_volume   302.02814251
_cell_formula_units_Z   1
loop_
 _symmetry_equiv_pos_site_id
 _symmetry_equiv_pos_as_xyz
  1  'x, y, z'
loop_
 _atom_site_type_symbol
 _atom_site_label
 _atom_site_symmetry_multiplicity
 _atom_site_fract_x
 _atom_site_fract_y
 _atom_site_fract_z
 _atom_site_occupancy
  K  K0  1  0.873764  0.876710  0.870820  1
  K  K1  1  0.629180  0.126236  0.376710  1
  K  K2  1  0.123290  0.370820  0.626236  1
  K  K3  1  0.375247  0.624753  0.124753  1
  As  As4  1  0.589988  0.594205  0.588057  1
  As  As5  1  0.911943  0.410012  0.094205  1
  As  As6  1  0.405795  0.088057  0.910012  1
  P  P7  1  0.096944  0.903056  0.403056  1
  Pt  Pt8  1  0.144790  0.137075  0.160658  1
  Pt  Pt9  1  0.339342  0.855210  0.637075  1
  Pt  Pt10  1  0.862925  0.660658  0.355210  1
  Pt  Pt11  1  0.646794  0.353206  0.853206  1
