# generated using pymatgen
data_Zr16Co4CuPd3N4
_symmetry_space_group_name_H-M   'P 1'
_cell_length_a   8.71972588
_cell_length_b   8.74209246
_cell_length_c   8.74209300
_cell_angle_alpha   60.00000175
_cell_angle_beta   59.91511406
_cell_angle_gamma   59.91511835
_symmetry_Int_Tables_number   1
_chemical_formula_structural   Zr16Co4CuPd3N4
_chemical_formula_sum   'Zr16 Co4 Cu1 Pd3 N4'
_cell_volume   470.60903113
_cell_formula_units_Z   1
loop_
 _symmetry_equiv_pos_site_id
 _symmetry_equiv_pos_as_xyz
  1  'x, y, z'
loop_
 _atom_site_type_symbol
 _atom_site_label
 _atom_site_symmetry_multiplicity
 _atom_site_fract_x
 _atom_site_fract_y
 _atom_site_fract_z
 _atom_site_occupancy
  Zr  Zr0  1  0.077098  0.640967  0.640967  1
  Zr  Zr1  1  0.641338  0.078853  0.639904  1
  Zr  Zr2  1  0.641338  0.639904  0.078853  1
  Zr  Zr3  1  0.641338  0.639904  0.639904  1
  Zr  Zr4  1  0.816325  0.816707  0.183484  1
  Zr  Zr5  1  0.182566  0.183799  0.816818  1
  Zr  Zr6  1  0.816325  0.183484  0.816707  1
  Zr  Zr7  1  0.182566  0.816818  0.183799  1
  Zr  Zr8  1  0.182566  0.816818  0.816818  1
  Zr  Zr9  1  0.816325  0.183484  0.183484  1
  Zr  Zr10  1  0.433834  0.434070  0.066048  1
  Zr  Zr11  1  0.065580  0.068153  0.433134  1
  Zr  Zr12  1  0.433834  0.066048  0.434070  1
  Zr  Zr13  1  0.065580  0.433134  0.068153  1
  Zr  Zr14  1  0.065580  0.433134  0.433134  1
  Zr  Zr15  1  0.433834  0.066048  0.066048  1
  Co  Co16  1  0.448142  0.850620  0.850620  1
  Co  Co17  1  0.850794  0.445110  0.852048  1
  Co  Co18  1  0.850794  0.852048  0.445110  1
  Co  Co19  1  0.850794  0.852048  0.852048  1
  Cu  Cu20  1  0.746016  0.417994  0.417994  1
  Pd  Pd21  1  0.418746  0.749223  0.416015  1
  Pd  Pd22  1  0.418746  0.416015  0.749223  1
  Pd  Pd23  1  0.418746  0.416015  0.416015  1
  N  N24  1  0.623393  0.125536  0.125536  1
  N  N25  1  0.125934  0.623566  0.125250  1
  N  N26  1  0.125934  0.125250  0.623566  1
  N  N27  1  0.125934  0.125250  0.125250  1
