# generated using pymatgen
data_Na2NiH5
_symmetry_space_group_name_H-M   'P 1'
_cell_length_a   3.36778605
_cell_length_b   4.98066937
_cell_length_c   5.93910776
_cell_angle_alpha   89.86861461
_cell_angle_beta   57.44341494
_cell_angle_gamma   89.86946895
_symmetry_Int_Tables_number   1
_chemical_formula_structural   Na2NiH5
_chemical_formula_sum   'Na2 Ni1 H5'
_cell_volume   83.96679690
_cell_formula_units_Z   1
loop_
 _symmetry_equiv_pos_site_id
 _symmetry_equiv_pos_as_xyz
  1  'x, y, z'
loop_
 _atom_site_type_symbol
 _atom_site_label
 _atom_site_symmetry_multiplicity
 _atom_site_fract_x
 _atom_site_fract_y
 _atom_site_fract_z
 _atom_site_occupancy
  Na  Na0  1  0.941957  0.899585  0.794475  1
  Na  Na1  1  0.429497  0.399413  0.294434  1
  Ni  Ni2  1  0.929644  0.898778  0.297791  1
  H  H3  1  0.133785  0.680279  0.081101  1
  H  H4  1  0.132176  0.118357  0.081027  1
  H  H5  1  0.430414  0.899301  0.296484  1
  H  H6  1  0.726647  0.680201  0.514734  1
  H  H7  1  0.725296  0.117947  0.514113  1
