# generated using pymatgen
data_Sc2PRh6
_symmetry_space_group_name_H-M   'P 1'
_cell_length_a   5.84338264
_cell_length_b   5.84338273
_cell_length_c   5.84338200
_cell_angle_alpha   60.00000416
_cell_angle_beta   60.00000365
_cell_angle_gamma   59.99999640
_symmetry_Int_Tables_number   1
_chemical_formula_structural   Sc2PRh6
_chemical_formula_sum   'Sc2 P1 Rh6'
_cell_volume   141.08406154
_cell_formula_units_Z   1
loop_
 _symmetry_equiv_pos_site_id
 _symmetry_equiv_pos_as_xyz
  1  'x, y, z'
loop_
 _atom_site_type_symbol
 _atom_site_label
 _atom_site_symmetry_multiplicity
 _atom_site_fract_x
 _atom_site_fract_y
 _atom_site_fract_z
 _atom_site_occupancy
  Sc  Sc0  1  0.250000  0.250000  0.250000  1
  Sc  Sc1  1  0.750000  0.750000  0.750000  1
  P  P2  1  0.000000  0.000000  0.000000  1
  Rh  Rh3  1  0.732629  0.267372  0.267372  1
  Rh  Rh4  1  0.267372  0.732629  0.267372  1
  Rh  Rh5  1  0.732627  0.732627  0.267374  1
  Rh  Rh6  1  0.267372  0.267372  0.732629  1
  Rh  Rh7  1  0.732627  0.267374  0.732627  1
  Rh  Rh8  1  0.267374  0.732627  0.732627  1
