# generated using pymatgen
data_Ca6Pr13SmSn16
_symmetry_space_group_name_H-M   'P 1'
_cell_length_a   8.09763195
_cell_length_b   8.55726426
_cell_length_c   16.18197890
_cell_angle_alpha   90.04137138
_cell_angle_beta   90.09135961
_cell_angle_gamma   90.00121941
_symmetry_Int_Tables_number   1
_chemical_formula_structural   Ca6Pr13SmSn16
_chemical_formula_sum   'Ca6 Pr13 Sm1 Sn16'
_cell_volume   1121.30547532
_cell_formula_units_Z   1
loop_
 _symmetry_equiv_pos_site_id
 _symmetry_equiv_pos_as_xyz
  1  'x, y, z'
loop_
 _atom_site_type_symbol
 _atom_site_label
 _atom_site_symmetry_multiplicity
 _atom_site_fract_x
 _atom_site_fract_y
 _atom_site_fract_z
 _atom_site_occupancy
  Ca  Ca0  1  0.830973  0.670246  0.623043  1
  Ca  Ca1  1  0.669670  0.169431  0.377188  1
  Ca  Ca2  1  0.162618  0.497362  0.749351  1
  Ca  Ca3  1  0.662917  0.002980  0.749287  1
  Ca  Ca4  1  0.836636  0.502502  0.251540  1
  Ca  Ca5  1  0.337723  0.994797  0.250991  1
  Pr  Pr6  1  0.165287  0.326017  0.123215  1
  Pr  Pr7  1  0.665883  0.172686  0.124515  1
  Pr  Pr8  1  0.165691  0.326726  0.375841  1
  Pr  Pr9  1  0.335474  0.827849  0.624882  1
  Pr  Pr10  1  0.835110  0.674427  0.875029  1
  Pr  Pr11  1  0.490926  0.317053  0.904457  1
  Pr  Pr12  1  0.989622  0.186439  0.596201  1
  Pr  Pr13  1  0.511220  0.685035  0.404488  1
  Pr  Pr14  1  0.008645  0.815430  0.095304  1
  Pr  Pr15  1  0.509546  0.682526  0.095791  1
  Pr  Pr16  1  0.006612  0.816630  0.405104  1
  Pr  Pr17  1  0.493428  0.316888  0.595171  1
  Pr  Pr18  1  0.989689  0.184198  0.903204  1
  Sm  Sm19  1  0.332309  0.827951  0.875891  1
  Sn  Sn20  1  0.325404  0.033941  0.037073  1
  Sn  Sn21  1  0.828105  0.465784  0.460980  1
  Sn  Sn22  1  0.673232  0.966068  0.539542  1
  Sn  Sn23  1  0.176555  0.537729  0.961254  1
  Sn  Sn24  1  0.671293  0.962926  0.961887  1
  Sn  Sn25  1  0.173127  0.537637  0.537740  1
  Sn  Sn26  1  0.328443  0.036586  0.462411  1
  Sn  Sn27  1  0.824335  0.463072  0.036654  1
  Sn  Sn28  1  0.530938  0.605725  0.750828  1
  Sn  Sn29  1  0.032348  0.898616  0.750541  1
  Sn  Sn30  1  0.468686  0.397621  0.249816  1
  Sn  Sn31  1  0.968235  0.102970  0.250480  1
  Sn  Sn32  1  0.290169  0.139693  0.750412  1
  Sn  Sn33  1  0.789365  0.358882  0.750748  1
  Sn  Sn34  1  0.709819  0.857254  0.249300  1
  Sn  Sn35  1  0.209968  0.638320  0.249845  1
