# generated using pymatgen
data_Ca2HoGa8Ag3
_symmetry_space_group_name_H-M   'P 1'
_cell_length_a   4.39254106
_cell_length_b   8.40102278
_cell_length_c   8.40102207
_cell_angle_alpha   70.87840337
_cell_angle_beta   74.84513342
_cell_angle_gamma   74.84512678
_symmetry_Int_Tables_number   1
_chemical_formula_structural   Ca2HoGa8Ag3
_chemical_formula_sum   'Ca2 Ho1 Ga8 Ag3'
_cell_volume   277.41953998
_cell_formula_units_Z   1
loop_
 _symmetry_equiv_pos_site_id
 _symmetry_equiv_pos_as_xyz
  1  'x, y, z'
loop_
 _atom_site_type_symbol
 _atom_site_label
 _atom_site_symmetry_multiplicity
 _atom_site_fract_x
 _atom_site_fract_y
 _atom_site_fract_z
 _atom_site_occupancy
  Ca  Ca0  1  0.499722  0.500278  0.500278  1
  Ca  Ca1  1  0.199963  0.800037  0.800037  1
  Ho  Ho2  1  0.797280  0.202720  0.202720  1
  Ga  Ga3  1  0.357654  0.358965  0.925727  1
  Ga  Ga4  1  0.644625  0.634565  0.076187  1
  Ga  Ga5  1  0.357654  0.925727  0.358965  1
  Ga  Ga6  1  0.644625  0.076187  0.634565  1
  Ga  Ga7  1  0.160423  0.469798  0.209355  1
  Ga  Ga8  1  0.838762  0.527701  0.794777  1
  Ga  Ga9  1  0.160423  0.209355  0.469798  1
  Ga  Ga10  1  0.838762  0.794777  0.527701  1
  Ag  Ag11  1  0.499372  0.000628  0.000628  1
  Ag  Ag12  1  0.000369  0.806146  0.193116  1
  Ag  Ag13  1  0.000369  0.193116  0.806146  1
