# generated using pymatgen
data_BaSrBC11
_symmetry_space_group_name_H-M   'P 1'
_cell_length_a   4.38751427
_cell_length_b   4.38886171
_cell_length_c   10.37131639
_cell_angle_alpha   91.46490605
_cell_angle_beta   89.77736342
_cell_angle_gamma   119.98295375
_symmetry_Int_Tables_number   1
_chemical_formula_structural   BaSrBC11
_chemical_formula_sum   'Ba1 Sr1 B1 C11'
_cell_volume   172.91977934
_cell_formula_units_Z   1
loop_
 _symmetry_equiv_pos_site_id
 _symmetry_equiv_pos_as_xyz
  1  'x, y, z'
loop_
 _atom_site_type_symbol
 _atom_site_label
 _atom_site_symmetry_multiplicity
 _atom_site_fract_x
 _atom_site_fract_y
 _atom_site_fract_z
 _atom_site_occupancy
  Ba  Ba0  1  0.679654  0.345902  0.745309  1
  Sr  Sr1  1  0.333093  0.649047  0.252787  1
  B  B2  1  0.331026  0.001599  0.010257  1
  C  C3  1  0.676581  0.001218  0.009628  1
  C  C4  1  0.997720  0.334411  0.008829  1
  C  C5  1  0.666613  0.999518  0.490516  1
  C  C6  1  0.986242  0.655957  0.011132  1
  C  C7  1  0.333301  0.999521  0.490644  1
  C  C8  1  0.664660  0.668196  0.009175  1
  C  C9  1  0.999805  0.665991  0.490429  1
  C  C10  1  0.331590  0.346754  0.007790  1
  C  C11  1  0.999958  0.332839  0.490479  1
  C  C12  1  0.333254  0.332977  0.491641  1
  C  C13  1  0.666506  0.666066  0.491384  1
