# generated using pymatgen
data_PrTa2(Nb2Cl9)2
_symmetry_space_group_name_H-M   'P 1'
_cell_length_a   10.30724562
_cell_length_b   10.30464338
_cell_length_c   10.30753729
_cell_angle_alpha   55.89215425
_cell_angle_beta   55.88779943
_cell_angle_gamma   55.88587065
_symmetry_Int_Tables_number   1
_chemical_formula_structural   PrTa2(Nb2Cl9)2
_chemical_formula_sum   'Pr1 Ta2 Nb4 Cl18'
_cell_volume   700.36066566
_cell_formula_units_Z   1
loop_
 _symmetry_equiv_pos_site_id
 _symmetry_equiv_pos_as_xyz
  1  'x, y, z'
loop_
 _atom_site_type_symbol
 _atom_site_label
 _atom_site_symmetry_multiplicity
 _atom_site_fract_x
 _atom_site_fract_y
 _atom_site_fract_z
 _atom_site_occupancy
  Pr  Pr0  1  0.999230  0.999867  0.000885  1
  Ta  Ta1  1  0.411332  0.302031  0.647180  1
  Ta  Ta2  1  0.352733  0.589139  0.697555  1
  Nb  Nb3  1  0.698673  0.352313  0.588581  1
  Nb  Nb4  1  0.302121  0.647857  0.410451  1
  Nb  Nb5  1  0.648493  0.410771  0.300876  1
  Nb  Nb6  1  0.589705  0.698762  0.351428  1
  Cl  Cl7  1  0.566824  0.165428  0.443793  1
  Cl  Cl8  1  0.227661  0.371741  0.901714  1
  Cl  Cl9  1  0.904244  0.226138  0.370793  1
  Cl  Cl10  1  0.370801  0.904329  0.226621  1
  Cl  Cl11  1  0.773645  0.629193  0.095722  1
  Cl  Cl12  1  0.097516  0.772271  0.631056  1
  Cl  Cl13  1  0.694630  0.956779  0.165272  1
  Cl  Cl14  1  0.955143  0.164356  0.696204  1
  Cl  Cl15  1  0.167564  0.693400  0.952288  1
  Cl  Cl16  1  0.305495  0.048211  0.833356  1
  Cl  Cl17  1  0.043952  0.834147  0.305770  1
  Cl  Cl18  1  0.835274  0.304340  0.043803  1
  Cl  Cl19  1  0.556045  0.433149  0.834503  1
  Cl  Cl20  1  0.167202  0.438427  0.570657  1
  Cl  Cl21  1  0.441163  0.568549  0.165346  1
  Cl  Cl22  1  0.429578  0.832877  0.561407  1
  Cl  Cl23  1  0.834661  0.559151  0.431222  1
  Cl  Cl24  1  0.626316  0.096775  0.773516  1
