# generated using pymatgen
data_Sc7Fe6Sn22Hg
_symmetry_space_group_name_H-M   'P 1'
_cell_length_a   9.51507900
_cell_length_b   9.51508050
_cell_length_c   9.81292400
_cell_angle_alpha   90.00000000
_cell_angle_beta   90.00000000
_cell_angle_gamma   120.00000521
_symmetry_Int_Tables_number   1
_chemical_formula_structural   Sc7Fe6Sn22Hg
_chemical_formula_sum   'Sc7 Fe6 Sn22 Hg1'
_cell_volume   769.40306054
_cell_formula_units_Z   1
loop_
 _symmetry_equiv_pos_site_id
 _symmetry_equiv_pos_as_xyz
  1  'x, y, z'
loop_
 _atom_site_type_symbol
 _atom_site_label
 _atom_site_symmetry_multiplicity
 _atom_site_fract_x
 _atom_site_fract_y
 _atom_site_fract_z
 _atom_site_occupancy
  Sc  Sc0  1  0.000000  0.000000  0.000000  1
  Sc  Sc1  1  0.026157  0.513078  0.304773  1
  Sc  Sc2  1  0.486922  0.973843  0.304773  1
  Sc  Sc3  1  0.486922  0.513078  0.304773  1
  Sc  Sc4  1  0.973843  0.486922  0.695227  1
  Sc  Sc5  1  0.513078  0.026157  0.695227  1
  Sc  Sc6  1  0.513078  0.486922  0.695227  1
  Fe  Fe7  1  0.169414  0.830586  0.795219  1
  Fe  Fe8  1  0.661173  0.830586  0.795219  1
  Fe  Fe9  1  0.169414  0.338827  0.795219  1
  Fe  Fe10  1  0.830586  0.169414  0.204781  1
  Fe  Fe11  1  0.338827  0.169414  0.204781  1
  Fe  Fe12  1  0.830586  0.661173  0.204781  1
  Sn  Sn13  1  0.122968  0.877032  0.268042  1
  Sn  Sn14  1  0.754060  0.877032  0.268042  1
  Sn  Sn15  1  0.122968  0.245940  0.268042  1
  Sn  Sn16  1  0.877032  0.122968  0.731958  1
  Sn  Sn17  1  0.245940  0.122968  0.731958  1
  Sn  Sn18  1  0.877032  0.754060  0.731958  1
  Sn  Sn19  1  0.345625  0.000000  0.000000  1
  Sn  Sn20  1  0.654375  0.654375  0.000000  1
  Sn  Sn21  1  0.000000  0.345625  0.000000  1
  Sn  Sn22  1  0.345625  0.345625  0.000000  1
  Sn  Sn23  1  0.000000  0.654375  0.000000  1
  Sn  Sn24  1  0.654375  0.000000  0.000000  1
  Sn  Sn25  1  0.779587  0.559172  0.460892  1
  Sn  Sn26  1  0.779587  0.220413  0.460892  1
  Sn  Sn27  1  0.440828  0.220413  0.460892  1
  Sn  Sn28  1  0.220413  0.440828  0.539108  1
  Sn  Sn29  1  0.220413  0.779587  0.539108  1
  Sn  Sn30  1  0.559172  0.779587  0.539108  1
  Sn  Sn31  1  0.666667  0.333333  0.176159  1
  Sn  Sn32  1  0.333333  0.666667  0.823841  1
  Sn  Sn33  1  0.666667  0.333333  0.857662  1
  Sn  Sn34  1  0.333333  0.666667  0.142338  1
  Hg  Hg35  1  0.000000  0.000000  0.500000  1
