# generated using pymatgen
data_OsRuCl10
_symmetry_space_group_name_H-M   'P 1'
_cell_length_a   13.01285807
_cell_length_b   12.97541229
_cell_length_c   6.63154220
_cell_angle_alpha   85.80753276
_cell_angle_beta   85.57482353
_cell_angle_gamma   87.64607501
_symmetry_Int_Tables_number   1
_chemical_formula_structural   OsRuCl10
_chemical_formula_sum   'Os3 Ru3 Cl30'
_cell_volume   1112.68500373
_cell_formula_units_Z   3
loop_
 _symmetry_equiv_pos_site_id
 _symmetry_equiv_pos_as_xyz
  1  'x, y, z'
loop_
 _atom_site_type_symbol
 _atom_site_label
 _atom_site_symmetry_multiplicity
 _atom_site_fract_x
 _atom_site_fract_y
 _atom_site_fract_z
 _atom_site_occupancy
  Os  Os0  1  0.896235  0.103379  0.000218  1
  Os  Os1  1  0.768929  0.564442  0.432999  1
  Os  Os2  1  0.230029  0.436699  0.566787  1
  Ru  Ru3  1  0.105325  0.893959  0.000197  1
  Ru  Ru4  1  0.438948  0.227320  0.565979  1
  Ru  Ru5  1  0.562354  0.772264  0.433748  1
  Cl  Cl6  1  0.508498  0.311030  0.811039  1
  Cl  Cl7  1  0.266450  0.267482  0.736469  1
  Cl  Cl8  1  0.170335  0.972771  0.702255  1
  Cl  Cl9  1  0.599948  0.600182  0.604698  1
  Cl  Cl10  1  0.219062  0.589875  0.385357  1
  Cl  Cl11  1  0.734041  0.733608  0.261542  1
  Cl  Cl12  1  0.158908  0.353804  0.321505  1
  Cl  Cl13  1  0.067911  0.069785  0.121778  1
  Cl  Cl14  1  0.645078  0.843316  0.678563  1
  Cl  Cl15  1  0.590738  0.217410  0.382949  1
  Cl  Cl16  1  0.111851  0.738708  0.870106  1
  Cl  Cl17  1  0.026474  0.829811  0.298547  1
  Cl  Cl18  1  0.921901  0.552237  0.250890  1
  Cl  Cl19  1  0.829198  0.026205  0.299239  1
  Cl  Cl20  1  0.410297  0.782640  0.615868  1
  Cl  Cl21  1  0.780905  0.411437  0.614330  1
  Cl  Cl22  1  0.552343  0.925001  0.252884  1
  Cl  Cl23  1  0.974195  0.169487  0.701340  1
  Cl  Cl24  1  0.841511  0.647047  0.677397  1
  Cl  Cl25  1  0.887409  0.259688  0.129574  1
  Cl  Cl26  1  0.491493  0.689817  0.187904  1
  Cl  Cl27  1  0.355149  0.157010  0.322054  1
  Cl  Cl28  1  0.076885  0.448426  0.748436  1
  Cl  Cl29  1  0.740617  0.111248  0.870634  1
  Cl  Cl30  1  0.448293  0.074799  0.748210  1
  Cl  Cl31  1  0.399475  0.399833  0.396934  1
  Cl  Cl32  1  0.311630  0.509057  0.812559  1
  Cl  Cl33  1  0.260091  0.888142  0.129914  1
  Cl  Cl34  1  0.930439  0.930668  0.878815  1
  Cl  Cl35  1  0.687054  0.491410  0.188283  1
