# generated using pymatgen
data_SrDy2Y(Ir2O7)2
_symmetry_space_group_name_H-M   'P 1'
_cell_length_a   7.28717069
_cell_length_b   7.31266322
_cell_length_c   7.29048000
_cell_angle_alpha   60.10029791
_cell_angle_beta   59.98497643
_cell_angle_gamma   60.07474286
_symmetry_Int_Tables_number   1
_chemical_formula_structural   SrDy2Y(Ir2O7)2
_chemical_formula_sum   'Sr1 Dy2 Y1 Ir4 O14'
_cell_volume   275.04223162
_cell_formula_units_Z   1
loop_
 _symmetry_equiv_pos_site_id
 _symmetry_equiv_pos_as_xyz
  1  'x, y, z'
loop_
 _atom_site_type_symbol
 _atom_site_label
 _atom_site_symmetry_multiplicity
 _atom_site_fract_x
 _atom_site_fract_y
 _atom_site_fract_z
 _atom_site_occupancy
  Sr  Sr0  1  0.125000  0.625000  0.125000  1
  Dy  Dy1  1  0.125000  0.125000  0.625000  1
  Dy  Dy2  1  0.125000  0.125000  0.125000  1
  Y  Y3  1  0.625000  0.125000  0.125000  1
  Ir  Ir4  1  0.125000  0.625000  0.625000  1
  Ir  Ir5  1  0.625000  0.125000  0.625000  1
  Ir  Ir6  1  0.625000  0.625000  0.125000  1
  Ir  Ir7  1  0.625000  0.625000  0.625000  1
  O  O8  1  0.691951  0.719171  0.294439  1
  O  O9  1  0.292827  0.290438  0.708368  1
  O  O10  1  0.708474  0.290629  0.707833  1
  O  O11  1  0.294191  0.719677  0.294236  1
  O  O12  1  0.294191  0.719677  0.691896  1
  O  O13  1  0.708474  0.290629  0.293063  1
  O  O14  1  0.558049  0.530829  0.955561  1
  O  O15  1  0.957173  0.959562  0.541632  1
  O  O16  1  0.541526  0.959371  0.542167  1
  O  O17  1  0.955809  0.530323  0.955764  1
  O  O18  1  0.955809  0.530323  0.558104  1
  O  O19  1  0.541526  0.959371  0.956937  1
  O  O20  1  0.257183  0.227717  0.257551  1
  O  O21  1  0.992817  0.022283  0.992449  1
