# generated using pymatgen
data_TbDyFe12P7
_symmetry_space_group_name_H-M   'P 1'
_cell_length_a   3.64185000
_cell_length_b   8.95887361
_cell_length_c   8.96401707
_cell_angle_alpha   119.95887203
_cell_angle_beta   90.00000000
_cell_angle_gamma   90.00000000
_symmetry_Int_Tables_number   1
_chemical_formula_structural   TbDyFe12P7
_chemical_formula_sum   'Tb1 Dy1 Fe12 P7'
_cell_volume   253.38949559
_cell_formula_units_Z   1
loop_
 _symmetry_equiv_pos_site_id
 _symmetry_equiv_pos_as_xyz
  1  'x, y, z'
loop_
 _atom_site_type_symbol
 _atom_site_label
 _atom_site_symmetry_multiplicity
 _atom_site_fract_x
 _atom_site_fract_y
 _atom_site_fract_z
 _atom_site_occupancy
  Tb  Tb0  1  0.500000  0.333488  0.666496  1
  Dy  Dy1  1  0.000000  0.666560  0.333423  1
  Fe  Fe2  1  0.000000  0.370808  0.944778  1
  Fe  Fe3  1  0.000000  0.055345  0.425976  1
  Fe  Fe4  1  0.000000  0.573949  0.629280  1
  Fe  Fe5  1  0.000000  0.880209  0.725328  1
  Fe  Fe6  1  0.000000  0.274583  0.154817  1
  Fe  Fe7  1  0.000000  0.845016  0.119913  1
  Fe  Fe8  1  0.500000  0.951294  0.568094  1
  Fe  Fe9  1  0.500000  0.432090  0.383369  1
  Fe  Fe10  1  0.500000  0.616702  0.048676  1
  Fe  Fe11  1  0.500000  0.118543  0.904277  1
  Fe  Fe12  1  0.500000  0.095727  0.214316  1
  Fe  Fe13  1  0.500000  0.785756  0.881359  1
  P  P14  1  0.000000  0.112552  0.702487  1
  P  P15  1  0.000000  0.297647  0.409966  1
  P  P16  1  0.000000  0.590048  0.887273  1
  P  P17  1  0.500000  0.710227  0.598868  1
  P  P18  1  0.500000  0.401073  0.111727  1
  P  P19  1  0.500000  0.888572  0.289792  1
  P  P20  1  0.000000  0.999812  0.999785  1
