# generated using pymatgen
data_Ca3Nd(Pt2O7)2
_symmetry_space_group_name_H-M   'P 1'
_cell_length_a   7.30677294
_cell_length_b   7.28219220
_cell_length_c   7.28219200
_cell_angle_alpha   60.00000091
_cell_angle_beta   60.11122231
_cell_angle_gamma   60.11122470
_symmetry_Int_Tables_number   1
_chemical_formula_structural   Ca3Nd(Pt2O7)2
_chemical_formula_sum   'Ca3 Nd1 Pt4 O14'
_cell_volume   274.44981881
_cell_formula_units_Z   1
loop_
 _symmetry_equiv_pos_site_id
 _symmetry_equiv_pos_as_xyz
  1  'x, y, z'
loop_
 _atom_site_type_symbol
 _atom_site_label
 _atom_site_symmetry_multiplicity
 _atom_site_fract_x
 _atom_site_fract_y
 _atom_site_fract_z
 _atom_site_occupancy
  Ca  Ca0  1  0.000000  0.000000  0.000000  1
  Ca  Ca1  1  0.000000  0.000000  0.500001  1
  Ca  Ca2  1  0.000000  0.499999  0.500001  1
  Nd  Nd3  1  0.499999  0.000000  0.500001  1
  Pt  Pt4  1  0.500000  0.000000  0.000000  1
  Pt  Pt5  1  0.500001  0.499999  0.000000  1
  Pt  Pt6  1  0.000000  0.500000  0.000000  1
  Pt  Pt7  1  0.500000  0.499999  0.500001  1
  O  O8  1  0.581810  0.168305  0.081577  1
  O  O9  1  0.170994  0.170076  0.079465  1
  O  O10  1  0.170993  0.579466  0.079465  1
  O  O11  1  0.418191  0.418425  0.331693  1
  O  O12  1  0.829006  0.420535  0.329924  1
  O  O13  1  0.418190  0.831693  0.331694  1
  O  O14  1  0.876080  0.874641  0.374640  1
  O  O15  1  0.123920  0.125360  0.625360  1
  O  O16  1  0.581809  0.168307  0.668307  1
  O  O17  1  0.581809  0.581575  0.668307  1
  O  O18  1  0.170994  0.579463  0.670079  1
  O  O19  1  0.829007  0.420535  0.920535  1
  O  O20  1  0.418192  0.831693  0.918423  1
  O  O21  1  0.829006  0.829924  0.920535  1
