# generated using pymatgen
data_Tb4MnPt3F28
_symmetry_space_group_name_H-M   'P 1'
_cell_length_a   5.54201276
_cell_length_b   8.90437910
_cell_length_c   11.96517522
_cell_angle_alpha   62.26045335
_cell_angle_beta   90.05201188
_cell_angle_gamma   90.09011271
_symmetry_Int_Tables_number   1
_chemical_formula_structural   Tb4MnPt3F28
_chemical_formula_sum   'Tb4 Mn1 Pt3 F28'
_cell_volume   522.59898621
_cell_formula_units_Z   1
loop_
 _symmetry_equiv_pos_site_id
 _symmetry_equiv_pos_as_xyz
  1  'x, y, z'
loop_
 _atom_site_type_symbol
 _atom_site_label
 _atom_site_symmetry_multiplicity
 _atom_site_fract_x
 _atom_site_fract_y
 _atom_site_fract_z
 _atom_site_occupancy
  Tb  Tb0  1  0.259370  0.812874  0.261035  1
  Tb  Tb1  1  0.739449  0.183195  0.737725  1
  Tb  Tb2  1  0.761130  0.188978  0.234591  1
  Tb  Tb3  1  0.237484  0.812208  0.767861  1
  Mn  Mn4  1  0.758168  0.725901  0.043573  1
  Pt  Pt5  1  0.243039  0.272394  0.958036  1
  Pt  Pt6  1  0.258901  0.272893  0.457216  1
  Pt  Pt7  1  0.740522  0.726695  0.543166  1
  F  F8  1  0.933333  0.704111  0.413785  1
  F  F9  1  0.064881  0.295840  0.585818  1
  F  F10  1  0.436409  0.297578  0.085981  1
  F  F11  1  0.562345  0.709606  0.925393  1
  F  F12  1  0.490739  0.729923  0.134170  1
  F  F13  1  0.539472  0.269297  0.869197  1
  F  F14  1  0.964778  0.275601  0.364064  1
  F  F15  1  0.034608  0.724677  0.636514  1
  F  F16  1  0.951505  0.743061  0.164361  1
  F  F17  1  0.053771  0.254670  0.825488  1
  F  F18  1  0.447545  0.257525  0.323609  1
  F  F19  1  0.552652  0.743008  0.677432  1
  F  F20  1  0.770449  0.492026  0.135843  1
  F  F21  1  0.234287  0.521064  0.861479  1
  F  F22  1  0.270996  0.521487  0.356444  1
  F  F23  1  0.726994  0.477681  0.642598  1
  F  F24  1  0.940602  0.283340  0.040534  1
  F  F25  1  0.034685  0.719515  0.957843  1
  F  F26  1  0.440211  0.720242  0.456963  1
  F  F27  1  0.560084  0.279065  0.542558  1
  F  F28  1  0.743551  0.975788  0.449429  1
  F  F29  1  0.258866  0.023957  0.551521  1
  F  F30  1  0.241670  0.023462  0.048653  1
  F  F31  1  0.758920  0.959262  0.951982  1
  F  F32  1  0.585213  0.971576  0.230364  1
  F  F33  1  0.407741  0.031938  0.770258  1
  F  F34  1  0.085758  0.030892  0.265739  1
  F  F35  1  0.909873  0.968671  0.728776  1
