# generated using pymatgen
data_Gd4HoSn4
_symmetry_space_group_name_H-M   'P 1'
_cell_length_a   8.03054600
_cell_length_b   8.14030400
_cell_length_c   15.86950700
_cell_angle_alpha   90.00000000
_cell_angle_beta   90.00000000
_cell_angle_gamma   90.00000000
_symmetry_Int_Tables_number   1
_chemical_formula_structural   Gd4HoSn4
_chemical_formula_sum   'Gd16 Ho4 Sn16'
_cell_volume   1037.40690253
_cell_formula_units_Z   4
loop_
 _symmetry_equiv_pos_site_id
 _symmetry_equiv_pos_as_xyz
  1  'x, y, z'
loop_
 _atom_site_type_symbol
 _atom_site_label
 _atom_site_symmetry_multiplicity
 _atom_site_fract_x
 _atom_site_fract_y
 _atom_site_fract_z
 _atom_site_occupancy
  Gd  Gd0  1  0.653465  0.167321  0.624390  1
  Gd  Gd1  1  0.153465  0.332679  0.875610  1
  Gd  Gd2  1  0.346535  0.832679  0.124390  1
  Gd  Gd3  1  0.846535  0.667321  0.375610  1
  Gd  Gd4  1  0.346535  0.832679  0.375610  1
  Gd  Gd5  1  0.846535  0.667321  0.124390  1
  Gd  Gd6  1  0.653465  0.167321  0.875610  1
  Gd  Gd7  1  0.153465  0.332679  0.624390  1
  Gd  Gd8  1  0.495581  0.680264  0.593668  1
  Gd  Gd9  1  0.995581  0.819736  0.906332  1
  Gd  Gd10  1  0.504419  0.319736  0.093668  1
  Gd  Gd11  1  0.004419  0.180264  0.406332  1
  Gd  Gd12  1  0.504419  0.319736  0.406332  1
  Gd  Gd13  1  0.004419  0.180264  0.093668  1
  Gd  Gd14  1  0.495581  0.680264  0.906332  1
  Gd  Gd15  1  0.995581  0.819736  0.593668  1
  Ho  Ho16  1  0.823436  0.499766  0.750000  1
  Ho  Ho17  1  0.323436  0.000234  0.750000  1
  Ho  Ho18  1  0.176564  0.500234  0.250000  1
  Ho  Ho19  1  0.676564  0.999766  0.250000  1
  Sn  Sn20  1  0.686954  0.966532  0.457580  1
  Sn  Sn21  1  0.186954  0.533468  0.042420  1
  Sn  Sn22  1  0.313046  0.033468  0.957580  1
  Sn  Sn23  1  0.813046  0.466532  0.542420  1
  Sn  Sn24  1  0.313046  0.033468  0.542420  1
  Sn  Sn25  1  0.813046  0.466532  0.957580  1
  Sn  Sn26  1  0.686954  0.966532  0.042420  1
  Sn  Sn27  1  0.186954  0.533468  0.457580  1
  Sn  Sn28  1  0.457170  0.391383  0.750000  1
  Sn  Sn29  1  0.957170  0.108617  0.750000  1
  Sn  Sn30  1  0.542830  0.608617  0.250000  1
  Sn  Sn31  1  0.042830  0.891383  0.250000  1
  Sn  Sn32  1  0.686452  0.851233  0.750000  1
  Sn  Sn33  1  0.186452  0.648767  0.750000  1
  Sn  Sn34  1  0.313548  0.148767  0.250000  1
  Sn  Sn35  1  0.813548  0.351233  0.250000  1
