# generated using pymatgen
data_Tm3Lu7(TlBi)3
_symmetry_space_group_name_H-M   'P 1'
_cell_length_a   6.44589400
_cell_length_b   8.89752411
_cell_length_c   8.89744900
_cell_angle_alpha   120.00028214
_cell_angle_beta   89.99878224
_cell_angle_gamma   90.00244415
_symmetry_Int_Tables_number   1
_chemical_formula_structural   Tm3Lu7(TlBi)3
_chemical_formula_sum   'Tm3 Lu7 Tl3 Bi3'
_cell_volume   441.92364305
_cell_formula_units_Z   1
loop_
 _symmetry_equiv_pos_site_id
 _symmetry_equiv_pos_as_xyz
  1  'x, y, z'
loop_
 _atom_site_type_symbol
 _atom_site_label
 _atom_site_symmetry_multiplicity
 _atom_site_fract_x
 _atom_site_fract_y
 _atom_site_fract_z
 _atom_site_occupancy
  Tm  Tm0  1  0.749861  0.234913  0.999997  1
  Tm  Tm1  1  0.749955  0.765125  0.765101  1
  Tm  Tm2  1  0.749955  0.000023  0.234905  1
  Lu  Lu3  1  0.492126  0.333354  0.666733  1
  Lu  Lu4  1  0.492123  0.666623  0.333258  1
  Lu  Lu5  1  0.007971  0.666700  0.333373  1
  Lu  Lu6  1  0.007974  0.333322  0.666624  1
  Lu  Lu7  1  0.249966  0.762991  0.000002  1
  Lu  Lu8  1  0.249942  0.237000  0.237022  1
  Lu  Lu9  1  0.249947  0.999980  0.762980  1
  Tl  Tl10  1  0.249939  0.391295  0.000011  1
  Tl  Tl11  1  0.250087  0.608647  0.608644  1
  Tl  Tl12  1  0.250073  0.000015  0.391349  1
  Bi  Bi13  1  0.750057  0.602408  0.000003  1
  Bi  Bi14  1  0.750012  0.397606  0.397605  1
  Bi  Bi15  1  0.750012  0.000004  0.602393  1
