# generated using pymatgen
data_Tb2Cu2Si2Sn
_symmetry_space_group_name_H-M   'P 1'
_cell_length_a   9.37689956
_cell_length_b   9.37689807
_cell_length_c   6.66836900
_cell_angle_alpha   90.00000000
_cell_angle_beta   90.00000000
_cell_angle_gamma   153.14613879
_symmetry_Int_Tables_number   1
_chemical_formula_structural   Tb2Cu2Si2Sn
_chemical_formula_sum   'Tb4 Cu4 Si4 Sn2'
_cell_volume   264.85243011
_cell_formula_units_Z   2
loop_
 _symmetry_equiv_pos_site_id
 _symmetry_equiv_pos_as_xyz
  1  'x, y, z'
loop_
 _atom_site_type_symbol
 _atom_site_label
 _atom_site_symmetry_multiplicity
 _atom_site_fract_x
 _atom_site_fract_y
 _atom_site_fract_z
 _atom_site_occupancy
  Tb  Tb0  1  0.547151  0.452849  0.250000  1
  Tb  Tb1  1  0.452849  0.547151  0.750000  1
  Tb  Tb2  1  0.347772  0.652228  0.250000  1
  Tb  Tb3  1  0.652228  0.347772  0.750000  1
  Cu  Cu4  1  0.822687  0.177313  0.560153  1
  Cu  Cu5  1  0.177313  0.822687  0.439847  1
  Cu  Cu6  1  0.177313  0.822687  0.060153  1
  Cu  Cu7  1  0.822687  0.177313  0.939847  1
  Si  Si8  1  0.940850  0.059150  0.070892  1
  Si  Si9  1  0.059150  0.940850  0.929108  1
  Si  Si10  1  0.059150  0.940850  0.570892  1
  Si  Si11  1  0.940850  0.059150  0.429108  1
  Sn  Sn12  1  0.722587  0.277413  0.250000  1
  Sn  Sn13  1  0.277413  0.722587  0.750000  1
