# generated using pymatgen
data_AcGe3Ir
_symmetry_space_group_name_H-M   'P 1'
_cell_length_a   6.06359257
_cell_length_b   6.06359274
_cell_length_c   6.06359264
_cell_angle_alpha   135.94873497
_cell_angle_beta   135.94873783
_cell_angle_gamma   64.05959323
_symmetry_Int_Tables_number   1
_chemical_formula_structural   AcGe3Ir
_chemical_formula_sum   'Ac1 Ge3 Ir1'
_cell_volume   106.32644178
_cell_formula_units_Z   1
loop_
 _symmetry_equiv_pos_site_id
 _symmetry_equiv_pos_as_xyz
  1  'x, y, z'
loop_
 _atom_site_type_symbol
 _atom_site_label
 _atom_site_symmetry_multiplicity
 _atom_site_fract_x
 _atom_site_fract_y
 _atom_site_fract_z
 _atom_site_occupancy
  Ac  Ac0  1  0.417758  0.417758  0.000000  1
  Ge  Ge1  1  0.158696  0.658696  0.500000  1
  Ge  Ge2  1  0.658696  0.158696  0.500000  1
  Ge  Ge3  1  0.000533  0.000533  0.000000  1
  Ir  Ir4  1  0.761277  0.761277  0.000000  1
