# generated using pymatgen
data_Sm3Ag(IO6)2
_symmetry_space_group_name_H-M   'P 1'
_cell_length_a   5.41270800
_cell_length_b   7.80168429
_cell_length_c   11.66003200
_cell_angle_alpha   76.50635196
_cell_angle_beta   90.00000000
_cell_angle_gamma   90.00000000
_symmetry_Int_Tables_number   1
_chemical_formula_structural   Sm3Ag(IO6)2
_chemical_formula_sum   'Sm6 Ag2 I4 O24'
_cell_volume   478.79078713
_cell_formula_units_Z   2
loop_
 _symmetry_equiv_pos_site_id
 _symmetry_equiv_pos_as_xyz
  1  'x, y, z'
loop_
 _atom_site_type_symbol
 _atom_site_label
 _atom_site_symmetry_multiplicity
 _atom_site_fract_x
 _atom_site_fract_y
 _atom_site_fract_z
 _atom_site_occupancy
  Sm  Sm0  1  0.257230  0.000000  0.750000  1
  Sm  Sm1  1  0.753562  0.000000  0.250000  1
  Sm  Sm2  1  0.316055  0.500000  0.750000  1
  Sm  Sm3  1  0.685618  0.500000  0.250000  1
  Sm  Sm4  1  0.813293  0.211743  0.925107  1
  Sm  Sm5  1  0.813293  0.788257  0.574893  1
  Ag  Ag6  1  0.190064  0.783058  0.080534  1
  Ag  Ag7  1  0.190064  0.216942  0.419466  1
  I  I8  1  0.740883  0.730199  0.885512  1
  I  I9  1  0.260323  0.730733  0.384747  1
  I  I10  1  0.740883  0.269801  0.614488  1
  I  I11  1  0.260323  0.269267  0.115253  1
  O  O12  1  0.851092  0.354903  0.461475  1
  O  O13  1  0.458774  0.838573  0.928400  1
  O  O14  1  0.851092  0.645097  0.038525  1
  O  O15  1  0.014289  0.295300  0.720934  1
  O  O16  1  0.964478  0.303997  0.200283  1
  O  O17  1  0.168147  0.352702  0.950799  1
  O  O18  1  0.638160  0.499075  0.883993  1
  O  O19  1  0.539807  0.151379  0.068562  1
  O  O20  1  0.168147  0.647298  0.549201  1
  O  O21  1  0.014289  0.704700  0.779066  1
  O  O22  1  0.441352  0.202995  0.265214  1
  O  O23  1  0.070878  0.938940  0.395622  1
  O  O24  1  0.458774  0.161427  0.571600  1
  O  O25  1  0.964478  0.696003  0.299717  1
  O  O26  1  0.916335  0.051070  0.621416  1
  O  O27  1  0.544798  0.216136  0.770633  1
  O  O28  1  0.544798  0.783864  0.729367  1
  O  O29  1  0.070878  0.061060  0.104378  1
  O  O30  1  0.638160  0.500925  0.616007  1
  O  O31  1  0.381091  0.492870  0.109123  1
  O  O32  1  0.441352  0.797005  0.234786  1
  O  O33  1  0.381091  0.507130  0.390877  1
  O  O34  1  0.539807  0.848621  0.431438  1
  O  O35  1  0.916335  0.948930  0.878584  1
