# generated using pymatgen
data_LaPrTa5WO18
_symmetry_space_group_name_H-M   'P 1'
_cell_length_a   7.63549083
_cell_length_b   5.49032543
_cell_length_c   8.33061410
_cell_angle_alpha   87.62836854
_cell_angle_beta   90.09107569
_cell_angle_gamma   89.82543480
_symmetry_Int_Tables_number   1
_chemical_formula_structural   LaPrTa5WO18
_chemical_formula_sum   'La1 Pr1 Ta5 W1 O18'
_cell_volume   348.92914812
_cell_formula_units_Z   1
loop_
 _symmetry_equiv_pos_site_id
 _symmetry_equiv_pos_as_xyz
  1  'x, y, z'
loop_
 _atom_site_type_symbol
 _atom_site_label
 _atom_site_symmetry_multiplicity
 _atom_site_fract_x
 _atom_site_fract_y
 _atom_site_fract_z
 _atom_site_occupancy
  La  La0  1  0.247885  0.966355  0.435417  1
  Pr  Pr1  1  0.751910  0.034613  0.565649  1
  Ta  Ta2  1  0.494806  0.525061  0.698154  1
  Ta  Ta3  1  0.007203  0.528098  0.698770  1
  Ta  Ta4  1  0.992006  0.472032  0.301317  1
  Ta  Ta5  1  0.505897  0.475149  0.301994  1
  Ta  Ta6  1  0.500032  0.000198  0.999980  1
  W  W7  1  0.999944  0.000116  0.999854  1
  O  O8  1  0.954010  0.682094  0.125390  1
  O  O9  1  0.045948  0.318113  0.874639  1
  O  O10  1  0.055851  0.155743  0.214757  1
  O  O11  1  0.749007  0.355355  0.337331  1
  O  O12  1  0.036043  0.268336  0.531230  1
  O  O13  1  0.448100  0.158866  0.208694  1
  O  O14  1  0.543708  0.686235  0.123429  1
  O  O15  1  0.538002  0.732408  0.468244  1
  O  O16  1  0.753456  0.076558  0.015893  1
  O  O17  1  0.943009  0.845572  0.784088  1
  O  O18  1  0.749608  0.442096  0.687394  1
  O  O19  1  0.553136  0.842450  0.789970  1
  O  O20  1  0.250490  0.555226  0.313029  1
  O  O21  1  0.456341  0.313867  0.876561  1
  O  O22  1  0.962132  0.732120  0.468861  1
  O  O23  1  0.463947  0.268026  0.531866  1
  O  O24  1  0.250995  0.642065  0.663462  1
  O  O25  1  0.246535  0.923247  0.984027  1
