# generated using pymatgen
data_SmU2Be2Co9B4
_symmetry_space_group_name_H-M   'P 1'
_cell_length_a   4.99833500
_cell_length_b   4.99866687
_cell_length_c   9.38343600
_cell_angle_alpha   89.99997782
_cell_angle_beta   90.00005582
_cell_angle_gamma   119.99781045
_symmetry_Int_Tables_number   1
_chemical_formula_structural   SmU2Be2Co9B4
_chemical_formula_sum   'Sm1 U2 Be2 Co9 B4'
_cell_volume   203.04002774
_cell_formula_units_Z   1
loop_
 _symmetry_equiv_pos_site_id
 _symmetry_equiv_pos_as_xyz
  1  'x, y, z'
loop_
 _atom_site_type_symbol
 _atom_site_label
 _atom_site_symmetry_multiplicity
 _atom_site_fract_x
 _atom_site_fract_y
 _atom_site_fract_z
 _atom_site_occupancy
  Sm  Sm0  1  0.999993  0.000000  0.000068  1
  U  U1  1  0.999995  0.000000  0.346092  1
  U  U2  1  0.999995  0.000000  0.654062  1
  Be  Be3  1  0.333314  0.666641  0.000000  1
  Be  Be4  1  0.666673  0.333359  0.000000  1
  Co  Co5  1  0.499996  0.000000  0.499970  1
  Co  Co6  1  0.499996  0.500000  0.499970  1
  Co  Co7  1  0.999995  0.500000  0.499970  1
  Co  Co8  1  0.499992  0.000000  0.193187  1
  Co  Co9  1  0.499996  0.500002  0.193187  1
  Co  Co10  1  0.999994  0.499998  0.193187  1
  Co  Co11  1  0.499993  0.000000  0.806800  1
  Co  Co12  1  0.499995  0.500000  0.806798  1
  Co  Co13  1  0.999994  0.500000  0.806798  1
  B  B14  1  0.333329  0.666668  0.341149  1
  B  B15  1  0.666662  0.333332  0.341149  1
  B  B16  1  0.666660  0.333330  0.658807  1
  B  B17  1  0.333329  0.666670  0.658807  1
