# generated using pymatgen
data_K2Si3PtO9
_symmetry_space_group_name_H-M   'P 1'
_cell_length_a   7.71002154
_cell_length_b   7.71002202
_cell_length_c   7.71002124
_cell_angle_alpha   82.24016459
_cell_angle_beta   82.24016194
_cell_angle_gamma   82.24016310
_symmetry_Int_Tables_number   1
_chemical_formula_structural   K2Si3PtO9
_chemical_formula_sum   'K4 Si6 Pt2 O18'
_cell_volume   446.76730384
_cell_formula_units_Z   2
loop_
 _symmetry_equiv_pos_site_id
 _symmetry_equiv_pos_as_xyz
  1  'x, y, z'
loop_
 _atom_site_type_symbol
 _atom_site_label
 _atom_site_symmetry_multiplicity
 _atom_site_fract_x
 _atom_site_fract_y
 _atom_site_fract_z
 _atom_site_occupancy
  K  K0  1  0.223900  0.773637  0.992849  1
  K  K1  1  0.773637  0.992849  0.223900  1
  K  K2  1  0.992849  0.223900  0.773637  1
  K  K3  1  0.500492  0.500492  0.500492  1
  Si  Si4  1  0.894307  0.510319  0.095110  1
  Si  Si5  1  0.095110  0.894307  0.510319  1
  Si  Si6  1  0.510319  0.095110  0.894307  1
  Si  Si7  1  0.015813  0.547676  0.438163  1
  Si  Si8  1  0.438163  0.015813  0.547676  1
  Si  Si9  1  0.547676  0.438163  0.015813  1
  Pt  Pt10  1  0.225469  0.225469  0.225469  1
  Pt  Pt11  1  0.740096  0.740096  0.740096  1
  O  O12  1  0.318517  0.094347  0.013535  1
  O  O13  1  0.474436  0.151063  0.685353  1
  O  O14  1  0.685353  0.474436  0.151063  1
  O  O15  1  0.242570  0.949472  0.624386  1
  O  O16  1  0.949472  0.624386  0.242570  1
  O  O17  1  0.587000  0.844052  0.544457  1
  O  O18  1  0.631037  0.905717  0.920339  1
  O  O19  1  0.905717  0.920339  0.631037  1
  O  O20  1  0.544457  0.587000  0.844052  1
  O  O21  1  0.624386  0.242570  0.949472  1
  O  O22  1  0.920339  0.631037  0.905717  1
  O  O23  1  0.844052  0.544457  0.587000  1
  O  O24  1  0.151063  0.685353  0.474436  1
  O  O25  1  0.441108  0.121517  0.349575  1
  O  O26  1  0.349575  0.441108  0.121517  1
  O  O27  1  0.094347  0.013535  0.318517  1
  O  O28  1  0.121517  0.349575  0.441108  1
  O  O29  1  0.013535  0.318517  0.094347  1
