# generated using pymatgen
data_Ho4ReSi4Ru
_symmetry_space_group_name_H-M   'P 1'
_cell_length_a   5.74063105
_cell_length_b   5.74063156
_cell_length_c   10.00878932
_cell_angle_alpha   116.42226654
_cell_angle_beta   116.42226951
_cell_angle_gamma   43.13342189
_symmetry_Int_Tables_number   1
_chemical_formula_structural   Ho4ReSi4Ru
_chemical_formula_sum   'Ho4 Re1 Si4 Ru1'
_cell_volume   198.01994298
_cell_formula_units_Z   1
loop_
 _symmetry_equiv_pos_site_id
 _symmetry_equiv_pos_as_xyz
  1  'x, y, z'
loop_
 _atom_site_type_symbol
 _atom_site_label
 _atom_site_symmetry_multiplicity
 _atom_site_fract_x
 _atom_site_fract_y
 _atom_site_fract_z
 _atom_site_occupancy
  Ho  Ho0  1  0.004311  0.004311  0.177854  1
  Ho  Ho1  1  0.814879  0.814879  0.390846  1
  Ho  Ho2  1  0.186895  0.186895  0.610597  1
  Ho  Ho3  1  0.992584  0.992584  0.820634  1
  Re  Re4  1  0.272456  0.272456  0.129167  1
  Si  Si5  1  0.642777  0.642777  0.058997  1
  Si  Si6  1  0.503022  0.503022  0.378338  1
  Si  Si7  1  0.498107  0.498107  0.624044  1
  Si  Si8  1  0.355314  0.355314  0.937016  1
  Ru  Ru9  1  0.729654  0.729654  0.872505  1
