# generated using pymatgen
data_Dy16In3AgIr3Ru
_symmetry_space_group_name_H-M   'P 1'
_cell_length_a   9.65836115
_cell_length_b   9.65837471
_cell_length_c   9.65838593
_cell_angle_alpha   59.76683253
_cell_angle_beta   59.76671335
_cell_angle_gamma   59.76667424
_symmetry_Int_Tables_number   1
_chemical_formula_structural   Dy16In3AgIr3Ru
_chemical_formula_sum   'Dy16 In3 Ag1 Ir3 Ru1'
_cell_volume   633.71032763
_cell_formula_units_Z   1
loop_
 _symmetry_equiv_pos_site_id
 _symmetry_equiv_pos_as_xyz
  1  'x, y, z'
loop_
 _atom_site_type_symbol
 _atom_site_label
 _atom_site_symmetry_multiplicity
 _atom_site_fract_x
 _atom_site_fract_y
 _atom_site_fract_z
 _atom_site_occupancy
  Dy  Dy0  1  0.599357  0.599356  0.599356  1
  Dy  Dy1  1  0.599525  0.599524  0.202213  1
  Dy  Dy2  1  0.599526  0.202214  0.599523  1
  Dy  Dy3  1  0.202212  0.599526  0.599524  1
  Dy  Dy4  1  0.058990  0.441399  0.441400  1
  Dy  Dy5  1  0.438820  0.059533  0.059534  1
  Dy  Dy6  1  0.441399  0.058990  0.441400  1
  Dy  Dy7  1  0.059532  0.438819  0.059536  1
  Dy  Dy8  1  0.441399  0.441400  0.058991  1
  Dy  Dy9  1  0.059533  0.059535  0.438819  1
  Dy  Dy10  1  0.186408  0.810681  0.810681  1
  Dy  Dy11  1  0.809627  0.189510  0.189510  1
  Dy  Dy12  1  0.810681  0.186407  0.810682  1
  Dy  Dy13  1  0.189510  0.809626  0.189509  1
  Dy  Dy14  1  0.810681  0.810681  0.186409  1
  Dy  Dy15  1  0.189510  0.189509  0.809626  1
  In  In16  1  0.832373  0.832373  0.503927  1
  In  In17  1  0.832373  0.503927  0.832373  1
  In  In18  1  0.503928  0.832372  0.832372  1
  Ag  Ag19  1  0.832757  0.832757  0.832757  1
  Ir  Ir20  1  0.391952  0.391951  0.826260  1
  Ir  Ir21  1  0.391952  0.826260  0.391951  1
  Ir  Ir22  1  0.826260  0.391951  0.391951  1
  Ru  Ru23  1  0.391696  0.391700  0.391698  1
