# generated using pymatgen
data_Li2Tb16In2Pd3Ru
_symmetry_space_group_name_H-M   'P 1'
_cell_length_a   9.70337210
_cell_length_b   9.76134222
_cell_length_c   9.76316200
_cell_angle_alpha   59.99383285
_cell_angle_beta   59.79596028
_cell_angle_gamma   59.88381369
_symmetry_Int_Tables_number   1
_chemical_formula_structural   Li2Tb16In2Pd3Ru
_chemical_formula_sum   'Li2 Tb16 In2 Pd3 Ru1'
_cell_volume   652.27656446
_cell_formula_units_Z   1
loop_
 _symmetry_equiv_pos_site_id
 _symmetry_equiv_pos_as_xyz
  1  'x, y, z'
loop_
 _atom_site_type_symbol
 _atom_site_label
 _atom_site_symmetry_multiplicity
 _atom_site_fract_x
 _atom_site_fract_y
 _atom_site_fract_z
 _atom_site_occupancy
  Li  Li0  1  0.428085  0.427321  0.423921  1
  Li  Li1  1  0.428085  0.427321  0.720673  1
  Tb  Tb2  1  0.807091  0.804924  0.193992  1
  Tb  Tb3  1  0.812157  0.193791  0.811456  1
  Tb  Tb4  1  0.177014  0.188204  0.817391  1
  Tb  Tb5  1  0.651489  0.050955  0.648779  1
  Tb  Tb6  1  0.066454  0.065611  0.433968  1
  Tb  Tb7  1  0.439320  0.433251  0.063714  1
  Tb  Tb8  1  0.652101  0.645559  0.652662  1
  Tb  Tb9  1  0.812157  0.193791  0.182597  1
  Tb  Tb10  1  0.188378  0.810214  0.810151  1
  Tb  Tb11  1  0.044126  0.648924  0.653476  1
  Tb  Tb12  1  0.434106  0.066141  0.066073  1
  Tb  Tb13  1  0.434106  0.066141  0.433681  1
  Tb  Tb14  1  0.065346  0.432193  0.064003  1
  Tb  Tb15  1  0.652101  0.645559  0.049676  1
  Tb  Tb16  1  0.188378  0.810214  0.191259  1
  Tb  Tb17  1  0.065346  0.432193  0.438459  1
  In  In18  1  0.415765  0.744336  0.419950  1
  In  In19  1  0.744669  0.415073  0.420129  1
  Pd  Pd20  1  0.855504  0.857808  0.858777  1
  Pd  Pd21  1  0.855504  0.857808  0.427913  1
  Pd  Pd22  1  0.427860  0.857043  0.857548  1
  Ru  Ru23  1  0.854860  0.425630  0.859755  1
