# generated using pymatgen
data_Nd2DyHo3(Co3P2)6
_symmetry_space_group_name_H-M   'P 1'
_cell_length_a   3.71062600
_cell_length_b   10.54198115
_cell_length_c   12.21813413
_cell_angle_alpha   90.01818569
_cell_angle_beta   90.00000000
_cell_angle_gamma   90.00000000
_symmetry_Int_Tables_number   1
_chemical_formula_structural   Nd2DyHo3(Co3P2)6
_chemical_formula_sum   'Nd2 Dy1 Ho3 Co18 P12'
_cell_volume   477.94099727
_cell_formula_units_Z   1
loop_
 _symmetry_equiv_pos_site_id
 _symmetry_equiv_pos_as_xyz
  1  'x, y, z'
loop_
 _atom_site_type_symbol
 _atom_site_label
 _atom_site_symmetry_multiplicity
 _atom_site_fract_x
 _atom_site_fract_y
 _atom_site_fract_z
 _atom_site_occupancy
  Nd  Nd0  1  0.000000  0.499959  0.522247  1
  Nd  Nd1  1  0.500000  0.000070  0.477878  1
  Dy  Dy2  1  0.500000  0.817503  0.204846  1
  Ho  Ho3  1  0.500000  0.182646  0.204778  1
  Ho  Ho4  1  0.000000  0.682462  0.795253  1
  Ho  Ho5  1  0.000000  0.317503  0.795079  1
  Co  Co6  1  0.000000  0.499848  0.986456  1
  Co  Co7  1  0.500000  0.000165  0.013106  1
  Co  Co8  1  0.500000  0.296792  0.428927  1
  Co  Co9  1  0.500000  0.703153  0.429241  1
  Co  Co10  1  0.000000  0.203268  0.571085  1
  Co  Co11  1  0.000000  0.796785  0.571367  1
  Co  Co12  1  0.500000  0.879528  0.712900  1
  Co  Co13  1  0.500000  0.120520  0.712713  1
  Co  Co14  1  0.000000  0.620202  0.287439  1
  Co  Co15  1  0.000000  0.379430  0.287241  1
  Co  Co16  1  0.500000  0.333273  0.994953  1
  Co  Co17  1  0.500000  0.666563  0.994840  1
  Co  Co18  1  0.000000  0.166914  0.004847  1
  Co  Co19  1  0.000000  0.833223  0.004727  1
  Co  Co20  1  0.500000  0.499952  0.156621  1
  Co  Co21  1  0.000000  0.000101  0.843399  1
  Co  Co22  1  0.500000  0.499928  0.706725  1
  Co  Co23  1  0.000000  0.000376  0.293296  1
  P  P24  1  0.500000  0.307493  0.617725  1
  P  P25  1  0.500000  0.692442  0.617936  1
  P  P26  1  0.000000  0.192573  0.382269  1
  P  P27  1  0.000000  0.807405  0.382735  1
  P  P28  1  0.500000  0.499906  0.883759  1
  P  P29  1  0.000000  0.000292  0.115865  1
  P  P30  1  0.500000  0.846477  0.894095  1
  P  P31  1  0.500000  0.153563  0.893949  1
  P  P32  1  0.000000  0.653089  0.105722  1
  P  P33  1  0.000000  0.346604  0.105887  1
  P  P34  1  0.500000  0.499999  0.339666  1
  P  P35  1  0.000000  0.999992  0.660430  1
