# generated using pymatgen
data_BaCoH5
_symmetry_space_group_name_H-M   'P 1'
_cell_length_a   4.84973900
_cell_length_b   6.72931400
_cell_length_c   9.20449300
_cell_angle_alpha   90.00000000
_cell_angle_beta   90.00000000
_cell_angle_gamma   90.00000000
_symmetry_Int_Tables_number   1
_chemical_formula_structural   BaCoH5
_chemical_formula_sum   'Ba4 Co4 H20'
_cell_volume   300.39246318
_cell_formula_units_Z   4
loop_
 _symmetry_equiv_pos_site_id
 _symmetry_equiv_pos_as_xyz
  1  'x, y, z'
loop_
 _atom_site_type_symbol
 _atom_site_label
 _atom_site_symmetry_multiplicity
 _atom_site_fract_x
 _atom_site_fract_y
 _atom_site_fract_z
 _atom_site_occupancy
  Ba  Ba0  1  0.239116  0.353457  0.191962  1
  Ba  Ba1  1  0.739116  0.646543  0.808038  1
  Ba  Ba2  1  0.739116  0.853457  0.308038  1
  Ba  Ba3  1  0.239116  0.146543  0.691962  1
  Co  Co4  1  0.231365  0.637793  0.537143  1
  Co  Co5  1  0.731365  0.362207  0.462857  1
  Co  Co6  1  0.731365  0.137793  0.962857  1
  Co  Co7  1  0.231365  0.862207  0.037143  1
  H  H8  1  0.923332  0.549461  0.508652  1
  H  H9  1  0.423332  0.450539  0.491348  1
  H  H10  1  0.423332  0.049461  0.991348  1
  H  H11  1  0.923332  0.950539  0.008652  1
  H  H12  1  0.039416  0.690245  0.073046  1
  H  H13  1  0.539416  0.309755  0.926954  1
  H  H14  1  0.539416  0.190245  0.426954  1
  H  H15  1  0.039416  0.809755  0.573046  1
  H  H16  1  0.461440  0.716762  0.069885  1
  H  H17  1  0.961440  0.283238  0.930115  1
  H  H18  1  0.961440  0.216762  0.430115  1
  H  H19  1  0.461440  0.783238  0.569885  1
  H  H20  1  0.238360  0.792944  0.879192  1
  H  H21  1  0.738360  0.207056  0.120808  1
  H  H22  1  0.738360  0.292944  0.620808  1
  H  H23  1  0.238360  0.707056  0.379192  1
  H  H24  1  0.233971  0.940134  0.197659  1
  H  H25  1  0.733971  0.059866  0.802341  1
  H  H26  1  0.733971  0.440134  0.302341  1
  H  H27  1  0.233971  0.559866  0.697659  1
