# generated using pymatgen
data_Th2Mn3Si5
_symmetry_space_group_name_H-M   'P 1'
_cell_length_a   8.23082320
_cell_length_b   8.23082317
_cell_length_c   8.23082306
_cell_angle_alpha   140.43943967
_cell_angle_beta   108.25949625
_cell_angle_gamma   85.16578137
_symmetry_Int_Tables_number   1
_chemical_formula_structural   Th2Mn3Si5
_chemical_formula_sum   'Th4 Mn6 Si10'
_cell_volume   325.65245021
_cell_formula_units_Z   2
loop_
 _symmetry_equiv_pos_site_id
 _symmetry_equiv_pos_as_xyz
  1  'x, y, z'
loop_
 _atom_site_type_symbol
 _atom_site_label
 _atom_site_symmetry_multiplicity
 _atom_site_fract_x
 _atom_site_fract_y
 _atom_site_fract_z
 _atom_site_occupancy
  Th  Th0  1  0.865306  0.634819  0.230320  1
  Th  Th1  1  0.134694  0.365014  0.769513  1
  Th  Th2  1  0.595501  0.865181  0.730487  1
  Th  Th3  1  0.404499  0.134986  0.269680  1
  Mn  Mn4  1  0.000000  0.250000  0.250000  1
  Mn  Mn5  1  0.738511  0.146461  0.592409  1
  Mn  Mn6  1  0.554052  0.646103  0.907591  1
  Mn  Mn7  1  0.445948  0.353539  0.092051  1
  Mn  Mn8  1  0.000000  0.750000  0.750000  1
  Mn  Mn9  1  0.261489  0.853897  0.407949  1
  Si  Si10  1  0.069904  0.901664  0.168180  1
  Si  Si11  1  0.930096  0.098276  0.831759  1
  Si  Si12  1  0.266516  0.598336  0.668241  1
  Si  Si13  1  0.733484  0.401724  0.331820  1
  Si  Si14  1  0.212453  0.962453  0.750000  1
  Si  Si15  1  0.787547  0.537547  0.750000  1
  Si  Si16  1  0.787365  0.037365  0.250000  1
  Si  Si17  1  0.500000  0.250000  0.750000  1
  Si  Si18  1  0.500000  0.750000  0.250000  1
  Si  Si19  1  0.212635  0.462635  0.250000  1
