# generated using pymatgen
data_DyFe4ReTc7
_symmetry_space_group_name_H-M   'P 1'
_cell_length_a   6.72097704
_cell_length_b   6.72056642
_cell_length_c   6.72097757
_cell_angle_alpha   97.17911980
_cell_angle_beta   97.34882103
_cell_angle_gamma   138.34598673
_symmetry_Int_Tables_number   1
_chemical_formula_structural   DyFe4ReTc7
_chemical_formula_sum   'Dy1 Fe4 Re1 Tc7'
_cell_volume   188.57764292
_cell_formula_units_Z   1
loop_
 _symmetry_equiv_pos_site_id
 _symmetry_equiv_pos_as_xyz
  1  'x, y, z'
loop_
 _atom_site_type_symbol
 _atom_site_label
 _atom_site_symmetry_multiplicity
 _atom_site_fract_x
 _atom_site_fract_y
 _atom_site_fract_z
 _atom_site_occupancy
  Dy  Dy0  1  0.000011  0.000343  0.000332  1
  Fe  Fe1  1  0.499684  0.999875  0.999906  1
  Fe  Fe2  1  0.500292  0.500227  0.500179  1
  Fe  Fe3  1  0.999969  0.999875  0.500192  1
  Fe  Fe4  1  0.000048  0.500227  0.999935  1
  Re  Re5  1  0.999933  0.642574  0.642641  1
  Tc  Tc6  1  0.356643  0.000005  0.356621  1
  Tc  Tc7  1  0.643384  0.000005  0.643362  1
  Tc  Tc8  1  0.999994  0.356564  0.356570  1
  Tc  Tc9  1  0.500038  0.715784  0.215746  1
  Tc  Tc10  1  0.499985  0.284809  0.784824  1
  Tc  Tc11  1  0.715949  0.499856  0.215786  1
  Tc  Tc12  1  0.284070  0.499856  0.783907  1
