# generated using pymatgen
data_Ho6Pa2CoNiB28
_symmetry_space_group_name_H-M   'P 1'
_cell_length_a   7.21295500
_cell_length_b   7.21594262
_cell_length_c   7.50260700
_cell_angle_alpha   90.00000000
_cell_angle_beta   90.00000000
_cell_angle_gamma   90.02493263
_symmetry_Int_Tables_number   1
_chemical_formula_structural   Ho6Pa2CoNiB28
_chemical_formula_sum   'Ho6 Pa2 Co1 Ni1 B28'
_cell_volume   390.49767332
_cell_formula_units_Z   1
loop_
 _symmetry_equiv_pos_site_id
 _symmetry_equiv_pos_as_xyz
  1  'x, y, z'
loop_
 _atom_site_type_symbol
 _atom_site_label
 _atom_site_symmetry_multiplicity
 _atom_site_fract_x
 _atom_site_fract_y
 _atom_site_fract_z
 _atom_site_occupancy
  Ho  Ho0  1  0.332778  0.807134  0.000000  1
  Ho  Ho1  1  0.693790  0.168630  0.500000  1
  Ho  Ho2  1  0.306351  0.832541  0.500000  1
  Ho  Ho3  1  0.808500  0.666077  0.000000  1
  Ho  Ho4  1  0.833012  0.693661  0.500000  1
  Ho  Ho5  1  0.167409  0.306785  0.500000  1
  Pa  Pa6  1  0.192947  0.325970  0.000000  1
  Pa  Pa7  1  0.674342  0.193268  0.000000  1
  Co  Co8  1  0.998384  0.000620  0.000000  1
  Ni  Ni9  1  0.499981  0.501682  0.500000  1
  B  B10  1  0.173193  0.039007  0.231189  1
  B  B11  1  0.960849  0.172508  0.233357  1
  B  B12  1  0.039443  0.825067  0.229583  1
  B  B13  1  0.674862  0.461453  0.268498  1
  B  B14  1  0.325021  0.541149  0.268650  1
  B  B15  1  0.825506  0.959963  0.231466  1
  B  B16  1  0.539942  0.675689  0.270617  1
  B  B17  1  0.460247  0.326278  0.267680  1
  B  B18  1  0.825506  0.959963  0.768534  1
  B  B19  1  0.039443  0.825067  0.770417  1
  B  B20  1  0.960849  0.172508  0.766643  1
  B  B21  1  0.325021  0.541149  0.731350  1
  B  B22  1  0.674862  0.461453  0.731502  1
  B  B23  1  0.173193  0.039007  0.768811  1
  B  B24  1  0.460247  0.326278  0.732320  1
  B  B25  1  0.539942  0.675689  0.729383  1
  B  B26  1  0.088923  0.588940  0.247085  1
  B  B27  1  0.410109  0.090488  0.244173  1
  B  B28  1  0.587941  0.911934  0.248267  1
  B  B29  1  0.910164  0.410414  0.244694  1
  B  B30  1  0.910164  0.410414  0.755306  1
  B  B31  1  0.587941  0.911934  0.751733  1
  B  B32  1  0.410109  0.090488  0.755827  1
  B  B33  1  0.088923  0.588940  0.752915  1
  B  B34  1  0.000408  0.997080  0.390822  1
  B  B35  1  0.499647  0.501846  0.110710  1
  B  B36  1  0.000408  0.997080  0.609178  1
  B  B37  1  0.499647  0.501846  0.889290  1
