# generated using pymatgen
data_Li2Dy5P12Rh17
_symmetry_space_group_name_H-M   'P 1'
_cell_length_a   12.72948200
_cell_length_b   12.73696971
_cell_length_c   3.91906200
_cell_angle_alpha   90.00000000
_cell_angle_beta   90.00000000
_cell_angle_gamma   119.98055526
_symmetry_Int_Tables_number   1
_chemical_formula_structural   Li2Dy5P12Rh17
_chemical_formula_sum   'Li2 Dy5 P12 Rh17'
_cell_volume   550.39524652
_cell_formula_units_Z   1
loop_
 _symmetry_equiv_pos_site_id
 _symmetry_equiv_pos_as_xyz
  1  'x, y, z'
loop_
 _atom_site_type_symbol
 _atom_site_label
 _atom_site_symmetry_multiplicity
 _atom_site_fract_x
 _atom_site_fract_y
 _atom_site_fract_z
 _atom_site_occupancy
  Li  Li0  1  0.999544  0.442416  0.500000  1
  Li  Li1  1  0.557128  0.557584  0.500000  1
  Dy  Dy2  1  0.332862  0.664959  0.500000  1
  Dy  Dy3  1  0.667904  0.335041  0.500000  1
  Dy  Dy4  1  0.001560  0.809217  0.000000  1
  Dy  Dy5  1  0.192343  0.190783  0.000000  1
  Dy  Dy6  1  0.811337  0.000000  0.000000  1
  P  P7  1  0.000474  0.632028  0.500000  1
  P  P8  1  0.368446  0.367972  0.500000  1
  P  P9  1  0.635049  0.000000  0.500000  1
  P  P10  1  0.513897  0.685308  0.000000  1
  P  P11  1  0.311159  0.829127  0.000000  1
  P  P12  1  0.171200  0.481362  0.000000  1
  P  P13  1  0.482032  0.170873  0.000000  1
  P  P14  1  0.689838  0.518638  0.000000  1
  P  P15  1  0.828590  0.314692  0.000000  1
  P  P16  1  0.998051  0.179155  0.500000  1
  P  P17  1  0.818896  0.820845  0.500000  1
  P  P18  1  0.178378  0.000000  0.500000  1
  Rh  Rh19  1  0.508033  0.868378  0.000000  1
  Rh  Rh20  1  0.131167  0.640234  0.000000  1
  Rh  Rh21  1  0.358251  0.485694  0.000000  1
  Rh  Rh22  1  0.490934  0.359766  0.000000  1
  Rh  Rh23  1  0.872558  0.514306  0.000000  1
  Rh  Rh24  1  0.639656  0.131622  0.000000  1
  Rh  Rh25  1  0.454217  0.000000  0.500000  1
  Rh  Rh26  1  0.996911  0.279480  0.000000  1
  Rh  Rh27  1  0.717433  0.720520  0.000000  1
  Rh  Rh28  1  0.282055  0.000000  0.000000  1
  Rh  Rh29  1  0.621628  0.804509  0.500000  1
  Rh  Rh30  1  0.197621  0.821877  0.500000  1
  Rh  Rh31  1  0.176977  0.374182  0.500000  1
  Rh  Rh32  1  0.375745  0.178123  0.500000  1
  Rh  Rh33  1  0.802795  0.625818  0.500000  1
  Rh  Rh34  1  0.817120  0.195491  0.500000  1
  Rh  Rh35  1  0.998207  0.000000  0.500000  1
