# generated using pymatgen
data_Ta3CdHg3SbO14
_symmetry_space_group_name_H-M   'P 1'
_cell_length_a   7.43553442
_cell_length_b   7.43553344
_cell_length_c   7.49462090
_cell_angle_alpha   60.47089536
_cell_angle_beta   60.47089993
_cell_angle_gamma   60.21510800
_symmetry_Int_Tables_number   1
_chemical_formula_structural   Ta3CdHg3SbO14
_chemical_formula_sum   'Ta3 Cd1 Hg3 Sb1 O14'
_cell_volume   295.54573485
_cell_formula_units_Z   1
loop_
 _symmetry_equiv_pos_site_id
 _symmetry_equiv_pos_as_xyz
  1  'x, y, z'
loop_
 _atom_site_type_symbol
 _atom_site_label
 _atom_site_symmetry_multiplicity
 _atom_site_fract_x
 _atom_site_fract_y
 _atom_site_fract_z
 _atom_site_occupancy
  Ta  Ta0  1  0.125000  0.625000  0.625000  1
  Ta  Ta1  1  0.625000  0.125000  0.625000  1
  Ta  Ta2  1  0.625000  0.625000  0.125000  1
  Cd  Cd3  1  0.125000  0.125000  0.625000  1
  Hg  Hg4  1  0.625000  0.125000  0.125000  1
  Hg  Hg5  1  0.125000  0.625000  0.125000  1
  Hg  Hg6  1  0.125000  0.125000  0.125000  1
  Sb  Sb7  1  0.625000  0.625000  0.625000  1
  O  O8  1  0.692178  0.692178  0.309083  1
  O  O9  1  0.310910  0.310910  0.685082  1
  O  O10  1  0.698839  0.306110  0.690052  1
  O  O11  1  0.312322  0.686269  0.314229  1
  O  O12  1  0.306110  0.698839  0.690052  1
  O  O13  1  0.686269  0.312322  0.314229  1
  O  O14  1  0.557822  0.557822  0.940917  1
  O  O15  1  0.939090  0.939090  0.564918  1
  O  O16  1  0.551161  0.943890  0.559948  1
  O  O17  1  0.937678  0.563731  0.935771  1
  O  O18  1  0.943890  0.551161  0.559948  1
  O  O19  1  0.563731  0.937678  0.935771  1
  O  O20  1  0.248693  0.248693  0.247433  1
  O  O21  1  0.001307  0.001307  0.002567  1
