# generated using pymatgen
data_Nb3Cu(PO4)6
_symmetry_space_group_name_H-M   'P 1'
_cell_length_a   8.73688936
_cell_length_b   9.09241546
_cell_length_c   8.73699200
_cell_angle_alpha   89.99868299
_cell_angle_beta   59.99951294
_cell_angle_gamma   118.71391180
_symmetry_Int_Tables_number   1
_chemical_formula_structural   Nb3Cu(PO4)6
_chemical_formula_sum   'Nb3 Cu1 P6 O24'
_cell_volume   500.09171770
_cell_formula_units_Z   1
loop_
 _symmetry_equiv_pos_site_id
 _symmetry_equiv_pos_as_xyz
  1  'x, y, z'
loop_
 _atom_site_type_symbol
 _atom_site_label
 _atom_site_symmetry_multiplicity
 _atom_site_fract_x
 _atom_site_fract_y
 _atom_site_fract_z
 _atom_site_occupancy
  Nb  Nb0  1  0.286468  0.929614  0.356740  1
  Nb  Nb1  1  0.280711  0.420992  0.859622  1
  Nb  Nb2  1  0.713182  0.569706  0.143370  1
  Cu  Cu3  1  0.705513  0.058278  0.647323  1
  P  P4  1  0.777690  0.755413  0.751983  1
  P  P5  1  0.507436  0.245969  0.532713  1
  P  P6  1  0.507582  0.755444  0.470265  1
  P  P7  1  0.205840  0.245988  0.261382  1
  P  P8  1  0.778817  0.245993  0.959748  1
  P  P9  1  0.225790  0.755389  0.022147  1
  O  O10  1  0.673252  0.913940  0.480148  1
  O  O11  1  0.006491  0.715177  0.078019  1
  O  O12  1  0.222892  0.585128  0.001004  1
  O  O13  1  0.237392  0.788991  0.192766  1
  O  O14  1  0.988477  0.277374  0.924793  1
  O  O15  1  0.781839  0.413652  0.001275  1
  O  O16  1  0.763694  0.224727  0.795967  1
  O  O17  1  0.793344  0.715142  0.915405  1
  O  O18  1  0.981866  0.788901  0.569782  1
  O  O19  1  0.665042  0.224687  0.538851  1
  O  O20  1  0.760785  0.914002  0.759046  1
  O  O21  1  0.586227  0.585190  0.776048  1
  O  O22  1  0.593513  0.086794  0.142148  1
  O  O23  1  0.630564  0.413604  0.368007  1
  O  O24  1  0.202315  0.277367  0.086638  1
  O  O25  1  0.364159  0.277413  0.710970  1
  O  O26  1  0.630667  0.715114  0.291209  1
  O  O27  1  0.351092  0.086754  0.506652  1
  O  O28  1  0.394259  0.913865  0.846583  1
  O  O29  1  0.361339  0.585212  0.637683  1
  O  O30  1  0.228986  0.086753  0.264306  1
  O  O31  1  0.415128  0.413617  0.216743  1
  O  O32  1  0.358947  0.789031  0.448260  1
  O  O33  1  0.020834  0.224787  0.440275  1
