# generated using pymatgen
data_PrNd9(Si2Pb)2
_symmetry_space_group_name_H-M   'P 1'
_cell_length_a   7.93852550
_cell_length_b   7.93852523
_cell_length_c   9.21486600
_cell_angle_alpha   115.36157234
_cell_angle_beta   115.36157939
_cell_angle_gamma   90.08143323
_symmetry_Int_Tables_number   1
_chemical_formula_structural   PrNd9(Si2Pb)2
_chemical_formula_sum   'Pr1 Nd9 Si4 Pb2'
_cell_volume   461.86417206
_cell_formula_units_Z   1
loop_
 _symmetry_equiv_pos_site_id
 _symmetry_equiv_pos_as_xyz
  1  'x, y, z'
loop_
 _atom_site_type_symbol
 _atom_site_label
 _atom_site_symmetry_multiplicity
 _atom_site_fract_x
 _atom_site_fract_y
 _atom_site_fract_z
 _atom_site_occupancy
  Pr  Pr0  1  0.538381  0.038381  0.723852  1
  Nd  Nd1  1  0.500237  0.500047  0.000376  1
  Nd  Nd2  1  0.000047  0.000237  0.000376  1
  Nd  Nd3  1  0.963700  0.811463  0.275478  1
  Nd  Nd4  1  0.311463  0.463700  0.275478  1
  Nd  Nd5  1  0.811479  0.311479  0.275556  1
  Nd  Nd6  1  0.460740  0.960740  0.274578  1
  Nd  Nd7  1  0.036236  0.189205  0.724768  1
  Nd  Nd8  1  0.689205  0.536236  0.724768  1
  Nd  Nd9  1  0.188247  0.688247  0.724542  1
  Si  Si10  1  0.617541  0.882135  0.000607  1
  Si  Si11  1  0.382135  0.117541  0.000607  1
  Si  Si12  1  0.883433  0.383433  0.001479  1
  Si  Si13  1  0.117696  0.617696  0.999452  1
  Pb  Pb14  1  0.750640  0.748822  0.499041  1
  Pb  Pb15  1  0.248822  0.250640  0.499041  1
