# generated using pymatgen
data_DyTmGeI2
_symmetry_space_group_name_H-M   'P 1'
_cell_length_a   4.20573950
_cell_length_b   4.20559876
_cell_length_c   11.70584418
_cell_angle_alpha   91.53593939
_cell_angle_beta   98.17969240
_cell_angle_gamma   119.76440843
_symmetry_Int_Tables_number   1
_chemical_formula_structural   DyTmGeI2
_chemical_formula_sum   'Dy1 Tm1 Ge1 I2'
_cell_volume   176.75775413
_cell_formula_units_Z   1
loop_
 _symmetry_equiv_pos_site_id
 _symmetry_equiv_pos_as_xyz
  1  'x, y, z'
loop_
 _atom_site_type_symbol
 _atom_site_label
 _atom_site_symmetry_multiplicity
 _atom_site_fract_x
 _atom_site_fract_y
 _atom_site_fract_z
 _atom_site_occupancy
  Dy  Dy0  1  0.742926  0.381903  0.133536  1
  Tm  Tm1  1  0.256909  0.618080  0.866188  1
  Ge  Ge2  1  0.999069  0.999344  0.998278  1
  I  I3  1  0.510042  0.778098  0.308350  1
  I  I4  1  0.491057  0.222574  0.693648  1
