# generated using pymatgen
data_Al2Ga2Sb2O9
_symmetry_space_group_name_H-M   'P 1'
_cell_length_a   5.81298800
_cell_length_b   7.96326800
_cell_length_c   8.16071100
_cell_angle_alpha   90.00000000
_cell_angle_beta   90.00000000
_cell_angle_gamma   90.00000000
_symmetry_Int_Tables_number   1
_chemical_formula_structural   Al2Ga2Sb2O9
_chemical_formula_sum   'Al4 Ga4 Sb4 O18'
_cell_volume   377.76242407
_cell_formula_units_Z   2
loop_
 _symmetry_equiv_pos_site_id
 _symmetry_equiv_pos_as_xyz
  1  'x, y, z'
loop_
 _atom_site_type_symbol
 _atom_site_label
 _atom_site_symmetry_multiplicity
 _atom_site_fract_x
 _atom_site_fract_y
 _atom_site_fract_z
 _atom_site_occupancy
  Al  Al0  1  0.241695  0.000000  0.500000  1
  Al  Al1  1  0.758305  0.000000  0.500000  1
  Al  Al2  1  0.758305  0.500000  0.000000  1
  Al  Al3  1  0.241695  0.500000  0.000000  1
  Ga  Ga4  1  0.000000  0.153264  0.162414  1
  Ga  Ga5  1  0.000000  0.846736  0.837586  1
  Ga  Ga6  1  0.000000  0.346736  0.662414  1
  Ga  Ga7  1  0.000000  0.653264  0.337586  1
  Sb  Sb8  1  0.500000  0.317523  0.328163  1
  Sb  Sb9  1  0.500000  0.682477  0.671837  1
  Sb  Sb10  1  0.500000  0.182477  0.828163  1
  Sb  Sb11  1  0.500000  0.817523  0.171837  1
  O  O12  1  0.500000  0.359963  0.075906  1
  O  O13  1  0.500000  0.640037  0.924094  1
  O  O14  1  0.500000  0.140037  0.575906  1
  O  O15  1  0.500000  0.859963  0.424094  1
  O  O16  1  0.258702  0.134853  0.301790  1
  O  O17  1  0.741298  0.865147  0.698210  1
  O  O18  1  0.258702  0.865147  0.698210  1
  O  O19  1  0.741298  0.365147  0.801790  1
  O  O20  1  0.741298  0.134853  0.301790  1
  O  O21  1  0.258702  0.634853  0.198210  1
  O  O22  1  0.741298  0.634853  0.198210  1
  O  O23  1  0.258702  0.365147  0.801790  1
  O  O24  1  0.000000  0.374601  0.092007  1
  O  O25  1  0.000000  0.625399  0.907993  1
  O  O26  1  0.000000  0.125399  0.592007  1
  O  O27  1  0.000000  0.874601  0.407993  1
  O  O28  1  0.000000  0.000000  0.000000  1
  O  O29  1  0.000000  0.500000  0.500000  1
