# generated using pymatgen
data_La2P7Ru11Pt
_symmetry_space_group_name_H-M   'P 1'
_cell_length_a   9.48219971
_cell_length_b   9.56814703
_cell_length_c   3.98877400
_cell_angle_alpha   90.00000000
_cell_angle_beta   90.00000000
_cell_angle_gamma   119.53310259
_symmetry_Int_Tables_number   1
_chemical_formula_structural   La2P7Ru11Pt
_chemical_formula_sum   'La2 P7 Ru11 Pt1'
_cell_volume   314.86985848
_cell_formula_units_Z   1
loop_
 _symmetry_equiv_pos_site_id
 _symmetry_equiv_pos_as_xyz
  1  'x, y, z'
loop_
 _atom_site_type_symbol
 _atom_site_label
 _atom_site_symmetry_multiplicity
 _atom_site_fract_x
 _atom_site_fract_y
 _atom_site_fract_z
 _atom_site_occupancy
  La  La0  1  0.668400  0.336092  0.500000  1
  La  La1  1  0.330787  0.661933  0.000000  1
  P  P2  1  0.603951  0.702263  0.500000  1
  P  P3  1  0.998758  0.000425  0.000000  1
  P  P4  1  0.274540  0.885766  0.500000  1
  P  P5  1  0.110355  0.396146  0.500000  1
  P  P6  1  0.893239  0.582025  0.000000  1
  P  P7  1  0.421183  0.310740  0.000000  1
  P  P8  1  0.702267  0.120145  0.000000  1
  Ru  Ru9  1  0.387494  0.435094  0.500000  1
  Ru  Ru10  1  0.910991  0.124897  0.500000  1
  Ru  Ru11  1  0.208357  0.086976  0.500000  1
  Ru  Ru12  1  0.877921  0.794342  0.500000  1
  Ru  Ru13  1  0.728389  0.893458  0.000000  1
  Ru  Ru14  1  0.110535  0.841426  0.000000  1
  Ru  Ru15  1  0.159893  0.266836  0.000000  1
  Ru  Ru16  1  0.428506  0.065743  0.000000  1
  Ru  Ru17  1  0.939504  0.362999  0.000000  1
  Ru  Ru18  1  0.641977  0.577360  0.000000  1
  Ru  Ru19  1  0.049574  0.610817  0.500000  1
  Pt  Pt20  1  0.553380  0.944517  0.500000  1
