# generated using pymatgen
data_Y3Er5(CdIr)2
_symmetry_space_group_name_H-M   'P 1'
_cell_length_a   9.60046648
_cell_length_b   9.60046633
_cell_length_c   9.60046700
_cell_angle_alpha   60.00000113
_cell_angle_beta   60.00000166
_cell_angle_gamma   60.00000058
_symmetry_Int_Tables_number   1
_chemical_formula_structural   Y3Er5(CdIr)2
_chemical_formula_sum   'Y6 Er10 Cd4 Ir4'
_cell_volume   625.69406679
_cell_formula_units_Z   2
loop_
 _symmetry_equiv_pos_site_id
 _symmetry_equiv_pos_as_xyz
  1  'x, y, z'
loop_
 _atom_site_type_symbol
 _atom_site_label
 _atom_site_symmetry_multiplicity
 _atom_site_fract_x
 _atom_site_fract_y
 _atom_site_fract_z
 _atom_site_occupancy
  Y  Y0  1  0.938508  0.561492  0.561492  1
  Y  Y1  1  0.561492  0.938508  0.938508  1
  Y  Y2  1  0.561492  0.938508  0.561492  1
  Y  Y3  1  0.938508  0.561492  0.938508  1
  Y  Y4  1  0.561492  0.561492  0.938508  1
  Y  Y5  1  0.938508  0.938508  0.561492  1
  Er  Er6  1  0.348705  0.348705  0.348705  1
  Er  Er7  1  0.348705  0.348705  0.953886  1
  Er  Er8  1  0.348705  0.953886  0.348705  1
  Er  Er9  1  0.953886  0.348705  0.348705  1
  Er  Er10  1  0.810982  0.189018  0.189018  1
  Er  Er11  1  0.189018  0.810982  0.810982  1
  Er  Er12  1  0.189018  0.810982  0.189018  1
  Er  Er13  1  0.810982  0.189018  0.810982  1
  Er  Er14  1  0.189018  0.189018  0.810982  1
  Er  Er15  1  0.810982  0.810982  0.189018  1
  Cd  Cd16  1  0.580609  0.580609  0.580609  1
  Cd  Cd17  1  0.580609  0.580609  0.258174  1
  Cd  Cd18  1  0.580609  0.258174  0.580609  1
  Cd  Cd19  1  0.258174  0.580609  0.580609  1
  Ir  Ir20  1  0.141745  0.141745  0.141745  1
  Ir  Ir21  1  0.141745  0.141745  0.574765  1
  Ir  Ir22  1  0.141745  0.574765  0.141745  1
  Ir  Ir23  1  0.574765  0.141745  0.141745  1
