# generated using pymatgen
data_Y2ZrPtF14
_symmetry_space_group_name_H-M   'P 1'
_cell_length_a   5.66294989
_cell_length_b   9.02235498
_cell_length_c   12.13216541
_cell_angle_alpha   62.36398546
_cell_angle_beta   90.10553631
_cell_angle_gamma   90.12475019
_symmetry_Int_Tables_number   1
_chemical_formula_structural   Y2ZrPtF14
_chemical_formula_sum   'Y4 Zr2 Pt2 F28'
_cell_volume   549.14926717
_cell_formula_units_Z   2
loop_
 _symmetry_equiv_pos_site_id
 _symmetry_equiv_pos_as_xyz
  1  'x, y, z'
loop_
 _atom_site_type_symbol
 _atom_site_label
 _atom_site_symmetry_multiplicity
 _atom_site_fract_x
 _atom_site_fract_y
 _atom_site_fract_z
 _atom_site_occupancy
  Y  Y0  1  0.256819  0.812182  0.270913  1
  Y  Y1  1  0.743181  0.187818  0.729087  1
  Y  Y2  1  0.759788  0.181433  0.241164  1
  Y  Y3  1  0.240212  0.818567  0.758836  1
  Zr  Zr4  1  0.755265  0.725293  0.044159  1
  Zr  Zr5  1  0.244735  0.274707  0.955841  1
  Pt  Pt6  1  0.259866  0.273447  0.455930  1
  Pt  Pt7  1  0.740134  0.726553  0.544070  1
  F  F8  1  0.934977  0.704113  0.418650  1
  F  F9  1  0.065023  0.295887  0.581350  1
  F  F10  1  0.462561  0.290368  0.083402  1
  F  F11  1  0.537439  0.709632  0.916598  1
  F  F12  1  0.478406  0.731154  0.148970  1
  F  F13  1  0.521594  0.268846  0.851030  1
  F  F14  1  0.971814  0.270594  0.365707  1
  F  F15  1  0.028186  0.729406  0.634293  1
  F  F16  1  0.962321  0.749568  0.173998  1
  F  F17  1  0.037679  0.250432  0.826002  1
  F  F18  1  0.450987  0.258040  0.325505  1
  F  F19  1  0.549013  0.741960  0.674495  1
  F  F20  1  0.781560  0.471879  0.143469  1
  F  F21  1  0.218440  0.528121  0.856531  1
  F  F22  1  0.266273  0.519398  0.360074  1
  F  F23  1  0.733727  0.480602  0.639926  1
  F  F24  1  0.945684  0.271624  0.052600  1
  F  F25  1  0.054316  0.728376  0.947400  1
  F  F26  1  0.445982  0.715526  0.460615  1
  F  F27  1  0.554018  0.284474  0.539385  1
  F  F28  1  0.739876  0.972489  0.453356  1
  F  F29  1  0.260124  0.027511  0.546644  1
  F  F30  1  0.243223  0.021720  0.061331  1
  F  F31  1  0.756777  0.978280  0.938669  1
  F  F32  1  0.576820  0.969423  0.239018  1
  F  F33  1  0.423180  0.030577  0.760982  1
  F  F34  1  0.079155  0.026250  0.273223  1
  F  F35  1  0.920845  0.973750  0.726777  1
