# generated using pymatgen
data_Dy3YAl4(PtRh)2
_symmetry_space_group_name_H-M   'P 1'
_cell_length_a   4.37535500
_cell_length_b   6.82645534
_cell_length_c   7.86089563
_cell_angle_alpha   90.11769172
_cell_angle_beta   90.00000000
_cell_angle_gamma   90.00000000
_symmetry_Int_Tables_number   1
_chemical_formula_structural   Dy3YAl4(PtRh)2
_chemical_formula_sum   'Dy3 Y1 Al4 Pt2 Rh2'
_cell_volume   234.79003629
_cell_formula_units_Z   1
loop_
 _symmetry_equiv_pos_site_id
 _symmetry_equiv_pos_as_xyz
  1  'x, y, z'
loop_
 _atom_site_type_symbol
 _atom_site_label
 _atom_site_symmetry_multiplicity
 _atom_site_fract_x
 _atom_site_fract_y
 _atom_site_fract_z
 _atom_site_occupancy
  Dy  Dy0  1  0.750000  0.533401  0.816988  1
  Dy  Dy1  1  0.750000  0.030517  0.678436  1
  Dy  Dy2  1  0.250000  0.969610  0.321517  1
  Y  Y3  1  0.250000  0.466851  0.183360  1
  Al  Al4  1  0.250000  0.856751  0.937337  1
  Al  Al5  1  0.750000  0.143288  0.062770  1
  Al  Al6  1  0.750000  0.638363  0.437328  1
  Al  Al7  1  0.250000  0.361603  0.562694  1
  Pt  Pt8  1  0.750000  0.770429  0.119169  1
  Pt  Pt9  1  0.250000  0.229667  0.880066  1
  Rh  Rh10  1  0.250000  0.735191  0.616219  1
  Rh  Rh11  1  0.750000  0.264330  0.384115  1
