# generated using pymatgen
data_Sc6SbTeC2
_symmetry_space_group_name_H-M   'P 1'
_cell_length_a   6.23300041
_cell_length_b   6.23300017
_cell_length_c   9.05117100
_cell_angle_alpha   90.00000000
_cell_angle_beta   90.00000000
_cell_angle_gamma   147.03493868
_symmetry_Int_Tables_number   1
_chemical_formula_structural   Sc6SbTeC2
_chemical_formula_sum   'Sc6 Sb1 Te1 C2'
_cell_volume   191.33734941
_cell_formula_units_Z   1
loop_
 _symmetry_equiv_pos_site_id
 _symmetry_equiv_pos_as_xyz
  1  'x, y, z'
loop_
 _atom_site_type_symbol
 _atom_site_label
 _atom_site_symmetry_multiplicity
 _atom_site_fract_x
 _atom_site_fract_y
 _atom_site_fract_z
 _atom_site_occupancy
  Sc  Sc0  1  0.379212  0.620788  0.040354  1
  Sc  Sc1  1  0.038130  0.961871  0.250000  1
  Sc  Sc2  1  0.379212  0.620788  0.459646  1
  Sc  Sc3  1  0.619926  0.380074  0.538337  1
  Sc  Sc4  1  0.964731  0.035270  0.750000  1
  Sc  Sc5  1  0.619926  0.380074  0.961663  1
  Sb  Sb6  1  0.250632  0.749369  0.750000  1
  Te  Te7  1  0.748687  0.251314  0.250000  1
  C  C8  1  0.999773  0.000227  0.001572  1
  C  C9  1  0.999773  0.000227  0.498428  1
