# generated using pymatgen
data_Yb2DyEr3(Si3Ru)8
_symmetry_space_group_name_H-M   'P 1'
_cell_length_a   10.12556089
_cell_length_b   10.12556017
_cell_length_c   8.13285009
_cell_angle_alpha   90.01622138
_cell_angle_beta   89.98377848
_cell_angle_gamma   132.63691576
_symmetry_Int_Tables_number   1
_chemical_formula_structural   Yb2DyEr3(Si3Ru)8
_chemical_formula_sum   'Yb2 Dy1 Er3 Si24 Ru8'
_cell_volume   613.42083478
_cell_formula_units_Z   1
loop_
 _symmetry_equiv_pos_site_id
 _symmetry_equiv_pos_as_xyz
  1  'x, y, z'
loop_
 _atom_site_type_symbol
 _atom_site_label
 _atom_site_symmetry_multiplicity
 _atom_site_fract_x
 _atom_site_fract_y
 _atom_site_fract_z
 _atom_site_occupancy
  Yb  Yb0  1  0.002003  0.502003  0.750000  1
  Yb  Yb1  1  0.502152  0.002152  0.750000  1
  Dy  Dy2  1  0.498400  0.998400  0.250000  1
  Er  Er3  1  0.998328  0.498328  0.250000  1
  Er  Er4  1  0.500485  0.500451  0.500550  1
  Er  Er5  1  0.000451  0.000485  0.999450  1
  Si  Si6  1  0.388650  0.154927  0.004924  1
  Si  Si7  1  0.654927  0.888650  0.495076  1
  Si  Si8  1  0.111342  0.344247  0.504202  1
  Si  Si9  1  0.844247  0.611342  0.995798  1
  Si  Si10  1  0.611562  0.844650  0.995283  1
  Si  Si11  1  0.344650  0.111562  0.504717  1
  Si  Si12  1  0.888758  0.655137  0.494575  1
  Si  Si13  1  0.155137  0.388758  0.005425  1
  Si  Si14  1  0.611213  0.378210  0.227483  1
  Si  Si15  1  0.878210  0.111213  0.272517  1
  Si  Si16  1  0.887374  0.122046  0.728300  1
  Si  Si17  1  0.622046  0.387374  0.771700  1
  Si  Si18  1  0.387620  0.622296  0.771609  1
  Si  Si19  1  0.122296  0.887620  0.728391  1
  Si  Si20  1  0.706496  0.294965  0.998707  1
  Si  Si21  1  0.794965  0.206496  0.501293  1
  Si  Si22  1  0.294052  0.705580  0.998630  1
  Si  Si23  1  0.205580  0.794052  0.501370  1
  Si  Si24  1  0.168027  0.168016  0.333409  1
  Si  Si25  1  0.668016  0.668027  0.166591  1
  Si  Si26  1  0.333406  0.333463  0.832956  1
  Si  Si27  1  0.833463  0.833406  0.667044  1
  Si  Si28  1  0.377491  0.610513  0.227628  1
  Si  Si29  1  0.110513  0.877491  0.272372  1
  Ru  Ru30  1  0.626334  0.626396  0.872909  1
  Ru  Ru31  1  0.126396  0.126334  0.627091  1
  Ru  Ru32  1  0.873906  0.873974  0.373621  1
  Ru  Ru33  1  0.373974  0.373906  0.126379  1
  Ru  Ru34  1  0.329718  0.668145  0.497616  1
  Ru  Ru35  1  0.168145  0.829718  0.002384  1
  Ru  Ru36  1  0.669025  0.330641  0.497564  1
  Ru  Ru37  1  0.830641  0.169025  0.002436  1
