# generated using pymatgen
data_TmNi3HgPt
_symmetry_space_group_name_H-M   'P 1'
_cell_length_a   5.13387626
_cell_length_b   5.13387512
_cell_length_c   5.13387653
_cell_angle_alpha   58.25941820
_cell_angle_beta   58.25942299
_cell_angle_gamma   58.25942370
_symmetry_Int_Tables_number   1
_chemical_formula_structural   TmNi3HgPt
_chemical_formula_sum   'Tm1 Ni3 Hg1 Pt1'
_cell_volume   91.86518008
_cell_formula_units_Z   1
loop_
 _symmetry_equiv_pos_site_id
 _symmetry_equiv_pos_as_xyz
  1  'x, y, z'
loop_
 _atom_site_type_symbol
 _atom_site_label
 _atom_site_symmetry_multiplicity
 _atom_site_fract_x
 _atom_site_fract_y
 _atom_site_fract_z
 _atom_site_occupancy
  Tm  Tm0  1  0.750960  0.750960  0.750960  1
  Ni  Ni1  1  0.878094  0.375451  0.375451  1
  Ni  Ni2  1  0.375451  0.878094  0.375451  1
  Ni  Ni3  1  0.375451  0.375451  0.878094  1
  Hg  Hg4  1  0.993822  0.993822  0.993822  1
  Pt  Pt5  1  0.376224  0.376224  0.376224  1
