# generated using pymatgen
data_Ca3Tb(LuHg2)4
_symmetry_space_group_name_H-M   'P 1'
_cell_length_a   7.46112202
_cell_length_b   7.50791200
_cell_length_c   7.50828300
_cell_angle_alpha   90.00051893
_cell_angle_beta   90.00438485
_cell_angle_gamma   89.99990838
_symmetry_Int_Tables_number   1
_chemical_formula_structural   Ca3Tb(LuHg2)4
_chemical_formula_sum   'Ca3 Tb1 Lu4 Hg8'
_cell_volume   420.59484800
_cell_formula_units_Z   1
loop_
 _symmetry_equiv_pos_site_id
 _symmetry_equiv_pos_as_xyz
  1  'x, y, z'
loop_
 _atom_site_type_symbol
 _atom_site_label
 _atom_site_symmetry_multiplicity
 _atom_site_fract_x
 _atom_site_fract_y
 _atom_site_fract_z
 _atom_site_occupancy
  Ca  Ca0  1  0.248808  0.750029  0.500036  1
  Ca  Ca1  1  0.751215  0.249912  0.499923  1
  Ca  Ca2  1  0.250651  0.750020  0.999943  1
  Tb  Tb3  1  0.749350  0.250001  0.000012  1
  Lu  Lu4  1  0.250414  0.250006  0.999988  1
  Lu  Lu5  1  0.749638  0.750006  0.000011  1
  Lu  Lu6  1  0.750411  0.750003  0.499995  1
  Lu  Lu7  1  0.249659  0.249999  0.500000  1
  Hg  Hg8  1  0.997209  0.497195  0.247430  1
  Hg  Hg9  1  0.997214  0.002820  0.247425  1
  Hg  Hg10  1  0.502777  0.002801  0.248942  1
  Hg  Hg11  1  0.502781  0.497208  0.248951  1
  Hg  Hg12  1  0.502761  0.497242  0.751065  1
  Hg  Hg13  1  0.502759  0.002759  0.751068  1
  Hg  Hg14  1  0.997173  0.002816  0.752605  1
  Hg  Hg15  1  0.997179  0.497189  0.752611  1
