# generated using pymatgen
data_MgP6(WO8)3
_symmetry_space_group_name_H-M   'P 1'
_cell_length_a   8.75053838
_cell_length_b   8.72371542
_cell_length_c   8.99880161
_cell_angle_alpha   89.97968823
_cell_angle_beta   61.09762233
_cell_angle_gamma   119.95043189
_symmetry_Int_Tables_number   1
_chemical_formula_structural   MgP6(WO8)3
_chemical_formula_sum   'Mg1 P6 W3 O24'
_cell_volume   493.92168080
_cell_formula_units_Z   1
loop_
 _symmetry_equiv_pos_site_id
 _symmetry_equiv_pos_as_xyz
  1  'x, y, z'
loop_
 _atom_site_type_symbol
 _atom_site_label
 _atom_site_symmetry_multiplicity
 _atom_site_fract_x
 _atom_site_fract_y
 _atom_site_fract_z
 _atom_site_occupancy
  Mg  Mg0  1  0.781606  0.139636  0.078249  1
  P  P1  1  0.287430  0.035776  0.248287  1
  P  P2  1  0.715658  0.750607  0.244634  1
  P  P3  1  0.278390  0.251877  0.757542  1
  P  P4  1  0.715526  0.967113  0.753450  1
  P  P5  1  0.994377  0.529286  0.756813  1
  P  P6  1  0.002062  0.463755  0.248943  1
  W  W7  1  0.787503  0.643233  0.568980  1
  W  W8  1  0.211238  0.356287  0.430323  1
  W  W9  1  0.210835  0.856214  0.930054  1
  O  O10  1  0.468924  0.048847  0.234493  1
  O  O11  1  0.841577  0.360437  0.916141  1
  O  O12  1  0.905049  0.131874  0.576459  1
  O  O13  1  0.869240  0.584737  0.713973  1
  O  O14  1  0.144144  0.646914  0.086549  1
  O  O15  1  0.071973  0.866624  0.417875  1
  O  O16  1  0.163934  0.451087  0.264741  1
  O  O17  1  0.157875  0.707370  0.768747  1
  O  O18  1  0.133369  0.500097  0.581390  1
  O  O19  1  0.279004  0.208600  0.284586  1
  O  O20  1  0.270767  0.013153  0.085611  1
  O  O21  1  0.723065  0.923706  0.236126  1
  O  O22  1  0.511197  0.576981  0.275009  1
  O  O23  1  0.285597  0.277549  0.584071  1
  O  O24  1  0.882471  0.508894  0.420906  1
  O  O25  1  0.107435  0.248550  0.918038  1
  O  O26  1  0.902439  0.760800  0.077403  1
  O  O27  1  0.512763  0.934664  0.777643  1
  O  O28  1  0.719459  0.698585  0.412386  1
  O  O29  1  0.504059  0.417178  0.713574  1
  O  O30  1  0.277555  0.072698  0.783554  1
  O  O31  1  0.730740  0.982938  0.910760  1
  O  O32  1  0.705911  0.785113  0.709679  1
  O  O33  1  0.846832  0.298816  0.233012  1
