# generated using pymatgen
data_Sm8Dy12Si15Se
_symmetry_space_group_name_H-M   'P 1'
_cell_length_a   7.57395351
_cell_length_b   7.72097493
_cell_length_c   14.74514436
_cell_angle_alpha   89.76911903
_cell_angle_beta   86.35021611
_cell_angle_gamma   89.92767624
_symmetry_Int_Tables_number   1
_chemical_formula_structural   Sm8Dy12Si15Se
_chemical_formula_sum   'Sm8 Dy12 Si15 Se1'
_cell_volume   860.51476391
_cell_formula_units_Z   1
loop_
 _symmetry_equiv_pos_site_id
 _symmetry_equiv_pos_as_xyz
  1  'x, y, z'
loop_
 _atom_site_type_symbol
 _atom_site_label
 _atom_site_symmetry_multiplicity
 _atom_site_fract_x
 _atom_site_fract_y
 _atom_site_fract_z
 _atom_site_occupancy
  Sm  Sm0  1  0.022494  0.183272  0.100719  1
  Sm  Sm1  1  0.977690  0.818985  0.899281  1
  Sm  Sm2  1  0.477839  0.683769  0.899606  1
  Sm  Sm3  1  0.002486  0.823550  0.599949  1
  Sm  Sm4  1  0.522730  0.317385  0.101317  1
  Sm  Sm5  1  0.991842  0.172625  0.397568  1
  Sm  Sm6  1  0.500498  0.313356  0.398057  1
  Sm  Sm7  1  0.509446  0.685180  0.600853  1
  Dy  Dy8  1  0.170076  0.508253  0.751718  1
  Dy  Dy9  1  0.829424  0.492681  0.254541  1
  Dy  Dy10  1  0.328168  0.005995  0.253622  1
  Dy  Dy11  1  0.672742  0.993292  0.747181  1
  Dy  Dy12  1  0.359391  0.161932  0.620076  1
  Dy  Dy13  1  0.642695  0.833547  0.380160  1
  Dy  Dy14  1  0.142187  0.665544  0.380703  1
  Dy  Dy15  1  0.673067  0.821584  0.122461  1
  Dy  Dy16  1  0.853019  0.334205  0.618067  1
  Dy  Dy17  1  0.326719  0.179261  0.876882  1
  Dy  Dy18  1  0.826834  0.322609  0.876724  1
  Dy  Dy19  1  0.172807  0.677892  0.122676  1
  Si  Si20  1  0.046936  0.113261  0.749410  1
  Si  Si21  1  0.953701  0.887284  0.248486  1
  Si  Si22  1  0.453127  0.610687  0.249549  1
  Si  Si23  1  0.545750  0.390061  0.748966  1
  Si  Si24  1  0.287311  0.874556  0.751191  1
  Si  Si25  1  0.713827  0.124379  0.247915  1
  Si  Si26  1  0.214055  0.374591  0.248698  1
  Si  Si27  1  0.787345  0.625769  0.750621  1
  Si  Si28  1  0.792136  0.534043  0.455843  1
  Si  Si29  1  0.295037  0.963219  0.457610  1
  Si  Si30  1  0.854928  0.530166  0.040605  1
  Si  Si31  1  0.701757  0.035755  0.543700  1
  Si  Si32  1  0.143683  0.472084  0.958479  1
  Si  Si33  1  0.643517  0.030790  0.958883  1
  Si  Si34  1  0.354928  0.971198  0.041176  1
  Se  Se35  1  0.209812  0.467241  0.546707  1
