# generated using pymatgen
data_Ca2TbLu3(Si3Ru)8
_symmetry_space_group_name_H-M   'P 1'
_cell_length_a   10.12515391
_cell_length_b   10.12318427
_cell_length_c   8.12037610
_cell_angle_alpha   89.94679343
_cell_angle_beta   90.03114769
_cell_angle_gamma   132.70190684
_symmetry_Int_Tables_number   1
_chemical_formula_structural   Ca2TbLu3(Si3Ru)8
_chemical_formula_sum   'Ca2 Tb1 Lu3 Si24 Ru8'
_cell_volume   611.67152660
_cell_formula_units_Z   1
loop_
 _symmetry_equiv_pos_site_id
 _symmetry_equiv_pos_as_xyz
  1  'x, y, z'
loop_
 _atom_site_type_symbol
 _atom_site_label
 _atom_site_symmetry_multiplicity
 _atom_site_fract_x
 _atom_site_fract_y
 _atom_site_fract_z
 _atom_site_occupancy
  Ca  Ca0  1  0.999789  0.999775  0.000321  1
  Ca  Ca1  1  0.499213  0.998986  0.249730  1
  Tb  Tb2  1  0.000417  0.500536  0.750475  1
  Lu  Lu3  1  0.499859  0.499757  0.499625  1
  Lu  Lu4  1  0.502963  0.003402  0.750657  1
  Lu  Lu5  1  0.996670  0.496730  0.249208  1
  Si  Si6  1  0.793715  0.204029  0.498761  1
  Si  Si7  1  0.296940  0.705274  0.001003  1
  Si  Si8  1  0.205920  0.796141  0.499315  1
  Si  Si9  1  0.703263  0.294335  0.001163  1
  Si  Si10  1  0.332399  0.330433  0.833754  1
  Si  Si11  1  0.668158  0.667164  0.166310  1
  Si  Si12  1  0.165803  0.166132  0.331999  1
  Si  Si13  1  0.832721  0.833547  0.667963  1
  Si  Si14  1  0.124775  0.891797  0.729999  1
  Si  Si15  1  0.108435  0.874769  0.269826  1
  Si  Si16  1  0.612855  0.379674  0.228142  1
  Si  Si17  1  0.620921  0.388366  0.772060  1
  Si  Si18  1  0.880608  0.114401  0.270816  1
  Si  Si19  1  0.886923  0.119807  0.728686  1
  Si  Si20  1  0.393662  0.626318  0.770625  1
  Si  Si21  1  0.373333  0.606530  0.229857  1
  Si  Si22  1  0.346348  0.112968  0.508593  1
  Si  Si23  1  0.887357  0.655031  0.491585  1
  Si  Si24  1  0.386862  0.154228  0.001427  1
  Si  Si25  1  0.845313  0.613151  0.997004  1
  Si  Si26  1  0.655513  0.888341  0.497731  1
  Si  Si27  1  0.111675  0.344063  0.503718  1
  Si  Si28  1  0.614282  0.847672  0.991103  1
  Si  Si29  1  0.153528  0.385914  0.008795  1
  Ru  Ru30  1  0.670852  0.332440  0.501382  1
  Ru  Ru31  1  0.170592  0.827319  0.998539  1
  Ru  Ru32  1  0.329151  0.668964  0.501477  1
  Ru  Ru33  1  0.830720  0.172636  0.998266  1
  Ru  Ru34  1  0.127813  0.127966  0.624601  1
  Ru  Ru35  1  0.871239  0.871943  0.375215  1
  Ru  Ru36  1  0.375158  0.375026  0.128754  1
  Ru  Ru37  1  0.624258  0.624433  0.871515  1
