# generated using pymatgen
data_NdMnFeO5
_symmetry_space_group_name_H-M   'P 1'
_cell_length_a   5.82669700
_cell_length_b   7.57549700
_cell_length_c   8.77873000
_cell_angle_alpha   90.00000000
_cell_angle_beta   90.00000000
_cell_angle_gamma   90.00000000
_symmetry_Int_Tables_number   1
_chemical_formula_structural   NdMnFeO5
_chemical_formula_sum   'Nd4 Mn4 Fe4 O20'
_cell_volume   387.49424519
_cell_formula_units_Z   4
loop_
 _symmetry_equiv_pos_site_id
 _symmetry_equiv_pos_as_xyz
  1  'x, y, z'
loop_
 _atom_site_type_symbol
 _atom_site_label
 _atom_site_symmetry_multiplicity
 _atom_site_fract_x
 _atom_site_fract_y
 _atom_site_fract_z
 _atom_site_occupancy
  Nd  Nd0  1  0.000000  0.636583  0.329329  1
  Nd  Nd1  1  0.000000  0.363417  0.670671  1
  Nd  Nd2  1  0.000000  0.136583  0.170671  1
  Nd  Nd3  1  0.000000  0.863417  0.829329  1
  Mn  Mn4  1  0.251528  0.500000  0.000000  1
  Mn  Mn5  1  0.748472  0.000000  0.500000  1
  Mn  Mn6  1  0.748472  0.500000  0.000000  1
  Mn  Mn7  1  0.251528  0.000000  0.500000  1
  Fe  Fe8  1  0.500000  0.889827  0.143608  1
  Fe  Fe9  1  0.500000  0.110173  0.856392  1
  Fe  Fe10  1  0.500000  0.389827  0.356392  1
  Fe  Fe11  1  0.500000  0.610173  0.643608  1
  O  O12  1  0.000000  0.656311  0.053182  1
  O  O13  1  0.000000  0.343689  0.946818  1
  O  O14  1  0.000000  0.156311  0.446818  1
  O  O15  1  0.000000  0.843689  0.553182  1
  O  O16  1  0.273165  0.500000  0.500000  1
  O  O17  1  0.726835  0.000000  0.000000  1
  O  O18  1  0.726835  0.500000  0.500000  1
  O  O19  1  0.273165  0.000000  0.000000  1
  O  O20  1  0.500000  0.652504  0.065068  1
  O  O21  1  0.500000  0.347496  0.934932  1
  O  O22  1  0.500000  0.152504  0.434932  1
  O  O23  1  0.500000  0.847496  0.565068  1
  O  O24  1  0.247894  0.900696  0.295310  1
  O  O25  1  0.247894  0.099304  0.704690  1
  O  O26  1  0.752106  0.400696  0.204690  1
  O  O27  1  0.752106  0.599304  0.795310  1
  O  O28  1  0.752106  0.099304  0.704690  1
  O  O29  1  0.752106  0.900696  0.295310  1
  O  O30  1  0.247894  0.599304  0.795310  1
  O  O31  1  0.247894  0.400696  0.204690  1
