# generated using pymatgen
data_ZrSc3Fe5Os3
_symmetry_space_group_name_H-M   'P 1'
_cell_length_a   5.02423090
_cell_length_b   5.02423049
_cell_length_c   8.40622885
_cell_angle_alpha   90.10727323
_cell_angle_beta   89.89272625
_cell_angle_gamma   120.94554059
_symmetry_Int_Tables_number   1
_chemical_formula_structural   ZrSc3Fe5Os3
_chemical_formula_sum   'Zr1 Sc3 Fe5 Os3'
_cell_volume   181.99217235
_cell_formula_units_Z   1
loop_
 _symmetry_equiv_pos_site_id
 _symmetry_equiv_pos_as_xyz
  1  'x, y, z'
loop_
 _atom_site_type_symbol
 _atom_site_label
 _atom_site_symmetry_multiplicity
 _atom_site_fract_x
 _atom_site_fract_y
 _atom_site_fract_z
 _atom_site_occupancy
  Zr  Zr0  1  0.332779  0.667221  0.436831  1
  Sc  Sc1  1  0.664532  0.335468  0.567975  1
  Sc  Sc2  1  0.664757  0.335243  0.935271  1
  Sc  Sc3  1  0.332868  0.667132  0.060360  1
  Fe  Fe4  1  0.832755  0.659520  0.249732  1
  Fe  Fe5  1  0.340480  0.167245  0.249732  1
  Fe  Fe6  1  0.173377  0.826623  0.750300  1
  Fe  Fe7  1  0.171337  0.343014  0.750030  1
  Fe  Fe8  1  0.656986  0.828663  0.750030  1
  Os  Os9  1  0.001379  0.998621  0.505568  1
  Os  Os10  1  0.999796  0.000204  0.994835  1
  Os  Os11  1  0.828950  0.171050  0.249335  1
