# generated using pymatgen
data_Mn3Nb12Al4Cr5N4
_symmetry_space_group_name_H-M   'P 1'
_cell_length_a   8.19090538
_cell_length_b   8.19090527
_cell_length_c   8.19090512
_cell_angle_alpha   59.73360748
_cell_angle_beta   59.73360496
_cell_angle_gamma   59.73359981
_symmetry_Int_Tables_number   1
_chemical_formula_structural   Mn3Nb12Al4Cr5N4
_chemical_formula_sum   'Mn3 Nb12 Al4 Cr5 N4'
_cell_volume   386.22936566
_cell_formula_units_Z   1
loop_
 _symmetry_equiv_pos_site_id
 _symmetry_equiv_pos_as_xyz
  1  'x, y, z'
loop_
 _atom_site_type_symbol
 _atom_site_label
 _atom_site_symmetry_multiplicity
 _atom_site_fract_x
 _atom_site_fract_y
 _atom_site_fract_z
 _atom_site_occupancy
  Mn  Mn0  1  0.729987  0.423332  0.423332  1
  Mn  Mn1  1  0.423332  0.729987  0.423332  1
  Mn  Mn2  1  0.423332  0.423332  0.729987  1
  Nb  Nb3  1  0.807310  0.807310  0.192048  1
  Nb  Nb4  1  0.196256  0.196256  0.804387  1
  Nb  Nb5  1  0.807310  0.192048  0.807310  1
  Nb  Nb6  1  0.196256  0.804387  0.196256  1
  Nb  Nb7  1  0.192048  0.807310  0.807310  1
  Nb  Nb8  1  0.804387  0.196256  0.196256  1
  Nb  Nb9  1  0.443022  0.443022  0.052896  1
  Nb  Nb10  1  0.057132  0.057132  0.442582  1
  Nb  Nb11  1  0.443022  0.052896  0.443022  1
  Nb  Nb12  1  0.057132  0.442582  0.057132  1
  Nb  Nb13  1  0.052896  0.443022  0.443022  1
  Nb  Nb14  1  0.442582  0.057132  0.057132  1
  Al  Al15  1  0.416824  0.416824  0.416824  1
  Al  Al16  1  0.503286  0.832626  0.832626  1
  Al  Al17  1  0.832626  0.503286  0.832626  1
  Al  Al18  1  0.832626  0.832626  0.503286  1
  Cr  Cr19  1  0.133497  0.631487  0.631487  1
  Cr  Cr20  1  0.631487  0.133497  0.631487  1
  Cr  Cr21  1  0.631487  0.631487  0.133497  1
  Cr  Cr22  1  0.614856  0.614856  0.614856  1
  Cr  Cr23  1  0.828330  0.828330  0.828330  1
  N  N24  1  0.625518  0.123956  0.123956  1
  N  N25  1  0.123956  0.625518  0.123956  1
  N  N26  1  0.123956  0.123956  0.625518  1
  N  N27  1  0.125548  0.125548  0.125548  1
