# generated using pymatgen
data_KCe2F8
_symmetry_space_group_name_H-M   'P 1'
_cell_length_a   6.55788535
_cell_length_b   6.55788641
_cell_length_c   4.46504796
_cell_angle_alpha   85.29730962
_cell_angle_beta   85.29732045
_cell_angle_gamma   113.54348108
_symmetry_Int_Tables_number   1
_chemical_formula_structural   KCe2F8
_chemical_formula_sum   'K1 Ce2 F8'
_cell_volume   174.05728295
_cell_formula_units_Z   1
loop_
 _symmetry_equiv_pos_site_id
 _symmetry_equiv_pos_as_xyz
  1  'x, y, z'
loop_
 _atom_site_type_symbol
 _atom_site_label
 _atom_site_symmetry_multiplicity
 _atom_site_fract_x
 _atom_site_fract_y
 _atom_site_fract_z
 _atom_site_occupancy
  K  K0  1  0.000000  0.000000  0.500000  1
  Ce  Ce1  1  0.676545  0.323455  0.000000  1
  Ce  Ce2  1  0.323455  0.676545  0.000000  1
  F  F3  1  0.955948  0.666207  0.064825  1
  F  F4  1  0.666207  0.955948  0.064825  1
  F  F5  1  0.606758  0.606758  0.737397  1
  F  F6  1  0.266938  0.733062  0.500000  1
  F  F7  1  0.733062  0.266938  0.500000  1
  F  F8  1  0.393242  0.393242  0.262603  1
  F  F9  1  0.333793  0.044052  0.935175  1
  F  F10  1  0.044052  0.333793  0.935175  1
