# generated using pymatgen
data_SbSe6BrF6
_symmetry_space_group_name_H-M   'P 1'
_cell_length_a   7.28770500
_cell_length_b   9.33951146
_cell_length_c   11.69340313
_cell_angle_alpha   61.81745106
_cell_angle_beta   90.00000000
_cell_angle_gamma   90.00000000
_symmetry_Int_Tables_number   1
_chemical_formula_structural   SbSe6BrF6
_chemical_formula_sum   'Sb2 Se12 Br2 F12'
_cell_volume   701.53967566
_cell_formula_units_Z   2
loop_
 _symmetry_equiv_pos_site_id
 _symmetry_equiv_pos_as_xyz
  1  'x, y, z'
loop_
 _atom_site_type_symbol
 _atom_site_label
 _atom_site_symmetry_multiplicity
 _atom_site_fract_x
 _atom_site_fract_y
 _atom_site_fract_z
 _atom_site_occupancy
  Sb  Sb0  1  0.000000  0.000000  0.000000  1
  Sb  Sb1  1  0.000000  0.000000  0.500000  1
  Se  Se2  1  0.741474  0.342108  0.615961  1
  Se  Se3  1  0.258526  0.657892  0.384039  1
  Se  Se4  1  0.243363  0.554903  0.893336  1
  Se  Se5  1  0.756637  0.445097  0.106664  1
  Se  Se6  1  0.435829  0.240969  0.617968  1
  Se  Se7  1  0.741474  0.657892  0.884039  1
  Se  Se8  1  0.564171  0.759031  0.382032  1
  Se  Se9  1  0.756637  0.554903  0.393336  1
  Se  Se10  1  0.243363  0.445097  0.606664  1
  Se  Se11  1  0.258526  0.342108  0.115961  1
  Se  Se12  1  0.564171  0.240969  0.117968  1
  Se  Se13  1  0.435829  0.759031  0.882032  1
  Br  Br14  1  0.722770  0.500000  0.750000  1
  Br  Br15  1  0.277230  0.500000  0.250000  1
  F  F16  1  0.102103  0.210949  0.887298  1
  F  F17  1  0.780400  0.945047  0.603819  1
  F  F18  1  0.219600  0.945047  0.103819  1
  F  F19  1  0.895015  0.086160  0.105312  1
  F  F20  1  0.897897  0.789051  0.112702  1
  F  F21  1  0.219600  0.054953  0.396181  1
  F  F22  1  0.897897  0.210949  0.387298  1
  F  F23  1  0.104985  0.913840  0.894688  1
  F  F24  1  0.104985  0.086160  0.605312  1
  F  F25  1  0.102103  0.789051  0.612702  1
  F  F26  1  0.895015  0.913840  0.394688  1
  F  F27  1  0.780400  0.054953  0.896181  1
