# generated using pymatgen
data_Zr6V5Co18
_symmetry_space_group_name_H-M   'P 1'
_cell_length_a   8.20720885
_cell_length_b   8.20720876
_cell_length_c   8.21737792
_cell_angle_alpha   59.74661628
_cell_angle_beta   59.74662751
_cell_angle_gamma   60.17388530
_symmetry_Int_Tables_number   1
_chemical_formula_structural   Zr6V5Co18
_chemical_formula_sum   'Zr6 V5 Co18'
_cell_volume   390.38969524
_cell_formula_units_Z   1
loop_
 _symmetry_equiv_pos_site_id
 _symmetry_equiv_pos_as_xyz
  1  'x, y, z'
loop_
 _atom_site_type_symbol
 _atom_site_label
 _atom_site_symmetry_multiplicity
 _atom_site_fract_x
 _atom_site_fract_y
 _atom_site_fract_z
 _atom_site_occupancy
  Zr  Zr0  1  0.785311  0.199668  0.214965  1
  Zr  Zr1  1  0.789520  0.789520  0.222973  1
  Zr  Zr2  1  0.210480  0.210480  0.777027  1
  Zr  Zr3  1  0.800332  0.214689  0.785035  1
  Zr  Zr4  1  0.199668  0.785311  0.214965  1
  Zr  Zr5  1  0.214689  0.800332  0.785035  1
  V  V6  1  0.500000  0.500000  0.500000  1
  V  V7  1  0.500000  0.000000  0.000000  1
  V  V8  1  0.000000  0.000000  0.500000  1
  V  V9  1  0.500000  0.500000  0.000000  1
  V  V10  1  0.000000  0.500000  0.000000  1
  Co  Co11  1  0.000000  0.500000  0.500000  1
  Co  Co12  1  0.500000  0.000000  0.500000  1
  Co  Co13  1  0.379980  0.379980  0.375649  1
  Co  Co14  1  0.620592  0.620592  0.140504  1
  Co  Co15  1  0.138469  0.620084  0.623663  1
  Co  Co16  1  0.620084  0.138469  0.623663  1
  Co  Co17  1  0.861531  0.379916  0.376337  1
  Co  Co18  1  0.379916  0.861531  0.376337  1
  Co  Co19  1  0.379408  0.379408  0.859496  1
  Co  Co20  1  0.620020  0.620020  0.624351  1
  Co  Co21  1  0.173965  0.173965  0.172655  1
  Co  Co22  1  0.825078  0.825078  0.529289  1
  Co  Co23  1  0.525361  0.824954  0.826896  1
  Co  Co24  1  0.824954  0.525361  0.826896  1
  Co  Co25  1  0.474639  0.175046  0.173104  1
  Co  Co26  1  0.175046  0.474639  0.173104  1
  Co  Co27  1  0.174922  0.174922  0.470711  1
  Co  Co28  1  0.826035  0.826035  0.827345  1
