# generated using pymatgen
data_Ta6Ti2V2Si6C
_symmetry_space_group_name_H-M   'P 1'
_cell_length_a   7.48018300
_cell_length_b   7.48018268
_cell_length_c   5.05120400
_cell_angle_alpha   90.00000000
_cell_angle_beta   90.00000000
_cell_angle_gamma   119.99998815
_symmetry_Int_Tables_number   1
_chemical_formula_structural   Ta6Ti2V2Si6C
_chemical_formula_sum   'Ta6 Ti2 V2 Si6 C1'
_cell_volume   244.76539615
_cell_formula_units_Z   1
loop_
 _symmetry_equiv_pos_site_id
 _symmetry_equiv_pos_as_xyz
  1  'x, y, z'
loop_
 _atom_site_type_symbol
 _atom_site_label
 _atom_site_symmetry_multiplicity
 _atom_site_fract_x
 _atom_site_fract_y
 _atom_site_fract_z
 _atom_site_occupancy
  Ta  Ta0  1  0.000000  0.759281  0.248004  1
  Ta  Ta1  1  0.240719  0.240719  0.248004  1
  Ta  Ta2  1  0.759281  0.000000  0.248004  1
  Ta  Ta3  1  0.000000  0.240719  0.751996  1
  Ta  Ta4  1  0.759281  0.759281  0.751996  1
  Ta  Ta5  1  0.240719  0.000000  0.751996  1
  Ti  Ti6  1  0.333333  0.666667  0.000000  1
  Ti  Ti7  1  0.666667  0.333333  0.000000  1
  V  V8  1  0.666667  0.333333  0.500000  1
  V  V9  1  0.333333  0.666667  0.500000  1
  Si  Si10  1  0.000000  0.406174  0.254875  1
  Si  Si11  1  0.593826  0.593826  0.254875  1
  Si  Si12  1  0.406174  0.000000  0.254875  1
  Si  Si13  1  0.000000  0.593826  0.745125  1
  Si  Si14  1  0.406174  0.406174  0.745125  1
  Si  Si15  1  0.593826  0.000000  0.745125  1
  C  C16  1  0.000000  0.000000  0.500000  1
