# generated using pymatgen
data_Sm2B4Ru3Rh
_symmetry_space_group_name_H-M   'P 1'
_cell_length_a   6.78214419
_cell_length_b   5.97552261
_cell_length_c   5.56888872
_cell_angle_alpha   71.85909941
_cell_angle_beta   56.85320534
_cell_angle_gamma   51.62449474
_symmetry_Int_Tables_number   1
_chemical_formula_structural   Sm2B4Ru3Rh
_chemical_formula_sum   'Sm2 B4 Ru3 Rh1'
_cell_volume   148.00395278
_cell_formula_units_Z   1
loop_
 _symmetry_equiv_pos_site_id
 _symmetry_equiv_pos_as_xyz
  1  'x, y, z'
loop_
 _atom_site_type_symbol
 _atom_site_label
 _atom_site_symmetry_multiplicity
 _atom_site_fract_x
 _atom_site_fract_y
 _atom_site_fract_z
 _atom_site_occupancy
  Sm  Sm0  1  0.999922  0.999922  0.000078  1
  Sm  Sm1  1  0.248577  0.248577  0.251423  1
  B  B2  1  0.680398  0.317425  0.678931  1
  B  B3  1  0.317425  0.680398  0.323245  1
  B  B4  1  0.936959  0.568539  0.936869  1
  B  B5  1  0.568539  0.936959  0.557634  1
  Ru  Ru6  1  0.636371  0.636371  0.363629  1
  Ru  Ru7  1  0.363355  0.363355  0.636645  1
  Ru  Ru8  1  0.884899  0.884899  0.615101  1
  Rh  Rh9  1  0.613554  0.613554  0.886446  1
