# generated using pymatgen
data_YbPa(NiB4)2
_symmetry_space_group_name_H-M   'P 1'
_cell_length_a   6.82446153
_cell_length_b   6.82087360
_cell_length_c   6.82370781
_cell_angle_alpha   112.71533032
_cell_angle_beta   112.73848842
_cell_angle_gamma   103.12232507
_symmetry_Int_Tables_number   1
_chemical_formula_structural   YbPa(NiB4)2
_chemical_formula_sum   'Yb2 Pa2 Ni4 B16'
_cell_volume   242.35567260
_cell_formula_units_Z   2
loop_
 _symmetry_equiv_pos_site_id
 _symmetry_equiv_pos_as_xyz
  1  'x, y, z'
loop_
 _atom_site_type_symbol
 _atom_site_label
 _atom_site_symmetry_multiplicity
 _atom_site_fract_x
 _atom_site_fract_y
 _atom_site_fract_z
 _atom_site_occupancy
  Yb  Yb0  1  0.204583  0.204537  0.000031  1
  Yb  Yb1  1  0.795417  0.795463  0.999969  1
  Pa  Pa2  1  0.749737  0.249824  0.499643  1
  Pa  Pa3  1  0.250263  0.750176  0.500357  1
  Ni  Ni4  1  0.499856  0.272590  0.771744  1
  Ni  Ni5  1  0.500144  0.727410  0.228256  1
  Ni  Ni6  1  0.728660  0.500760  0.227626  1
  Ni  Ni7  1  0.271340  0.499240  0.772374  1
  B  B8  1  0.112107  0.278787  0.390806  1
  B  B9  1  0.887893  0.721213  0.609194  1
  B  B10  1  0.887731  0.278631  0.166534  1
  B  B11  1  0.112269  0.721369  0.833466  1
  B  B12  1  0.721620  0.887920  0.609581  1
  B  B13  1  0.278380  0.112080  0.390419  1
  B  B14  1  0.721113  0.112349  0.833400  1
  B  B15  1  0.278887  0.887651  0.166600  1
  B  B16  1  0.416856  0.417018  0.528908  1
  B  B17  1  0.888105  0.887996  0.470964  1
  B  B18  1  0.583006  0.112078  0.999981  1
  B  B19  1  0.112158  0.582877  0.000159  1
  B  B20  1  0.583144  0.582982  0.471092  1
  B  B21  1  0.111895  0.112004  0.529036  1
  B  B22  1  0.887842  0.417123  0.999841  1
  B  B23  1  0.416994  0.887922  0.000019  1
