# generated using pymatgen
data_Sr(Zn2Pt)2
_symmetry_space_group_name_H-M   'P 1'
_cell_length_a   7.85522600
_cell_length_b   7.85522600
_cell_length_c   4.19884900
_cell_angle_alpha   90.00000000
_cell_angle_beta   90.00000000
_cell_angle_gamma   90.00000000
_symmetry_Int_Tables_number   1
_chemical_formula_structural   Sr(Zn2Pt)2
_chemical_formula_sum   'Sr2 Zn8 Pt4'
_cell_volume   259.08819518
_cell_formula_units_Z   2
loop_
 _symmetry_equiv_pos_site_id
 _symmetry_equiv_pos_as_xyz
  1  'x, y, z'
loop_
 _atom_site_type_symbol
 _atom_site_label
 _atom_site_symmetry_multiplicity
 _atom_site_fract_x
 _atom_site_fract_y
 _atom_site_fract_z
 _atom_site_occupancy
  Sr  Sr0  1  0.500000  0.500000  0.500000  1
  Sr  Sr1  1  0.000000  0.000000  0.000000  1
  Zn  Zn2  1  0.345969  0.090576  0.500000  1
  Zn  Zn3  1  0.654031  0.909424  0.500000  1
  Zn  Zn4  1  0.845969  0.409424  0.000000  1
  Zn  Zn5  1  0.154031  0.590576  0.000000  1
  Zn  Zn6  1  0.090576  0.345969  0.500000  1
  Zn  Zn7  1  0.909424  0.654031  0.500000  1
  Zn  Zn8  1  0.409424  0.845969  0.000000  1
  Zn  Zn9  1  0.590576  0.154031  0.000000  1
  Pt  Pt10  1  0.779459  0.220541  0.500000  1
  Pt  Pt11  1  0.220541  0.779459  0.500000  1
  Pt  Pt12  1  0.279459  0.279459  0.000000  1
  Pt  Pt13  1  0.720541  0.720541  0.000000  1
