# generated using pymatgen
data_HoTm3Hf3O12
_symmetry_space_group_name_H-M   'P 1'
_cell_length_a   6.27978033
_cell_length_b   6.31631040
_cell_length_c   6.51780009
_cell_angle_alpha   99.92959151
_cell_angle_beta   98.41052412
_cell_angle_gamma   99.62826297
_symmetry_Int_Tables_number   1
_chemical_formula_structural   HoTm3Hf3O12
_chemical_formula_sum   'Ho1 Tm3 Hf3 O12'
_cell_volume   246.95397943
_cell_formula_units_Z   1
loop_
 _symmetry_equiv_pos_site_id
 _symmetry_equiv_pos_as_xyz
  1  'x, y, z'
loop_
 _atom_site_type_symbol
 _atom_site_label
 _atom_site_symmetry_multiplicity
 _atom_site_fract_x
 _atom_site_fract_y
 _atom_site_fract_z
 _atom_site_occupancy
  Ho  Ho0  1  0.387268  0.698917  0.866611  1
  Tm  Tm1  1  0.695289  0.865335  0.389490  1
  Tm  Tm2  1  0.613155  0.300494  0.134015  1
  Tm  Tm3  1  0.305454  0.134697  0.610502  1
  Hf  Hf4  1  0.000379  0.000832  0.000323  1
  Hf  Hf5  1  0.848231  0.396005  0.668308  1
  Hf  Hf6  1  0.151156  0.603352  0.330769  1
  O  O7  1  0.022273  0.678244  0.882267  1
  O  O8  1  0.686122  0.933780  0.061871  1
  O  O9  1  0.918832  0.084159  0.694878  1
  O  O10  1  0.975050  0.322695  0.116887  1
  O  O11  1  0.314767  0.069902  0.940630  1
  O  O12  1  0.081349  0.915516  0.304586  1
  O  O13  1  0.587845  0.188643  0.432921  1
  O  O14  1  0.170963  0.426730  0.572479  1
  O  O15  1  0.414935  0.581302  0.181406  1
  O  O16  1  0.412064  0.812450  0.565278  1
  O  O17  1  0.828510  0.572450  0.426275  1
  O  O18  1  0.586357  0.414497  0.820504  1
