# generated using pymatgen
data_Ho9TmSi5P
_symmetry_space_group_name_H-M   'P 1'
_cell_length_a   8.35684801
_cell_length_b   8.35972494
_cell_length_c   6.26165508
_cell_angle_alpha   89.98237320
_cell_angle_beta   90.00596554
_cell_angle_gamma   119.99043886
_symmetry_Int_Tables_number   1
_chemical_formula_structural   Ho9TmSi5P
_chemical_formula_sum   'Ho9 Tm1 Si5 P1'
_cell_volume   378.87511125
_cell_formula_units_Z   1
loop_
 _symmetry_equiv_pos_site_id
 _symmetry_equiv_pos_as_xyz
  1  'x, y, z'
loop_
 _atom_site_type_symbol
 _atom_site_label
 _atom_site_symmetry_multiplicity
 _atom_site_fract_x
 _atom_site_fract_y
 _atom_site_fract_z
 _atom_site_occupancy
  Ho  Ho0  1  0.000896  0.756842  0.749798  1
  Ho  Ho1  1  0.001208  0.244350  0.250162  1
  Ho  Ho2  1  0.756644  0.755834  0.250182  1
  Ho  Ho3  1  0.755017  0.999851  0.749855  1
  Ho  Ho4  1  0.243932  0.243294  0.749873  1
  Ho  Ho5  1  0.243616  0.999833  0.250123  1
  Ho  Ho6  1  0.666314  0.332547  0.999501  1
  Ho  Ho7  1  0.666275  0.332483  0.500539  1
  Ho  Ho8  1  0.333776  0.667447  0.999799  1
  Tm  Tm9  1  0.333754  0.667352  0.500048  1
  Si  Si10  1  0.394236  0.394118  0.250483  1
  Si  Si11  1  0.001256  0.606479  0.250526  1
  Si  Si12  1  0.000698  0.394044  0.749505  1
  Si  Si13  1  0.606151  0.606598  0.749525  1
  Si  Si14  1  0.606721  0.999406  0.250478  1
  P  P15  1  0.389507  0.999524  0.749602  1
