# generated using pymatgen
data_MgNb6Ga5Ru12
_symmetry_space_group_name_H-M   'P 1'
_cell_length_a   4.40347900
_cell_length_b   6.23743900
_cell_length_c   13.18676300
_cell_angle_alpha   90.00022320
_cell_angle_beta   90.00013457
_cell_angle_gamma   90.00273489
_symmetry_Int_Tables_number   1
_chemical_formula_structural   MgNb6Ga5Ru12
_chemical_formula_sum   'Mg1 Nb6 Ga5 Ru12'
_cell_volume   362.19332442
_cell_formula_units_Z   1
loop_
 _symmetry_equiv_pos_site_id
 _symmetry_equiv_pos_as_xyz
  1  'x, y, z'
loop_
 _atom_site_type_symbol
 _atom_site_label
 _atom_site_symmetry_multiplicity
 _atom_site_fract_x
 _atom_site_fract_y
 _atom_site_fract_z
 _atom_site_occupancy
  Mg  Mg0  1  0.500304  0.500002  0.833328  1
  Nb  Nb1  1  0.000022  0.500003  0.999851  1
  Nb  Nb2  1  0.499934  0.999998  0.166012  1
  Nb  Nb3  1  0.999933  0.500002  0.333331  1
  Nb  Nb4  1  0.500001  0.999998  0.500655  1
  Nb  Nb5  1  0.000090  0.500003  0.666813  1
  Nb  Nb6  1  0.500061  0.999996  0.833332  1
  Ga  Ga7  1  0.999998  0.999998  0.999604  1
  Ga  Ga8  1  0.499673  0.500003  0.166454  1
  Ga  Ga9  1  0.999672  0.999998  0.333335  1
  Ga  Ga10  1  0.500001  0.500002  0.500205  1
  Ga  Ga11  1  0.000332  0.999998  0.667057  1
  Ru  Ru12  1  0.499901  0.249279  0.001247  1
  Ru  Ru13  1  0.500103  0.750722  0.001246  1
  Ru  Ru14  1  0.999831  0.249352  0.167353  1
  Ru  Ru15  1  0.999647  0.750649  0.167353  1
  Ru  Ru16  1  0.499653  0.250331  0.333355  1
  Ru  Ru17  1  0.499841  0.749668  0.333354  1
  Ru  Ru18  1  0.000096  0.249336  0.499295  1
  Ru  Ru19  1  0.999912  0.750664  0.499296  1
  Ru  Ru20  1  0.500148  0.249255  0.665409  1
  Ru  Ru21  1  0.500350  0.750745  0.665409  1
  Ru  Ru22  1  0.000374  0.248547  0.833355  1
  Ru  Ru23  1  0.000122  0.751452  0.833355  1
