# generated using pymatgen
data_Rb8Ga11Cl
_symmetry_space_group_name_H-M   'P 1'
_cell_length_a   9.84410954
_cell_length_b   9.84411088
_cell_length_c   17.47964529
_cell_angle_alpha   90.00000004
_cell_angle_beta   106.35499088
_cell_angle_gamma   60.00000215
_symmetry_Int_Tables_number   1
_chemical_formula_structural   Rb8Ga11Cl
_chemical_formula_sum   'Rb16 Ga22 Cl2'
_cell_volume   1387.24257552
_cell_formula_units_Z   2
loop_
 _symmetry_equiv_pos_site_id
 _symmetry_equiv_pos_as_xyz
  1  'x, y, z'
loop_
 _atom_site_type_symbol
 _atom_site_label
 _atom_site_symmetry_multiplicity
 _atom_site_fract_x
 _atom_site_fract_y
 _atom_site_fract_z
 _atom_site_occupancy
  Rb  Rb0  1  0.969626  0.690512  0.067845  1
  Rb  Rb1  1  0.758358  0.339861  0.067845  1
  Rb  Rb2  1  0.407706  0.901781  0.067845  1
  Rb  Rb3  1  0.148974  0.925513  0.223461  1
  Rb  Rb4  1  0.851027  0.574487  0.276539  1
  Rb  Rb5  1  0.592294  0.809487  0.432155  1
  Rb  Rb6  1  0.241643  0.598218  0.432155  1
  Rb  Rb7  1  0.030374  0.160139  0.432155  1
  Rb  Rb8  1  0.969626  0.839861  0.567845  1
  Rb  Rb9  1  0.758358  0.401781  0.567845  1
  Rb  Rb10  1  0.407706  0.190512  0.567845  1
  Rb  Rb11  1  0.148973  0.425513  0.723461  1
  Rb  Rb12  1  0.851027  0.074486  0.776539  1
  Rb  Rb13  1  0.592294  0.098219  0.932155  1
  Rb  Rb14  1  0.241643  0.660139  0.932155  1
  Rb  Rb15  1  0.030374  0.309487  0.932155  1
  Ga  Ga16  1  0.409037  0.295481  0.113555  1
  Ga  Ga17  1  0.702710  0.020297  0.166398  1
  Ga  Ga18  1  0.443391  0.536311  0.166398  1
  Ga  Ga19  1  0.186695  0.276993  0.166398  1
  Ga  Ga20  1  0.695292  0.250001  0.250000  1
  Ga  Ga21  1  0.500000  0.054707  0.250000  1
  Ga  Ga22  1  0.304708  0.445293  0.250000  1
  Ga  Ga23  1  0.813304  0.963688  0.333602  1
  Ga  Ga24  1  0.556609  0.479704  0.333602  1
  Ga  Ga25  1  0.297290  0.223007  0.333602  1
  Ga  Ga26  1  0.590963  0.204518  0.386444  1
  Ga  Ga27  1  0.409037  0.795481  0.613556  1
  Ga  Ga28  1  0.702710  0.776993  0.666398  1
  Ga  Ga29  1  0.443391  0.520296  0.666398  1
  Ga  Ga30  1  0.186696  0.036311  0.666398  1
  Ga  Ga31  1  0.695292  0.554708  0.750000  1
  Ga  Ga32  1  0.500000  0.945292  0.750000  1
  Ga  Ga33  1  0.304708  0.750000  0.750000  1
  Ga  Ga34  1  0.813305  0.723007  0.833602  1
  Ga  Ga35  1  0.556609  0.463688  0.833602  1
  Ga  Ga36  1  0.297290  0.979703  0.833602  1
  Ga  Ga37  1  0.590963  0.704519  0.886444  1
  Cl  Cl38  1  0.000000  0.000000  0.000000  1
  Cl  Cl39  1  0.000000  0.500000  0.500000  1
