# generated using pymatgen
data_DyTm2(Ni3As2)3
_symmetry_space_group_name_H-M   'P 1'
_cell_length_a   3.87097300
_cell_length_b   10.81082400
_cell_length_c   12.68941200
_cell_angle_alpha   90.00000000
_cell_angle_beta   90.00000000
_cell_angle_gamma   90.00000000
_symmetry_Int_Tables_number   1
_chemical_formula_structural   DyTm2(Ni3As2)3
_chemical_formula_sum   'Dy2 Tm4 Ni18 As12'
_cell_volume   531.03168827
_cell_formula_units_Z   2
loop_
 _symmetry_equiv_pos_site_id
 _symmetry_equiv_pos_as_xyz
  1  'x, y, z'
loop_
 _atom_site_type_symbol
 _atom_site_label
 _atom_site_symmetry_multiplicity
 _atom_site_fract_x
 _atom_site_fract_y
 _atom_site_fract_z
 _atom_site_occupancy
  Dy  Dy0  1  0.000000  0.500000  0.523707  1
  Dy  Dy1  1  0.500000  0.000000  0.476293  1
  Tm  Tm2  1  0.500000  0.816850  0.206765  1
  Tm  Tm3  1  0.500000  0.183150  0.206765  1
  Tm  Tm4  1  0.000000  0.683150  0.793235  1
  Tm  Tm5  1  0.000000  0.316850  0.793235  1
  Ni  Ni6  1  0.500000  0.500000  0.156430  1
  Ni  Ni7  1  0.000000  0.000000  0.843570  1
  Ni  Ni8  1  0.500000  0.500000  0.699487  1
  Ni  Ni9  1  0.000000  0.000000  0.300513  1
  Ni  Ni10  1  0.000000  0.500000  0.981769  1
  Ni  Ni11  1  0.500000  0.000000  0.018231  1
  Ni  Ni12  1  0.500000  0.332766  0.997349  1
  Ni  Ni13  1  0.500000  0.667234  0.997349  1
  Ni  Ni14  1  0.000000  0.167234  0.002651  1
  Ni  Ni15  1  0.000000  0.832766  0.002651  1
  Ni  Ni16  1  0.500000  0.302691  0.426161  1
  Ni  Ni17  1  0.500000  0.697309  0.426161  1
  Ni  Ni18  1  0.000000  0.197309  0.573839  1
  Ni  Ni19  1  0.000000  0.802691  0.573839  1
  Ni  Ni20  1  0.500000  0.878795  0.707861  1
  Ni  Ni21  1  0.500000  0.121205  0.707861  1
  Ni  Ni22  1  0.000000  0.621205  0.292139  1
  Ni  Ni23  1  0.000000  0.378795  0.292139  1
  As  As24  1  0.500000  0.500000  0.875711  1
  As  As25  1  0.000000  0.000000  0.124289  1
  As  As26  1  0.500000  0.500000  0.345393  1
  As  As27  1  0.000000  0.000000  0.654607  1
  As  As28  1  0.500000  0.314695  0.614046  1
  As  As29  1  0.500000  0.685305  0.614046  1
  As  As30  1  0.000000  0.185305  0.385954  1
  As  As31  1  0.000000  0.814695  0.385954  1
  As  As32  1  0.500000  0.846706  0.889934  1
  As  As33  1  0.500000  0.153294  0.889934  1
  As  As34  1  0.000000  0.653294  0.110066  1
  As  As35  1  0.000000  0.346706  0.110066  1
