# generated using pymatgen
data_Ag5Ir3O14
_symmetry_space_group_name_H-M   'P 1'
_cell_length_a   7.20526064
_cell_length_b   7.30293418
_cell_length_c   7.30293366
_cell_angle_alpha   120.12393701
_cell_angle_beta   120.04108252
_cell_angle_gamma   90.24404764
_symmetry_Int_Tables_number   1
_chemical_formula_structural   Ag5Ir3O14
_chemical_formula_sum   'Ag5 Ir3 O14'
_cell_volume   270.45697041
_cell_formula_units_Z   1
loop_
 _symmetry_equiv_pos_site_id
 _symmetry_equiv_pos_as_xyz
  1  'x, y, z'
loop_
 _atom_site_type_symbol
 _atom_site_label
 _atom_site_symmetry_multiplicity
 _atom_site_fract_x
 _atom_site_fract_y
 _atom_site_fract_z
 _atom_site_occupancy
  Ag  Ag0  1  0.000000  0.500000  0.500000  1
  Ag  Ag1  1  0.500000  0.000000  0.500000  1
  Ag  Ag2  1  0.000000  0.500000  0.000000  1
  Ag  Ag3  1  0.000000  0.000000  0.500000  1
  Ag  Ag4  1  0.000000  0.000000  0.000000  1
  Ir  Ir5  1  0.500000  0.500000  0.000000  1
  Ir  Ir6  1  0.500000  0.500000  0.500000  1
  Ir  Ir7  1  0.500000  0.000000  0.000000  1
  O  O8  1  0.523245  0.404912  0.713902  1
  O  O9  1  0.476755  0.190657  0.881667  1
  O  O10  1  0.824433  0.123828  0.217150  1
  O  O11  1  0.175567  0.392716  0.299394  1
  O  O12  1  0.476755  0.595088  0.286098  1
  O  O13  1  0.523245  0.809343  0.118333  1
  O  O14  1  0.175567  0.876172  0.782850  1
  O  O15  1  0.824433  0.607284  0.700606  1
  O  O16  1  0.490823  0.194523  0.296299  1
  O  O17  1  0.509177  0.805477  0.703701  1
  O  O18  1  0.174310  0.400025  0.774285  1
  O  O19  1  0.825690  0.599975  0.225715  1
  O  O20  1  0.858228  0.119306  0.738922  1
  O  O21  1  0.141772  0.880694  0.261078  1
