# generated using pymatgen
data_ZrSc3N4
_symmetry_space_group_name_H-M   'P 1'
_cell_length_a   5.55798008
_cell_length_b   5.55797981
_cell_length_c   5.55798039
_cell_angle_alpha   131.79349572
_cell_angle_beta   131.79349583
_cell_angle_gamma   70.55537689
_symmetry_Int_Tables_number   1
_chemical_formula_structural   ZrSc3N4
_chemical_formula_sum   'Zr1 Sc3 N4'
_cell_volume   93.50348318
_cell_formula_units_Z   1
loop_
 _symmetry_equiv_pos_site_id
 _symmetry_equiv_pos_as_xyz
  1  'x, y, z'
loop_
 _atom_site_type_symbol
 _atom_site_label
 _atom_site_symmetry_multiplicity
 _atom_site_fract_x
 _atom_site_fract_y
 _atom_site_fract_z
 _atom_site_occupancy
  Zr  Zr0  1  0.000000  0.000000  0.000000  1
  Sc  Sc1  1  0.250000  0.750000  0.500000  1
  Sc  Sc2  1  0.500000  0.500000  0.000000  1
  Sc  Sc3  1  0.750000  0.250000  0.500000  1
  N  N4  1  0.000000  0.500000  0.500000  1
  N  N5  1  0.249369  0.249369  0.000000  1
  N  N6  1  0.500000  0.000000  0.500000  1
  N  N7  1  0.750631  0.750631  0.000000  1
