# generated using pymatgen
data_Pr6Ga7Pd16O
_symmetry_space_group_name_H-M   'P 1'
_cell_length_a   9.06498985
_cell_length_b   9.06535799
_cell_length_c   9.06504200
_cell_angle_alpha   59.99935042
_cell_angle_beta   59.99769315
_cell_angle_gamma   59.99679172
_symmetry_Int_Tables_number   1
_chemical_formula_structural   Pr6Ga7Pd16O
_chemical_formula_sum   'Pr6 Ga7 Pd16 O1'
_cell_volume   526.72856221
_cell_formula_units_Z   1
loop_
 _symmetry_equiv_pos_site_id
 _symmetry_equiv_pos_as_xyz
  1  'x, y, z'
loop_
 _atom_site_type_symbol
 _atom_site_label
 _atom_site_symmetry_multiplicity
 _atom_site_fract_x
 _atom_site_fract_y
 _atom_site_fract_z
 _atom_site_occupancy
  Pr  Pr0  1  0.705240  0.294794  0.294787  1
  Pr  Pr1  1  0.294760  0.705206  0.705213  1
  Pr  Pr2  1  0.294765  0.705225  0.294807  1
  Pr  Pr3  1  0.705235  0.294775  0.705193  1
  Pr  Pr4  1  0.294748  0.294806  0.705237  1
  Pr  Pr5  1  0.705252  0.705194  0.294763  1
  Ga  Ga6  1  0.000000  0.000000  0.000000  1
  Ga  Ga7  1  0.500000  0.000000  0.000000  1
  Ga  Ga8  1  0.000000  0.500000  0.500000  1
  Ga  Ga9  1  0.000000  0.500000  0.000000  1
  Ga  Ga10  1  0.500000  0.000000  0.500000  1
  Ga  Ga11  1  0.000000  0.000000  0.500000  1
  Ga  Ga12  1  0.500000  0.500000  0.000000  1
  Pd  Pd13  1  0.119086  0.119094  0.119105  1
  Pd  Pd14  1  0.880914  0.880906  0.880895  1
  Pd  Pd15  1  0.119089  0.119089  0.642717  1
  Pd  Pd16  1  0.119100  0.642711  0.119092  1
  Pd  Pd17  1  0.880911  0.880911  0.357283  1
  Pd  Pd18  1  0.880900  0.357289  0.880908  1
  Pd  Pd19  1  0.642735  0.119094  0.119085  1
  Pd  Pd20  1  0.357265  0.880906  0.880915  1
  Pd  Pd21  1  0.331628  0.331613  0.331625  1
  Pd  Pd22  1  0.668372  0.668387  0.668375  1
  Pd  Pd23  1  0.331630  0.331616  0.005126  1
  Pd  Pd24  1  0.331640  0.005128  0.331615  1
  Pd  Pd25  1  0.668370  0.668384  0.994874  1
  Pd  Pd26  1  0.668360  0.994872  0.668385  1
  Pd  Pd27  1  0.005125  0.331632  0.331622  1
  Pd  Pd28  1  0.994875  0.668368  0.668378  1
  O  O29  1  0.500000  0.500000  0.500000  1
