# generated using pymatgen
data_Ca7Yb13(GeBi2)4
_symmetry_space_group_name_H-M   'P 1'
_cell_length_a   8.09788782
_cell_length_b   9.53445000
_cell_length_c   12.89656887
_cell_angle_alpha   90.00000000
_cell_angle_beta   90.07663466
_cell_angle_gamma   90.00000000
_symmetry_Int_Tables_number   1
_chemical_formula_structural   Ca7Yb13(GeBi2)4
_chemical_formula_sum   'Ca7 Yb13 Ge4 Bi8'
_cell_volume   995.72908967
_cell_formula_units_Z   1
loop_
 _symmetry_equiv_pos_site_id
 _symmetry_equiv_pos_as_xyz
  1  'x, y, z'
loop_
 _atom_site_type_symbol
 _atom_site_label
 _atom_site_symmetry_multiplicity
 _atom_site_fract_x
 _atom_site_fract_y
 _atom_site_fract_z
 _atom_site_occupancy
  Ca  Ca0  1  0.828512  0.250000  0.782248  1
  Ca  Ca1  1  0.055897  0.750000  0.499854  1
  Ca  Ca2  1  0.357084  0.250000  0.696785  1
  Ca  Ca3  1  0.555732  0.250000  0.999834  1
  Ca  Ca4  1  0.857453  0.750000  0.803399  1
  Ca  Ca5  1  0.328743  0.750000  0.717463  1
  Ca  Ca6  1  0.671152  0.250000  0.282379  1
  Yb  Yb7  1  0.826893  0.529589  0.073758  1
  Yb  Yb8  1  0.173571  0.028066  0.927482  1
  Yb  Yb9  1  0.326904  0.470656  0.426228  1
  Yb  Yb10  1  0.440991  0.750000  0.001723  1
  Yb  Yb11  1  0.673484  0.528177  0.572630  1
  Yb  Yb12  1  0.941144  0.250000  0.498425  1
  Yb  Yb13  1  0.142459  0.250000  0.196785  1
  Yb  Yb14  1  0.170700  0.750000  0.216154  1
  Yb  Yb15  1  0.173571  0.471934  0.927482  1
  Yb  Yb16  1  0.826893  0.970411  0.073758  1
  Yb  Yb17  1  0.673484  0.971823  0.572630  1
  Yb  Yb18  1  0.326904  0.029344  0.426228  1
  Yb  Yb19  1  0.642037  0.750000  0.303148  1
  Ge  Ge20  1  0.440974  0.750000  0.489373  1
  Ge  Ge21  1  0.563401  0.250000  0.509733  1
  Ge  Ge22  1  0.063818  0.750000  0.991976  1
  Ge  Ge23  1  0.940962  0.250000  0.010506  1
  Bi  Bi24  1  0.059941  0.008439  0.668628  1
  Bi  Bi25  1  0.939549  0.991304  0.331017  1
  Bi  Bi26  1  0.059941  0.491561  0.668628  1
  Bi  Bi27  1  0.559998  0.991258  0.831611  1
  Bi  Bi28  1  0.439130  0.008193  0.168753  1
  Bi  Bi29  1  0.439130  0.491807  0.168753  1
  Bi  Bi30  1  0.559998  0.508742  0.831611  1
  Bi  Bi31  1  0.939549  0.508696  0.331017  1
