# generated using pymatgen
data_Ce4TlInIrRh3
_symmetry_space_group_name_H-M   'P 1'
_cell_length_a   7.71890800
_cell_length_b   7.73827467
_cell_length_c   3.70578700
_cell_angle_alpha   90.00000000
_cell_angle_beta   90.00000000
_cell_angle_gamma   90.21742525
_symmetry_Int_Tables_number   1
_chemical_formula_structural   Ce4TlInIrRh3
_chemical_formula_sum   'Ce4 Tl1 In1 Ir1 Rh3'
_cell_volume   221.34888170
_cell_formula_units_Z   1
loop_
 _symmetry_equiv_pos_site_id
 _symmetry_equiv_pos_as_xyz
  1  'x, y, z'
loop_
 _atom_site_type_symbol
 _atom_site_label
 _atom_site_symmetry_multiplicity
 _atom_site_fract_x
 _atom_site_fract_y
 _atom_site_fract_z
 _atom_site_occupancy
  Ce  Ce0  1  0.668260  0.170937  0.500000  1
  Ce  Ce1  1  0.330486  0.828170  0.500000  1
  Ce  Ce2  1  0.172332  0.334032  0.500000  1
  Ce  Ce3  1  0.831676  0.669992  0.500000  1
  Tl  Tl4  1  0.000601  0.002974  0.000000  1
  In  In5  1  0.501837  0.500567  0.000000  1
  Ir  Ir6  1  0.135437  0.626928  0.000000  1
  Rh  Rh7  1  0.857455  0.365905  0.000000  1
  Rh  Rh8  1  0.632062  0.861930  0.000000  1
  Rh  Rh9  1  0.369856  0.138565  0.000000  1
