# generated using pymatgen
data_Sm2ErLu(SeO3)6
_symmetry_space_group_name_H-M   'P 1'
_cell_length_a   7.14944280
_cell_length_b   8.18922390
_cell_length_c   9.10776997
_cell_angle_alpha   71.06988605
_cell_angle_beta   70.15668035
_cell_angle_gamma   66.14309542
_symmetry_Int_Tables_number   1
_chemical_formula_structural   Sm2ErLu(SeO3)6
_chemical_formula_sum   'Sm2 Er1 Lu1 Se6 O18'
_cell_volume   447.74354636
_cell_formula_units_Z   1
loop_
 _symmetry_equiv_pos_site_id
 _symmetry_equiv_pos_as_xyz
  1  'x, y, z'
loop_
 _atom_site_type_symbol
 _atom_site_label
 _atom_site_symmetry_multiplicity
 _atom_site_fract_x
 _atom_site_fract_y
 _atom_site_fract_z
 _atom_site_occupancy
  Sm  Sm0  1  0.333274  0.728883  0.592349  1
  Sm  Sm1  1  0.667647  0.270014  0.407887  1
  Er  Er2  1  0.259147  0.264641  0.199378  1
  Lu  Lu3  1  0.741156  0.736280  0.800481  1
  Se  Se4  1  0.425435  0.780138  0.193324  1
  Se  Se5  1  0.575801  0.216910  0.806042  1
  Se  Se6  1  0.148282  0.749188  0.967761  1
  Se  Se7  1  0.850921  0.255094  0.029750  1
  Se  Se8  1  0.886573  0.754802  0.420359  1
  Se  Se9  1  0.112647  0.244555  0.582233  1
  O  O10  1  0.646206  0.791690  0.045253  1
  O  O11  1  0.353351  0.206487  0.951855  1
  O  O12  1  0.364189  0.948193  0.296704  1
  O  O13  1  0.639012  0.047412  0.703633  1
  O  O14  1  0.515382  0.599095  0.346488  1
  O  O15  1  0.486983  0.398047  0.652625  1
  O  O16  1  0.169842  0.563039  0.121655  1
  O  O17  1  0.827576  0.443028  0.877558  1
  O  O18  1  0.406220  0.711335  0.850997  1
  O  O19  1  0.593977  0.289531  0.147468  1
  O  O20  1  0.342725  0.249258  0.433515  1
  O  O21  1  0.656959  0.750964  0.570160  1
  O  O22  1  0.971412  0.293239  0.440784  1
  O  O23  1  0.027094  0.707163  0.561986  1
  O  O24  1  0.151607  0.019748  0.658962  1
  O  O25  1  0.848419  0.979377  0.341580  1
  O  O26  1  0.939033  0.303881  0.161801  1
  O  O27  1  0.059132  0.698008  0.837413  1
