# generated using pymatgen
data_HoTm2Fe7Co2
_symmetry_space_group_name_H-M   'P 1'
_cell_length_a   5.06703418
_cell_length_b   5.06962371
_cell_length_c   8.59872612
_cell_angle_alpha   72.85510943
_cell_angle_beta   72.94023115
_cell_angle_gamma   59.98310438
_symmetry_Int_Tables_number   1
_chemical_formula_structural   HoTm2Fe7Co2
_chemical_formula_sum   'Ho1 Tm2 Fe7 Co2'
_cell_volume   179.89546569
_cell_formula_units_Z   1
loop_
 _symmetry_equiv_pos_site_id
 _symmetry_equiv_pos_as_xyz
  1  'x, y, z'
loop_
 _atom_site_type_symbol
 _atom_site_label
 _atom_site_symmetry_multiplicity
 _atom_site_fract_x
 _atom_site_fract_y
 _atom_site_fract_z
 _atom_site_occupancy
  Ho  Ho0  1  0.999983  0.999871  0.000275  1
  Tm  Tm1  1  0.141561  0.141821  0.574795  1
  Tm  Tm2  1  0.858220  0.857541  0.426699  1
  Fe  Fe3  1  0.582774  0.582590  0.752406  1
  Fe  Fe4  1  0.582774  0.082227  0.752406  1
  Fe  Fe5  1  0.918469  0.417209  0.247114  1
  Fe  Fe6  1  0.417292  0.417274  0.247061  1
  Fe  Fe7  1  0.417292  0.918375  0.247061  1
  Fe  Fe8  1  0.332693  0.333213  0.000881  1
  Fe  Fe9  1  0.667427  0.666917  0.998741  1
  Co  Co10  1  0.081286  0.582681  0.753350  1
  Co  Co11  1  0.500229  0.500280  0.499210  1
