# generated using pymatgen
data_TbDy7(CoAg)2
_symmetry_space_group_name_H-M   'P 1'
_cell_length_a   9.42205609
_cell_length_b   9.42390678
_cell_length_c   9.42205709
_cell_angle_alpha   60.00656324
_cell_angle_beta   59.98477487
_cell_angle_gamma   60.00656019
_symmetry_Int_Tables_number   1
_chemical_formula_structural   TbDy7(CoAg)2
_chemical_formula_sum   'Tb2 Dy14 Co4 Ag4'
_cell_volume   591.56226138
_cell_formula_units_Z   2
loop_
 _symmetry_equiv_pos_site_id
 _symmetry_equiv_pos_as_xyz
  1  'x, y, z'
loop_
 _atom_site_type_symbol
 _atom_site_label
 _atom_site_symmetry_multiplicity
 _atom_site_fract_x
 _atom_site_fract_y
 _atom_site_fract_z
 _atom_site_occupancy
  Tb  Tb0  1  0.151888  0.544322  0.151888  1
  Tb  Tb1  1  0.688289  0.311720  0.688289  1
  Dy  Dy2  1  0.688270  0.311772  0.311540  1
  Dy  Dy3  1  0.937436  0.562684  0.562669  1
  Dy  Dy4  1  0.544179  0.151802  0.152096  1
  Dy  Dy5  1  0.152096  0.151802  0.544179  1
  Dy  Dy6  1  0.937470  0.937322  0.562540  1
  Dy  Dy7  1  0.311828  0.688325  0.311828  1
  Dy  Dy8  1  0.562540  0.937322  0.937470  1
  Dy  Dy9  1  0.562588  0.937448  0.562588  1
  Dy  Dy10  1  0.688060  0.688491  0.311614  1
  Dy  Dy11  1  0.562669  0.562684  0.937436  1
  Dy  Dy12  1  0.937390  0.562548  0.937390  1
  Dy  Dy13  1  0.311614  0.688491  0.688060  1
  Dy  Dy14  1  0.151928  0.151891  0.151928  1
  Dy  Dy15  1  0.311540  0.311772  0.688270  1
  Co  Co16  1  0.359039  0.358651  0.923234  1
  Co  Co17  1  0.358885  0.923336  0.358885  1
  Co  Co18  1  0.923234  0.358651  0.359039  1
  Co  Co19  1  0.359082  0.358668  0.359082  1
  Ag  Ag20  1  0.918650  0.244187  0.918650  1
  Ag  Ag21  1  0.918555  0.918650  0.918555  1
  Ag  Ag22  1  0.918495  0.918730  0.244275  1
  Ag  Ag23  1  0.244275  0.918730  0.918495  1
