# generated using pymatgen
data_NdTiCdWO7
_symmetry_space_group_name_H-M   'P 1'
_cell_length_a   7.36152682
_cell_length_b   7.36152633
_cell_length_c   7.36152621
_cell_angle_alpha   120.85929350
_cell_angle_beta   118.25585480
_cell_angle_gamma   90.78261947
_symmetry_Int_Tables_number   1
_chemical_formula_structural   NdTiCdWO7
_chemical_formula_sum   'Nd2 Ti2 Cd2 W2 O14'
_cell_volume   283.76815762
_cell_formula_units_Z   2
loop_
 _symmetry_equiv_pos_site_id
 _symmetry_equiv_pos_as_xyz
  1  'x, y, z'
loop_
 _atom_site_type_symbol
 _atom_site_label
 _atom_site_symmetry_multiplicity
 _atom_site_fract_x
 _atom_site_fract_y
 _atom_site_fract_z
 _atom_site_occupancy
  Nd  Nd0  1  0.500000  0.000000  0.500000  1
  Nd  Nd1  1  0.000000  0.000000  0.000000  1
  Ti  Ti2  1  0.000000  0.500000  0.000000  1
  Ti  Ti3  1  0.000000  0.000000  0.500000  1
  Cd  Cd4  1  0.500000  0.000000  0.000000  1
  Cd  Cd5  1  0.500000  0.500000  0.500000  1
  W  W6  1  0.000000  0.500000  0.500000  1
  W  W7  1  0.500000  0.500000  0.000000  1
  O  O8  1  0.927193  0.177193  0.750000  1
  O  O9  1  0.326535  0.576535  0.750000  1
  O  O10  1  0.936820  0.579756  0.761124  1
  O  O11  1  0.318631  0.175696  0.738876  1
  O  O12  1  0.936820  0.175696  0.357065  1
  O  O13  1  0.318631  0.579756  0.142935  1
  O  O14  1  0.072807  0.822807  0.250000  1
  O  O15  1  0.673465  0.423465  0.250000  1
  O  O16  1  0.063180  0.420244  0.238876  1
  O  O17  1  0.681369  0.824304  0.261124  1
  O  O18  1  0.063180  0.824304  0.642935  1
  O  O19  1  0.681369  0.420244  0.857065  1
  O  O20  1  0.618827  0.868827  0.750000  1
  O  O21  1  0.381173  0.131173  0.250000  1
