# generated using pymatgen
data_Sm2Ho3Zr3(As3Pd4)4
_symmetry_space_group_name_H-M   'P 1'
_cell_length_a   13.57354100
_cell_length_b   13.57354233
_cell_length_c   4.10705700
_cell_angle_alpha   90.00000000
_cell_angle_beta   90.00000000
_cell_angle_gamma   120.00000406
_symmetry_Int_Tables_number   1
_chemical_formula_structural   Sm2Ho3Zr3(As3Pd4)4
_chemical_formula_sum   'Sm2 Ho3 Zr3 As12 Pd16'
_cell_volume   655.31137275
_cell_formula_units_Z   1
loop_
 _symmetry_equiv_pos_site_id
 _symmetry_equiv_pos_as_xyz
  1  'x, y, z'
loop_
 _atom_site_type_symbol
 _atom_site_label
 _atom_site_symmetry_multiplicity
 _atom_site_fract_x
 _atom_site_fract_y
 _atom_site_fract_z
 _atom_site_occupancy
  Sm  Sm0  1  0.333333  0.666667  0.000000  1
  Sm  Sm1  1  0.666667  0.333333  0.000000  1
  Ho  Ho2  1  0.189839  0.189839  0.500000  1
  Ho  Ho3  1  0.810161  0.000000  0.500000  1
  Ho  Ho4  1  0.000000  0.810161  0.500000  1
  Zr  Zr5  1  0.556693  0.556693  0.000000  1
  Zr  Zr6  1  0.443307  0.000000  0.000000  1
  Zr  Zr7  1  0.000000  0.443307  0.000000  1
  As  As8  1  0.826792  0.826792  0.000000  1
  As  As9  1  0.173208  0.000000  0.000000  1
  As  As10  1  0.000000  0.173208  0.000000  1
  As  As11  1  0.166491  0.482875  0.500000  1
  As  As12  1  0.517125  0.683616  0.500000  1
  As  As13  1  0.316384  0.833509  0.500000  1
  As  As14  1  0.683616  0.517125  0.500000  1
  As  As15  1  0.833509  0.316384  0.500000  1
  As  As16  1  0.482875  0.166491  0.500000  1
  As  As17  1  0.357269  0.357269  0.000000  1
  As  As18  1  0.642731  0.000000  0.000000  1
  As  As19  1  0.000000  0.642731  0.000000  1
  Pd  Pd20  1  0.722760  0.722760  0.500000  1
  Pd  Pd21  1  0.277240  0.000000  0.500000  1
  Pd  Pd22  1  0.000000  0.277240  0.500000  1
  Pd  Pd23  1  0.179854  0.370138  0.000000  1
  Pd  Pd24  1  0.629862  0.809716  0.000000  1
  Pd  Pd25  1  0.190284  0.820146  0.000000  1
  Pd  Pd26  1  0.809716  0.629862  0.000000  1
  Pd  Pd27  1  0.820146  0.190284  0.000000  1
  Pd  Pd28  1  0.370138  0.179854  0.000000  1
  Pd  Pd29  1  0.357343  0.483090  0.500000  1
  Pd  Pd30  1  0.516910  0.874254  0.500000  1
  Pd  Pd31  1  0.125746  0.642657  0.500000  1
  Pd  Pd32  1  0.874254  0.516910  0.500000  1
  Pd  Pd33  1  0.642657  0.125746  0.500000  1
  Pd  Pd34  1  0.483090  0.357343  0.500000  1
  Pd  Pd35  1  0.000000  0.000000  0.000000  1
