# generated using pymatgen
data_CeTm7(Si3Rh)4
_symmetry_space_group_name_H-M   'P 1'
_cell_length_a   8.13513700
_cell_length_b   8.13513785
_cell_length_c   7.80628700
_cell_angle_alpha   90.00000000
_cell_angle_beta   90.00000000
_cell_angle_gamma   120.00000060
_symmetry_Int_Tables_number   1
_chemical_formula_structural   CeTm7(Si3Rh)4
_chemical_formula_sum   'Ce1 Tm7 Si12 Rh4'
_cell_volume   447.40922131
_cell_formula_units_Z   1
loop_
 _symmetry_equiv_pos_site_id
 _symmetry_equiv_pos_as_xyz
  1  'x, y, z'
loop_
 _atom_site_type_symbol
 _atom_site_label
 _atom_site_symmetry_multiplicity
 _atom_site_fract_x
 _atom_site_fract_y
 _atom_site_fract_z
 _atom_site_occupancy
  Ce  Ce0  1  0.000000  0.000000  0.250000  1
  Tm  Tm1  1  0.981940  0.490971  0.250000  1
  Tm  Tm2  1  0.509029  0.490971  0.250000  1
  Tm  Tm3  1  0.490593  0.981184  0.750000  1
  Tm  Tm4  1  0.018816  0.509407  0.750000  1
  Tm  Tm5  1  0.490593  0.509407  0.750000  1
  Tm  Tm6  1  0.509029  0.018060  0.250000  1
  Tm  Tm7  1  0.000000  0.000000  0.750000  1
  Si  Si8  1  0.167024  0.832976  0.501332  1
  Si  Si9  1  0.167024  0.334046  0.501332  1
  Si  Si10  1  0.665954  0.832976  0.501332  1
  Si  Si11  1  0.334868  0.167434  0.999076  1
  Si  Si12  1  0.832566  0.665132  0.500924  1
  Si  Si13  1  0.832566  0.167434  0.999076  1
  Si  Si14  1  0.832566  0.665132  0.999076  1
  Si  Si15  1  0.167024  0.334046  0.998668  1
  Si  Si16  1  0.665954  0.832976  0.998668  1
  Si  Si17  1  0.334868  0.167434  0.500924  1
  Si  Si18  1  0.832566  0.167434  0.500924  1
  Si  Si19  1  0.167024  0.832976  0.998668  1
  Rh  Rh20  1  0.333333  0.666667  0.032875  1
  Rh  Rh21  1  0.666667  0.333333  0.962894  1
  Rh  Rh22  1  0.666667  0.333333  0.537106  1
  Rh  Rh23  1  0.333333  0.666667  0.467125  1
