# generated using pymatgen
data_Er12Th4Mg3Co4Hg
_symmetry_space_group_name_H-M   'P 1'
_cell_length_a   9.54645141
_cell_length_b   9.54645236
_cell_length_c   9.54645234
_cell_angle_alpha   59.92176897
_cell_angle_beta   59.92176445
_cell_angle_gamma   59.92176714
_symmetry_Int_Tables_number   1
_chemical_formula_structural   Er12Th4Mg3Co4Hg
_chemical_formula_sum   'Er12 Th4 Mg3 Co4 Hg1'
_cell_volume   614.10070739
_cell_formula_units_Z   1
loop_
 _symmetry_equiv_pos_site_id
 _symmetry_equiv_pos_as_xyz
  1  'x, y, z'
loop_
 _atom_site_type_symbol
 _atom_site_label
 _atom_site_symmetry_multiplicity
 _atom_site_fract_x
 _atom_site_fract_y
 _atom_site_fract_z
 _atom_site_occupancy
  Er  Er0  1  0.063523  0.436595  0.436595  1
  Er  Er1  1  0.435954  0.063761  0.063761  1
  Er  Er2  1  0.436595  0.063523  0.436595  1
  Er  Er3  1  0.063761  0.435954  0.063761  1
  Er  Er4  1  0.436595  0.436595  0.063523  1
  Er  Er5  1  0.063761  0.063761  0.435954  1
  Er  Er6  1  0.184397  0.814698  0.814698  1
  Er  Er7  1  0.814489  0.185278  0.185278  1
  Er  Er8  1  0.814698  0.184397  0.814698  1
  Er  Er9  1  0.185278  0.814489  0.185278  1
  Er  Er10  1  0.814698  0.814698  0.184397  1
  Er  Er11  1  0.185278  0.185278  0.814489  1
  Th  Th12  1  0.594862  0.594862  0.594862  1
  Th  Th13  1  0.596223  0.596223  0.212509  1
  Th  Th14  1  0.596223  0.212509  0.596223  1
  Th  Th15  1  0.212509  0.596223  0.596223  1
  Mg  Mg16  1  0.829964  0.829964  0.510940  1
  Mg  Mg17  1  0.829964  0.510940  0.829964  1
  Mg  Mg18  1  0.510940  0.829964  0.829964  1
  Co  Co19  1  0.394262  0.394262  0.394262  1
  Co  Co20  1  0.393852  0.393852  0.815862  1
  Co  Co21  1  0.393852  0.815862  0.393852  1
  Co  Co22  1  0.815862  0.393852  0.393852  1
  Hg  Hg23  1  0.832459  0.832459  0.832459  1
