# generated using pymatgen
data_Lu3Fe4Co5P6
_symmetry_space_group_name_H-M   'P 1'
_cell_length_a   3.67098400
_cell_length_b   10.44899100
_cell_length_c   12.01343600
_cell_angle_alpha   90.00000000
_cell_angle_beta   90.00000000
_cell_angle_gamma   90.00000000
_symmetry_Int_Tables_number   1
_chemical_formula_structural   Lu3Fe4Co5P6
_chemical_formula_sum   'Lu6 Fe8 Co10 P12'
_cell_volume   460.81232447
_cell_formula_units_Z   2
loop_
 _symmetry_equiv_pos_site_id
 _symmetry_equiv_pos_as_xyz
  1  'x, y, z'
loop_
 _atom_site_type_symbol
 _atom_site_label
 _atom_site_symmetry_multiplicity
 _atom_site_fract_x
 _atom_site_fract_y
 _atom_site_fract_z
 _atom_site_occupancy
  Lu  Lu0  1  0.000000  0.500000  0.523440  1
  Lu  Lu1  1  0.500000  0.000000  0.476560  1
  Lu  Lu2  1  0.500000  0.819466  0.205438  1
  Lu  Lu3  1  0.500000  0.180534  0.205438  1
  Lu  Lu4  1  0.000000  0.680534  0.794562  1
  Lu  Lu5  1  0.000000  0.319466  0.794562  1
  Fe  Fe6  1  0.000000  0.500000  0.986672  1
  Fe  Fe7  1  0.500000  0.000000  0.013328  1
  Fe  Fe8  1  0.500000  0.298510  0.428884  1
  Fe  Fe9  1  0.500000  0.701490  0.428884  1
  Fe  Fe10  1  0.000000  0.201490  0.571116  1
  Fe  Fe11  1  0.000000  0.798510  0.571116  1
  Fe  Fe12  1  0.500000  0.500000  0.155909  1
  Fe  Fe13  1  0.000000  0.000000  0.844091  1
  Co  Co14  1  0.500000  0.879742  0.711432  1
  Co  Co15  1  0.500000  0.120258  0.711432  1
  Co  Co16  1  0.000000  0.620258  0.288568  1
  Co  Co17  1  0.000000  0.379742  0.288568  1
  Co  Co18  1  0.500000  0.331789  0.993454  1
  Co  Co19  1  0.500000  0.668211  0.993454  1
  Co  Co20  1  0.000000  0.168211  0.006546  1
  Co  Co21  1  0.000000  0.831789  0.006546  1
  Co  Co22  1  0.500000  0.500000  0.699449  1
  Co  Co23  1  0.000000  0.000000  0.300551  1
  P  P24  1  0.500000  0.309237  0.615161  1
  P  P25  1  0.500000  0.690763  0.615161  1
  P  P26  1  0.000000  0.190763  0.384839  1
  P  P27  1  0.000000  0.809237  0.384839  1
  P  P28  1  0.500000  0.500000  0.881656  1
  P  P29  1  0.000000  0.000000  0.118344  1
  P  P30  1  0.500000  0.847556  0.893066  1
  P  P31  1  0.500000  0.152444  0.893066  1
  P  P32  1  0.000000  0.652444  0.106934  1
  P  P33  1  0.000000  0.347556  0.106934  1
  P  P34  1  0.500000  0.500000  0.344384  1
  P  P35  1  0.000000  0.000000  0.655616  1
