# generated using pymatgen
data_Nd11Dy(Si2Ni)4
_symmetry_space_group_name_H-M   'P 1'
_cell_length_a   4.21250100
_cell_length_b   11.70975509
_cell_length_c   11.64121749
_cell_angle_alpha   89.80279843
_cell_angle_beta   90.00000000
_cell_angle_gamma   90.00000000
_symmetry_Int_Tables_number   1
_chemical_formula_structural   Nd11Dy(Si2Ni)4
_chemical_formula_sum   'Nd11 Dy1 Si8 Ni4'
_cell_volume   574.22706676
_cell_formula_units_Z   1
loop_
 _symmetry_equiv_pos_site_id
 _symmetry_equiv_pos_as_xyz
  1  'x, y, z'
loop_
 _atom_site_type_symbol
 _atom_site_label
 _atom_site_symmetry_multiplicity
 _atom_site_fract_x
 _atom_site_fract_y
 _atom_site_fract_z
 _atom_site_occupancy
  Nd  Nd0  1  0.250000  0.061052  0.882206  1
  Nd  Nd1  1  0.250000  0.441196  0.385474  1
  Nd  Nd2  1  0.750000  0.942096  0.114506  1
  Nd  Nd3  1  0.750000  0.559237  0.617458  1
  Nd  Nd4  1  0.250000  0.124146  0.561346  1
  Nd  Nd5  1  0.250000  0.375719  0.058300  1
  Nd  Nd6  1  0.750000  0.876547  0.440331  1
  Nd  Nd7  1  0.750000  0.622191  0.940030  1
  Nd  Nd8  1  0.250000  0.803840  0.710455  1
  Nd  Nd9  1  0.250000  0.696524  0.210736  1
  Nd  Nd10  1  0.750000  0.198574  0.287847  1
  Dy  Dy11  1  0.750000  0.306951  0.787674  1
  Si  Si12  1  0.250000  0.812802  0.969565  1
  Si  Si13  1  0.250000  0.686482  0.470218  1
  Si  Si14  1  0.750000  0.188252  0.026048  1
  Si  Si15  1  0.750000  0.314002  0.534020  1
  Si  Si16  1  0.250000  0.485623  0.802085  1
  Si  Si17  1  0.250000  0.010294  0.300198  1
  Si  Si18  1  0.750000  0.508221  0.199439  1
  Si  Si19  1  0.750000  0.990935  0.699418  1
  Ni  Ni20  1  0.250000  0.362231  0.635050  1
  Ni  Ni21  1  0.250000  0.135016  0.128431  1
  Ni  Ni22  1  0.750000  0.634002  0.370353  1
  Ni  Ni23  1  0.750000  0.864067  0.868811  1
