# generated using pymatgen
data_Na2NpCl6
_symmetry_space_group_name_H-M   'P 1'
_cell_length_a   6.83411999
_cell_length_b   7.17146800
_cell_length_c   12.45387388
_cell_angle_alpha   89.99965459
_cell_angle_beta   120.65070304
_cell_angle_gamma   89.99845748
_symmetry_Int_Tables_number   1
_chemical_formula_structural   Na2NpCl6
_chemical_formula_sum   'Na4 Np2 Cl12'
_cell_volume   525.09830799
_cell_formula_units_Z   2
loop_
 _symmetry_equiv_pos_site_id
 _symmetry_equiv_pos_as_xyz
  1  'x, y, z'
loop_
 _atom_site_type_symbol
 _atom_site_label
 _atom_site_symmetry_multiplicity
 _atom_site_fract_x
 _atom_site_fract_y
 _atom_site_fract_z
 _atom_site_occupancy
  Na  Na0  1  0.685078  0.906472  0.229654  1
  Na  Na1  1  0.314920  0.406472  0.270343  1
  Na  Na2  1  0.685080  0.593528  0.729657  1
  Na  Na3  1  0.314921  0.093528  0.770346  1
  Np  Np4  1  0.000000  0.000000  0.000000  1
  Np  Np5  1  0.000000  0.500000  0.500000  1
  Cl  Cl6  1  0.372141  0.187893  0.068119  1
  Cl  Cl7  1  0.254205  0.701566  0.087807  1
  Cl  Cl8  1  0.063807  0.069277  0.222804  1
  Cl  Cl9  1  0.936192  0.569271  0.277183  1
  Cl  Cl10  1  0.745783  0.201564  0.412186  1
  Cl  Cl11  1  0.627832  0.687913  0.431877  1
  Cl  Cl12  1  0.372169  0.312087  0.568123  1
  Cl  Cl13  1  0.254216  0.798435  0.587814  1
  Cl  Cl14  1  0.063809  0.430728  0.722817  1
  Cl  Cl15  1  0.936194  0.930722  0.777196  1
  Cl  Cl16  1  0.745796  0.298434  0.912193  1
  Cl  Cl17  1  0.627859  0.812107  0.931880  1
