# generated using pymatgen
data_Pr2Nd4In7Sn3
_symmetry_space_group_name_H-M   'P 1'
_cell_length_a   6.64408405
_cell_length_b   6.66261638
_cell_length_c   10.41924100
_cell_angle_alpha   90.00000000
_cell_angle_beta   90.00000000
_cell_angle_gamma   102.69150474
_symmetry_Int_Tables_number   1
_chemical_formula_structural   Pr2Nd4In7Sn3
_chemical_formula_sum   'Pr2 Nd4 In7 Sn3'
_cell_volume   449.95923328
_cell_formula_units_Z   1
loop_
 _symmetry_equiv_pos_site_id
 _symmetry_equiv_pos_as_xyz
  1  'x, y, z'
loop_
 _atom_site_type_symbol
 _atom_site_label
 _atom_site_symmetry_multiplicity
 _atom_site_fract_x
 _atom_site_fract_y
 _atom_site_fract_z
 _atom_site_occupancy
  Pr  Pr0  1  0.797211  0.209129  0.501620  1
  Pr  Pr1  1  0.797211  0.209129  0.998380  1
  Nd  Nd2  1  0.633697  0.628101  0.250000  1
  Nd  Nd3  1  0.365346  0.369736  0.750000  1
  Nd  Nd4  1  0.203812  0.792045  0.502424  1
  Nd  Nd5  1  0.203812  0.792045  0.997576  1
  In  In6  1  0.011524  0.016653  0.250000  1
  In  In7  1  0.982045  0.983008  0.750000  1
  In  In8  1  0.311029  0.303154  0.050880  1
  In  In9  1  0.690836  0.697205  0.953772  1
  In  In10  1  0.311029  0.303154  0.449120  1
  In  In11  1  0.690836  0.697205  0.546228  1
  In  In12  1  0.499781  0.066054  0.250000  1
  Sn  Sn13  1  0.925317  0.505798  0.750000  1
  Sn  Sn14  1  0.500761  0.928385  0.750000  1
  Sn  Sn15  1  0.075751  0.499197  0.250000  1
