# generated using pymatgen
data_Hf9TaAsW3
_symmetry_space_group_name_H-M   'P 1'
_cell_length_a   8.68203200
_cell_length_b   8.74068984
_cell_length_c   8.76435800
_cell_angle_alpha   90.00000000
_cell_angle_beta   90.00000000
_cell_angle_gamma   119.77939320
_symmetry_Int_Tables_number   1
_chemical_formula_structural   Hf9TaAsW3
_chemical_formula_sum   'Hf18 Ta2 As2 W6'
_cell_volume   577.26998190
_cell_formula_units_Z   2
loop_
 _symmetry_equiv_pos_site_id
 _symmetry_equiv_pos_as_xyz
  1  'x, y, z'
loop_
 _atom_site_type_symbol
 _atom_site_label
 _atom_site_symmetry_multiplicity
 _atom_site_fract_x
 _atom_site_fract_y
 _atom_site_fract_z
 _atom_site_occupancy
  Hf  Hf0  1  0.195621  0.391241  0.048089  1
  Hf  Hf1  1  0.804379  0.608759  0.548089  1
  Hf  Hf2  1  0.609526  0.805004  0.045556  1
  Hf  Hf3  1  0.195481  0.805006  0.045561  1
  Hf  Hf4  1  0.804519  0.194994  0.545561  1
  Hf  Hf5  1  0.390474  0.194996  0.545556  1
  Hf  Hf6  1  0.804379  0.608759  0.951911  1
  Hf  Hf7  1  0.804519  0.194994  0.954439  1
  Hf  Hf8  1  0.390474  0.194996  0.954444  1
  Hf  Hf9  1  0.609526  0.805004  0.454444  1
  Hf  Hf10  1  0.195481  0.805006  0.454439  1
  Hf  Hf11  1  0.195621  0.391241  0.451911  1
  Hf  Hf12  1  0.540316  0.080640  0.250000  1
  Hf  Hf13  1  0.459684  0.919360  0.750000  1
  Hf  Hf14  1  0.919565  0.458239  0.250000  1
  Hf  Hf15  1  0.538671  0.458236  0.250000  1
  Hf  Hf16  1  0.461329  0.541764  0.750000  1
  Hf  Hf17  1  0.080435  0.541761  0.750000  1
  Ta  Ta18  1  0.889946  0.779889  0.250000  1
  Ta  Ta19  1  0.110054  0.220111  0.750000  1
  As  As20  1  0.333374  0.666748  0.250000  1
  As  As21  1  0.666626  0.333252  0.750000  1
  W  W22  1  0.000000  0.000000  0.000000  1
  W  W23  1  0.000000  0.000000  0.500000  1
  W  W24  1  0.220572  0.111323  0.250000  1
  W  W25  1  0.890753  0.111323  0.250000  1
  W  W26  1  0.109247  0.888677  0.750000  1
  W  W27  1  0.779428  0.888677  0.750000  1
