# generated using pymatgen
data_GaSn2P6BrN12
_symmetry_space_group_name_H-M   'P 1'
_cell_length_a   7.38109799
_cell_length_b   7.43876590
_cell_length_c   7.38109768
_cell_angle_alpha   111.14170324
_cell_angle_beta   107.00842140
_cell_angle_gamma   111.14169600
_symmetry_Int_Tables_number   1
_chemical_formula_structural   GaSn2P6BrN12
_chemical_formula_sum   'Ga1 Sn2 P6 Br1 N12'
_cell_volume   308.15292897
_cell_formula_units_Z   1
loop_
 _symmetry_equiv_pos_site_id
 _symmetry_equiv_pos_as_xyz
  1  'x, y, z'
loop_
 _atom_site_type_symbol
 _atom_site_label
 _atom_site_symmetry_multiplicity
 _atom_site_fract_x
 _atom_site_fract_y
 _atom_site_fract_z
 _atom_site_occupancy
  Ga  Ga0  1  0.000344  0.401670  0.000344  1
  Sn  Sn1  1  0.023839  0.995196  0.325150  1
  Sn  Sn2  1  0.325150  0.995196  0.023839  1
  P  P3  1  0.508846  0.257926  0.763434  1
  P  P4  1  0.264613  0.743811  0.508343  1
  P  P5  1  0.752871  0.495133  0.259682  1
  P  P6  1  0.763434  0.257926  0.508846  1
  P  P7  1  0.508343  0.743811  0.264613  1
  P  P8  1  0.259682  0.495133  0.752871  1
  Br  Br9  1  0.884311  0.021446  0.884311  1
  N  N10  1  0.420699  0.687296  0.420699  1
  N  N11  1  0.720839  0.419290  0.428999  1
  N  N12  1  0.428999  0.419290  0.720839  1
  N  N13  1  0.738870  0.315775  0.738870  1
  N  N14  1  0.006196  0.571705  0.279591  1
  N  N15  1  0.279591  0.571705  0.006196  1
  N  N16  1  0.298063  0.995796  0.585563  1
  N  N17  1  0.005890  0.277451  0.575348  1
  N  N18  1  0.721356  0.710596  0.287152  1
  N  N19  1  0.585563  0.995796  0.298063  1
  N  N20  1  0.287152  0.710596  0.721356  1
  N  N21  1  0.575348  0.277451  0.005890  1
