# generated using pymatgen
data_LaCrF7
_symmetry_space_group_name_H-M   'P 1'
_cell_length_a   5.69598900
_cell_length_b   9.18410723
_cell_length_c   12.22100550
_cell_angle_alpha   62.40091228
_cell_angle_beta   90.00000000
_cell_angle_gamma   90.00000000
_symmetry_Int_Tables_number   1
_chemical_formula_structural   LaCrF7
_chemical_formula_sum   'La4 Cr4 F28'
_cell_volume   566.56552144
_cell_formula_units_Z   4
loop_
 _symmetry_equiv_pos_site_id
 _symmetry_equiv_pos_as_xyz
  1  'x, y, z'
loop_
 _atom_site_type_symbol
 _atom_site_label
 _atom_site_symmetry_multiplicity
 _atom_site_fract_x
 _atom_site_fract_y
 _atom_site_fract_z
 _atom_site_occupancy
  La  La0  1  0.760274  0.805674  0.266847  1
  La  La1  1  0.260274  0.194326  0.233153  1
  La  La2  1  0.239726  0.194326  0.733153  1
  La  La3  1  0.739726  0.805674  0.766847  1
  Cr  Cr4  1  0.244665  0.725823  0.543686  1
  Cr  Cr5  1  0.744665  0.274177  0.956314  1
  Cr  Cr6  1  0.755335  0.274177  0.456314  1
  Cr  Cr7  1  0.255335  0.725823  0.043686  1
  F  F8  1  0.973482  0.714758  0.459737  1
  F  F9  1  0.473482  0.285242  0.040263  1
  F  F10  1  0.026518  0.285242  0.540263  1
  F  F11  1  0.526518  0.714758  0.959737  1
  F  F12  1  0.063706  0.708386  0.927489  1
  F  F13  1  0.563706  0.291614  0.572511  1
  F  F14  1  0.936294  0.291614  0.072511  1
  F  F15  1  0.436294  0.708386  0.427489  1
  F  F16  1  0.735149  0.500264  0.864665  1
  F  F17  1  0.235149  0.499736  0.635335  1
  F  F18  1  0.264851  0.499736  0.135335  1
  F  F19  1  0.764851  0.500264  0.364665  1
  F  F20  1  0.739866  0.049368  0.044209  1
  F  F21  1  0.239866  0.950632  0.455791  1
  F  F22  1  0.260134  0.950632  0.955791  1
  F  F23  1  0.760134  0.049368  0.544209  1
  F  F24  1  0.054310  0.741707  0.663282  1
  F  F25  1  0.554310  0.258293  0.836718  1
  F  F26  1  0.945690  0.258293  0.336718  1
  F  F27  1  0.445690  0.741707  0.163282  1
  F  F28  1  0.010944  0.268429  0.868503  1
  F  F29  1  0.510944  0.731571  0.631497  1
  F  F30  1  0.989056  0.731571  0.131497  1
  F  F31  1  0.489056  0.268429  0.368503  1
  F  F32  1  0.091520  0.970292  0.227947  1
  F  F33  1  0.591520  0.029708  0.272053  1
  F  F34  1  0.908480  0.029708  0.772053  1
  F  F35  1  0.408480  0.970292  0.727947  1
