# generated using pymatgen
data_Sc2Nb(Tc2W)3
_symmetry_space_group_name_H-M   'P 1'
_cell_length_a   4.46033300
_cell_length_b   6.33208600
_cell_length_c   13.47513900
_cell_angle_alpha   90.00000000
_cell_angle_beta   90.00000000
_cell_angle_gamma   90.00000000
_symmetry_Int_Tables_number   1
_chemical_formula_structural   Sc2Nb(Tc2W)3
_chemical_formula_sum   'Sc4 Nb2 Tc12 W6'
_cell_volume   380.58120946
_cell_formula_units_Z   2
loop_
 _symmetry_equiv_pos_site_id
 _symmetry_equiv_pos_as_xyz
  1  'x, y, z'
loop_
 _atom_site_type_symbol
 _atom_site_label
 _atom_site_symmetry_multiplicity
 _atom_site_fract_x
 _atom_site_fract_y
 _atom_site_fract_z
 _atom_site_occupancy
  Sc  Sc0  1  0.000000  0.500000  0.334501  1
  Sc  Sc1  1  0.500000  0.000000  0.500434  1
  Sc  Sc2  1  0.000000  0.500000  0.666309  1
  Sc  Sc3  1  0.499996  0.000000  0.832130  1
  Nb  Nb4  1  0.000000  0.500000  0.998436  1
  Nb  Nb5  1  0.500005  0.000000  0.168237  1
  Tc  Tc6  1  0.500000  0.250469  0.002208  1
  Tc  Tc7  1  0.500000  0.749532  0.002208  1
  Tc  Tc8  1  0.000000  0.249532  0.164428  1
  Tc  Tc9  1  0.000000  0.750468  0.164428  1
  Tc  Tc10  1  0.500005  0.248765  0.330485  1
  Tc  Tc11  1  0.500005  0.751234  0.330485  1
  Tc  Tc12  1  0.000000  0.248834  0.499289  1
  Tc  Tc13  1  0.000000  0.751166  0.499289  1
  Tc  Tc14  1  0.499996  0.251159  0.667420  1
  Tc  Tc15  1  0.499996  0.748840  0.667420  1
  Tc  Tc16  1  0.000000  0.251230  0.836163  1
  Tc  Tc17  1  0.000000  0.748770  0.836163  1
  W  W18  1  0.000000  0.000000  0.998398  1
  W  W19  1  0.500005  0.500000  0.168264  1
  W  W20  1  0.000000  0.000000  0.336629  1
  W  W21  1  0.500000  0.500000  0.501434  1
  W  W22  1  0.000000  0.000000  0.665223  1
  W  W23  1  0.499996  0.500000  0.830020  1
