# generated using pymatgen
data_Tb7Tm(Si4Mo3)4
_symmetry_space_group_name_H-M   'P 1'
_cell_length_a   6.77973205
_cell_length_b   6.95653035
_cell_length_c   12.93189302
_cell_angle_alpha   89.96206014
_cell_angle_beta   89.99172839
_cell_angle_gamma   89.95093227
_symmetry_Int_Tables_number   1
_chemical_formula_structural   Tb7Tm(Si4Mo3)4
_chemical_formula_sum   'Tb7 Tm1 Si16 Mo12'
_cell_volume   609.91183161
_cell_formula_units_Z   1
loop_
 _symmetry_equiv_pos_site_id
 _symmetry_equiv_pos_as_xyz
  1  'x, y, z'
loop_
 _atom_site_type_symbol
 _atom_site_label
 _atom_site_symmetry_multiplicity
 _atom_site_fract_x
 _atom_site_fract_y
 _atom_site_fract_z
 _atom_site_occupancy
  Tb  Tb0  1  0.497306  0.333297  0.094149  1
  Tb  Tb1  1  0.997369  0.166579  0.405939  1
  Tb  Tb2  1  0.502809  0.666527  0.594130  1
  Tb  Tb3  1  0.002277  0.833271  0.906452  1
  Tb  Tb4  1  0.502524  0.666941  0.906336  1
  Tb  Tb5  1  0.002590  0.833464  0.594132  1
  Tb  Tb6  1  0.497151  0.333381  0.405278  1
  Tm  Tm7  1  0.996553  0.167244  0.094545  1
  Si  Si8  1  0.657949  0.042883  0.547734  1
  Si  Si9  1  0.158074  0.456613  0.952990  1
  Si  Si10  1  0.339926  0.958576  0.048010  1
  Si  Si11  1  0.841799  0.542704  0.452096  1
  Si  Si12  1  0.342117  0.957058  0.451884  1
  Si  Si13  1  0.842489  0.540688  0.048010  1
  Si  Si14  1  0.658612  0.042786  0.952958  1
  Si  Si15  1  0.158237  0.457505  0.547605  1
  Si  Si16  1  0.535283  0.364309  0.750352  1
  Si  Si17  1  0.035338  0.135214  0.750119  1
  Si  Si18  1  0.465042  0.635939  0.249611  1
  Si  Si19  1  0.965186  0.865844  0.249288  1
  Si  Si20  1  0.803378  0.627061  0.750377  1
  Si  Si21  1  0.303167  0.872256  0.750197  1
  Si  Si22  1  0.195619  0.371549  0.249175  1
  Si  Si23  1  0.698083  0.128020  0.249279  1
  Mo  Mo24  1  0.831140  0.334562  0.625603  1
  Mo  Mo25  1  0.330258  0.164790  0.874990  1
  Mo  Mo26  1  0.168857  0.665520  0.125366  1
  Mo  Mo27  1  0.669759  0.835312  0.374072  1
  Mo  Mo28  1  0.168751  0.665333  0.373988  1
  Mo  Mo29  1  0.670232  0.835701  0.124965  1
  Mo  Mo30  1  0.831587  0.333812  0.875189  1
  Mo  Mo31  1  0.330753  0.164919  0.625472  1
  Mo  Mo32  1  0.665693  0.000183  0.750315  1
  Mo  Mo33  1  0.165675  0.499709  0.750247  1
  Mo  Mo34  1  0.333860  0.000707  0.249495  1
  Mo  Mo35  1  0.834558  0.499742  0.249651  1
