# generated using pymatgen
data_Ho5Ga2Bi
_symmetry_space_group_name_H-M   'P 1'
_cell_length_a   7.98084800
_cell_length_b   7.98084800
_cell_length_c   13.36948000
_cell_angle_alpha   90.00000000
_cell_angle_beta   90.00000000
_cell_angle_gamma   90.00000000
_symmetry_Int_Tables_number   1
_chemical_formula_structural   Ho5Ga2Bi
_chemical_formula_sum   'Ho20 Ga8 Bi4'
_cell_volume   851.55478742
_cell_formula_units_Z   4
loop_
 _symmetry_equiv_pos_site_id
 _symmetry_equiv_pos_as_xyz
  1  'x, y, z'
loop_
 _atom_site_type_symbol
 _atom_site_label
 _atom_site_symmetry_multiplicity
 _atom_site_fract_x
 _atom_site_fract_y
 _atom_site_fract_z
 _atom_site_occupancy
  Ho  Ho0  1  0.000000  0.500000  0.751585  1
  Ho  Ho1  1  0.000000  0.500000  0.251585  1
  Ho  Ho2  1  0.500000  0.000000  0.248415  1
  Ho  Ho3  1  0.500000  0.000000  0.748415  1
  Ho  Ho4  1  0.653928  0.653717  0.609003  1
  Ho  Ho5  1  0.653928  0.346283  0.109003  1
  Ho  Ho6  1  0.846072  0.846283  0.390997  1
  Ho  Ho7  1  0.153928  0.846283  0.890997  1
  Ho  Ho8  1  0.346072  0.346283  0.609003  1
  Ho  Ho9  1  0.346072  0.653717  0.109003  1
  Ho  Ho10  1  0.153928  0.153717  0.390997  1
  Ho  Ho11  1  0.846072  0.153717  0.890997  1
  Ho  Ho12  1  0.653717  0.346072  0.390997  1
  Ho  Ho13  1  0.346283  0.346072  0.890997  1
  Ho  Ho14  1  0.153717  0.846072  0.609003  1
  Ho  Ho15  1  0.846283  0.846072  0.109003  1
  Ho  Ho16  1  0.346283  0.653928  0.390997  1
  Ho  Ho17  1  0.653717  0.653928  0.890997  1
  Ho  Ho18  1  0.846283  0.153928  0.609003  1
  Ho  Ho19  1  0.153717  0.153928  0.109003  1
  Ga  Ga20  1  0.855338  0.855338  0.750000  1
  Ga  Ga21  1  0.855338  0.144662  0.250000  1
  Ga  Ga22  1  0.644662  0.644662  0.250000  1
  Ga  Ga23  1  0.355338  0.644662  0.750000  1
  Ga  Ga24  1  0.144662  0.144662  0.750000  1
  Ga  Ga25  1  0.144662  0.855338  0.250000  1
  Ga  Ga26  1  0.355338  0.355338  0.250000  1
  Ga  Ga27  1  0.644662  0.355338  0.750000  1
  Bi  Bi28  1  0.000000  0.500000  0.501026  1
  Bi  Bi29  1  0.000000  0.500000  0.001026  1
  Bi  Bi30  1  0.500000  0.000000  0.498974  1
  Bi  Bi31  1  0.500000  0.000000  0.998974  1
