# generated using pymatgen
data_Y2ScAuO7
_symmetry_space_group_name_H-M   'P 1'
_cell_length_a   7.36933964
_cell_length_b   7.42602390
_cell_length_c   7.35075900
_cell_angle_alpha   90.00032326
_cell_angle_beta   60.08260276
_cell_angle_gamma   120.25536308
_symmetry_Int_Tables_number   1
_chemical_formula_structural   Y2ScAuO7
_chemical_formula_sum   'Y4 Sc2 Au2 O14'
_cell_volume   283.70143957
_cell_formula_units_Z   2
loop_
 _symmetry_equiv_pos_site_id
 _symmetry_equiv_pos_as_xyz
  1  'x, y, z'
loop_
 _atom_site_type_symbol
 _atom_site_label
 _atom_site_symmetry_multiplicity
 _atom_site_fract_x
 _atom_site_fract_y
 _atom_site_fract_z
 _atom_site_occupancy
  Y  Y0  1  0.500012  0.500017  0.000004  1
  Y  Y1  1  0.500014  0.000008  0.999977  1
  Y  Y2  1  0.000030  0.000029  0.499995  1
  Y  Y3  1  0.000036  0.000007  0.999977  1
  Sc  Sc4  1  0.499988  0.999948  0.499981  1
  Sc  Sc5  1  0.499988  0.499989  0.500003  1
  Au  Au6  1  0.000011  0.500003  0.000007  1
  Au  Au7  1  0.999997  0.500010  0.499996  1
  O  O8  1  0.259088  0.129550  0.120461  1
  O  O9  1  0.740960  0.870487  0.879526  1
  O  O10  1  0.691438  0.845712  0.404283  1
  O  O11  1  0.828950  0.414480  0.835529  1
  O  O12  1  0.250901  0.834443  0.849564  1
  O  O13  1  0.250896  0.416462  0.399541  1
  O  O14  1  0.250935  0.416421  0.849551  1
  O  O15  1  0.250928  0.834518  0.399517  1
  O  O16  1  0.308607  0.154297  0.595697  1
  O  O17  1  0.170978  0.585494  0.164514  1
  O  O18  1  0.749048  0.165449  0.150460  1
  O  O19  1  0.749041  0.583598  0.600498  1
  O  O20  1  0.749078  0.583552  0.150447  1
  O  O21  1  0.749073  0.165528  0.600475  1
