# generated using pymatgen
data_Cs2Hf(TeO4)3
_symmetry_space_group_name_H-M   'P 1'
_cell_length_a   7.35091573
_cell_length_b   7.35091487
_cell_length_c   7.43921407
_cell_angle_alpha   60.39824368
_cell_angle_beta   60.39824557
_cell_angle_gamma   60.00692660
_symmetry_Int_Tables_number   1
_chemical_formula_structural   Cs2Hf(TeO4)3
_chemical_formula_sum   'Cs2 Hf1 Te3 O12'
_cell_volume   285.96050461
_cell_formula_units_Z   1
loop_
 _symmetry_equiv_pos_site_id
 _symmetry_equiv_pos_as_xyz
  1  'x, y, z'
loop_
 _atom_site_type_symbol
 _atom_site_label
 _atom_site_symmetry_multiplicity
 _atom_site_fract_x
 _atom_site_fract_y
 _atom_site_fract_z
 _atom_site_occupancy
  Cs  Cs0  1  0.880459  0.864253  0.881887  1
  Cs  Cs1  1  0.135747  0.119541  0.118113  1
  Hf  Hf2  1  0.504065  0.495935  0.000000  1
  Te  Te3  1  0.503209  0.996616  0.500345  1
  Te  Te4  1  0.003384  0.496791  0.499655  1
  Te  Te5  1  0.503396  0.496604  0.500000  1
  O  O6  1  0.181945  0.175354  0.570326  1
  O  O7  1  0.569045  0.563055  0.197452  1
  O  O8  1  0.568880  0.166861  0.197769  1
  O  O9  1  0.182271  0.569741  0.569086  1
  O  O10  1  0.173901  0.562770  0.197026  1
  O  O11  1  0.574849  0.175373  0.571159  1
  O  O12  1  0.824646  0.818055  0.429674  1
  O  O13  1  0.436945  0.430955  0.802548  1
  O  O14  1  0.437230  0.826099  0.802974  1
  O  O15  1  0.824627  0.425151  0.428841  1
  O  O16  1  0.833139  0.431120  0.802231  1
  O  O17  1  0.430259  0.817729  0.430914  1
