# generated using pymatgen
data_Tb2HoTm5Au4
_symmetry_space_group_name_H-M   'P 1'
_cell_length_a   4.88923300
_cell_length_b   7.10865515
_cell_length_c   8.87617731
_cell_angle_alpha   89.78526959
_cell_angle_beta   90.00000000
_cell_angle_gamma   90.00000000
_symmetry_Int_Tables_number   1
_chemical_formula_structural   Tb2HoTm5Au4
_chemical_formula_sum   'Tb2 Ho1 Tm5 Au4'
_cell_volume   308.49711010
_cell_formula_units_Z   1
loop_
 _symmetry_equiv_pos_site_id
 _symmetry_equiv_pos_as_xyz
  1  'x, y, z'
loop_
 _atom_site_type_symbol
 _atom_site_label
 _atom_site_symmetry_multiplicity
 _atom_site_fract_x
 _atom_site_fract_y
 _atom_site_fract_z
 _atom_site_occupancy
  Tb  Tb0  1  0.250000  0.985674  0.322106  1
  Tb  Tb1  1  0.750000  0.014467  0.677260  1
  Ho  Ho2  1  0.750000  0.514432  0.823436  1
  Tm  Tm3  1  0.250000  0.851604  0.921341  1
  Tm  Tm4  1  0.250000  0.352797  0.579140  1
  Tm  Tm5  1  0.750000  0.148628  0.079545  1
  Tm  Tm6  1  0.750000  0.647212  0.419321  1
  Tm  Tm7  1  0.250000  0.485153  0.176132  1
  Au  Au8  1  0.250000  0.255177  0.901487  1
  Au  Au9  1  0.250000  0.753728  0.600720  1
  Au  Au10  1  0.750000  0.744343  0.100429  1
  Au  Au11  1  0.750000  0.246785  0.399083  1
