# generated using pymatgen
data_La6HoMgAu10
_symmetry_space_group_name_H-M   'P 1'
_cell_length_a   8.26295543
_cell_length_b   8.26295461
_cell_length_c   8.26295480
_cell_angle_alpha   65.81997043
_cell_angle_beta   65.81997459
_cell_angle_gamma   65.81996033
_symmetry_Int_Tables_number   1
_chemical_formula_structural   La6HoMgAu10
_chemical_formula_sum   'La6 Ho1 Mg1 Au10'
_cell_volume   449.25216845
_cell_formula_units_Z   1
loop_
 _symmetry_equiv_pos_site_id
 _symmetry_equiv_pos_as_xyz
  1  'x, y, z'
loop_
 _atom_site_type_symbol
 _atom_site_label
 _atom_site_symmetry_multiplicity
 _atom_site_fract_x
 _atom_site_fract_y
 _atom_site_fract_z
 _atom_site_occupancy
  La  La0  1  0.894123  0.188249  0.619884  1
  La  La1  1  0.619884  0.894123  0.188249  1
  La  La2  1  0.188249  0.619884  0.894123  1
  La  La3  1  0.109968  0.807195  0.378411  1
  La  La4  1  0.378411  0.109968  0.807195  1
  La  La5  1  0.807195  0.378411  0.109968  1
  Ho  Ho6  1  0.654952  0.654952  0.654952  1
  Mg  Mg7  1  0.344679  0.344679  0.344679  1
  Au  Au8  1  0.000012  0.000012  0.000012  1
  Au  Au9  1  0.498402  0.498402  0.498402  1
  Au  Au10  1  0.803459  0.803459  0.803459  1
  Au  Au11  1  0.199886  0.199886  0.199886  1
  Au  Au12  1  0.942479  0.550592  0.318010  1
  Au  Au13  1  0.318010  0.942479  0.550592  1
  Au  Au14  1  0.550592  0.318010  0.942479  1
  Au  Au15  1  0.059189  0.450036  0.680474  1
  Au  Au16  1  0.680474  0.059189  0.450036  1
  Au  Au17  1  0.450036  0.680474  0.059189  1
