# generated using pymatgen
data_Sc6Ti4Ga12Ir7
_symmetry_space_group_name_H-M   'P 1'
_cell_length_a   8.81240473
_cell_length_b   8.81240393
_cell_length_c   8.81240600
_cell_angle_alpha   59.99999221
_cell_angle_beta   59.99999524
_cell_angle_gamma   59.99999380
_symmetry_Int_Tables_number   1
_chemical_formula_structural   Sc6Ti4Ga12Ir7
_chemical_formula_sum   'Sc6 Ti4 Ga12 Ir7'
_cell_volume   483.91409092
_cell_formula_units_Z   1
loop_
 _symmetry_equiv_pos_site_id
 _symmetry_equiv_pos_as_xyz
  1  'x, y, z'
loop_
 _atom_site_type_symbol
 _atom_site_label
 _atom_site_symmetry_multiplicity
 _atom_site_fract_x
 _atom_site_fract_y
 _atom_site_fract_z
 _atom_site_occupancy
  Sc  Sc0  1  0.706933  0.706933  0.293067  1
  Sc  Sc1  1  0.293067  0.706933  0.293067  1
  Sc  Sc2  1  0.706933  0.293067  0.293067  1
  Sc  Sc3  1  0.293067  0.293067  0.706933  1
  Sc  Sc4  1  0.706933  0.293067  0.706933  1
  Sc  Sc5  1  0.293067  0.706933  0.706933  1
  Ti  Ti6  1  0.878320  0.878320  0.365040  1
  Ti  Ti7  1  0.878320  0.365040  0.878320  1
  Ti  Ti8  1  0.365040  0.878320  0.878320  1
  Ti  Ti9  1  0.878320  0.878320  0.878320  1
  Ga  Ga10  1  0.118865  0.118865  0.643407  1
  Ga  Ga11  1  0.118865  0.643407  0.118865  1
  Ga  Ga12  1  0.643407  0.118865  0.118865  1
  Ga  Ga13  1  0.118865  0.118865  0.118865  1
  Ga  Ga14  1  0.659257  0.659257  0.022228  1
  Ga  Ga15  1  0.659257  0.022228  0.659257  1
  Ga  Ga16  1  0.022228  0.659257  0.659257  1
  Ga  Ga17  1  0.659257  0.659257  0.659257  1
  Ga  Ga18  1  0.337936  0.337936  0.986192  1
  Ga  Ga19  1  0.337936  0.986192  0.337936  1
  Ga  Ga20  1  0.986192  0.337936  0.337936  1
  Ga  Ga21  1  0.337936  0.337936  0.337936  1
  Ir  Ir22  1  0.000000  0.000000  0.000000  1
  Ir  Ir23  1  0.997943  0.997943  0.502057  1
  Ir  Ir24  1  0.502057  0.997943  0.502057  1
  Ir  Ir25  1  0.997943  0.502057  0.502057  1
  Ir  Ir26  1  0.502057  0.502057  0.997943  1
  Ir  Ir27  1  0.997943  0.502057  0.997943  1
  Ir  Ir28  1  0.502057  0.997943  0.997943  1
