# generated using pymatgen
data_Ti8NO12
_symmetry_space_group_name_H-M   'P 1'
_cell_length_a   6.49410922
_cell_length_b   6.49410983
_cell_length_c   6.49410994
_cell_angle_alpha   73.77420017
_cell_angle_beta   73.77419527
_cell_angle_gamma   73.77420515
_symmetry_Int_Tables_number   1
_chemical_formula_structural   Ti8NO12
_chemical_formula_sum   'Ti8 N1 O12'
_cell_volume   246.39999687
_cell_formula_units_Z   1
loop_
 _symmetry_equiv_pos_site_id
 _symmetry_equiv_pos_as_xyz
  1  'x, y, z'
loop_
 _atom_site_type_symbol
 _atom_site_label
 _atom_site_symmetry_multiplicity
 _atom_site_fract_x
 _atom_site_fract_y
 _atom_site_fract_z
 _atom_site_occupancy
  Ti  Ti0  1  0.940324  0.688579  0.123225  1
  Ti  Ti1  1  0.723043  0.723043  0.723043  1
  Ti  Ti2  1  0.688579  0.123225  0.940324  1
  Ti  Ti3  1  0.876775  0.059676  0.311421  1
  Ti  Ti4  1  0.123225  0.940324  0.688579  1
  Ti  Ti5  1  0.311421  0.876775  0.059676  1
  Ti  Ti6  1  0.276957  0.276957  0.276957  1
  Ti  Ti7  1  0.059676  0.311421  0.876775  1
  N  N8  1  0.000000  0.000000  0.000000  1
  O  O9  1  0.827897  0.743301  0.420145  1
  O  O10  1  0.960453  0.355778  0.202801  1
  O  O11  1  0.743301  0.420145  0.827897  1
  O  O12  1  0.797199  0.039547  0.644222  1
  O  O13  1  0.644222  0.797199  0.039547  1
  O  O14  1  0.420145  0.827897  0.743301  1
  O  O15  1  0.579855  0.172103  0.256699  1
  O  O16  1  0.355778  0.202801  0.960453  1
  O  O17  1  0.202801  0.960453  0.355778  1
  O  O18  1  0.256699  0.579855  0.172103  1
  O  O19  1  0.039547  0.644222  0.797199  1
  O  O20  1  0.172103  0.256699  0.579855  1
