# generated using pymatgen
data_Eu2ZnNiRh2
_symmetry_space_group_name_H-M   'P 1'
_cell_length_a   5.44519302
_cell_length_b   5.17168966
_cell_length_c   5.44519314
_cell_angle_alpha   59.93186724
_cell_angle_beta   62.08884377
_cell_angle_gamma   59.93187330
_symmetry_Int_Tables_number   1
_chemical_formula_structural   Eu2ZnNiRh2
_chemical_formula_sum   'Eu2 Zn1 Ni1 Rh2'
_cell_volume   109.91855450
_cell_formula_units_Z   1
loop_
 _symmetry_equiv_pos_site_id
 _symmetry_equiv_pos_as_xyz
  1  'x, y, z'
loop_
 _atom_site_type_symbol
 _atom_site_label
 _atom_site_symmetry_multiplicity
 _atom_site_fract_x
 _atom_site_fract_y
 _atom_site_fract_z
 _atom_site_occupancy
  Eu  Eu0  1  0.249779  0.249160  0.249779  1
  Eu  Eu1  1  0.000221  0.000840  0.000221  1
  Zn  Zn2  1  0.625000  0.125000  0.625000  1
  Ni  Ni3  1  0.625000  0.625000  0.625000  1
  Rh  Rh4  1  0.125000  0.625000  0.625000  1
  Rh  Rh5  1  0.625000  0.625000  0.125000  1
