# generated using pymatgen
data_FeSeIO6
_symmetry_space_group_name_H-M   'P 1'
_cell_length_a   5.39877500
_cell_length_b   5.40053960
_cell_length_c   9.17705834
_cell_angle_alpha   90.96203201
_cell_angle_beta   89.99905527
_cell_angle_gamma   89.99995917
_symmetry_Int_Tables_number   1
_chemical_formula_structural   FeSeIO6
_chemical_formula_sum   'Fe2 Se2 I2 O12'
_cell_volume   267.53133300
_cell_formula_units_Z   2
loop_
 _symmetry_equiv_pos_site_id
 _symmetry_equiv_pos_as_xyz
  1  'x, y, z'
loop_
 _atom_site_type_symbol
 _atom_site_label
 _atom_site_symmetry_multiplicity
 _atom_site_fract_x
 _atom_site_fract_y
 _atom_site_fract_z
 _atom_site_occupancy
  Fe  Fe0  1  0.812000  0.726769  0.260807  1
  Fe  Fe1  1  0.311984  0.273212  0.739198  1
  Se  Se2  1  0.715606  0.233342  0.434064  1
  Se  Se3  1  0.215604  0.766667  0.565934  1
  I  I4  1  0.733695  0.772974  0.893290  1
  I  I5  1  0.233700  0.227020  0.106709  1
  O  O6  1  0.625908  0.649620  0.069571  1
  O  O7  1  0.125906  0.350375  0.930431  1
  O  O8  1  0.010330  0.832034  0.428100  1
  O  O9  1  0.510318  0.167975  0.571895  1
  O  O10  1  0.584022  0.500657  0.363125  1
  O  O11  1  0.084010  0.499355  0.636875  1
  O  O12  1  0.546251  0.059736  0.894323  1
  O  O13  1  0.046256  0.940257  0.105677  1
  O  O14  1  0.544544  0.579204  0.772492  1
  O  O15  1  0.044551  0.420792  0.227510  1
  O  O16  1  0.602909  0.023463  0.300405  1
  O  O17  1  0.102902  0.976548  0.699596  1
