# generated using pymatgen
data_Tb5Dy3Ti3Si16Mo9
_symmetry_space_group_name_H-M   'P 1'
_cell_length_a   6.92548286
_cell_length_b   6.92566193
_cell_length_c   12.83778225
_cell_angle_alpha   90.00709446
_cell_angle_beta   90.00327689
_cell_angle_gamma   89.79080916
_symmetry_Int_Tables_number   1
_chemical_formula_structural   Tb5Dy3Ti3Si16Mo9
_chemical_formula_sum   'Tb5 Dy3 Ti3 Si16 Mo9'
_cell_volume   615.74153882
_cell_formula_units_Z   1
loop_
 _symmetry_equiv_pos_site_id
 _symmetry_equiv_pos_as_xyz
  1  'x, y, z'
loop_
 _atom_site_type_symbol
 _atom_site_label
 _atom_site_symmetry_multiplicity
 _atom_site_fract_x
 _atom_site_fract_y
 _atom_site_fract_z
 _atom_site_occupancy
  Tb  Tb0  1  0.997518  0.660325  0.031555  1
  Tb  Tb1  1  0.000950  0.340553  0.531351  1
  Tb  Tb2  1  0.660272  0.997512  0.968438  1
  Tb  Tb3  1  0.161012  0.503700  0.780917  1
  Tb  Tb4  1  0.838373  0.499923  0.282658  1
  Dy  Dy5  1  0.503438  0.160792  0.219121  1
  Dy  Dy6  1  0.500139  0.838592  0.717279  1
  Dy  Dy7  1  0.340846  0.000655  0.468647  1
  Ti  Ti8  1  0.829105  0.169015  0.748516  1
  Ti  Ti9  1  0.169123  0.829235  0.251510  1
  Ti  Ti10  1  0.330610  0.330567  0.000043  1
  Si  Si11  1  0.036913  0.713498  0.438391  1
  Si  Si12  1  0.958318  0.288823  0.936160  1
  Si  Si13  1  0.712858  0.036540  0.561645  1
  Si  Si14  1  0.210087  0.459661  0.186410  1
  Si  Si15  1  0.787906  0.542657  0.685047  1
  Si  Si16  1  0.459873  0.209609  0.813528  1
  Si  Si17  1  0.542269  0.788600  0.315012  1
  Si  Si18  1  0.288995  0.958487  0.063946  1
  Si  Si19  1  0.799774  0.871654  0.184249  1
  Si  Si20  1  0.303692  0.625960  0.565238  1
  Si  Si21  1  0.700155  0.371634  0.065854  1
  Si  Si22  1  0.625258  0.303245  0.434736  1
  Si  Si23  1  0.371891  0.700397  0.934207  1
  Si  Si24  1  0.128139  0.202261  0.315221  1
  Si  Si25  1  0.202679  0.127423  0.684761  1
  Si  Si26  1  0.871145  0.799988  0.815683  1
  Mo  Mo27  1  0.333840  0.504838  0.374971  1
  Mo  Mo28  1  0.843827  0.997863  0.373170  1
  Mo  Mo29  1  0.006995  0.159408  0.125537  1
  Mo  Mo30  1  0.997875  0.843985  0.626733  1
  Mo  Mo31  1  0.504755  0.333574  0.624938  1
  Mo  Mo32  1  0.159575  0.006877  0.874452  1
  Mo  Mo33  1  0.668730  0.668975  0.500089  1
  Mo  Mo34  1  0.493681  0.659454  0.124918  1
  Mo  Mo35  1  0.659384  0.493720  0.875069  1
