# generated using pymatgen
data_GdThCdNi2
_symmetry_space_group_name_H-M   'P 1'
_cell_length_a   7.57166900
_cell_length_b   7.57166914
_cell_length_c   3.68483200
_cell_angle_alpha   90.00000000
_cell_angle_beta   90.00000000
_cell_angle_gamma   92.89064263
_symmetry_Int_Tables_number   1
_chemical_formula_structural   GdThCdNi2
_chemical_formula_sum   'Gd2 Th2 Cd2 Ni4'
_cell_volume   210.98325855
_cell_formula_units_Z   2
loop_
 _symmetry_equiv_pos_site_id
 _symmetry_equiv_pos_as_xyz
  1  'x, y, z'
loop_
 _atom_site_type_symbol
 _atom_site_label
 _atom_site_symmetry_multiplicity
 _atom_site_fract_x
 _atom_site_fract_y
 _atom_site_fract_z
 _atom_site_occupancy
  Gd  Gd0  1  0.170862  0.329138  0.500000  1
  Gd  Gd1  1  0.829138  0.670862  0.500000  1
  Th  Th2  1  0.673560  0.173560  0.500000  1
  Th  Th3  1  0.326440  0.826440  0.500000  1
  Cd  Cd4  1  0.000000  0.000000  0.000000  1
  Cd  Cd5  1  0.500000  0.500000  0.000000  1
  Ni  Ni6  1  0.124267  0.624267  0.000000  1
  Ni  Ni7  1  0.875733  0.375733  0.000000  1
  Ni  Ni8  1  0.618441  0.881559  0.000000  1
  Ni  Ni9  1  0.381559  0.118441  0.000000  1
