# generated using pymatgen
data_Cr2IrRu5
_symmetry_space_group_name_H-M   'P 1'
_cell_length_a   5.41289300
_cell_length_b   5.41804618
_cell_length_c   4.25490100
_cell_angle_alpha   90.00000000
_cell_angle_beta   90.00000000
_cell_angle_gamma   119.96854846
_symmetry_Int_Tables_number   1
_chemical_formula_structural   Cr2IrRu5
_chemical_formula_sum   'Cr2 Ir1 Ru5'
_cell_volume   108.10101920
_cell_formula_units_Z   1
loop_
 _symmetry_equiv_pos_site_id
 _symmetry_equiv_pos_as_xyz
  1  'x, y, z'
loop_
 _atom_site_type_symbol
 _atom_site_label
 _atom_site_symmetry_multiplicity
 _atom_site_fract_x
 _atom_site_fract_y
 _atom_site_fract_z
 _atom_site_occupancy
  Cr  Cr0  1  0.335828  0.671655  0.750000  1
  Cr  Cr1  1  0.665117  0.330233  0.250000  1
  Ir  Ir2  1  0.169519  0.339037  0.250000  1
  Ru  Ru3  1  0.660780  0.832832  0.250000  1
  Ru  Ru4  1  0.172052  0.832832  0.250000  1
  Ru  Ru5  1  0.829915  0.659829  0.750000  1
  Ru  Ru6  1  0.339587  0.166792  0.750000  1
  Ru  Ru7  1  0.827205  0.166792  0.750000  1
