# generated using pymatgen
data_Ca5YSi24Os3Ru5
_symmetry_space_group_name_H-M   'P 1'
_cell_length_a   10.16520112
_cell_length_b   10.16520087
_cell_length_c   8.18268504
_cell_angle_alpha   89.99693022
_cell_angle_beta   89.99693067
_cell_angle_gamma   132.52097048
_symmetry_Int_Tables_number   1
_chemical_formula_structural   Ca5YSi24Os3Ru5
_chemical_formula_sum   'Ca5 Y1 Si24 Os3 Ru5'
_cell_volume   623.17919897
_cell_formula_units_Z   1
loop_
 _symmetry_equiv_pos_site_id
 _symmetry_equiv_pos_as_xyz
  1  'x, y, z'
loop_
 _atom_site_type_symbol
 _atom_site_label
 _atom_site_symmetry_multiplicity
 _atom_site_fract_x
 _atom_site_fract_y
 _atom_site_fract_z
 _atom_site_occupancy
  Ca  Ca0  1  0.000021  0.999979  0.000000  1
  Ca  Ca1  1  0.001904  0.501825  0.249977  1
  Ca  Ca2  1  0.498175  0.998096  0.750023  1
  Ca  Ca3  1  0.998288  0.498329  0.750012  1
  Ca  Ca4  1  0.501671  0.001712  0.249988  1
  Y  Y5  1  0.499822  0.500178  0.500000  1
  Si  Si6  1  0.294027  0.705973  0.000000  1
  Si  Si7  1  0.793957  0.206043  0.500000  1
  Si  Si8  1  0.705995  0.294005  0.000000  1
  Si  Si9  1  0.206140  0.793860  0.500000  1
  Si  Si10  1  0.834851  0.834677  0.331863  1
  Si  Si11  1  0.165323  0.165149  0.668137  1
  Si  Si12  1  0.667383  0.667321  0.834101  1
  Si  Si13  1  0.332679  0.332617  0.165899  1
  Si  Si14  1  0.623976  0.390414  0.228040  1
  Si  Si15  1  0.609586  0.376024  0.771960  1
  Si  Si16  1  0.109054  0.876271  0.729095  1
  Si  Si17  1  0.123729  0.890946  0.270905  1
  Si  Si18  1  0.375824  0.609525  0.771352  1
  Si  Si19  1  0.390475  0.624176  0.228648  1
  Si  Si20  1  0.891272  0.123924  0.270670  1
  Si  Si21  1  0.876076  0.108728  0.729330  1
  Si  Si22  1  0.846095  0.613432  0.007205  1
  Si  Si23  1  0.386568  0.153905  0.992795  1
  Si  Si24  1  0.889780  0.655758  0.506698  1
  Si  Si25  1  0.344242  0.110220  0.493302  1
  Si  Si26  1  0.154142  0.386739  0.992583  1
  Si  Si27  1  0.613261  0.845858  0.007417  1
  Si  Si28  1  0.111123  0.345255  0.493179  1
  Si  Si29  1  0.654745  0.888877  0.506821  1
  Os  Os30  1  0.168654  0.831346  0.000000  1
  Os  Os31  1  0.667846  0.332154  0.500000  1
  Os  Os32  1  0.831356  0.168644  0.000000  1
  Ru  Ru33  1  0.332021  0.667979  0.500000  1
  Ru  Ru34  1  0.624804  0.624676  0.127197  1
  Ru  Ru35  1  0.375324  0.375196  0.872803  1
  Ru  Ru36  1  0.871686  0.871877  0.623735  1
  Ru  Ru37  1  0.128123  0.128314  0.376265  1
