# generated using pymatgen
data_TbEr5InSi2
_symmetry_space_group_name_H-M   'P 1'
_cell_length_a   8.47056668
_cell_length_b   8.47056684
_cell_length_c   8.44958543
_cell_angle_alpha   112.39758359
_cell_angle_beta   110.89685041
_cell_angle_gamma   105.31402381
_symmetry_Int_Tables_number   1
_chemical_formula_structural   TbEr5InSi2
_chemical_formula_sum   'Tb2 Er10 In2 Si4'
_cell_volume   464.11585756
_cell_formula_units_Z   2
loop_
 _symmetry_equiv_pos_site_id
 _symmetry_equiv_pos_as_xyz
  1  'x, y, z'
loop_
 _atom_site_type_symbol
 _atom_site_label
 _atom_site_symmetry_multiplicity
 _atom_site_fract_x
 _atom_site_fract_y
 _atom_site_fract_z
 _atom_site_occupancy
  Tb  Tb0  1  0.187519  0.279145  0.466664  1
  Tb  Tb1  1  0.812481  0.720855  0.533336  1
  Er  Er2  1  0.186757  0.720433  0.907189  1
  Er  Er3  1  0.813243  0.279567  0.092811  1
  Er  Er4  1  0.318862  0.616086  0.295835  1
  Er  Er5  1  0.681138  0.383914  0.704165  1
  Er  Er6  1  0.320252  0.023027  0.704165  1
  Er  Er7  1  0.679748  0.976973  0.295835  1
  Er  Er8  1  0.442326  0.236498  0.203970  1
  Er  Er9  1  0.557674  0.763502  0.796030  1
  Er  Er10  1  0.032529  0.238357  0.796030  1
  Er  Er11  1  0.967471  0.761643  0.203970  1
  In  In12  1  0.500000  0.500000  0.000000  1
  In  In13  1  0.000000  0.000000  0.000000  1
  Si  Si14  1  0.116577  0.616577  0.500000  1
  Si  Si15  1  0.883423  0.383423  0.500000  1
  Si  Si16  1  0.369591  0.999819  0.369410  1
  Si  Si17  1  0.630409  0.000181  0.630590  1
