# generated using pymatgen
data_Sc22CoIr4Os3
_symmetry_space_group_name_H-M   'P 1'
_cell_length_a   9.43160189
_cell_length_b   9.43160259
_cell_length_c   9.43432500
_cell_angle_alpha   59.99044765
_cell_angle_beta   59.99044520
_cell_angle_gamma   60.01910495
_symmetry_Int_Tables_number   1
_chemical_formula_structural   Sc22CoIr4Os3
_chemical_formula_sum   'Sc22 Co1 Ir4 Os3'
_cell_volume   593.42619012
_cell_formula_units_Z   1
loop_
 _symmetry_equiv_pos_site_id
 _symmetry_equiv_pos_as_xyz
  1  'x, y, z'
loop_
 _atom_site_type_symbol
 _atom_site_label
 _atom_site_symmetry_multiplicity
 _atom_site_fract_x
 _atom_site_fract_y
 _atom_site_fract_z
 _atom_site_occupancy
  Sc  Sc0  1  0.844103  0.844103  0.842887  1
  Sc  Sc1  1  0.531091  0.157113  0.155897  1
  Sc  Sc2  1  0.155897  0.155897  0.531091  1
  Sc  Sc3  1  0.157113  0.531091  0.155897  1
  Sc  Sc4  1  0.844103  0.844103  0.468909  1
  Sc  Sc5  1  0.842887  0.468909  0.844103  1
  Sc  Sc6  1  0.468909  0.842887  0.844103  1
  Sc  Sc7  1  0.155897  0.155897  0.157113  1
  Sc  Sc8  1  0.197801  0.802199  0.197801  1
  Sc  Sc9  1  0.197801  0.802199  0.802199  1
  Sc  Sc10  1  0.802199  0.197801  0.197801  1
  Sc  Sc11  1  0.802529  0.802529  0.197471  1
  Sc  Sc12  1  0.197471  0.197471  0.802529  1
  Sc  Sc13  1  0.802199  0.197801  0.802199  1
  Sc  Sc14  1  0.385309  0.385309  0.382581  1
  Sc  Sc15  1  0.153200  0.617419  0.614691  1
  Sc  Sc16  1  0.617419  0.153200  0.614691  1
  Sc  Sc17  1  0.614691  0.614691  0.153200  1
  Sc  Sc18  1  0.382581  0.846800  0.385309  1
  Sc  Sc19  1  0.385309  0.385309  0.846800  1
  Sc  Sc20  1  0.846800  0.382581  0.385309  1
  Sc  Sc21  1  0.614691  0.614691  0.617419  1
  Co  Co22  1  0.500000  0.500000  0.500000  1
  Ir  Ir23  1  0.500000  0.000000  0.500000  1
  Ir  Ir24  1  0.000000  0.500000  0.500000  1
  Ir  Ir25  1  0.500000  0.000000  0.000000  1
  Ir  Ir26  1  0.000000  0.500000  0.000000  1
  Os  Os27  1  0.500000  0.500000  0.000000  1
  Os  Os28  1  0.000000  0.000000  0.500000  1
  Os  Os29  1  0.000000  0.000000  0.000000  1
