# generated using pymatgen
data_Pr3Cr2(ReN4)3
_symmetry_space_group_name_H-M   'P 1'
_cell_length_a   10.94757412
_cell_length_b   10.94757416
_cell_length_c   10.94757400
_cell_angle_alpha   109.47121849
_cell_angle_beta   109.47121855
_cell_angle_gamma   109.47122265
_symmetry_Int_Tables_number   1
_chemical_formula_structural   Pr3Cr2(ReN4)3
_chemical_formula_sum   'Pr12 Cr8 Re12 N48'
_cell_volume   1010.02424948
_cell_formula_units_Z   4
loop_
 _symmetry_equiv_pos_site_id
 _symmetry_equiv_pos_as_xyz
  1  'x, y, z'
loop_
 _atom_site_type_symbol
 _atom_site_label
 _atom_site_symmetry_multiplicity
 _atom_site_fract_x
 _atom_site_fract_y
 _atom_site_fract_z
 _atom_site_occupancy
  Pr  Pr0  1  0.250000  0.375000  0.125000  1
  Pr  Pr1  1  0.375000  0.750000  0.125001  1
  Pr  Pr2  1  0.375000  0.125000  0.250000  1
  Pr  Pr3  1  0.875000  0.625000  0.250000  1
  Pr  Pr4  1  0.750000  0.125001  0.375000  1
  Pr  Pr5  1  0.125000  0.250000  0.375000  1
  Pr  Pr6  1  0.875000  0.750000  0.625000  1
  Pr  Pr7  1  0.250000  0.875000  0.625000  1
  Pr  Pr8  1  0.125001  0.375000  0.750000  1
  Pr  Pr9  1  0.625000  0.875000  0.750000  1
  Pr  Pr10  1  0.625000  0.250000  0.875000  1
  Pr  Pr11  1  0.750000  0.625000  0.875000  1
  Cr  Cr12  1  0.000000  0.000000  0.000000  1
  Cr  Cr13  1  0.500001  0.000000  0.000000  1
  Cr  Cr14  1  0.000000  0.500001  0.000000  1
  Cr  Cr15  1  0.500000  0.500000  0.000000  1
  Cr  Cr16  1  0.000000  0.000000  0.500001  1
  Cr  Cr17  1  0.500000  0.000000  0.500000  1
  Cr  Cr18  1  0.000000  0.500000  0.500000  1
  Cr  Cr19  1  0.500001  0.500001  0.500001  1
  Re  Re20  1  0.875000  0.250000  0.125000  1
  Re  Re21  1  0.750000  0.875000  0.125000  1
  Re  Re22  1  0.625000  0.375000  0.250000  1
  Re  Re23  1  0.125000  0.875000  0.250000  1
  Re  Re24  1  0.250000  0.625000  0.375000  1
  Re  Re25  1  0.625000  0.750000  0.375000  1
  Re  Re26  1  0.375000  0.250000  0.625000  1
  Re  Re27  1  0.750000  0.375000  0.625000  1
  Re  Re28  1  0.875000  0.125000  0.750000  1
  Re  Re29  1  0.375000  0.625000  0.750000  1
  Re  Re30  1  0.250000  0.125000  0.875000  1
  Re  Re31  1  0.125000  0.750000  0.875000  1
  N  N32  1  0.316840  0.899977  0.012909  1
  N  N33  1  0.196070  0.112933  0.012910  1
  N  N34  1  0.696070  0.683160  0.083137  1
  N  N35  1  0.887068  0.399977  0.083137  1
  N  N36  1  0.987091  0.683160  0.100023  1
  N  N37  1  0.612933  0.416863  0.100023  1
  N  N38  1  0.600023  0.916863  0.112932  1
  N  N39  1  0.012910  0.196070  0.112933  1
  N  N40  1  0.196069  0.583137  0.183160  1
  N  N41  1  0.487091  0.600023  0.183160  1
  N  N42  1  0.112933  0.012910  0.196070  1
  N  N43  1  0.583137  0.183160  0.196069  1
  N  N44  1  0.487091  0.387068  0.303931  1
  N  N45  1  0.316840  0.916864  0.303931  1
  N  N46  1  0.899977  0.012909  0.316840  1
  N  N47  1  0.916864  0.303931  0.316840  1
  N  N48  1  0.303931  0.487091  0.387068  1
  N  N49  1  0.583137  0.899978  0.387068  1
  N  N50  1  0.816841  0.512910  0.399978  1
  N  N51  1  0.083137  0.887068  0.399977  1
  N  N52  1  0.100023  0.612933  0.416863  1
  N  N53  1  0.816840  0.803931  0.416863  1
  N  N54  1  0.600023  0.183160  0.487091  1
  N  N55  1  0.387068  0.303931  0.487091  1
  N  N56  1  0.612932  0.696069  0.512909  1
  N  N57  1  0.399978  0.816841  0.512910  1
  N  N58  1  0.183160  0.196069  0.583137  1
  N  N59  1  0.899978  0.387068  0.583137  1
  N  N60  1  0.916863  0.112932  0.600023  1
  N  N61  1  0.183160  0.487091  0.600023  1
  N  N62  1  0.416863  0.100023  0.612933  1
  N  N63  1  0.696069  0.512909  0.612932  1
  N  N64  1  0.083137  0.696070  0.683160  1
  N  N65  1  0.100023  0.987091  0.683160  1
  N  N66  1  0.683160  0.083137  0.696070  1
  N  N67  1  0.512909  0.612932  0.696069  1
  N  N68  1  0.416863  0.816840  0.803931  1
  N  N69  1  0.887069  0.987091  0.803932  1
  N  N70  1  0.512910  0.399978  0.816841  1
  N  N71  1  0.803931  0.416863  0.816840  1
  N  N72  1  0.399977  0.083137  0.887068  1
  N  N73  1  0.987091  0.803932  0.887069  1
  N  N74  1  0.012909  0.316840  0.899977  1
  N  N75  1  0.387068  0.583137  0.899978  1
  N  N76  1  0.303931  0.316840  0.916864  1
  N  N77  1  0.112932  0.600023  0.916863  1
  N  N78  1  0.683160  0.100023  0.987091  1
  N  N79  1  0.803932  0.887069  0.987091  1
