# generated using pymatgen
data_Yb7SmBi6
_symmetry_space_group_name_H-M   'P 1'
_cell_length_a   8.28005233
_cell_length_b   8.37295420
_cell_length_c   8.37295434
_cell_angle_alpha   109.69488929
_cell_angle_beta   109.24661773
_cell_angle_gamma   109.24661456
_symmetry_Int_Tables_number   1
_chemical_formula_structural   Yb7SmBi6
_chemical_formula_sum   'Yb7 Sm1 Bi6'
_cell_volume   448.08969027
_cell_formula_units_Z   1
loop_
 _symmetry_equiv_pos_site_id
 _symmetry_equiv_pos_as_xyz
  1  'x, y, z'
loop_
 _atom_site_type_symbol
 _atom_site_label
 _atom_site_symmetry_multiplicity
 _atom_site_fract_x
 _atom_site_fract_y
 _atom_site_fract_z
 _atom_site_occupancy
  Yb  Yb0  1  0.648971  0.500000  0.000000  1
  Yb  Yb1  1  0.500097  0.000174  0.649832  1
  Yb  Yb2  1  0.353056  0.350750  0.353160  1
  Yb  Yb3  1  0.502306  0.002409  0.149250  1
  Yb  Yb4  1  0.999923  0.649658  0.499826  1
  Yb  Yb5  1  0.850265  0.850168  0.850342  1
  Yb  Yb6  1  0.999897  0.146840  0.497591  1
  Sm  Sm7  1  0.145183  0.500000  0.000000  1
  Bi  Bi8  1  0.373385  0.624668  0.752804  1
  Bi  Bi9  1  0.878415  0.252091  0.125535  1
  Bi  Bi10  1  0.620581  0.747196  0.371864  1
  Bi  Bi11  1  0.126324  0.873444  0.247909  1
  Bi  Bi12  1  0.248717  0.128136  0.875332  1
  Bi  Bi13  1  0.752880  0.374465  0.626556  1
