# generated using pymatgen
data_Y2Cr3Fe9P7
_symmetry_space_group_name_H-M   'P 1'
_cell_length_a   3.63505900
_cell_length_b   9.04787746
_cell_length_c   9.04673400
_cell_angle_alpha   120.00850638
_cell_angle_beta   90.00000000
_cell_angle_gamma   90.00000000
_symmetry_Int_Tables_number   1
_chemical_formula_structural   Y2Cr3Fe9P7
_chemical_formula_sum   'Y2 Cr3 Fe9 P7'
_cell_volume   257.65785953
_cell_formula_units_Z   1
loop_
 _symmetry_equiv_pos_site_id
 _symmetry_equiv_pos_as_xyz
  1  'x, y, z'
loop_
 _atom_site_type_symbol
 _atom_site_label
 _atom_site_symmetry_multiplicity
 _atom_site_fract_x
 _atom_site_fract_y
 _atom_site_fract_z
 _atom_site_occupancy
  Y  Y0  1  0.000000  0.666593  0.333344  1
  Y  Y1  1  0.500000  0.333170  0.666707  1
  Cr  Cr2  1  0.500000  0.115364  0.899699  1
  Cr  Cr3  1  0.500000  0.100327  0.215511  1
  Cr  Cr4  1  0.500000  0.784461  0.884726  1
  Fe  Fe5  1  0.000000  0.373919  0.946492  1
  Fe  Fe6  1  0.000000  0.053567  0.427221  1
  Fe  Fe7  1  0.000000  0.572689  0.626151  1
  Fe  Fe8  1  0.000000  0.879958  0.725121  1
  Fe  Fe9  1  0.000000  0.274894  0.154878  1
  Fe  Fe10  1  0.000000  0.845123  0.120158  1
  Fe  Fe11  1  0.500000  0.952630  0.566561  1
  Fe  Fe12  1  0.500000  0.433456  0.386175  1
  Fe  Fe13  1  0.500000  0.613736  0.047297  1
  P  P14  1  0.000000  0.112969  0.703836  1
  P  P15  1  0.000000  0.296282  0.409034  1
  P  P16  1  0.000000  0.590642  0.886930  1
  P  P17  1  0.500000  0.711719  0.595600  1
  P  P18  1  0.500000  0.404197  0.116069  1
  P  P19  1  0.500000  0.884171  0.288401  1
  P  P20  1  0.000000  0.000136  0.000089  1
