# generated using pymatgen
data_Nd12CdSi4Sn
_symmetry_space_group_name_H-M   'P 1'
_cell_length_a   8.82630151
_cell_length_b   8.82672968
_cell_length_c   8.82661484
_cell_angle_alpha   112.51916055
_cell_angle_beta   110.05630767
_cell_angle_gamma   105.90808731
_symmetry_Int_Tables_number   1
_chemical_formula_structural   Nd12CdSi4Sn
_chemical_formula_sum   'Nd12 Cd1 Si4 Sn1'
_cell_volume   527.56296439
_cell_formula_units_Z   1
loop_
 _symmetry_equiv_pos_site_id
 _symmetry_equiv_pos_as_xyz
  1  'x, y, z'
loop_
 _atom_site_type_symbol
 _atom_site_label
 _atom_site_symmetry_multiplicity
 _atom_site_fract_x
 _atom_site_fract_y
 _atom_site_fract_z
 _atom_site_occupancy
  Nd  Nd0  1  0.444648  0.238760  0.205919  1
  Nd  Nd1  1  0.555352  0.761240  0.794081  1
  Nd  Nd2  1  0.032886  0.238791  0.794128  1
  Nd  Nd3  1  0.967114  0.761209  0.205872  1
  Nd  Nd4  1  0.185380  0.277280  0.462682  1
  Nd  Nd5  1  0.814620  0.722720  0.537318  1
  Nd  Nd6  1  0.185373  0.722693  0.908087  1
  Nd  Nd7  1  0.814627  0.277307  0.091913  1
  Nd  Nd8  1  0.320175  0.613889  0.293704  1
  Nd  Nd9  1  0.679825  0.386111  0.706296  1
  Nd  Nd10  1  0.320159  0.026458  0.706287  1
  Nd  Nd11  1  0.679841  0.973542  0.293713  1
  Cd  Cd12  1  0.000000  0.000000  0.000000  1
  Si  Si13  1  0.371720  0.000007  0.371718  1
  Si  Si14  1  0.628280  0.999993  0.628282  1
  Si  Si15  1  0.112250  0.612252  0.499996  1
  Si  Si16  1  0.887750  0.387748  0.500004  1
  Sn  Sn17  1  0.500000  0.500000  0.000000  1
