# generated using pymatgen
data_Na4Li2AlGaBi4
_symmetry_space_group_name_H-M   'P 1'
_cell_length_a   10.25019898
_cell_length_b   10.25019745
_cell_length_c   6.39124667
_cell_angle_alpha   90.33082710
_cell_angle_beta   89.66916661
_cell_angle_gamma   98.27841504
_symmetry_Int_Tables_number   1
_chemical_formula_structural   Na4Li2AlGaBi4
_chemical_formula_sum   'Na8 Li4 Al2 Ga2 Bi8'
_cell_volume   664.48993051
_cell_formula_units_Z   2
loop_
 _symmetry_equiv_pos_site_id
 _symmetry_equiv_pos_as_xyz
  1  'x, y, z'
loop_
 _atom_site_type_symbol
 _atom_site_label
 _atom_site_symmetry_multiplicity
 _atom_site_fract_x
 _atom_site_fract_y
 _atom_site_fract_z
 _atom_site_occupancy
  Na  Na0  1  0.576531  0.922532  0.245927  1
  Na  Na1  1  0.671076  0.328924  0.221985  1
  Na  Na2  1  0.328924  0.671076  0.778015  1
  Na  Na3  1  0.077468  0.423469  0.245927  1
  Na  Na4  1  0.922532  0.576531  0.754073  1
  Na  Na5  1  0.423469  0.077468  0.754073  1
  Na  Na6  1  0.827774  0.172226  0.730817  1
  Na  Na7  1  0.172226  0.827774  0.269183  1
  Li  Li8  1  0.878787  0.878787  0.500000  1
  Li  Li9  1  0.121213  0.121213  0.500000  1
  Li  Li10  1  0.620750  0.620750  0.000000  1
  Li  Li11  1  0.379250  0.379250  0.000000  1
  Al  Al12  1  0.372948  0.372948  0.500000  1
  Al  Al13  1  0.627052  0.627052  0.500000  1
  Ga  Ga14  1  0.866920  0.866920  0.000000  1
  Ga  Ga15  1  0.133080  0.133080  0.000000  1
  Bi  Bi16  1  0.111534  0.888466  0.775272  1
  Bi  Bi17  1  0.613301  0.386699  0.724482  1
  Bi  Bi18  1  0.888466  0.111534  0.224728  1
  Bi  Bi19  1  0.386699  0.613301  0.275518  1
  Bi  Bi20  1  0.365771  0.139792  0.253833  1
  Bi  Bi21  1  0.139792  0.365771  0.746167  1
  Bi  Bi22  1  0.634229  0.860208  0.746167  1
  Bi  Bi23  1  0.860208  0.634229  0.253833  1
