# generated using pymatgen
data_Tm5Lu5InPb5
_symmetry_space_group_name_H-M   'P 1'
_cell_length_a   6.52992905
_cell_length_b   8.88111308
_cell_length_c   8.91373195
_cell_angle_alpha   120.01635642
_cell_angle_beta   90.00438291
_cell_angle_gamma   89.99311134
_symmetry_Int_Tables_number   1
_chemical_formula_structural   Tm5Lu5InPb5
_chemical_formula_sum   'Tm5 Lu5 In1 Pb5'
_cell_volume   447.60451359
_cell_formula_units_Z   1
loop_
 _symmetry_equiv_pos_site_id
 _symmetry_equiv_pos_as_xyz
  1  'x, y, z'
loop_
 _atom_site_type_symbol
 _atom_site_label
 _atom_site_symmetry_multiplicity
 _atom_site_fract_x
 _atom_site_fract_y
 _atom_site_fract_z
 _atom_site_occupancy
  Tm  Tm0  1  0.750115  0.235830  0.000724  1
  Tm  Tm1  1  0.749980  0.761771  0.768148  1
  Tm  Tm2  1  0.250071  0.765844  0.999163  1
  Tm  Tm3  1  0.250037  0.236465  0.235232  1
  Tm  Tm4  1  0.250049  0.000720  0.764140  1
  Lu  Lu5  1  0.749976  0.994130  0.232222  1
  Lu  Lu6  1  0.502047  0.337135  0.670698  1
  Lu  Lu7  1  0.502160  0.666430  0.329385  1
  Lu  Lu8  1  0.997793  0.666098  0.328960  1
  Lu  Lu9  1  0.997929  0.337195  0.671132  1
  In  In10  1  0.749837  0.601299  0.000240  1
  Pb  Pb11  1  0.750092  0.392524  0.394372  1
  Pb  Pb12  1  0.750028  0.998765  0.605488  1
  Pb  Pb13  1  0.250429  0.397883  0.000056  1
  Pb  Pb14  1  0.249732  0.605354  0.602945  1
  Pb  Pb15  1  0.249723  0.002558  0.397093  1
