# generated using pymatgen
data_Th3Al2GaPd3
_symmetry_space_group_name_H-M   'P 1'
_cell_length_a   7.28498965
_cell_length_b   7.28498976
_cell_length_c   4.20124300
_cell_angle_alpha   90.00000000
_cell_angle_beta   90.00000000
_cell_angle_gamma   119.48124543
_symmetry_Int_Tables_number   1
_chemical_formula_structural   Th3Al2GaPd3
_chemical_formula_sum   'Th3 Al2 Ga1 Pd3'
_cell_volume   194.09433526
_cell_formula_units_Z   1
loop_
 _symmetry_equiv_pos_site_id
 _symmetry_equiv_pos_as_xyz
  1  'x, y, z'
loop_
 _atom_site_type_symbol
 _atom_site_label
 _atom_site_symmetry_multiplicity
 _atom_site_fract_x
 _atom_site_fract_y
 _atom_site_fract_z
 _atom_site_occupancy
  Th  Th0  1  0.423954  0.423954  0.500000  1
  Th  Th1  1  0.580812  0.999051  0.500000  1
  Th  Th2  1  0.999051  0.580812  0.500000  1
  Al  Al3  1  0.233407  0.001770  0.000000  1
  Al  Al4  1  0.001770  0.233407  0.000000  1
  Ga  Ga5  1  0.760807  0.760807  0.000000  1
  Pd  Pd6  1  0.664970  0.326384  0.000000  1
  Pd  Pd7  1  0.326384  0.664970  0.000000  1
  Pd  Pd8  1  0.008846  0.008846  0.500000  1
