# generated using pymatgen
data_VNi5IrW
_symmetry_space_group_name_H-M   'P 1'
_cell_length_a   4.21509500
_cell_length_b   4.49155133
_cell_length_c   5.14450207
_cell_angle_alpha   90.16005215
_cell_angle_beta   90.00000000
_cell_angle_gamma   90.00000000
_symmetry_Int_Tables_number   1
_chemical_formula_structural   VNi5IrW
_chemical_formula_sum   'V1 Ni5 Ir1 W1'
_cell_volume   97.39695667
_cell_formula_units_Z   1
loop_
 _symmetry_equiv_pos_site_id
 _symmetry_equiv_pos_as_xyz
  1  'x, y, z'
loop_
 _atom_site_type_symbol
 _atom_site_label
 _atom_site_symmetry_multiplicity
 _atom_site_fract_x
 _atom_site_fract_y
 _atom_site_fract_z
 _atom_site_occupancy
  V  V0  1  0.000000  0.344705  0.004758  1
  Ni  Ni1  1  0.000000  0.326836  0.491507  1
  Ni  Ni2  1  0.500000  0.661747  0.010683  1
  Ni  Ni3  1  0.500000  0.173371  0.745061  1
  Ni  Ni4  1  0.500000  0.162995  0.242723  1
  Ni  Ni5  1  0.000000  0.836622  0.250932  1
  Ir  Ir6  1  0.000000  0.836682  0.758234  1
  W  W7  1  0.500000  0.657043  0.496101  1
