# generated using pymatgen
data_Er2MnReOs2
_symmetry_space_group_name_H-M   'P 1'
_cell_length_a   5.26733300
_cell_length_b   5.19569788
_cell_length_c   8.77522500
_cell_angle_alpha   90.00000000
_cell_angle_beta   90.00000000
_cell_angle_gamma   119.55113640
_symmetry_Int_Tables_number   1
_chemical_formula_structural   Er2MnReOs2
_chemical_formula_sum   'Er4 Mn2 Re2 Os4'
_cell_volume   208.91526569
_cell_formula_units_Z   2
loop_
 _symmetry_equiv_pos_site_id
 _symmetry_equiv_pos_as_xyz
  1  'x, y, z'
loop_
 _atom_site_type_symbol
 _atom_site_label
 _atom_site_symmetry_multiplicity
 _atom_site_fract_x
 _atom_site_fract_y
 _atom_site_fract_z
 _atom_site_occupancy
  Er  Er0  1  0.332104  0.663196  0.437674  1
  Er  Er1  1  0.667896  0.331091  0.937674  1
  Er  Er2  1  0.667896  0.331091  0.562326  1
  Er  Er3  1  0.332104  0.663196  0.062326  1
  Mn  Mn4  1  0.659580  0.832480  0.750000  1
  Mn  Mn5  1  0.340420  0.172901  0.250000  1
  Re  Re6  1  0.165581  0.831900  0.750000  1
  Re  Re7  1  0.834419  0.666320  0.250000  1
  Os  Os8  1  0.830493  0.181507  0.250000  1
  Os  Os9  1  0.169507  0.351015  0.750000  1
  Os  Os10  1  0.000000  0.987652  0.500000  1
  Os  Os11  1  0.000000  0.987652  0.000000  1
