# generated using pymatgen
data_Ti6PtAuO2
_symmetry_space_group_name_H-M   'P 1'
_cell_length_a   5.89736021
_cell_length_b   5.89736074
_cell_length_c   5.89736076
_cell_angle_alpha   122.10535212
_cell_angle_beta   122.10534534
_cell_angle_gamma   86.39053748
_symmetry_Int_Tables_number   1
_chemical_formula_structural   Ti6PtAuO2
_chemical_formula_sum   'Ti6 Pt1 Au1 O2'
_cell_volume   140.11216979
_cell_formula_units_Z   1
loop_
 _symmetry_equiv_pos_site_id
 _symmetry_equiv_pos_as_xyz
  1  'x, y, z'
loop_
 _atom_site_type_symbol
 _atom_site_label
 _atom_site_symmetry_multiplicity
 _atom_site_fract_x
 _atom_site_fract_y
 _atom_site_fract_z
 _atom_site_occupancy
  Ti  Ti0  1  0.207138  0.707138  0.919111  1
  Ti  Ti1  1  0.711974  0.792862  0.500000  1
  Ti  Ti2  1  0.250000  0.250000  0.000000  1
  Ti  Ti3  1  0.292862  0.211974  0.500000  1
  Ti  Ti4  1  0.788026  0.288026  0.080889  1
  Ti  Ti5  1  0.750000  0.750000  0.000000  1
  Pt  Pt6  1  0.750000  0.250000  0.500000  1
  Au  Au7  1  0.250000  0.750000  0.500000  1
  O  O8  1  0.500000  0.500000  0.000000  1
  O  O9  1  0.000000  0.000000  0.000000  1
