# generated using pymatgen
data_Nd6Mg(GeS7)2
_symmetry_space_group_name_H-M   'P 1'
_cell_length_a   10.23906900
_cell_length_b   10.23906887
_cell_length_c   5.80319700
_cell_angle_alpha   90.00000000
_cell_angle_beta   90.00000000
_cell_angle_gamma   119.99999720
_symmetry_Int_Tables_number   1
_chemical_formula_structural   Nd6Mg(GeS7)2
_chemical_formula_sum   'Nd6 Mg1 Ge2 S14'
_cell_volume   526.88870833
_cell_formula_units_Z   1
loop_
 _symmetry_equiv_pos_site_id
 _symmetry_equiv_pos_as_xyz
  1  'x, y, z'
loop_
 _atom_site_type_symbol
 _atom_site_label
 _atom_site_symmetry_multiplicity
 _atom_site_fract_x
 _atom_site_fract_y
 _atom_site_fract_z
 _atom_site_occupancy
  Nd  Nd0  1  0.642604  0.769211  0.752303  1
  Nd  Nd1  1  0.126608  0.357396  0.752303  1
  Nd  Nd2  1  0.230789  0.873392  0.752303  1
  Nd  Nd3  1  0.356615  0.229994  0.247412  1
  Nd  Nd4  1  0.873378  0.643385  0.247412  1
  Nd  Nd5  1  0.770006  0.126622  0.247412  1
  Mg  Mg6  1  0.000000  0.000000  0.518309  1
  Ge  Ge7  1  0.333333  0.666667  0.169046  1
  Ge  Ge8  1  0.666667  0.333333  0.663298  1
  S  S9  1  0.481612  0.895485  0.012770  1
  S  S10  1  0.413872  0.518388  0.012770  1
  S  S11  1  0.104515  0.586128  0.012770  1
  S  S12  1  0.518774  0.104368  0.508459  1
  S  S13  1  0.585593  0.481226  0.508459  1
  S  S14  1  0.895632  0.414407  0.508459  1
  S  S15  1  0.333333  0.666667  0.547277  1
  S  S16  1  0.666667  0.333333  0.042296  1
  S  S17  1  0.751225  0.841259  0.280891  1
  S  S18  1  0.090034  0.248775  0.280891  1
  S  S19  1  0.158741  0.909966  0.280891  1
  S  S20  1  0.248654  0.161047  0.758770  1
  S  S21  1  0.912393  0.751346  0.758770  1
  S  S22  1  0.838953  0.087607  0.758770  1
