# generated using pymatgen
data_Ca(BiO2)7
_symmetry_space_group_name_H-M   'P 1'
_cell_length_a   6.71096953
_cell_length_b   6.84297717
_cell_length_c   7.90664545
_cell_angle_alpha   106.98813197
_cell_angle_beta   89.35724919
_cell_angle_gamma   99.44802783
_symmetry_Int_Tables_number   1
_chemical_formula_structural   Ca(BiO2)7
_chemical_formula_sum   'Ca1 Bi7 O14'
_cell_volume   342.28290751
_cell_formula_units_Z   1
loop_
 _symmetry_equiv_pos_site_id
 _symmetry_equiv_pos_as_xyz
  1  'x, y, z'
loop_
 _atom_site_type_symbol
 _atom_site_label
 _atom_site_symmetry_multiplicity
 _atom_site_fract_x
 _atom_site_fract_y
 _atom_site_fract_z
 _atom_site_occupancy
  Ca  Ca0  1  0.462950  0.001903  0.251004  1
  Bi  Bi1  1  0.001263  0.000995  0.500943  1
  Bi  Bi2  1  0.533657  0.997645  0.746195  1
  Bi  Bi3  1  0.998539  0.000856  0.000896  1
  Bi  Bi4  1  0.253716  0.524016  0.886334  1
  Bi  Bi5  1  0.733218  0.480382  0.124441  1
  Bi  Bi6  1  0.729867  0.470023  0.604440  1
  Bi  Bi7  1  0.276420  0.524807  0.380314  1
  O  O8  1  0.456413  0.644620  0.175959  1
  O  O9  1  0.532525  0.347542  0.813738  1
  O  O10  1  0.297579  0.937850  0.941357  1
  O  O11  1  0.699451  0.062477  0.039734  1
  O  O12  1  0.293114  0.912656  0.515340  1
  O  O13  1  0.707098  0.086949  0.497267  1
  O  O14  1  0.538858  0.358354  0.353996  1
  O  O15  1  0.471918  0.652773  0.648320  1
  O  O16  1  0.925827  0.675144  0.969901  1
  O  O17  1  0.089568  0.327621  0.044499  1
  O  O18  1  0.098588  0.325400  0.629154  1
  O  O19  1  0.899877  0.673808  0.376900  1
  O  O20  1  0.884872  0.916914  0.729135  1
  O  O21  1  0.114681  0.077267  0.270136  1
