# generated using pymatgen
data_Eu20Zn8Cd3Hg
_symmetry_space_group_name_H-M   'P 1'
_cell_length_a   8.20703700
_cell_length_b   8.20703700
_cell_length_c   15.61683100
_cell_angle_alpha   90.00000000
_cell_angle_beta   90.00000000
_cell_angle_gamma   90.00000000
_symmetry_Int_Tables_number   1
_chemical_formula_structural   Eu20Zn8Cd3Hg
_chemical_formula_sum   'Eu20 Zn8 Cd3 Hg1'
_cell_volume   1051.87877827
_cell_formula_units_Z   1
loop_
 _symmetry_equiv_pos_site_id
 _symmetry_equiv_pos_as_xyz
  1  'x, y, z'
loop_
 _atom_site_type_symbol
 _atom_site_label
 _atom_site_symmetry_multiplicity
 _atom_site_fract_x
 _atom_site_fract_y
 _atom_site_fract_z
 _atom_site_occupancy
  Eu  Eu0  1  0.672285  0.164744  0.103697  1
  Eu  Eu1  1  0.169013  0.668800  0.605975  1
  Eu  Eu2  1  0.327715  0.835256  0.103697  1
  Eu  Eu3  1  0.830987  0.331200  0.605975  1
  Eu  Eu4  1  0.835256  0.672285  0.103697  1
  Eu  Eu5  1  0.331200  0.169013  0.605975  1
  Eu  Eu6  1  0.164744  0.327715  0.103697  1
  Eu  Eu7  1  0.668800  0.830987  0.605975  1
  Eu  Eu8  1  0.835256  0.327715  0.896303  1
  Eu  Eu9  1  0.331200  0.830987  0.394025  1
  Eu  Eu10  1  0.164744  0.672285  0.896303  1
  Eu  Eu11  1  0.668800  0.169013  0.394025  1
  Eu  Eu12  1  0.672285  0.835256  0.896303  1
  Eu  Eu13  1  0.169013  0.331200  0.394025  1
  Eu  Eu14  1  0.327715  0.164744  0.896303  1
  Eu  Eu15  1  0.830987  0.668800  0.394025  1
  Eu  Eu16  1  0.500000  0.500000  0.754936  1
  Eu  Eu17  1  0.000000  0.000000  0.250027  1
  Eu  Eu18  1  0.000000  0.000000  0.749973  1
  Eu  Eu19  1  0.500000  0.500000  0.245064  1
  Zn  Zn20  1  0.617505  0.118398  0.751392  1
  Zn  Zn21  1  0.118398  0.617505  0.248608  1
  Zn  Zn22  1  0.881602  0.382495  0.248608  1
  Zn  Zn23  1  0.382495  0.881602  0.751392  1
  Zn  Zn24  1  0.881602  0.617505  0.751392  1
  Zn  Zn25  1  0.382495  0.118398  0.248608  1
  Zn  Zn26  1  0.118398  0.382495  0.751392  1
  Zn  Zn27  1  0.617505  0.881602  0.248608  1
  Cd  Cd28  1  0.500000  0.500000  0.500000  1
  Cd  Cd29  1  0.500000  0.500000  0.000000  1
  Cd  Cd30  1  0.000000  0.000000  0.500000  1
  Hg  Hg31  1  0.000000  0.000000  0.000000  1
