# generated using pymatgen
data_EuP2OsRu
_symmetry_space_group_name_H-M   'P 1'
_cell_length_a   5.95819754
_cell_length_b   5.95819709
_cell_length_c   5.95819717
_cell_angle_alpha   140.03701162
_cell_angle_beta   140.03700659
_cell_angle_gamma   57.79710796
_symmetry_Int_Tables_number   1
_chemical_formula_structural   EuP2OsRu
_chemical_formula_sum   'Eu1 P2 Os1 Ru1'
_cell_volume   86.49310280
_cell_formula_units_Z   1
loop_
 _symmetry_equiv_pos_site_id
 _symmetry_equiv_pos_as_xyz
  1  'x, y, z'
loop_
 _atom_site_type_symbol
 _atom_site_label
 _atom_site_symmetry_multiplicity
 _atom_site_fract_x
 _atom_site_fract_y
 _atom_site_fract_z
 _atom_site_occupancy
  Eu  Eu0  1  0.000000  0.000000  0.000000  1
  P  P1  1  0.639263  0.639263  0.000000  1
  P  P2  1  0.360737  0.360737  0.000000  1
  Os  Os3  1  0.750000  0.250000  0.500000  1
  Ru  Ru4  1  0.250000  0.750000  0.500000  1
