# generated using pymatgen
data_La5Pr(IrO8)2
_symmetry_space_group_name_H-M   'P 1'
_cell_length_a   7.58543109
_cell_length_b   7.58521183
_cell_length_c   6.29979100
_cell_angle_alpha   90.00000000
_cell_angle_beta   90.00000000
_cell_angle_gamma   109.55146440
_symmetry_Int_Tables_number   1
_chemical_formula_structural   La5Pr(IrO8)2
_chemical_formula_sum   'La5 Pr1 Ir2 O16'
_cell_volume   341.57205931
_cell_formula_units_Z   1
loop_
 _symmetry_equiv_pos_site_id
 _symmetry_equiv_pos_as_xyz
  1  'x, y, z'
loop_
 _atom_site_type_symbol
 _atom_site_label
 _atom_site_symmetry_multiplicity
 _atom_site_fract_x
 _atom_site_fract_y
 _atom_site_fract_z
 _atom_site_occupancy
  La  La0  1  0.893736  0.664893  0.750000  1
  La  La1  1  0.602951  0.396311  0.250000  1
  La  La2  1  0.395940  0.603229  0.750000  1
  La  La3  1  0.334406  0.106237  0.750000  1
  La  La4  1  0.665699  0.894244  0.250000  1
  Pr  Pr5  1  0.106582  0.336389  0.250000  1
  Ir  Ir6  1  0.182914  0.817244  0.250000  1
  Ir  Ir7  1  0.817245  0.182891  0.750000  1
  O  O8  1  0.969419  0.029969  0.750000  1
  O  O9  1  0.031058  0.971040  0.250000  1
  O  O10  1  0.032983  0.410010  0.750000  1
  O  O11  1  0.967554  0.588814  0.250000  1
  O  O12  1  0.660181  0.339158  0.750000  1
  O  O13  1  0.338348  0.659286  0.250000  1
  O  O14  1  0.590445  0.967273  0.750000  1
  O  O15  1  0.410104  0.032707  0.250000  1
  O  O16  1  0.662545  0.662651  0.000118  1
  O  O17  1  0.335804  0.336656  0.499986  1
  O  O18  1  0.335804  0.336656  0.000014  1
  O  O19  1  0.662545  0.662651  0.499882  1
  O  O20  1  0.806846  0.195771  0.054147  1
  O  O21  1  0.195023  0.805074  0.554033  1
  O  O22  1  0.195023  0.805074  0.945967  1
  O  O23  1  0.806846  0.195771  0.445853  1
