# generated using pymatgen
data_Y10In8CoCu3
_symmetry_space_group_name_H-M   'P 1'
_cell_length_a   3.63859300
_cell_length_b   8.11339734
_cell_length_c   18.12979707
_cell_angle_alpha   89.98865299
_cell_angle_beta   90.00000000
_cell_angle_gamma   90.00000000
_symmetry_Int_Tables_number   1
_chemical_formula_structural   Y10In8CoCu3
_chemical_formula_sum   'Y10 In8 Co1 Cu3'
_cell_volume   535.21608824
_cell_formula_units_Z   1
loop_
 _symmetry_equiv_pos_site_id
 _symmetry_equiv_pos_as_xyz
  1  'x, y, z'
loop_
 _atom_site_type_symbol
 _atom_site_label
 _atom_site_symmetry_multiplicity
 _atom_site_fract_x
 _atom_site_fract_y
 _atom_site_fract_z
 _atom_site_occupancy
  Y  Y0  1  0.500000  0.222991  0.776590  1
  Y  Y1  1  0.500000  0.760805  0.219272  1
  Y  Y2  1  0.500000  0.261776  0.281251  1
  Y  Y3  1  0.500000  0.761044  0.718321  1
  Y  Y4  1  0.500000  0.113948  0.589437  1
  Y  Y5  1  0.500000  0.880076  0.417736  1
  Y  Y6  1  0.500000  0.380136  0.082536  1
  Y  Y7  1  0.500000  0.618709  0.915719  1
  Y  Y8  1  0.500000  0.001623  0.998912  1
  Y  Y9  1  0.500000  0.501545  0.501376  1
  In  In10  1  0.000000  0.078150  0.150794  1
  In  In11  1  0.000000  0.923302  0.848038  1
  In  In12  1  0.000000  0.423303  0.652567  1
  In  In13  1  0.000000  0.578766  0.349582  1
  In  In14  1  0.000000  0.206836  0.433054  1
  In  In15  1  0.000000  0.795442  0.570454  1
  In  In16  1  0.000000  0.293111  0.928938  1
  In  In17  1  0.000000  0.707381  0.068100  1
  Co  Co18  1  0.000000  0.020300  0.695862  1
  Cu  Cu19  1  0.000000  0.975325  0.303015  1
  Cu  Cu20  1  0.000000  0.474977  0.197320  1
  Cu  Cu21  1  0.000000  0.520454  0.801128  1
