# generated using pymatgen
data_Li2TbYbPd2
_symmetry_space_group_name_H-M   'P 1'
_cell_length_a   4.17663400
_cell_length_b   7.04150700
_cell_length_c   8.30087400
_cell_angle_alpha   90.00000000
_cell_angle_beta   90.00000000
_cell_angle_gamma   90.00000000
_symmetry_Int_Tables_number   1
_chemical_formula_structural   Li2TbYbPd2
_chemical_formula_sum   'Li4 Tb2 Yb2 Pd4'
_cell_volume   244.12702381
_cell_formula_units_Z   2
loop_
 _symmetry_equiv_pos_site_id
 _symmetry_equiv_pos_as_xyz
  1  'x, y, z'
loop_
 _atom_site_type_symbol
 _atom_site_label
 _atom_site_symmetry_multiplicity
 _atom_site_fract_x
 _atom_site_fract_y
 _atom_site_fract_z
 _atom_site_occupancy
  Li  Li0  1  0.250000  0.135778  0.938049  1
  Li  Li1  1  0.250000  0.635778  0.561951  1
  Li  Li2  1  0.750000  0.864588  0.054932  1
  Li  Li3  1  0.750000  0.364588  0.445068  1
  Tb  Tb4  1  0.250000  0.035620  0.317364  1
  Tb  Tb5  1  0.250000  0.535620  0.182636  1
  Yb  Yb6  1  0.750000  0.966003  0.682073  1
  Yb  Yb7  1  0.750000  0.466003  0.817927  1
  Pd  Pd8  1  0.250000  0.253980  0.616217  1
  Pd  Pd9  1  0.250000  0.753980  0.883783  1
  Pd  Pd10  1  0.750000  0.744032  0.370581  1
  Pd  Pd11  1  0.750000  0.244032  0.129419  1
