# generated using pymatgen
data_Hf10CuSn3GeSb3
_symmetry_space_group_name_H-M   'P 1'
_cell_length_a   8.61207300
_cell_length_b   8.61207362
_cell_length_c   5.79448600
_cell_angle_alpha   90.00000000
_cell_angle_beta   90.00000000
_cell_angle_gamma   119.99999378
_symmetry_Int_Tables_number   1
_chemical_formula_structural   Hf10CuSn3GeSb3
_chemical_formula_sum   'Hf10 Cu1 Sn3 Ge1 Sb3'
_cell_volume   372.18683989
_cell_formula_units_Z   1
loop_
 _symmetry_equiv_pos_site_id
 _symmetry_equiv_pos_as_xyz
  1  'x, y, z'
loop_
 _atom_site_type_symbol
 _atom_site_label
 _atom_site_symmetry_multiplicity
 _atom_site_fract_x
 _atom_site_fract_y
 _atom_site_fract_z
 _atom_site_occupancy
  Hf  Hf0  1  0.666667  0.333333  0.998592  1
  Hf  Hf1  1  0.333333  0.666667  0.998592  1
  Hf  Hf2  1  0.333333  0.666667  0.501872  1
  Hf  Hf3  1  0.666667  0.333333  0.501872  1
  Hf  Hf4  1  0.731896  0.731896  0.752926  1
  Hf  Hf5  1  0.268104  0.000000  0.752926  1
  Hf  Hf6  1  0.000000  0.268104  0.752926  1
  Hf  Hf7  1  0.262024  0.262024  0.248367  1
  Hf  Hf8  1  0.737976  0.000000  0.248367  1
  Hf  Hf9  1  0.000000  0.737976  0.248367  1
  Cu  Cu10  1  0.000000  0.000000  0.989033  1
  Sn  Sn11  1  0.386441  0.386441  0.751451  1
  Sn  Sn12  1  0.613559  0.000000  0.751451  1
  Sn  Sn13  1  0.000000  0.613559  0.751451  1
  Ge  Ge14  1  0.000000  0.000000  0.507522  1
  Sb  Sb15  1  0.608783  0.608783  0.248094  1
  Sb  Sb16  1  0.391217  0.000000  0.248094  1
  Sb  Sb17  1  0.000000  0.391217  0.248094  1
