# generated using pymatgen
data_LiCe2Si4Ag
_symmetry_space_group_name_H-M   'P 1'
_cell_length_a   9.10474155
_cell_length_b   9.10474215
_cell_length_c   4.15183800
_cell_angle_alpha   90.00000000
_cell_angle_beta   90.00000000
_cell_angle_gamma   153.67833537
_symmetry_Int_Tables_number   1
_chemical_formula_structural   LiCe2Si4Ag
_chemical_formula_sum   'Li1 Ce2 Si4 Ag1'
_cell_volume   152.60940213
_cell_formula_units_Z   1
loop_
 _symmetry_equiv_pos_site_id
 _symmetry_equiv_pos_as_xyz
  1  'x, y, z'
loop_
 _atom_site_type_symbol
 _atom_site_label
 _atom_site_symmetry_multiplicity
 _atom_site_fract_x
 _atom_site_fract_y
 _atom_site_fract_z
 _atom_site_occupancy
  Li  Li0  1  0.251098  0.748902  0.250000  1
  Ce  Ce1  1  0.595717  0.404283  0.250000  1
  Ce  Ce2  1  0.404195  0.595805  0.750000  1
  Si  Si3  1  0.968532  0.031468  0.250000  1
  Si  Si4  1  0.031874  0.968126  0.750000  1
  Si  Si5  1  0.837525  0.162475  0.250000  1
  Si  Si6  1  0.162263  0.837737  0.750000  1
  Ag  Ag7  1  0.748796  0.251204  0.750000  1
