# generated using pymatgen
data_Er4LuGaSb2
_symmetry_space_group_name_H-M   'P 1'
_cell_length_a   8.74661014
_cell_length_b   8.74066927
_cell_length_c   6.33428014
_cell_angle_alpha   90.02428109
_cell_angle_beta   89.98786599
_cell_angle_gamma   119.97752294
_symmetry_Int_Tables_number   1
_chemical_formula_structural   Er4LuGaSb2
_chemical_formula_sum   'Er8 Lu2 Ga2 Sb4'
_cell_volume   419.47939869
_cell_formula_units_Z   2
loop_
 _symmetry_equiv_pos_site_id
 _symmetry_equiv_pos_as_xyz
  1  'x, y, z'
loop_
 _atom_site_type_symbol
 _atom_site_label
 _atom_site_symmetry_multiplicity
 _atom_site_fract_x
 _atom_site_fract_y
 _atom_site_fract_z
 _atom_site_occupancy
  Er  Er0  1  0.011501  0.767337  0.750028  1
  Er  Er1  1  0.011501  0.244163  0.249972  1
  Er  Er2  1  0.752702  0.753461  0.249902  1
  Er  Er3  1  0.752702  0.999242  0.750098  1
  Er  Er4  1  0.244196  0.232844  0.750010  1
  Er  Er5  1  0.244196  0.011352  0.249990  1
  Er  Er6  1  0.653002  0.326501  0.500000  1
  Er  Er7  1  0.336171  0.668086  0.000000  1
  Lu  Lu8  1  0.336423  0.668212  0.500000  1
  Lu  Lu9  1  0.652349  0.326175  0.000000  1
  Ga  Ga10  1  0.394700  0.997352  0.750000  1
  Ga  Ga11  1  0.394700  0.397348  0.250000  1
  Sb  Sb12  1  0.998857  0.607390  0.249832  1
  Sb  Sb13  1  0.998857  0.391466  0.750168  1
  Sb  Sb14  1  0.609072  0.607384  0.749963  1
  Sb  Sb15  1  0.609072  0.001687  0.250037  1
