# generated using pymatgen
data_LaPr5WO12
_symmetry_space_group_name_H-M   'P 1'
_cell_length_a   6.79021378
_cell_length_b   6.80346994
_cell_length_c   6.80652485
_cell_angle_alpha   98.65144216
_cell_angle_beta   98.40607024
_cell_angle_gamma   98.40075559
_symmetry_Int_Tables_number   1
_chemical_formula_structural   LaPr5WO12
_chemical_formula_sum   'La1 Pr5 W1 O12'
_cell_volume   302.94777960
_cell_formula_units_Z   1
loop_
 _symmetry_equiv_pos_site_id
 _symmetry_equiv_pos_as_xyz
  1  'x, y, z'
loop_
 _atom_site_type_symbol
 _atom_site_label
 _atom_site_symmetry_multiplicity
 _atom_site_fract_x
 _atom_site_fract_y
 _atom_site_fract_z
 _atom_site_occupancy
  La  La0  1  0.855612  0.691456  0.393042  1
  Pr  Pr1  1  0.144603  0.308752  0.611490  1
  Pr  Pr2  1  0.389387  0.856235  0.691916  1
  Pr  Pr3  1  0.690924  0.388497  0.856169  1
  Pr  Pr4  1  0.308217  0.609791  0.143373  1
  Pr  Pr5  1  0.609799  0.144055  0.308761  1
  W  W6  1  0.000329  0.000251  0.000538  1
  O  O7  1  0.069495  0.287050  0.968852  1
  O  O8  1  0.034682  0.933398  0.714684  1
  O  O9  1  0.407284  0.560396  0.822471  1
  O  O10  1  0.176623  0.592391  0.440287  1
  O  O11  1  0.713765  0.031106  0.930034  1
  O  O12  1  0.440383  0.176821  0.593143  1
  O  O13  1  0.559121  0.821535  0.405925  1
  O  O14  1  0.286629  0.968831  0.070268  1
  O  O15  1  0.822252  0.404501  0.560024  1
  O  O16  1  0.591056  0.438495  0.176865  1
  O  O17  1  0.969289  0.071677  0.285362  1
  O  O18  1  0.930549  0.714761  0.026797  1
