# generated using pymatgen
data_Pr6DyHoAu4
_symmetry_space_group_name_H-M   'P 1'
_cell_length_a   5.05142400
_cell_length_b   7.40018961
_cell_length_c   9.28227513
_cell_angle_alpha   89.83265229
_cell_angle_beta   90.00000000
_cell_angle_gamma   90.00000000
_symmetry_Int_Tables_number   1
_chemical_formula_structural   Pr6DyHoAu4
_chemical_formula_sum   'Pr6 Dy1 Ho1 Au4'
_cell_volume   346.98384531
_cell_formula_units_Z   1
loop_
 _symmetry_equiv_pos_site_id
 _symmetry_equiv_pos_as_xyz
  1  'x, y, z'
loop_
 _atom_site_type_symbol
 _atom_site_label
 _atom_site_symmetry_multiplicity
 _atom_site_fract_x
 _atom_site_fract_y
 _atom_site_fract_z
 _atom_site_occupancy
  Pr  Pr0  1  0.250000  0.489934  0.174917  1
  Pr  Pr1  1  0.750000  0.510437  0.825090  1
  Pr  Pr2  1  0.250000  0.991747  0.323670  1
  Pr  Pr3  1  0.750000  0.008131  0.676234  1
  Pr  Pr4  1  0.750000  0.650285  0.411174  1
  Pr  Pr5  1  0.250000  0.349706  0.588923  1
  Dy  Dy6  1  0.750000  0.148563  0.077423  1
  Ho  Ho7  1  0.250000  0.851456  0.922504  1
  Au  Au8  1  0.250000  0.241158  0.911651  1
  Au  Au9  1  0.750000  0.758517  0.088070  1
  Au  Au10  1  0.250000  0.758309  0.610855  1
  Au  Au11  1  0.750000  0.241757  0.389490  1
