# generated using pymatgen
data_Tb5VSbO12
_symmetry_space_group_name_H-M   'P 1'
_cell_length_a   6.88344582
_cell_length_b   6.88344606
_cell_length_c   7.35406054
_cell_angle_alpha   74.43350758
_cell_angle_beta   74.43350874
_cell_angle_gamma   51.29555831
_symmetry_Int_Tables_number   1
_chemical_formula_structural   Tb5VSbO12
_chemical_formula_sum   'Tb5 V1 Sb1 O12'
_cell_volume   259.59513325
_cell_formula_units_Z   1
loop_
 _symmetry_equiv_pos_site_id
 _symmetry_equiv_pos_as_xyz
  1  'x, y, z'
loop_
 _atom_site_type_symbol
 _atom_site_label
 _atom_site_symmetry_multiplicity
 _atom_site_fract_x
 _atom_site_fract_y
 _atom_site_fract_z
 _atom_site_occupancy
  Tb  Tb0  1  0.307097  0.296746  0.361665  1
  Tb  Tb1  1  0.703254  0.692903  0.638335  1
  Tb  Tb2  1  0.307427  0.305819  0.829399  1
  Tb  Tb3  1  0.694181  0.692573  0.170601  1
  Tb  Tb4  1  0.000693  0.999307  0.500000  1
  V  V5  1  0.751395  0.248605  0.000000  1
  Sb  Sb6  1  0.239066  0.760934  0.000000  1
  O  O7  1  0.895811  0.420752  0.920058  1
  O  O8  1  0.431934  0.901227  0.917147  1
  O  O9  1  0.098773  0.568066  0.082853  1
  O  O10  1  0.579248  0.104189  0.079942  1
  O  O11  1  0.099197  0.592946  0.575872  1
  O  O12  1  0.599223  0.093496  0.575317  1
  O  O13  1  0.906504  0.400777  0.424683  1
  O  O14  1  0.407054  0.900803  0.424128  1
  O  O15  1  0.996115  0.005381  0.814893  1
  O  O16  1  0.994619  0.003885  0.185107  1
  O  O17  1  0.493768  0.505361  0.814509  1
  O  O18  1  0.494639  0.506232  0.185491  1
