# generated using pymatgen
data_Sc4NbGa3Ru8
_symmetry_space_group_name_H-M   'P 1'
_cell_length_a   6.24864801
_cell_length_b   6.25182901
_cell_length_c   6.31678200
_cell_angle_alpha   89.99779352
_cell_angle_beta   89.99787508
_cell_angle_gamma   89.99589317
_symmetry_Int_Tables_number   1
_chemical_formula_structural   Sc4NbGa3Ru8
_chemical_formula_sum   'Sc4 Nb1 Ga3 Ru8'
_cell_volume   246.76811267
_cell_formula_units_Z   1
loop_
 _symmetry_equiv_pos_site_id
 _symmetry_equiv_pos_as_xyz
  1  'x, y, z'
loop_
 _atom_site_type_symbol
 _atom_site_label
 _atom_site_symmetry_multiplicity
 _atom_site_fract_x
 _atom_site_fract_y
 _atom_site_fract_z
 _atom_site_occupancy
  Sc  Sc0  1  0.750069  0.250003  0.000105  1
  Sc  Sc1  1  0.250070  0.749995  0.499899  1
  Sc  Sc2  1  0.749933  0.250008  0.500099  1
  Sc  Sc3  1  0.249955  0.749992  0.999905  1
  Nb  Nb4  1  0.749971  0.750000  0.999756  1
  Ga  Ga5  1  0.250018  0.250005  0.000211  1
  Ga  Ga6  1  0.750012  0.749997  0.499799  1
  Ga  Ga7  1  0.249982  0.250004  0.500212  1
  Ru  Ru8  1  0.499048  0.000947  0.249534  1
  Ru  Ru9  1  0.499052  0.499060  0.249527  1
  Ru  Ru10  1  0.000960  0.000950  0.249606  1
  Ru  Ru11  1  0.000954  0.499058  0.249602  1
  Ru  Ru12  1  0.000954  0.000944  0.750411  1
  Ru  Ru13  1  0.000963  0.499047  0.750402  1
  Ru  Ru14  1  0.499034  0.000952  0.750470  1
  Ru  Ru15  1  0.499028  0.499040  0.750469  1
