# generated using pymatgen
data_ErLu3CdPt
_symmetry_space_group_name_H-M   'P 1'
_cell_length_a   9.52170441
_cell_length_b   9.51377644
_cell_length_c   9.51377602
_cell_angle_alpha   60.05513273
_cell_angle_beta   59.97243142
_cell_angle_gamma   59.97243632
_symmetry_Int_Tables_number   1
_chemical_formula_structural   ErLu3CdPt
_chemical_formula_sum   'Er4 Lu12 Cd4 Pt4'
_cell_volume   609.40352249
_cell_formula_units_Z   4
loop_
 _symmetry_equiv_pos_site_id
 _symmetry_equiv_pos_as_xyz
  1  'x, y, z'
loop_
 _atom_site_type_symbol
 _atom_site_label
 _atom_site_symmetry_multiplicity
 _atom_site_fract_x
 _atom_site_fract_y
 _atom_site_fract_z
 _atom_site_occupancy
  Er  Er0  1  0.814735  0.185265  0.814735  1
  Er  Er1  1  0.185265  0.814735  0.185265  1
  Er  Er2  1  0.814735  0.814735  0.185265  1
  Er  Er3  1  0.185265  0.185265  0.814735  1
  Lu  Lu4  1  0.602285  0.602548  0.602548  1
  Lu  Lu5  1  0.602548  0.602285  0.192618  1
  Lu  Lu6  1  0.602548  0.192618  0.602285  1
  Lu  Lu7  1  0.192618  0.602548  0.602548  1
  Lu  Lu8  1  0.060709  0.439291  0.439291  1
  Lu  Lu9  1  0.439291  0.060709  0.060709  1
  Lu  Lu10  1  0.439228  0.060772  0.439228  1
  Lu  Lu11  1  0.060772  0.439228  0.060772  1
  Lu  Lu12  1  0.439228  0.439228  0.060772  1
  Lu  Lu13  1  0.060772  0.060772  0.439228  1
  Lu  Lu14  1  0.186570  0.813430  0.813430  1
  Lu  Lu15  1  0.813430  0.186570  0.186570  1
  Cd  Cd16  1  0.832433  0.831610  0.831610  1
  Cd  Cd17  1  0.831610  0.832433  0.504349  1
  Cd  Cd18  1  0.831610  0.504349  0.832433  1
  Cd  Cd19  1  0.504349  0.831610  0.831610  1
  Pt  Pt20  1  0.393619  0.393000  0.393000  1
  Pt  Pt21  1  0.393000  0.393619  0.820380  1
  Pt  Pt22  1  0.393000  0.820380  0.393619  1
  Pt  Pt23  1  0.820380  0.393000  0.393000  1
