# generated using pymatgen
data_Ti6Zn6RuRh11
_symmetry_space_group_name_H-M   'P 1'
_cell_length_a   4.33471300
_cell_length_b   6.10664800
_cell_length_c   12.94144900
_cell_angle_alpha   90.00000000
_cell_angle_beta   90.00044607
_cell_angle_gamma   90.00000000
_symmetry_Int_Tables_number   1
_chemical_formula_structural   Ti6Zn6RuRh11
_chemical_formula_sum   'Ti6 Zn6 Ru1 Rh11'
_cell_volume   342.56748599
_cell_formula_units_Z   1
loop_
 _symmetry_equiv_pos_site_id
 _symmetry_equiv_pos_as_xyz
  1  'x, y, z'
loop_
 _atom_site_type_symbol
 _atom_site_label
 _atom_site_symmetry_multiplicity
 _atom_site_fract_x
 _atom_site_fract_y
 _atom_site_fract_z
 _atom_site_occupancy
  Ti  Ti0  1  0.000000  0.003972  0.000000  1
  Ti  Ti1  1  0.499861  0.498528  0.164108  1
  Ti  Ti2  1  0.999861  0.998737  0.332884  1
  Ti  Ti3  1  0.500000  0.501211  0.500000  1
  Ti  Ti4  1  0.000139  0.998737  0.667117  1
  Ti  Ti5  1  0.500139  0.498528  0.835892  1
  Zn  Zn6  1  0.000000  0.500219  0.000000  1
  Zn  Zn7  1  0.499765  0.999809  0.166338  1
  Zn  Zn8  1  0.999760  0.500276  0.333292  1
  Zn  Zn9  1  0.500000  0.999573  0.500000  1
  Zn  Zn10  1  0.000240  0.500276  0.666709  1
  Zn  Zn11  1  0.500235  0.999809  0.833661  1
  Ru  Ru12  1  0.500000  0.250600  0.000000  1
  Rh  Rh13  1  0.500000  0.749268  0.000000  1
  Rh  Rh14  1  0.999806  0.250013  0.167030  1
  Rh  Rh15  1  0.999803  0.750028  0.167421  1
  Rh  Rh16  1  0.499800  0.249522  0.333809  1
  Rh  Rh17  1  0.499797  0.750584  0.333811  1
  Rh  Rh18  1  0.000000  0.250490  0.500000  1
  Rh  Rh19  1  0.000000  0.749673  0.500000  1
  Rh  Rh20  1  0.500200  0.249522  0.666192  1
  Rh  Rh21  1  0.500203  0.750584  0.666190  1
  Rh  Rh22  1  0.000194  0.250013  0.832969  1
  Rh  Rh23  1  0.000197  0.750028  0.832578  1
