# generated using pymatgen
data_CeZnCu3Ag
_symmetry_space_group_name_H-M   'P 1'
_cell_length_a   5.16908186
_cell_length_b   5.16908262
_cell_length_c   5.14817433
_cell_angle_alpha   59.86555728
_cell_angle_beta   59.86555144
_cell_angle_gamma   59.99999129
_symmetry_Int_Tables_number   1
_chemical_formula_structural   CeZnCu3Ag
_chemical_formula_sum   'Ce1 Zn1 Cu3 Ag1'
_cell_volume   97.06877677
_cell_formula_units_Z   1
loop_
 _symmetry_equiv_pos_site_id
 _symmetry_equiv_pos_as_xyz
  1  'x, y, z'
loop_
 _atom_site_type_symbol
 _atom_site_label
 _atom_site_symmetry_multiplicity
 _atom_site_fract_x
 _atom_site_fract_y
 _atom_site_fract_z
 _atom_site_occupancy
  Ce  Ce0  1  0.248369  0.248369  0.254892  1
  Zn  Zn1  1  0.628099  0.628099  0.115704  1
  Cu  Cu2  1  0.626840  0.120951  0.625368  1
  Cu  Cu3  1  0.120951  0.626840  0.625368  1
  Cu  Cu4  1  0.626840  0.626840  0.625368  1
  Ag  Ag5  1  0.998900  0.998900  0.003301  1
