# generated using pymatgen
data_TbDy3Er8(GaCo2)2
_symmetry_space_group_name_H-M   'P 1'
_cell_length_a   8.21894173
_cell_length_b   8.21894250
_cell_length_c   8.20414854
_cell_angle_alpha   106.85537767
_cell_angle_beta   109.33853530
_cell_angle_gamma   112.33443117
_symmetry_Int_Tables_number   1
_chemical_formula_structural   TbDy3Er8(GaCo2)2
_chemical_formula_sum   'Tb1 Dy3 Er8 Ga2 Co4'
_cell_volume   425.28348221
_cell_formula_units_Z   1
loop_
 _symmetry_equiv_pos_site_id
 _symmetry_equiv_pos_as_xyz
  1  'x, y, z'
loop_
 _atom_site_type_symbol
 _atom_site_label
 _atom_site_symmetry_multiplicity
 _atom_site_fract_x
 _atom_site_fract_y
 _atom_site_fract_z
 _atom_site_occupancy
  Tb  Tb0  1  0.696731  0.262345  0.959076  1
  Dy  Dy1  1  0.301397  0.739395  0.040792  1
  Dy  Dy2  1  0.697482  0.739464  0.436947  1
  Dy  Dy3  1  0.302142  0.260223  0.562365  1
  Er  Er4  1  0.811899  0.138650  0.327372  1
  Er  Er5  1  0.811332  0.484066  0.671767  1
  Er  Er6  1  0.187701  0.860435  0.671767  1
  Er  Er7  1  0.188722  0.515473  0.327372  1
  Er  Er8  1  0.601618  0.781178  0.820728  1
  Er  Er9  1  0.960248  0.780594  0.179315  1
  Er  Er10  1  0.039551  0.219109  0.820728  1
  Er  Er11  1  0.398721  0.219067  0.179315  1
  Ga  Ga12  1  0.497933  0.501214  0.999147  1
  Ga  Ga13  1  0.499084  0.999642  0.498725  1
  Co  Co14  1  0.839595  0.500234  0.339829  1
  Co  Co15  1  0.163884  0.499810  0.663695  1
  Co  Co16  1  0.003575  0.115092  0.118666  1
  Co  Co17  1  0.998381  0.884011  0.882393  1
