# generated using pymatgen
data_CaNdNi2(As2Pd)2
_symmetry_space_group_name_H-M   'P 1'
_cell_length_a   4.29550100
_cell_length_b   4.29550100
_cell_length_c   9.73599400
_cell_angle_alpha   90.00000000
_cell_angle_beta   90.00000000
_cell_angle_gamma   90.00000000
_symmetry_Int_Tables_number   1
_chemical_formula_structural   CaNdNi2(As2Pd)2
_chemical_formula_sum   'Ca1 Nd1 Ni2 As4 Pd2'
_cell_volume   179.64202689
_cell_formula_units_Z   1
loop_
 _symmetry_equiv_pos_site_id
 _symmetry_equiv_pos_as_xyz
  1  'x, y, z'
loop_
 _atom_site_type_symbol
 _atom_site_label
 _atom_site_symmetry_multiplicity
 _atom_site_fract_x
 _atom_site_fract_y
 _atom_site_fract_z
 _atom_site_occupancy
  Ca  Ca0  1  0.500000  0.000000  0.744645  1
  Nd  Nd1  1  0.000000  0.500000  0.260144  1
  Ni  Ni2  1  0.500000  0.000000  0.385897  1
  Ni  Ni3  1  0.000000  0.500000  0.611173  1
  As  As4  1  0.500000  0.000000  0.145803  1
  As  As5  1  0.000000  0.500000  0.850803  1
  As  As6  1  0.500000  0.500000  0.501641  1
  As  As7  1  0.000000  0.000000  0.501641  1
  Pd  Pd8  1  0.500000  0.500000  0.999126  1
  Pd  Pd9  1  0.000000  0.000000  0.999126  1
