# generated using pymatgen
data_LiTb6Cd5Hg12
_symmetry_space_group_name_H-M   'P 1'
_cell_length_a   5.11637784
_cell_length_b   7.09546200
_cell_length_c   15.54603200
_cell_angle_alpha   90.00000000
_cell_angle_beta   90.51768030
_cell_angle_gamma   90.00000000
_symmetry_Int_Tables_number   1
_chemical_formula_structural   LiTb6Cd5Hg12
_chemical_formula_sum   'Li1 Tb6 Cd5 Hg12'
_cell_volume   564.34556669
_cell_formula_units_Z   1
loop_
 _symmetry_equiv_pos_site_id
 _symmetry_equiv_pos_as_xyz
  1  'x, y, z'
loop_
 _atom_site_type_symbol
 _atom_site_label
 _atom_site_symmetry_multiplicity
 _atom_site_fract_x
 _atom_site_fract_y
 _atom_site_fract_z
 _atom_site_occupancy
  Li  Li0  1  0.000000  0.500000  0.000000  1
  Tb  Tb1  1  0.000000  0.000000  0.000000  1
  Tb  Tb2  1  0.499933  0.500000  0.170524  1
  Tb  Tb3  1  0.999689  0.000000  0.332841  1
  Tb  Tb4  1  0.500000  0.500000  0.500000  1
  Tb  Tb5  1  0.000311  0.000000  0.667158  1
  Tb  Tb6  1  0.500067  0.500000  0.829476  1
  Cd  Cd7  1  0.499855  0.000000  0.166664  1
  Cd  Cd8  1  0.999866  0.500000  0.331746  1
  Cd  Cd9  1  0.500000  0.000000  0.500000  1
  Cd  Cd10  1  0.000134  0.500000  0.668254  1
  Cd  Cd11  1  0.500145  0.000000  0.833336  1
  Hg  Hg12  1  0.500000  0.266787  0.000000  1
  Hg  Hg13  1  0.500000  0.733212  0.000000  1
  Hg  Hg14  1  0.999660  0.255252  0.159162  1
  Hg  Hg15  1  0.999660  0.744749  0.159162  1
  Hg  Hg16  1  0.499632  0.248665  0.334284  1
  Hg  Hg17  1  0.499632  0.751336  0.334284  1
  Hg  Hg18  1  0.000000  0.247629  0.500000  1
  Hg  Hg19  1  0.000000  0.752372  0.500000  1
  Hg  Hg20  1  0.500368  0.248665  0.665716  1
  Hg  Hg21  1  0.500368  0.751336  0.665716  1
  Hg  Hg22  1  0.000340  0.255252  0.840838  1
  Hg  Hg23  1  0.000340  0.744749  0.840838  1
