# generated using pymatgen
data_Gd6PbO12
_symmetry_space_group_name_H-M   'P 1'
_cell_length_a   6.65515710
_cell_length_b   6.65515780
_cell_length_c   6.65515753
_cell_angle_alpha   99.22481570
_cell_angle_beta   99.22481572
_cell_angle_gamma   99.22482381
_symmetry_Int_Tables_number   1
_chemical_formula_structural   Gd6PbO12
_chemical_formula_sum   'Gd6 Pb1 O12'
_cell_volume   281.90692875
_cell_formula_units_Z   1
loop_
 _symmetry_equiv_pos_site_id
 _symmetry_equiv_pos_as_xyz
  1  'x, y, z'
loop_
 _atom_site_type_symbol
 _atom_site_label
 _atom_site_symmetry_multiplicity
 _atom_site_fract_x
 _atom_site_fract_y
 _atom_site_fract_z
 _atom_site_occupancy
  Gd  Gd0  1  0.862509  0.394195  0.700030  1
  Gd  Gd1  1  0.605805  0.299970  0.137491  1
  Gd  Gd2  1  0.299970  0.137491  0.605805  1
  Gd  Gd3  1  0.700030  0.862509  0.394195  1
  Gd  Gd4  1  0.394195  0.700030  0.862509  1
  Gd  Gd5  1  0.137491  0.605805  0.299970  1
  Pb  Pb6  1  0.000000  0.000000  0.000000  1
  O  O7  1  0.931945  0.057911  0.681527  1
  O  O8  1  0.942089  0.318473  0.068055  1
  O  O9  1  0.585178  0.178126  0.434874  1
  O  O10  1  0.821874  0.565126  0.414822  1
  O  O11  1  0.318473  0.068055  0.942089  1
  O  O12  1  0.565126  0.414822  0.821874  1
  O  O13  1  0.434874  0.585178  0.178126  1
  O  O14  1  0.681527  0.931945  0.057911  1
  O  O15  1  0.178126  0.434874  0.585178  1
  O  O16  1  0.414822  0.821874  0.565126  1
  O  O17  1  0.057911  0.681527  0.931945  1
  O  O18  1  0.068055  0.942089  0.318473  1
