# generated using pymatgen
data_Y7Er3Ru3Rh
_symmetry_space_group_name_H-M   'P 1'
_cell_length_a   6.35499931
_cell_length_b   7.31827483
_cell_length_c   8.48053288
_cell_angle_alpha   96.87881376
_cell_angle_beta   111.71150041
_cell_angle_gamma   89.98156290
_symmetry_Int_Tables_number   1
_chemical_formula_structural   Y7Er3Ru3Rh
_chemical_formula_sum   'Y7 Er3 Ru3 Rh1'
_cell_volume   363.37788772
_cell_formula_units_Z   1
loop_
 _symmetry_equiv_pos_site_id
 _symmetry_equiv_pos_as_xyz
  1  'x, y, z'
loop_
 _atom_site_type_symbol
 _atom_site_label
 _atom_site_symmetry_multiplicity
 _atom_site_fract_x
 _atom_site_fract_y
 _atom_site_fract_z
 _atom_site_occupancy
  Y  Y0  1  0.793375  0.581265  0.814862  1
  Y  Y1  1  0.980000  0.915667  0.189159  1
  Y  Y2  1  0.208221  0.415412  0.186590  1
  Y  Y3  1  0.025397  0.085968  0.814460  1
  Y  Y4  1  0.203471  0.683390  0.564174  1
  Y  Y5  1  0.641860  0.814898  0.431838  1
  Y  Y6  1  0.793430  0.314157  0.434181  1
  Er  Er7  1  0.357828  0.186405  0.564957  1
  Er  Er8  1  0.420450  0.749053  0.001048  1
  Er  Er9  1  0.578414  0.252197  0.001115  1
  Ru  Ru10  1  0.818889  0.575883  0.215941  1
  Ru  Ru11  1  0.397160  0.074699  0.219901  1
  Ru  Ru12  1  0.183226  0.423991  0.781139  1
  Rh  Rh13  1  0.598282  0.927018  0.780636  1
