# generated using pymatgen
data_Yb2Lu2Ir3RuO14
_symmetry_space_group_name_H-M   'P 1'
_cell_length_a   7.18082248
_cell_length_b   7.17579052
_cell_length_c   7.17578999
_cell_angle_alpha   60.02312380
_cell_angle_beta   60.21965059
_cell_angle_gamma   60.21964108
_symmetry_Int_Tables_number   1
_chemical_formula_structural   Yb2Lu2Ir3RuO14
_chemical_formula_sum   'Yb2 Lu2 Ir3 Ru1 O14'
_cell_volume   262.36680539
_cell_formula_units_Z   1
loop_
 _symmetry_equiv_pos_site_id
 _symmetry_equiv_pos_as_xyz
  1  'x, y, z'
loop_
 _atom_site_type_symbol
 _atom_site_label
 _atom_site_symmetry_multiplicity
 _atom_site_fract_x
 _atom_site_fract_y
 _atom_site_fract_z
 _atom_site_occupancy
  Yb  Yb0  1  0.125000  0.125000  0.625000  1
  Yb  Yb1  1  0.125000  0.625000  0.125000  1
  Lu  Lu2  1  0.125000  0.125000  0.125000  1
  Lu  Lu3  1  0.625000  0.125000  0.125000  1
  Ir  Ir4  1  0.625000  0.625000  0.625000  1
  Ir  Ir5  1  0.625000  0.125000  0.625000  1
  Ir  Ir6  1  0.625000  0.625000  0.125000  1
  Ru  Ru7  1  0.125000  0.625000  0.625000  1
  O  O8  1  0.549214  0.533019  0.959599  1
  O  O9  1  0.955288  0.536859  0.956905  1
  O  O10  1  0.294712  0.293095  0.713141  1
  O  O11  1  0.990220  0.009780  0.009780  1
  O  O12  1  0.296844  0.703228  0.703228  1
  O  O13  1  0.700786  0.716981  0.290401  1
  O  O14  1  0.710088  0.290695  0.290695  1
  O  O15  1  0.549214  0.959599  0.533019  1
  O  O16  1  0.700786  0.290401  0.716981  1
  O  O17  1  0.539912  0.959305  0.959305  1
  O  O18  1  0.955288  0.956905  0.536859  1
  O  O19  1  0.259780  0.240220  0.240220  1
  O  O20  1  0.294712  0.713141  0.293095  1
  O  O21  1  0.953156  0.546772  0.546772  1
