# generated using pymatgen
data_La12In2CoCuTc2
_symmetry_space_group_name_H-M   'P 1'
_cell_length_a   8.89478876
_cell_length_b   8.89478843
_cell_length_c   8.89478890
_cell_angle_alpha   113.56027575
_cell_angle_beta   110.39090223
_cell_angle_gamma   104.58779964
_symmetry_Int_Tables_number   1
_chemical_formula_structural   La12In2CoCuTc2
_chemical_formula_sum   'La12 In2 Co1 Cu1 Tc2'
_cell_volume   538.36204934
_cell_formula_units_Z   1
loop_
 _symmetry_equiv_pos_site_id
 _symmetry_equiv_pos_as_xyz
  1  'x, y, z'
loop_
 _atom_site_type_symbol
 _atom_site_label
 _atom_site_symmetry_multiplicity
 _atom_site_fract_x
 _atom_site_fract_y
 _atom_site_fract_z
 _atom_site_occupancy
  La  La0  1  0.430992  0.231022  0.199970  1
  La  La1  1  0.563031  0.765434  0.797598  1
  La  La2  1  0.031050  0.231022  0.800030  1
  La  La3  1  0.967836  0.765434  0.202402  1
  La  La4  1  0.176962  0.281394  0.469373  1
  La  La5  1  0.812023  0.707590  0.530627  1
  La  La6  1  0.176962  0.707590  0.895568  1
  La  La7  1  0.812023  0.281394  0.104432  1
  La  La8  1  0.341288  0.652096  0.310809  1
  La  La9  1  0.675434  0.358684  0.683250  1
  La  La10  1  0.341288  0.030479  0.689191  1
  La  La11  1  0.675434  0.992183  0.316750  1
  In  In12  1  0.501699  0.501699  0.000000  1
  In  In13  1  0.995741  0.995741  0.000000  1
  Co  Co14  1  0.887342  0.387342  0.500000  1
  Cu  Cu15  1  0.116496  0.616496  0.500000  1
  Tc  Tc16  1  0.321388  0.997201  0.324188  1
  Tc  Tc17  1  0.673013  0.997201  0.675812  1
