# generated using pymatgen
data_Dy10Sn5PbSe2
_symmetry_space_group_name_H-M   'P 1'
_cell_length_a   9.15058100
_cell_length_b   9.15058120
_cell_length_c   6.71071200
_cell_angle_alpha   90.00000000
_cell_angle_beta   90.00000000
_cell_angle_gamma   120.11221224
_symmetry_Int_Tables_number   1
_chemical_formula_structural   Dy10Sn5PbSe2
_chemical_formula_sum   'Dy10 Sn5 Pb1 Se2'
_cell_volume   486.07625069
_cell_formula_units_Z   1
loop_
 _symmetry_equiv_pos_site_id
 _symmetry_equiv_pos_as_xyz
  1  'x, y, z'
loop_
 _atom_site_type_symbol
 _atom_site_label
 _atom_site_symmetry_multiplicity
 _atom_site_fract_x
 _atom_site_fract_y
 _atom_site_fract_z
 _atom_site_occupancy
  Dy  Dy0  1  0.668807  0.332799  0.001179  1
  Dy  Dy1  1  0.332799  0.668807  0.001179  1
  Dy  Dy2  1  0.332799  0.668807  0.498821  1
  Dy  Dy3  1  0.668807  0.332799  0.498821  1
  Dy  Dy4  1  0.748920  0.748920  0.750000  1
  Dy  Dy5  1  0.251444  0.996419  0.750000  1
  Dy  Dy6  1  0.996419  0.251444  0.750000  1
  Dy  Dy7  1  0.252554  0.252554  0.250000  1
  Dy  Dy8  1  0.747227  0.999782  0.250000  1
  Dy  Dy9  1  0.999782  0.747227  0.250000  1
  Sn  Sn10  1  0.603314  0.999723  0.750000  1
  Sn  Sn11  1  0.999723  0.603314  0.750000  1
  Sn  Sn12  1  0.603862  0.603862  0.250000  1
  Sn  Sn13  1  0.396296  0.000511  0.250000  1
  Sn  Sn14  1  0.000511  0.396296  0.250000  1
  Pb  Pb15  1  0.395466  0.395466  0.750000  1
  Se  Se16  1  0.000636  0.000636  0.999914  1
  Se  Se17  1  0.000636  0.000636  0.500086  1
