# generated using pymatgen
data_Dy2Y8Cd3Tc
_symmetry_space_group_name_H-M   'P 1'
_cell_length_a   9.60630980
_cell_length_b   9.60630830
_cell_length_c   9.97027387
_cell_angle_alpha   90.04140436
_cell_angle_beta   89.95859735
_cell_angle_gamma   120.02202875
_symmetry_Int_Tables_number   1
_chemical_formula_structural   Dy2Y8Cd3Tc
_chemical_formula_sum   'Dy4 Y16 Cd6 Tc2'
_cell_volume   796.62555050
_cell_formula_units_Z   2
loop_
 _symmetry_equiv_pos_site_id
 _symmetry_equiv_pos_as_xyz
  1  'x, y, z'
loop_
 _atom_site_type_symbol
 _atom_site_label
 _atom_site_symmetry_multiplicity
 _atom_site_fract_x
 _atom_site_fract_y
 _atom_site_fract_z
 _atom_site_occupancy
  Dy  Dy0  1  0.210040  0.789960  0.440899  1
  Dy  Dy1  1  0.209943  0.420211  0.440946  1
  Dy  Dy2  1  0.579789  0.790057  0.440946  1
  Dy  Dy3  1  0.789900  0.210100  0.559428  1
  Y  Y4  1  0.999745  0.000255  0.499817  1
  Y  Y5  1  0.999967  0.000033  0.999815  1
  Y  Y6  1  0.790172  0.580305  0.558542  1
  Y  Y7  1  0.419695  0.209828  0.558542  1
  Y  Y8  1  0.790237  0.209763  0.941204  1
  Y  Y9  1  0.790148  0.580431  0.941319  1
  Y  Y10  1  0.419569  0.209852  0.941319  1
  Y  Y11  1  0.209800  0.790200  0.058610  1
  Y  Y12  1  0.209755  0.419539  0.058635  1
  Y  Y13  1  0.580461  0.790245  0.058635  1
  Y  Y14  1  0.539765  0.460235  0.249990  1
  Y  Y15  1  0.539896  0.079747  0.250130  1
  Y  Y16  1  0.920253  0.460104  0.250130  1
  Y  Y17  1  0.460271  0.539729  0.749992  1
  Y  Y18  1  0.460428  0.920665  0.749741  1
  Y  Y19  1  0.079335  0.539572  0.749741  1
  Cd  Cd20  1  0.885640  0.114360  0.249887  1
  Cd  Cd21  1  0.885728  0.771255  0.249997  1
  Cd  Cd22  1  0.228745  0.114272  0.249997  1
  Cd  Cd23  1  0.114362  0.885638  0.750030  1
  Cd  Cd24  1  0.114387  0.228713  0.750175  1
  Cd  Cd25  1  0.771287  0.885613  0.750175  1
  Tc  Tc26  1  0.333449  0.666551  0.252336  1
  Tc  Tc27  1  0.667236  0.332764  0.749023  1
