# generated using pymatgen
data_YNp3Ga12Pd
_symmetry_space_group_name_H-M   'P 1'
_cell_length_a   7.47219245
_cell_length_b   7.52638048
_cell_length_c   7.47219258
_cell_angle_alpha   109.61818419
_cell_angle_beta   109.32385356
_cell_angle_gamma   109.61819393
_symmetry_Int_Tables_number   1
_chemical_formula_structural   YNp3Ga12Pd
_chemical_formula_sum   'Y1 Np3 Ga12 Pd1'
_cell_volume   322.90104251
_cell_formula_units_Z   1
loop_
 _symmetry_equiv_pos_site_id
 _symmetry_equiv_pos_as_xyz
  1  'x, y, z'
loop_
 _atom_site_type_symbol
 _atom_site_label
 _atom_site_symmetry_multiplicity
 _atom_site_fract_x
 _atom_site_fract_y
 _atom_site_fract_z
 _atom_site_occupancy
  Y  Y0  1  0.000000  0.500000  0.000000  1
  Np  Np1  1  0.500000  0.500000  0.500000  1
  Np  Np2  1  0.000000  0.000000  0.500000  1
  Np  Np3  1  0.500000  0.000000  0.000000  1
  Ga  Ga4  1  0.749646  0.500000  0.250354  1
  Ga  Ga5  1  0.500708  0.750354  0.250354  1
  Ga  Ga6  1  0.499292  0.249646  0.749646  1
  Ga  Ga7  1  0.749646  0.249646  0.499292  1
  Ga  Ga8  1  0.250354  0.750354  0.500708  1
  Ga  Ga9  1  0.250354  0.500000  0.749646  1
  Ga  Ga10  1  0.295984  0.001826  0.295984  1
  Ga  Ga11  1  0.000000  0.294159  0.295984  1
  Ga  Ga12  1  0.000000  0.705841  0.704016  1
  Ga  Ga13  1  0.295984  0.294159  0.000000  1
  Ga  Ga14  1  0.704016  0.705841  0.000000  1
  Ga  Ga15  1  0.704016  0.998174  0.704016  1
  Pd  Pd16  1  0.000000  0.000000  0.000000  1
