# generated using pymatgen
data_Tb3Pa(InNi2)2
_symmetry_space_group_name_H-M   'P 1'
_cell_length_a   7.47827857
_cell_length_b   7.47827857
_cell_length_c   3.59997400
_cell_angle_alpha   90.00000000
_cell_angle_beta   90.00000000
_cell_angle_gamma   92.33957899
_symmetry_Int_Tables_number   1
_chemical_formula_structural   Tb3Pa(InNi2)2
_chemical_formula_sum   'Tb3 Pa1 In2 Ni4'
_cell_volume   201.15946786
_cell_formula_units_Z   1
loop_
 _symmetry_equiv_pos_site_id
 _symmetry_equiv_pos_as_xyz
  1  'x, y, z'
loop_
 _atom_site_type_symbol
 _atom_site_label
 _atom_site_symmetry_multiplicity
 _atom_site_fract_x
 _atom_site_fract_y
 _atom_site_fract_z
 _atom_site_occupancy
  Tb  Tb0  1  0.323466  0.823466  0.500000  1
  Tb  Tb1  1  0.175268  0.329220  0.500000  1
  Tb  Tb2  1  0.829220  0.675268  0.500000  1
  Pa  Pa3  1  0.671350  0.171350  0.500000  1
  In  In4  1  0.499959  0.504556  0.000000  1
  In  In5  1  0.004556  0.999959  0.000000  1
  Ni  Ni6  1  0.110270  0.610270  0.000000  1
  Ni  Ni7  1  0.858116  0.358116  0.000000  1
  Ni  Ni8  1  0.630296  0.897499  0.000000  1
  Ni  Ni9  1  0.397499  0.130296  0.000000  1
