# generated using pymatgen
data_Na3Yb2PdO6
_symmetry_space_group_name_H-M   'P 1'
_cell_length_a   10.62400802
_cell_length_b   10.09207029
_cell_length_c   5.63240300
_cell_angle_alpha   79.50677704
_cell_angle_beta   69.07428750
_cell_angle_gamma   31.41894810
_symmetry_Int_Tables_number   1
_chemical_formula_structural   Na3Yb2PdO6
_chemical_formula_sum   'Na6 Yb4 Pd2 O12'
_cell_volume   284.55814243
_cell_formula_units_Z   2
loop_
 _symmetry_equiv_pos_site_id
 _symmetry_equiv_pos_as_xyz
  1  'x, y, z'
loop_
 _atom_site_type_symbol
 _atom_site_label
 _atom_site_symmetry_multiplicity
 _atom_site_fract_x
 _atom_site_fract_y
 _atom_site_fract_z
 _atom_site_occupancy
  Na  Na0  1  0.000000  0.000000  0.000000  1
  Na  Na1  1  0.087007  0.087007  0.412993  1
  Na  Na2  1  0.837007  0.837007  0.162993  1
  Na  Na3  1  0.162993  0.162993  0.837007  1
  Na  Na4  1  0.250000  0.250000  0.250000  1
  Na  Na5  1  0.412993  0.412993  0.087007  1
  Yb  Yb6  1  0.580699  0.580699  0.919301  1
  Yb  Yb7  1  0.919301  0.919301  0.580699  1
  Yb  Yb8  1  0.669301  0.669301  0.330699  1
  Yb  Yb9  1  0.330699  0.330699  0.669301  1
  Pd  Pd10  1  0.750000  0.750000  0.750000  1
  Pd  Pd11  1  0.500000  0.500000  0.500000  1
  O  O12  1  0.279693  0.720307  0.279693  1
  O  O13  1  0.720307  0.279693  0.720307  1
  O  O14  1  0.970307  0.529693  0.970307  1
  O  O15  1  0.529693  0.970307  0.529693  1
  O  O16  1  0.198349  0.649336  0.799040  1
  O  O17  1  0.353275  0.799040  0.649336  1
  O  O18  1  0.799040  0.353275  0.198349  1
  O  O19  1  0.649336  0.198349  0.353275  1
  O  O20  1  0.600664  0.051651  0.896725  1
  O  O21  1  0.896725  0.450960  0.600664  1
  O  O22  1  0.450960  0.896725  0.051651  1
  O  O23  1  0.051651  0.600664  0.450960  1
