# generated using pymatgen
data_Th3Al2GaPt2Rh
_symmetry_space_group_name_H-M   'P 1'
_cell_length_a   7.34794438
_cell_length_b   7.29106730
_cell_length_c   4.13962200
_cell_angle_alpha   90.00000000
_cell_angle_beta   90.00000000
_cell_angle_gamma   120.18806708
_symmetry_Int_Tables_number   1
_chemical_formula_structural   Th3Al2GaPt2Rh
_chemical_formula_sum   'Th3 Al2 Ga1 Pt2 Rh1'
_cell_volume   191.70000988
_cell_formula_units_Z   1
loop_
 _symmetry_equiv_pos_site_id
 _symmetry_equiv_pos_as_xyz
  1  'x, y, z'
loop_
 _atom_site_type_symbol
 _atom_site_label
 _atom_site_symmetry_multiplicity
 _atom_site_fract_x
 _atom_site_fract_y
 _atom_site_fract_z
 _atom_site_occupancy
  Th  Th0  1  0.993599  0.414350  0.500000  1
  Th  Th1  1  0.584485  0.580692  0.500000  1
  Th  Th2  1  0.425230  0.004928  0.500000  1
  Al  Al3  1  0.998982  0.765957  0.000000  1
  Al  Al4  1  0.235276  0.232341  0.000000  1
  Ga  Ga5  1  0.763754  0.002546  0.000000  1
  Pt  Pt6  1  0.324430  0.660939  0.000000  1
  Pt  Pt7  1  0.010385  0.000007  0.500000  1
  Rh  Rh8  1  0.663858  0.338241  0.000000  1
