# generated using pymatgen
data_TbTm3MnOs7
_symmetry_space_group_name_H-M   'P 1'
_cell_length_a   5.32944900
_cell_length_b   5.32944856
_cell_length_c   8.68163200
_cell_angle_alpha   90.00000000
_cell_angle_beta   90.00000000
_cell_angle_gamma   119.99999654
_symmetry_Int_Tables_number   1
_chemical_formula_structural   TbTm3MnOs7
_chemical_formula_sum   'Tb1 Tm3 Mn1 Os7'
_cell_volume   213.54853916
_cell_formula_units_Z   1
loop_
 _symmetry_equiv_pos_site_id
 _symmetry_equiv_pos_as_xyz
  1  'x, y, z'
loop_
 _atom_site_type_symbol
 _atom_site_label
 _atom_site_symmetry_multiplicity
 _atom_site_fract_x
 _atom_site_fract_y
 _atom_site_fract_z
 _atom_site_occupancy
  Tb  Tb0  1  0.333333  0.666667  0.063953  1
  Tm  Tm1  1  0.333333  0.666667  0.432092  1
  Tm  Tm2  1  0.666667  0.333333  0.568850  1
  Tm  Tm3  1  0.666667  0.333333  0.934888  1
  Mn  Mn4  1  0.000000  0.000000  0.500111  1
  Os  Os5  1  0.000000  0.000000  0.999662  1
  Os  Os6  1  0.828847  0.171153  0.254560  1
  Os  Os7  1  0.828847  0.657694  0.254560  1
  Os  Os8  1  0.342306  0.171153  0.254560  1
  Os  Os9  1  0.171112  0.828888  0.745588  1
  Os  Os10  1  0.171112  0.342224  0.745588  1
  Os  Os11  1  0.657776  0.828888  0.745588  1
