# generated using pymatgen
data_NaEuV2F10
_symmetry_space_group_name_H-M   'P 1'
_cell_length_a   5.69330066
_cell_length_b   5.69330129
_cell_length_c   7.83714200
_cell_angle_alpha   69.76427327
_cell_angle_beta   69.76427092
_cell_angle_gamma   71.27467718
_symmetry_Int_Tables_number   1
_chemical_formula_structural   NaEuV2F10
_chemical_formula_sum   'Na1 Eu1 V2 F10'
_cell_volume   217.70903279
_cell_formula_units_Z   1
loop_
 _symmetry_equiv_pos_site_id
 _symmetry_equiv_pos_as_xyz
  1  'x, y, z'
loop_
 _atom_site_type_symbol
 _atom_site_label
 _atom_site_symmetry_multiplicity
 _atom_site_fract_x
 _atom_site_fract_y
 _atom_site_fract_z
 _atom_site_occupancy
  Na  Na0  1  0.538966  0.461034  0.750000  1
  Eu  Eu1  1  0.454031  0.545969  0.250000  1
  V  V2  1  0.006276  0.007384  0.993530  1
  V  V3  1  0.992616  0.993724  0.506470  1
  F  F4  1  0.206782  0.243635  0.381496  1
  F  F5  1  0.756365  0.793218  0.118504  1
  F  F6  1  0.791372  0.753081  0.615140  1
  F  F7  1  0.246919  0.208628  0.884860  1
  F  F8  1  0.076859  0.923141  0.250000  1
  F  F9  1  0.926686  0.073314  0.750000  1
  F  F10  1  0.279212  0.696522  0.978042  1
  F  F11  1  0.303478  0.720788  0.521958  1
  F  F12  1  0.722190  0.301751  0.036923  1
  F  F13  1  0.698249  0.277810  0.463077  1
