# generated using pymatgen
data_Nd2Tm4ScCo17P12
_symmetry_space_group_name_H-M   'P 1'
_cell_length_a   3.73079000
_cell_length_b   10.63623200
_cell_length_c   12.30734700
_cell_angle_alpha   90.00000000
_cell_angle_beta   90.00000000
_cell_angle_gamma   90.00000000
_symmetry_Int_Tables_number   1
_chemical_formula_structural   Nd2Tm4ScCo17P12
_chemical_formula_sum   'Nd2 Tm4 Sc1 Co17 P12'
_cell_volume   488.37458053
_cell_formula_units_Z   1
loop_
 _symmetry_equiv_pos_site_id
 _symmetry_equiv_pos_as_xyz
  1  'x, y, z'
loop_
 _atom_site_type_symbol
 _atom_site_label
 _atom_site_symmetry_multiplicity
 _atom_site_fract_x
 _atom_site_fract_y
 _atom_site_fract_z
 _atom_site_occupancy
  Nd  Nd0  1  0.000000  0.500000  0.528437  1
  Nd  Nd1  1  0.500000  0.000000  0.477067  1
  Tm  Tm2  1  0.500000  0.822011  0.206177  1
  Tm  Tm3  1  0.500000  0.177989  0.206177  1
  Tm  Tm4  1  0.000000  0.682121  0.796856  1
  Tm  Tm5  1  0.000000  0.317879  0.796856  1
  Sc  Sc6  1  0.500000  0.500000  0.149742  1
  Co  Co7  1  0.000000  0.000000  0.839865  1
  Co  Co8  1  0.500000  0.500000  0.707885  1
  Co  Co9  1  0.000000  0.000000  0.291663  1
  Co  Co10  1  0.000000  0.500000  0.984357  1
  Co  Co11  1  0.500000  0.000000  0.012587  1
  Co  Co12  1  0.500000  0.326560  0.989991  1
  Co  Co13  1  0.500000  0.673440  0.989991  1
  Co  Co14  1  0.000000  0.162690  0.001746  1
  Co  Co15  1  0.000000  0.837310  0.001746  1
  Co  Co16  1  0.500000  0.294403  0.432270  1
  Co  Co17  1  0.500000  0.705597  0.432270  1
  Co  Co18  1  0.000000  0.203091  0.572226  1
  Co  Co19  1  0.000000  0.796909  0.572226  1
  Co  Co20  1  0.500000  0.880083  0.711088  1
  Co  Co21  1  0.500000  0.119917  0.711088  1
  Co  Co22  1  0.000000  0.623102  0.292181  1
  Co  Co23  1  0.000000  0.376898  0.292181  1
  P  P24  1  0.500000  0.500000  0.884071  1
  P  P25  1  0.000000  0.000000  0.115190  1
  P  P26  1  0.500000  0.500000  0.353629  1
  P  P27  1  0.000000  0.000000  0.659156  1
  P  P28  1  0.500000  0.306498  0.620238  1
  P  P29  1  0.500000  0.693502  0.620238  1
  P  P30  1  0.000000  0.191648  0.383568  1
  P  P31  1  0.000000  0.808352  0.383568  1
  P  P32  1  0.500000  0.850197  0.889787  1
  P  P33  1  0.500000  0.149803  0.889787  1
  P  P34  1  0.000000  0.664179  0.102048  1
  P  P35  1  0.000000  0.335821  0.102048  1
