# generated using pymatgen
data_TbY5TcOs
_symmetry_space_group_name_H-M   'P 1'
_cell_length_a   6.33155600
_cell_length_b   7.44952600
_cell_length_c   9.16616100
_cell_angle_alpha   90.00000000
_cell_angle_beta   90.00000000
_cell_angle_gamma   90.00000000
_symmetry_Int_Tables_number   1
_chemical_formula_structural   TbY5TcOs
_chemical_formula_sum   'Tb2 Y10 Tc2 Os2'
_cell_volume   432.34115040
_cell_formula_units_Z   2
loop_
 _symmetry_equiv_pos_site_id
 _symmetry_equiv_pos_as_xyz
  1  'x, y, z'
loop_
 _atom_site_type_symbol
 _atom_site_label
 _atom_site_symmetry_multiplicity
 _atom_site_fract_x
 _atom_site_fract_y
 _atom_site_fract_z
 _atom_site_occupancy
  Tb  Tb0  1  0.875116  0.541716  0.250000  1
  Tb  Tb1  1  0.624884  0.041716  0.250000  1
  Y  Y2  1  0.338345  0.675359  0.062905  1
  Y  Y3  1  0.161655  0.175359  0.437095  1
  Y  Y4  1  0.665022  0.324498  0.563337  1
  Y  Y5  1  0.834978  0.824498  0.936663  1
  Y  Y6  1  0.665022  0.324498  0.936663  1
  Y  Y7  1  0.834978  0.824498  0.563337  1
  Y  Y8  1  0.338345  0.675359  0.437095  1
  Y  Y9  1  0.161655  0.175359  0.062905  1
  Y  Y10  1  0.132294  0.457963  0.750000  1
  Y  Y11  1  0.367706  0.957963  0.750000  1
  Tc  Tc12  1  0.035020  0.882843  0.250000  1
  Tc  Tc13  1  0.464980  0.382843  0.250000  1
  Os  Os14  1  0.959880  0.117765  0.750000  1
  Os  Os15  1  0.540120  0.617765  0.750000  1
