# generated using pymatgen
data_Tb5DyNiBr10
_symmetry_space_group_name_H-M   'P 1'
_cell_length_a   7.36939860
_cell_length_b   9.20979518
_cell_length_c   9.24858271
_cell_angle_alpha   108.03335235
_cell_angle_beta   97.09007666
_cell_angle_gamma   105.30558918
_symmetry_Int_Tables_number   1
_chemical_formula_structural   Tb5DyNiBr10
_chemical_formula_sum   'Tb5 Dy1 Ni1 Br10'
_cell_volume   561.11562031
_cell_formula_units_Z   1
loop_
 _symmetry_equiv_pos_site_id
 _symmetry_equiv_pos_as_xyz
  1  'x, y, z'
loop_
 _atom_site_type_symbol
 _atom_site_label
 _atom_site_symmetry_multiplicity
 _atom_site_fract_x
 _atom_site_fract_y
 _atom_site_fract_z
 _atom_site_occupancy
  Tb  Tb0  1  0.877463  0.955088  0.242810  1
  Tb  Tb1  1  0.970796  0.293853  0.092076  1
  Tb  Tb2  1  0.029277  0.706150  0.907339  1
  Tb  Tb3  1  0.354468  0.131977  0.176645  1
  Tb  Tb4  1  0.645764  0.868217  0.823608  1
  Dy  Dy5  1  0.121989  0.044687  0.758381  1
  Ni  Ni6  1  0.000343  0.000161  0.999877  1
  Br  Br7  1  0.546205  0.178364  0.914723  1
  Br  Br8  1  0.453268  0.821438  0.085002  1
  Br  Br9  1  0.353661  0.453606  0.271416  1
  Br  Br10  1  0.645974  0.546369  0.728576  1
  Br  Br11  1  0.252297  0.084056  0.459369  1
  Br  Br12  1  0.748641  0.916160  0.541647  1
  Br  Br13  1  0.784028  0.257027  0.346455  1
  Br  Br14  1  0.215762  0.743910  0.653260  1
  Br  Br15  1  0.085014  0.369090  0.825709  1
  Br  Br16  1  0.915049  0.629846  0.173108  1
