# generated using pymatgen
data_YTh2(CoSn)3
_symmetry_space_group_name_H-M   'P 1'
_cell_length_a   7.38761732
_cell_length_b   7.28309363
_cell_length_c   4.01040700
_cell_angle_alpha   90.00000000
_cell_angle_beta   90.00000000
_cell_angle_gamma   119.53306754
_symmetry_Int_Tables_number   1
_chemical_formula_structural   YTh2(CoSn)3
_chemical_formula_sum   'Y1 Th2 Co3 Sn3'
_cell_volume   187.74293582
_cell_formula_units_Z   1
loop_
 _symmetry_equiv_pos_site_id
 _symmetry_equiv_pos_as_xyz
  1  'x, y, z'
loop_
 _atom_site_type_symbol
 _atom_site_label
 _atom_site_symmetry_multiplicity
 _atom_site_fract_x
 _atom_site_fract_y
 _atom_site_fract_z
 _atom_site_occupancy
  Y  Y0  1  0.000000  0.592127  0.500000  1
  Th  Th1  1  0.414106  0.415653  0.500000  1
  Th  Th2  1  0.585894  0.001548  0.500000  1
  Co  Co3  1  0.349716  0.667167  0.000000  1
  Co  Co4  1  0.000000  0.006798  0.500000  1
  Co  Co5  1  0.650284  0.317450  0.000000  1
  Sn  Sn6  1  0.759345  0.749373  0.000000  1
  Sn  Sn7  1  0.000000  0.259855  0.000000  1
  Sn  Sn8  1  0.240655  0.990028  0.000000  1
