# generated using pymatgen
data_Ho3Tm(CrB4)4
_symmetry_space_group_name_H-M   'P 1'
_cell_length_a   3.42474200
_cell_length_b   5.91570826
_cell_length_c   11.42557686
_cell_angle_alpha   90.02853791
_cell_angle_beta   90.00000000
_cell_angle_gamma   90.00000000
_symmetry_Int_Tables_number   1
_chemical_formula_structural   Ho3Tm(CrB4)4
_chemical_formula_sum   'Ho3 Tm1 Cr4 B16'
_cell_volume   231.47958237
_cell_formula_units_Z   1
loop_
 _symmetry_equiv_pos_site_id
 _symmetry_equiv_pos_as_xyz
  1  'x, y, z'
loop_
 _atom_site_type_symbol
 _atom_site_label
 _atom_site_symmetry_multiplicity
 _atom_site_fract_x
 _atom_site_fract_y
 _atom_site_fract_z
 _atom_site_occupancy
  Ho  Ho0  1  0.000000  0.374774  0.650489  1
  Ho  Ho1  1  0.000000  0.125216  0.150940  1
  Ho  Ho2  1  0.000000  0.875233  0.849323  1
  Tm  Tm3  1  0.000000  0.624704  0.349365  1
  Cr  Cr4  1  0.000000  0.624803  0.081565  1
  Cr  Cr5  1  0.000000  0.375799  0.919435  1
  Cr  Cr6  1  0.000000  0.124178  0.418761  1
  Cr  Cr7  1  0.000000  0.874784  0.580228  1
  B  B8  1  0.500000  0.781806  0.185003  1
  B  B9  1  0.500000  0.218495  0.815880  1
  B  B10  1  0.500000  0.282384  0.315671  1
  B  B11  1  0.500000  0.718168  0.683842  1
  B  B12  1  0.500000  0.863494  0.032807  1
  B  B13  1  0.500000  0.137094  0.968141  1
  B  B14  1  0.500000  0.363236  0.467149  1
  B  B15  1  0.500000  0.636149  0.531474  1
  B  B16  1  0.500000  0.885484  0.452304  1
  B  B17  1  0.500000  0.112913  0.546404  1
  B  B18  1  0.500000  0.387116  0.047462  1
  B  B19  1  0.500000  0.613819  0.953390  1
  B  B20  1  0.500000  0.974928  0.308022  1
  B  B21  1  0.500000  0.024467  0.691416  1
  B  B22  1  0.500000  0.476116  0.192578  1
  B  B23  1  0.500000  0.524841  0.808355  1
