# generated using pymatgen
data_Sm8GaSiI12
_symmetry_space_group_name_H-M   'P 1'
_cell_length_a   4.30750800
_cell_length_b   14.27080400
_cell_length_c   15.08347600
_cell_angle_alpha   89.99797489
_cell_angle_beta   90.00000000
_cell_angle_gamma   90.00000000
_symmetry_Int_Tables_number   1
_chemical_formula_structural   Sm8GaSiI12
_chemical_formula_sum   'Sm8 Ga1 Si1 I12'
_cell_volume   927.20543914
_cell_formula_units_Z   1
loop_
 _symmetry_equiv_pos_site_id
 _symmetry_equiv_pos_as_xyz
  1  'x, y, z'
loop_
 _atom_site_type_symbol
 _atom_site_label
 _atom_site_symmetry_multiplicity
 _atom_site_fract_x
 _atom_site_fract_y
 _atom_site_fract_z
 _atom_site_occupancy
  Sm  Sm0  1  0.500000  0.115910  0.344392  1
  Sm  Sm1  1  0.500000  0.884090  0.655608  1
  Sm  Sm2  1  0.500000  0.614576  0.154028  1
  Sm  Sm3  1  0.500000  0.385424  0.845972  1
  Sm  Sm4  1  0.000000  0.114660  0.576650  1
  Sm  Sm5  1  0.000000  0.885340  0.423350  1
  Sm  Sm6  1  0.000000  0.612373  0.924999  1
  Sm  Sm7  1  0.000000  0.387627  0.075001  1
  Ga  Ga8  1  0.500000  0.000000  0.500000  1
  Si  Si9  1  0.500000  0.500000  0.000000  1
  I  I10  1  0.500000  0.245985  0.161943  1
  I  I11  1  0.500000  0.754015  0.838057  1
  I  I12  1  0.500000  0.744512  0.336497  1
  I  I13  1  0.500000  0.255488  0.663503  1
  I  I14  1  0.000000  0.259893  0.414638  1
  I  I15  1  0.000000  0.740107  0.585362  1
  I  I16  1  0.000000  0.757913  0.085576  1
  I  I17  1  0.000000  0.242087  0.914424  1
  I  I18  1  0.000000  0.998026  0.239239  1
  I  I19  1  0.000000  0.001974  0.760761  1
  I  I20  1  0.000000  0.498663  0.258907  1
  I  I21  1  0.000000  0.501337  0.741093  1
