# generated using pymatgen
data_Yb4Dy2CuNi13B4
_symmetry_space_group_name_H-M   'P 1'
_cell_length_a   5.01881400
_cell_length_b   5.01881414
_cell_length_c   14.11047300
_cell_angle_alpha   90.00000000
_cell_angle_beta   90.00000000
_cell_angle_gamma   120.00001229
_symmetry_Int_Tables_number   1
_chemical_formula_structural   Yb4Dy2CuNi13B4
_chemical_formula_sum   'Yb4 Dy2 Cu1 Ni13 B4'
_cell_volume   307.80407369
_cell_formula_units_Z   1
loop_
 _symmetry_equiv_pos_site_id
 _symmetry_equiv_pos_as_xyz
  1  'x, y, z'
loop_
 _atom_site_type_symbol
 _atom_site_label
 _atom_site_symmetry_multiplicity
 _atom_site_fract_x
 _atom_site_fract_y
 _atom_site_fract_z
 _atom_site_occupancy
  Yb  Yb0  1  0.333333  0.666667  0.035044  1
  Yb  Yb1  1  0.666667  0.333333  0.753311  1
  Yb  Yb2  1  0.666667  0.333333  0.964956  1
  Yb  Yb3  1  0.333333  0.666667  0.246689  1
  Dy  Dy4  1  0.666667  0.333333  0.535881  1
  Dy  Dy5  1  0.333333  0.666667  0.464119  1
  Cu  Cu6  1  0.000000  0.000000  0.000000  1
  Ni  Ni7  1  0.165746  0.331493  0.650251  1
  Ni  Ni8  1  0.331493  0.165746  0.349749  1
  Ni  Ni9  1  0.332170  0.166085  0.150214  1
  Ni  Ni10  1  0.166085  0.833915  0.849786  1
  Ni  Ni11  1  0.834254  0.668507  0.349749  1
  Ni  Ni12  1  0.833915  0.166085  0.150214  1
  Ni  Ni13  1  0.668507  0.834254  0.650251  1
  Ni  Ni14  1  0.667830  0.833915  0.849786  1
  Ni  Ni15  1  0.165746  0.834254  0.650251  1
  Ni  Ni16  1  0.833915  0.667830  0.150214  1
  Ni  Ni17  1  0.166085  0.332170  0.849786  1
  Ni  Ni18  1  0.834254  0.165746  0.349749  1
  Ni  Ni19  1  0.000000  0.000000  0.500000  1
  B  B20  1  0.666667  0.333333  0.249528  1
  B  B21  1  0.000000  0.000000  0.750694  1
  B  B22  1  0.333333  0.666667  0.750472  1
  B  B23  1  0.000000  0.000000  0.249306  1
