# generated using pymatgen
data_Np6Sc2Bi3Sb7
_symmetry_space_group_name_H-M   'P 1'
_cell_length_a   9.31612700
_cell_length_b   9.31612756
_cell_length_c   6.34672000
_cell_angle_alpha   90.00000000
_cell_angle_beta   90.00000000
_cell_angle_gamma   120.00000158
_symmetry_Int_Tables_number   1
_chemical_formula_structural   Np6Sc2Bi3Sb7
_chemical_formula_sum   'Np6 Sc2 Bi3 Sb7'
_cell_volume   477.03559958
_cell_formula_units_Z   1
loop_
 _symmetry_equiv_pos_site_id
 _symmetry_equiv_pos_as_xyz
  1  'x, y, z'
loop_
 _atom_site_type_symbol
 _atom_site_label
 _atom_site_symmetry_multiplicity
 _atom_site_fract_x
 _atom_site_fract_y
 _atom_site_fract_z
 _atom_site_occupancy
  Np  Np0  1  0.004415  0.621985  0.256474  1
  Np  Np1  1  0.378015  0.382429  0.256474  1
  Np  Np2  1  0.378015  0.995585  0.743526  1
  Np  Np3  1  0.617571  0.621985  0.743526  1
  Np  Np4  1  0.617571  0.995585  0.256474  1
  Np  Np5  1  0.004415  0.382429  0.743526  1
  Sc  Sc6  1  0.000000  0.000000  0.000000  1
  Sc  Sc7  1  0.000000  0.000000  0.500000  1
  Bi  Bi8  1  0.666667  0.333333  0.000000  1
  Bi  Bi9  1  0.333333  0.666667  0.000000  1
  Bi  Bi10  1  0.666667  0.333333  0.500000  1
  Sb  Sb11  1  0.998168  0.266839  0.248819  1
  Sb  Sb12  1  0.333333  0.666667  0.500000  1
  Sb  Sb13  1  0.268671  0.266839  0.751181  1
  Sb  Sb14  1  0.733161  0.001832  0.751181  1
  Sb  Sb15  1  0.998168  0.731329  0.751181  1
  Sb  Sb16  1  0.733161  0.731329  0.248819  1
  Sb  Sb17  1  0.268671  0.001832  0.248819  1
