# generated using pymatgen
data_Hf3Sc3(Ti2Si3)2
_symmetry_space_group_name_H-M   'P 1'
_cell_length_a   7.76633400
_cell_length_b   7.75759055
_cell_length_c   5.34358300
_cell_angle_alpha   90.00000000
_cell_angle_beta   90.00000000
_cell_angle_gamma   120.03729914
_symmetry_Int_Tables_number   1
_chemical_formula_structural   Hf3Sc3(Ti2Si3)2
_chemical_formula_sum   'Hf3 Sc3 Ti4 Si6'
_cell_volume   278.70371404
_cell_formula_units_Z   1
loop_
 _symmetry_equiv_pos_site_id
 _symmetry_equiv_pos_as_xyz
  1  'x, y, z'
loop_
 _atom_site_type_symbol
 _atom_site_label
 _atom_site_symmetry_multiplicity
 _atom_site_fract_x
 _atom_site_fract_y
 _atom_site_fract_z
 _atom_site_occupancy
  Hf  Hf0  1  0.998207  0.247453  0.250000  1
  Hf  Hf1  1  0.750754  0.752547  0.250000  1
  Hf  Hf2  1  0.750612  0.000000  0.750000  1
  Sc  Sc3  1  0.247078  0.000000  0.250000  1
  Sc  Sc4  1  0.246859  0.248621  0.750000  1
  Sc  Sc5  1  0.998238  0.751379  0.750000  1
  Ti  Ti6  1  0.335263  0.666551  0.999921  1
  Ti  Ti7  1  0.668713  0.333449  0.500079  1
  Ti  Ti8  1  0.668713  0.333449  0.999921  1
  Ti  Ti9  1  0.335263  0.666551  0.500079  1
  Si  Si10  1  0.601312  0.000000  0.250000  1
  Si  Si11  1  0.601956  0.601813  0.750000  1
  Si  Si12  1  0.000143  0.398187  0.750000  1
  Si  Si13  1  0.999304  0.601224  0.250000  1
  Si  Si14  1  0.398080  0.398776  0.250000  1
  Si  Si15  1  0.399507  0.000000  0.750000  1
