# generated using pymatgen
data_Zr2TaFe(SeO3)8
_symmetry_space_group_name_H-M   'P 1'
_cell_length_a   8.47969426
_cell_length_b   8.64404222
_cell_length_c   8.55388900
_cell_angle_alpha   89.94874292
_cell_angle_beta   89.79693682
_cell_angle_gamma   90.37544091
_symmetry_Int_Tables_number   1
_chemical_formula_structural   Zr2TaFe(SeO3)8
_chemical_formula_sum   'Zr2 Ta1 Fe1 Se8 O24'
_cell_volume   626.97243718
_cell_formula_units_Z   1
loop_
 _symmetry_equiv_pos_site_id
 _symmetry_equiv_pos_as_xyz
  1  'x, y, z'
loop_
 _atom_site_type_symbol
 _atom_site_label
 _atom_site_symmetry_multiplicity
 _atom_site_fract_x
 _atom_site_fract_y
 _atom_site_fract_z
 _atom_site_occupancy
  Zr  Zr0  1  0.000000  0.000000  0.500000  1
  Zr  Zr1  1  0.500000  0.000000  0.000000  1
  Ta  Ta2  1  0.000000  0.500000  0.000000  1
  Fe  Fe3  1  0.500000  0.500000  0.500000  1
  Se  Se4  1  0.323975  0.673236  0.207199  1
  Se  Se5  1  0.796149  0.329325  0.318638  1
  Se  Se6  1  0.672517  0.798322  0.667961  1
  Se  Se7  1  0.183217  0.190154  0.818873  1
  Se  Se8  1  0.676025  0.326764  0.792801  1
  Se  Se9  1  0.203851  0.670675  0.681362  1
  Se  Se10  1  0.327483  0.201678  0.332039  1
  Se  Se11  1  0.816783  0.809846  0.181127  1
  O  O12  1  0.213538  0.559328  0.074881  1
  O  O13  1  0.734732  0.459445  0.454734  1
  O  O14  1  0.767742  0.939540  0.557286  1
  O  O15  1  0.264853  0.045828  0.928898  1
  O  O16  1  0.548344  0.914517  0.776453  1
  O  O17  1  0.456287  0.538491  0.267860  1
  O  O18  1  0.936142  0.446468  0.217236  1
  O  O19  1  0.032939  0.091889  0.728947  1
  O  O20  1  0.926239  0.219984  0.424285  1
  O  O21  1  0.542615  0.727529  0.531938  1
  O  O22  1  0.435055  0.775072  0.072841  1
  O  O23  1  0.074757  0.282768  0.966641  1
  O  O24  1  0.786462  0.440672  0.925119  1
  O  O25  1  0.265268  0.540555  0.545266  1
  O  O26  1  0.232258  0.060460  0.442714  1
  O  O27  1  0.735147  0.954172  0.071102  1
  O  O28  1  0.451656  0.085483  0.223547  1
  O  O29  1  0.543713  0.461509  0.732140  1
  O  O30  1  0.063858  0.553532  0.782764  1
  O  O31  1  0.967061  0.908111  0.271053  1
  O  O32  1  0.073761  0.780016  0.575715  1
  O  O33  1  0.457385  0.272471  0.468062  1
  O  O34  1  0.564945  0.224928  0.927159  1
  O  O35  1  0.925243  0.717232  0.033359  1
