# generated using pymatgen
data_Be8Cu4IrRu3
_symmetry_space_group_name_H-M   'P 1'
_cell_length_a   5.32001727
_cell_length_b   5.31975328
_cell_length_c   5.82005821
_cell_angle_alpha   90.02215330
_cell_angle_beta   90.02146393
_cell_angle_gamma   89.87466609
_symmetry_Int_Tables_number   1
_chemical_formula_structural   Be8Cu4IrRu3
_chemical_formula_sum   'Be8 Cu4 Ir1 Ru3'
_cell_volume   164.71409337
_cell_formula_units_Z   1
loop_
 _symmetry_equiv_pos_site_id
 _symmetry_equiv_pos_as_xyz
  1  'x, y, z'
loop_
 _atom_site_type_symbol
 _atom_site_label
 _atom_site_symmetry_multiplicity
 _atom_site_fract_x
 _atom_site_fract_y
 _atom_site_fract_z
 _atom_site_occupancy
  Be  Be0  1  0.501822  0.501903  0.249922  1
  Be  Be1  1  0.501789  0.998111  0.249793  1
  Be  Be2  1  0.998119  0.501782  0.250384  1
  Be  Be3  1  0.998100  0.998191  0.250495  1
  Be  Be4  1  0.998241  0.501858  0.749609  1
  Be  Be5  1  0.998217  0.998131  0.749481  1
  Be  Be6  1  0.501898  0.501840  0.750104  1
  Be  Be7  1  0.501889  0.998195  0.750211  1
  Cu  Cu8  1  0.249949  0.750002  0.000048  1
  Cu  Cu9  1  0.749998  0.250004  0.499961  1
  Cu  Cu10  1  0.249983  0.749996  0.500049  1
  Cu  Cu11  1  0.749998  0.250001  0.999954  1
  Ir  Ir12  1  0.249723  0.249992  0.000026  1
  Ru  Ru13  1  0.749626  0.750005  0.499980  1
  Ru  Ru14  1  0.250334  0.249996  0.500029  1
  Ru  Ru15  1  0.750310  0.749998  0.999954  1
