# generated using pymatgen
data_Hf15Nb(Ir2N)4
_symmetry_space_group_name_H-M   'P 1'
_cell_length_a   8.74175377
_cell_length_b   8.74175399
_cell_length_c   8.74175288
_cell_angle_alpha   59.51200012
_cell_angle_beta   59.51200876
_cell_angle_gamma   59.51199692
_symmetry_Int_Tables_number   1
_chemical_formula_structural   Hf15Nb(Ir2N)4
_chemical_formula_sum   'Hf15 Nb1 Ir8 N4'
_cell_volume   467.12608349
_cell_formula_units_Z   1
loop_
 _symmetry_equiv_pos_site_id
 _symmetry_equiv_pos_as_xyz
  1  'x, y, z'
loop_
 _atom_site_type_symbol
 _atom_site_label
 _atom_site_symmetry_multiplicity
 _atom_site_fract_x
 _atom_site_fract_y
 _atom_site_fract_z
 _atom_site_occupancy
  Hf  Hf0  1  0.125000  0.625000  0.625000  1
  Hf  Hf1  1  0.625000  0.125000  0.625000  1
  Hf  Hf2  1  0.625000  0.625000  0.125000  1
  Hf  Hf3  1  0.815130  0.815130  0.185327  1
  Hf  Hf4  1  0.183440  0.183440  0.816549  1
  Hf  Hf5  1  0.815130  0.185327  0.815130  1
  Hf  Hf6  1  0.183440  0.816549  0.183440  1
  Hf  Hf7  1  0.185327  0.815130  0.815130  1
  Hf  Hf8  1  0.816549  0.183440  0.183440  1
  Hf  Hf9  1  0.434870  0.434870  0.064673  1
  Hf  Hf10  1  0.066560  0.066560  0.433451  1
  Hf  Hf11  1  0.434870  0.064673  0.434870  1
  Hf  Hf12  1  0.066560  0.433451  0.066560  1
  Hf  Hf13  1  0.064673  0.434870  0.434870  1
  Hf  Hf14  1  0.433451  0.066560  0.066560  1
  Nb  Nb15  1  0.625000  0.625000  0.625000  1
  Ir  Ir16  1  0.767045  0.413648  0.413648  1
  Ir  Ir17  1  0.413648  0.767045  0.413648  1
  Ir  Ir18  1  0.413648  0.413648  0.767045  1
  Ir  Ir19  1  0.408041  0.408041  0.408041  1
  Ir  Ir20  1  0.482955  0.836352  0.836352  1
  Ir  Ir21  1  0.836352  0.482955  0.836352  1
  Ir  Ir22  1  0.836352  0.836352  0.482955  1
  Ir  Ir23  1  0.841959  0.841959  0.841959  1
  N  N24  1  0.625000  0.125000  0.125000  1
  N  N25  1  0.125000  0.625000  0.125000  1
  N  N26  1  0.125000  0.125000  0.625000  1
  N  N27  1  0.125000  0.125000  0.125000  1
