# generated using pymatgen
data_Y5Hf5Co5Si20Ir3
_symmetry_space_group_name_H-M   'P 1'
_cell_length_a   12.30009331
_cell_length_b   12.27898233
_cell_length_c   4.06910200
_cell_angle_alpha   90.00000000
_cell_angle_beta   90.00000000
_cell_angle_gamma   89.82505696
_symmetry_Int_Tables_number   1
_chemical_formula_structural   Y5Hf5Co5Si20Ir3
_chemical_formula_sum   'Y5 Hf5 Co5 Si20 Ir3'
_cell_volume   614.56430574
_cell_formula_units_Z   1
loop_
 _symmetry_equiv_pos_site_id
 _symmetry_equiv_pos_as_xyz
  1  'x, y, z'
loop_
 _atom_site_type_symbol
 _atom_site_label
 _atom_site_symmetry_multiplicity
 _atom_site_fract_x
 _atom_site_fract_y
 _atom_site_fract_z
 _atom_site_occupancy
  Y  Y0  1  0.000521  0.000019  0.000000  1
  Y  Y1  1  0.883887  0.386213  0.500000  1
  Y  Y2  1  0.117360  0.614693  0.500000  1
  Y  Y3  1  0.386934  0.112924  0.500000  1
  Y  Y4  1  0.612722  0.883718  0.500000  1
  Hf  Hf5  1  0.499135  0.505859  0.000000  1
  Hf  Hf6  1  0.675960  0.174349  0.500000  1
  Hf  Hf7  1  0.327088  0.823259  0.500000  1
  Hf  Hf8  1  0.177635  0.326580  0.500000  1
  Hf  Hf9  1  0.818490  0.673909  0.500000  1
  Co  Co10  1  0.738207  0.525876  0.000000  1
  Co  Co11  1  0.260165  0.478364  0.000000  1
  Co  Co12  1  0.247418  0.974567  0.000000  1
  Co  Co13  1  0.754921  0.025046  0.000000  1
  Co  Co14  1  0.474795  0.739992  0.000000  1
  Si  Si15  1  0.571390  0.063945  0.000000  1
  Si  Si16  1  0.431729  0.927646  0.000000  1
  Si  Si17  1  0.073808  0.437928  0.000000  1
  Si  Si18  1  0.924921  0.563579  0.000000  1
  Si  Si19  1  0.655179  0.696067  0.000000  1
  Si  Si20  1  0.335201  0.304602  0.000000  1
  Si  Si21  1  0.166654  0.803048  0.000000  1
  Si  Si22  1  0.835531  0.196126  0.000000  1
  Si  Si23  1  0.306295  0.657995  0.000000  1
  Si  Si24  1  0.701328  0.344014  0.000000  1
  Si  Si25  1  0.202854  0.155852  0.000000  1
  Si  Si26  1  0.795751  0.842993  0.000000  1
  Si  Si27  1  0.659716  0.505218  0.500000  1
  Si  Si28  1  0.340209  0.489305  0.500000  1
  Si  Si29  1  0.166974  0.989555  0.500000  1
  Si  Si30  1  0.833788  0.004565  0.500000  1
  Si  Si31  1  0.492825  0.663096  0.500000  1
  Si  Si32  1  0.507677  0.350624  0.500000  1
  Si  Si33  1  0.006953  0.157900  0.500000  1
  Si  Si34  1  0.991928  0.842634  0.500000  1
  Ir  Ir35  1  0.523615  0.257665  0.000000  1
  Ir  Ir36  1  0.024652  0.247977  0.000000  1
  Ir  Ir37  1  0.975784  0.752297  0.000000  1
