# generated using pymatgen
data_Nd4Th2Mn3(Co5P4)3
_symmetry_space_group_name_H-M   'P 1'
_cell_length_a   3.78383600
_cell_length_b   10.73088200
_cell_length_c   12.37986300
_cell_angle_alpha   90.00000000
_cell_angle_beta   90.00000000
_cell_angle_gamma   90.00000000
_symmetry_Int_Tables_number   1
_chemical_formula_structural   Nd4Th2Mn3(Co5P4)3
_chemical_formula_sum   'Nd4 Th2 Mn3 Co15 P12'
_cell_volume   502.67068984
_cell_formula_units_Z   1
loop_
 _symmetry_equiv_pos_site_id
 _symmetry_equiv_pos_as_xyz
  1  'x, y, z'
loop_
 _atom_site_type_symbol
 _atom_site_label
 _atom_site_symmetry_multiplicity
 _atom_site_fract_x
 _atom_site_fract_y
 _atom_site_fract_z
 _atom_site_occupancy
  Nd  Nd0  1  0.500000  0.817201  0.204606  1
  Nd  Nd1  1  0.500000  0.182799  0.204606  1
  Nd  Nd2  1  0.000000  0.681456  0.795942  1
  Nd  Nd3  1  0.000000  0.318544  0.795942  1
  Th  Th4  1  0.000000  0.500000  0.524649  1
  Th  Th5  1  0.500000  0.000000  0.475145  1
  Mn  Mn6  1  0.500000  0.500000  0.149088  1
  Mn  Mn7  1  0.000000  0.000000  0.847998  1
  Mn  Mn8  1  0.000000  0.500000  0.989969  1
  Co  Co9  1  0.500000  0.500000  0.697125  1
  Co  Co10  1  0.000000  0.000000  0.300875  1
  Co  Co11  1  0.500000  0.000000  0.012330  1
  Co  Co12  1  0.500000  0.331046  0.995933  1
  Co  Co13  1  0.500000  0.668954  0.995933  1
  Co  Co14  1  0.000000  0.165178  0.003982  1
  Co  Co15  1  0.000000  0.834822  0.003982  1
  Co  Co16  1  0.500000  0.298306  0.431238  1
  Co  Co17  1  0.500000  0.701694  0.431238  1
  Co  Co18  1  0.000000  0.201210  0.569230  1
  Co  Co19  1  0.000000  0.798790  0.569230  1
  Co  Co20  1  0.500000  0.881080  0.709711  1
  Co  Co21  1  0.500000  0.118920  0.709711  1
  Co  Co22  1  0.000000  0.619134  0.291131  1
  Co  Co23  1  0.000000  0.380866  0.291131  1
  P  P24  1  0.500000  0.500000  0.885993  1
  P  P25  1  0.000000  0.000000  0.114167  1
  P  P26  1  0.500000  0.500000  0.340483  1
  P  P27  1  0.000000  0.000000  0.658818  1
  P  P28  1  0.500000  0.304017  0.614895  1
  P  P29  1  0.500000  0.695983  0.614895  1
  P  P30  1  0.000000  0.196168  0.385299  1
  P  P31  1  0.000000  0.803832  0.385299  1
  P  P32  1  0.500000  0.846655  0.895911  1
  P  P33  1  0.500000  0.153345  0.895911  1
  P  P34  1  0.000000  0.654278  0.103804  1
  P  P35  1  0.000000  0.345722  0.103804  1
