# generated using pymatgen
data_Cs5K2VIn3As5
_symmetry_space_group_name_H-M   'P 1'
_cell_length_a   8.61443817
_cell_length_b   9.54082721
_cell_length_c   15.11148441
_cell_angle_alpha   85.05978811
_cell_angle_beta   84.60411923
_cell_angle_gamma   87.75535681
_symmetry_Int_Tables_number   1
_chemical_formula_structural   Cs5K2VIn3As5
_chemical_formula_sum   'Cs10 K4 V2 In6 As10'
_cell_volume   1231.29423280
_cell_formula_units_Z   2
loop_
 _symmetry_equiv_pos_site_id
 _symmetry_equiv_pos_as_xyz
  1  'x, y, z'
loop_
 _atom_site_type_symbol
 _atom_site_label
 _atom_site_symmetry_multiplicity
 _atom_site_fract_x
 _atom_site_fract_y
 _atom_site_fract_z
 _atom_site_occupancy
  Cs  Cs0  1  0.743952  0.504864  0.974897  1
  Cs  Cs1  1  0.256048  0.495136  0.025103  1
  Cs  Cs2  1  0.687998  0.078775  0.888526  1
  Cs  Cs3  1  0.312002  0.921225  0.111474  1
  Cs  Cs4  1  0.686991  0.658351  0.399446  1
  Cs  Cs5  1  0.313009  0.341649  0.600554  1
  Cs  Cs6  1  0.753476  0.986325  0.534068  1
  Cs  Cs7  1  0.246524  0.013675  0.465932  1
  Cs  Cs8  1  0.825626  0.365704  0.643787  1
  Cs  Cs9  1  0.174374  0.634296  0.356213  1
  K  K10  1  0.813538  0.807135  0.142995  1
  K  K11  1  0.186462  0.192865  0.857005  1
  K  K12  1  0.274182  0.262806  0.249245  1
  K  K13  1  0.725818  0.737194  0.750755  1
  V  V14  1  0.650447  0.391482  0.227016  1
  V  V15  1  0.349553  0.608518  0.772984  1
  In  In16  1  0.910603  0.273702  0.369335  1
  In  In17  1  0.089397  0.726298  0.630665  1
  In  In18  1  0.941042  0.187513  0.129879  1
  In  In19  1  0.058958  0.812487  0.870121  1
  In  In20  1  0.634647  0.045347  0.294211  1
  In  In21  1  0.365353  0.954653  0.705789  1
  As  As22  1  0.500429  0.589426  0.192155  1
  As  As23  1  0.499571  0.410574  0.807845  1
  As  As24  1  0.922616  0.452375  0.209608  1
  As  As25  1  0.077384  0.547625  0.790392  1
  As  As26  1  0.580798  0.297711  0.380579  1
  As  As27  1  0.419202  0.702289  0.619421  1
  As  As28  1  0.613228  0.205149  0.129477  1
  As  As29  1  0.386772  0.794851  0.870523  1
  As  As30  1  0.974645  0.000558  0.292109  1
  As  As31  1  0.025355  0.999442  0.707891  1
