# generated using pymatgen
data_Lu8Nb11Si16Ir
_symmetry_space_group_name_H-M   'P 1'
_cell_length_a   6.75596982
_cell_length_b   7.03774245
_cell_length_c   13.23974600
_cell_angle_alpha   90.00000000
_cell_angle_beta   90.00000000
_cell_angle_gamma   90.57109201
_symmetry_Int_Tables_number   1
_chemical_formula_structural   Lu8Nb11Si16Ir
_chemical_formula_sum   'Lu8 Nb11 Si16 Ir1'
_cell_volume   629.47596124
_cell_formula_units_Z   1
loop_
 _symmetry_equiv_pos_site_id
 _symmetry_equiv_pos_as_xyz
  1  'x, y, z'
loop_
 _atom_site_type_symbol
 _atom_site_label
 _atom_site_symmetry_multiplicity
 _atom_site_fract_x
 _atom_site_fract_y
 _atom_site_fract_z
 _atom_site_occupancy
  Lu  Lu0  1  0.498512  0.673401  0.594356  1
  Lu  Lu1  1  0.002630  0.828114  0.906108  1
  Lu  Lu2  1  0.497150  0.327294  0.095001  1
  Lu  Lu3  1  0.998550  0.172789  0.403725  1
  Lu  Lu4  1  0.497150  0.327294  0.404999  1
  Lu  Lu5  1  0.998550  0.172789  0.096275  1
  Lu  Lu6  1  0.498512  0.673401  0.905644  1
  Lu  Lu7  1  0.002630  0.828114  0.593892  1
  Nb  Nb8  1  0.671269  0.171495  0.627903  1
  Nb  Nb9  1  0.162566  0.323838  0.872648  1
  Nb  Nb10  1  0.335825  0.825848  0.124934  1
  Nb  Nb11  1  0.835497  0.673948  0.377048  1
  Nb  Nb12  1  0.335825  0.825848  0.375066  1
  Nb  Nb13  1  0.835497  0.673948  0.122952  1
  Nb  Nb14  1  0.671269  0.171495  0.872097  1
  Nb  Nb15  1  0.162566  0.323838  0.627352  1
  Nb  Nb16  1  0.340331  0.999339  0.750000  1
  Nb  Nb17  1  0.162763  0.507671  0.250000  1
  Nb  Nb18  1  0.661853  0.993264  0.250000  1
  Si  Si19  1  0.665620  0.964317  0.459547  1
  Si  Si20  1  0.165029  0.535798  0.039013  1
  Si  Si21  1  0.337842  0.036784  0.957920  1
  Si  Si22  1  0.835155  0.462801  0.542910  1
  Si  Si23  1  0.337842  0.036784  0.542080  1
  Si  Si24  1  0.835155  0.462801  0.957090  1
  Si  Si25  1  0.665620  0.964317  0.040453  1
  Si  Si26  1  0.165029  0.535798  0.460987  1
  Si  Si27  1  0.469654  0.380393  0.750000  1
  Si  Si28  1  0.965310  0.109991  0.750000  1
  Si  Si29  1  0.538869  0.618859  0.250000  1
  Si  Si30  1  0.037418  0.880727  0.250000  1
  Si  Si31  1  0.705508  0.863419  0.750000  1
  Si  Si32  1  0.193784  0.626723  0.750000  1
  Si  Si33  1  0.295384  0.131169  0.250000  1
  Si  Si34  1  0.793582  0.369736  0.250000  1
  Ir  Ir35  1  0.824251  0.525857  0.750000  1
