# generated using pymatgen
data_Hf2Zr(SiRu)3
_symmetry_space_group_name_H-M   'P 1'
_cell_length_a   7.62774410
_cell_length_b   7.62774348
_cell_length_c   7.62774413
_cell_angle_alpha   127.94053659
_cell_angle_beta   121.93962522
_cell_angle_gamma   81.72822920
_symmetry_Int_Tables_number   1
_chemical_formula_structural   Hf2Zr(SiRu)3
_chemical_formula_sum   'Hf4 Zr2 Si6 Ru6'
_cell_volume   285.89652052
_cell_formula_units_Z   2
loop_
 _symmetry_equiv_pos_site_id
 _symmetry_equiv_pos_as_xyz
  1  'x, y, z'
loop_
 _atom_site_type_symbol
 _atom_site_label
 _atom_site_symmetry_multiplicity
 _atom_site_fract_x
 _atom_site_fract_y
 _atom_site_fract_z
 _atom_site_occupancy
  Hf  Hf0  1  0.747686  0.831859  0.584173  1
  Hf  Hf1  1  0.252314  0.836487  0.084173  1
  Hf  Hf2  1  0.052528  0.256379  0.703850  1
  Hf  Hf3  1  0.947472  0.651322  0.203850  1
  Zr  Zr4  1  0.470430  0.698694  0.728264  1
  Zr  Zr5  1  0.529570  0.257834  0.228264  1
  Si  Si6  1  0.275199  0.268744  0.493545  1
  Si  Si7  1  0.724801  0.218346  0.993545  1
  Si  Si8  1  0.326205  0.588047  0.248532  1
  Si  Si9  1  0.673795  0.922327  0.261843  1
  Si  Si10  1  0.160485  0.922327  0.748532  1
  Si  Si11  1  0.839515  0.588047  0.761843  1
  Ru  Ru12  1  0.500000  0.500192  0.000192  1
  Ru  Ru13  1  0.000000  0.500192  0.500192  1
  Ru  Ru14  1  0.094146  0.253166  0.100381  1
  Ru  Ru15  1  0.905854  0.006236  0.159021  1
  Ru  Ru16  1  0.347214  0.006236  0.600381  1
  Ru  Ru17  1  0.652786  0.253166  0.659021  1
