# generated using pymatgen
data_Li4La4SiPt3
_symmetry_space_group_name_H-M   'P 1'
_cell_length_a   4.17238500
_cell_length_b   7.39458092
_cell_length_c   8.47283100
_cell_angle_alpha   92.17472383
_cell_angle_beta   90.00000000
_cell_angle_gamma   90.00000000
_symmetry_Int_Tables_number   1
_chemical_formula_structural   Li4La4SiPt3
_chemical_formula_sum   'Li4 La4 Si1 Pt3'
_cell_volume   261.22429969
_cell_formula_units_Z   1
loop_
 _symmetry_equiv_pos_site_id
 _symmetry_equiv_pos_as_xyz
  1  'x, y, z'
loop_
 _atom_site_type_symbol
 _atom_site_label
 _atom_site_symmetry_multiplicity
 _atom_site_fract_x
 _atom_site_fract_y
 _atom_site_fract_z
 _atom_site_occupancy
  Li  Li0  1  0.250000  0.140038  0.948857  1
  Li  Li1  1  0.250000  0.629750  0.556840  1
  Li  Li2  1  0.750000  0.871720  0.062134  1
  Li  Li3  1  0.750000  0.362328  0.433578  1
  La  La4  1  0.250000  0.034172  0.315861  1
  La  La5  1  0.250000  0.540807  0.181637  1
  La  La6  1  0.750000  0.963655  0.700787  1
  La  La7  1  0.750000  0.464477  0.802367  1
  Si  Si8  1  0.750000  0.239529  0.108800  1
  Pt  Pt9  1  0.250000  0.250479  0.617082  1
  Pt  Pt10  1  0.250000  0.755844  0.884853  1
  Pt  Pt11  1  0.750000  0.747203  0.387203  1
