# generated using pymatgen
data_Dy4Al18(CoPd)3
_symmetry_space_group_name_H-M   'P 1'
_cell_length_a   7.42274124
_cell_length_b   7.42273946
_cell_length_c   9.39556800
_cell_angle_alpha   90.16354941
_cell_angle_beta   90.16355709
_cell_angle_gamma   119.71656476
_symmetry_Int_Tables_number   1
_chemical_formula_structural   Dy4Al18(CoPd)3
_chemical_formula_sum   'Dy4 Al18 Co3 Pd3'
_cell_volume   449.58157144
_cell_formula_units_Z   1
loop_
 _symmetry_equiv_pos_site_id
 _symmetry_equiv_pos_as_xyz
  1  'x, y, z'
loop_
 _atom_site_type_symbol
 _atom_site_label
 _atom_site_symmetry_multiplicity
 _atom_site_fract_x
 _atom_site_fract_y
 _atom_site_fract_z
 _atom_site_occupancy
  Dy  Dy0  1  0.326840  0.999820  0.250583  1
  Dy  Dy1  1  0.000050  0.673145  0.749419  1
  Dy  Dy2  1  0.665967  0.990677  0.749136  1
  Dy  Dy3  1  0.009286  0.333949  0.250867  1
  Al  Al4  1  0.344171  0.013272  0.924878  1
  Al  Al5  1  0.986740  0.655836  0.075034  1
  Al  Al6  1  0.335208  0.008503  0.570502  1
  Al  Al7  1  0.991507  0.664804  0.429581  1
  Al  Al8  1  0.666463  0.011325  0.074666  1
  Al  Al9  1  0.988678  0.333538  0.925301  1
  Al  Al10  1  0.673684  0.011795  0.429271  1
  Al  Al11  1  0.988196  0.326305  0.570764  1
  Al  Al12  1  0.665446  0.657405  0.943081  1
  Al  Al13  1  0.342567  0.334534  0.056840  1
  Al  Al14  1  0.674712  0.667870  0.550616  1
  Al  Al15  1  0.332104  0.325277  0.449452  1
  Al  Al16  1  0.123589  0.126096  0.741738  1
  Al  Al17  1  0.873842  0.876392  0.258264  1
  Al  Al18  1  0.460619  0.662768  0.251008  1
  Al  Al19  1  0.337318  0.539503  0.749003  1
  Al  Al20  1  0.558481  0.339084  0.747662  1
  Al  Al21  1  0.660956  0.441693  0.252343  1
  Co  Co22  1  0.999491  0.000518  0.499967  1
  Co  Co23  1  0.669962  0.330041  0.000086  1
  Co  Co24  1  0.670092  0.329904  0.499902  1
  Pd  Pd25  1  0.999401  0.000603  0.000025  1
  Pd  Pd26  1  0.326962  0.673031  0.000041  1
  Pd  Pd27  1  0.327668  0.672314  0.499967  1
