# generated using pymatgen
data_Tm10Ga4BiOs
_symmetry_space_group_name_H-M   'P 1'
_cell_length_a   8.93694536
_cell_length_b   8.93694563
_cell_length_c   8.93694610
_cell_angle_alpha   130.39156241
_cell_angle_beta   130.39155990
_cell_angle_gamma   72.78156259
_symmetry_Int_Tables_number   1
_chemical_formula_structural   Tm10Ga4BiOs
_chemical_formula_sum   'Tm10 Ga4 Bi1 Os1'
_cell_volume   404.50190195
_cell_formula_units_Z   1
loop_
 _symmetry_equiv_pos_site_id
 _symmetry_equiv_pos_as_xyz
  1  'x, y, z'
loop_
 _atom_site_type_symbol
 _atom_site_label
 _atom_site_symmetry_multiplicity
 _atom_site_fract_x
 _atom_site_fract_y
 _atom_site_fract_z
 _atom_site_occupancy
  Tm  Tm0  1  0.982202  0.982202  0.000000  1
  Tm  Tm1  1  0.517798  0.517798  0.000000  1
  Tm  Tm2  1  0.843406  0.286681  0.836342  1
  Tm  Tm3  1  0.213319  0.656594  0.163658  1
  Tm  Tm4  1  0.450338  0.007063  0.163658  1
  Tm  Tm5  1  0.286681  0.450338  0.443275  1
  Tm  Tm6  1  0.049662  0.213319  0.556725  1
  Tm  Tm7  1  0.492937  0.049662  0.836342  1
  Tm  Tm8  1  0.656594  0.492937  0.443275  1
  Tm  Tm9  1  0.007063  0.843406  0.556725  1
  Ga  Ga10  1  0.125549  0.625549  0.751099  1
  Ga  Ga11  1  0.874451  0.374451  0.248901  1
  Ga  Ga12  1  0.625549  0.874451  0.500000  1
  Ga  Ga13  1  0.374451  0.125549  0.500000  1
  Bi  Bi14  1  0.750000  0.750000  0.000000  1
  Os  Os15  1  0.250000  0.250000  0.000000  1
