# generated using pymatgen
data_CeY7CdHgIr2
_symmetry_space_group_name_H-M   'P 1'
_cell_length_a   9.68644624
_cell_length_b   9.68644624
_cell_length_c   9.72092500
_cell_angle_alpha   59.88218658
_cell_angle_beta   59.88218659
_cell_angle_gamma   59.78361633
_symmetry_Int_Tables_number   1
_chemical_formula_structural   CeY7CdHgIr2
_chemical_formula_sum   'Ce2 Y14 Cd2 Hg2 Ir4'
_cell_volume   642.73678288
_cell_formula_units_Z   2
loop_
 _symmetry_equiv_pos_site_id
 _symmetry_equiv_pos_as_xyz
  1  'x, y, z'
loop_
 _atom_site_type_symbol
 _atom_site_label
 _atom_site_symmetry_multiplicity
 _atom_site_fract_x
 _atom_site_fract_y
 _atom_site_fract_z
 _atom_site_occupancy
  Ce  Ce0  1  0.345616  0.345616  0.348670  1
  Ce  Ce1  1  0.345616  0.345616  0.960097  1
  Y  Y2  1  0.354259  0.943675  0.351033  1
  Y  Y3  1  0.943675  0.354259  0.351033  1
  Y  Y4  1  0.811043  0.189247  0.190642  1
  Y  Y5  1  0.189247  0.811043  0.809068  1
  Y  Y6  1  0.189247  0.811043  0.190642  1
  Y  Y7  1  0.811043  0.189247  0.809068  1
  Y  Y8  1  0.187920  0.187920  0.812080  1
  Y  Y9  1  0.810999  0.810999  0.189001  1
  Y  Y10  1  0.938217  0.561930  0.563044  1
  Y  Y11  1  0.561930  0.938217  0.936811  1
  Y  Y12  1  0.561930  0.938217  0.563044  1
  Y  Y13  1  0.938217  0.561930  0.936811  1
  Y  Y14  1  0.561347  0.561347  0.938653  1
  Y  Y15  1  0.939022  0.939022  0.560978  1
  Cd  Cd16  1  0.578837  0.256617  0.582274  1
  Cd  Cd17  1  0.256617  0.578837  0.582274  1
  Hg  Hg18  1  0.583468  0.583468  0.585580  1
  Hg  Hg19  1  0.583468  0.583468  0.247484  1
  Ir  Ir20  1  0.144215  0.144215  0.140289  1
  Ir  Ir21  1  0.144215  0.144215  0.571281  1
  Ir  Ir22  1  0.148366  0.571487  0.140073  1
  Ir  Ir23  1  0.571487  0.148366  0.140073  1
