# generated using pymatgen
data_LaSmLu4(RuO7)2
_symmetry_space_group_name_H-M   'P 1'
_cell_length_a   6.36000901
_cell_length_b   6.36000761
_cell_length_c   7.42907731
_cell_angle_alpha   90.01902283
_cell_angle_beta   90.01902431
_cell_angle_gamma   109.52991485
_symmetry_Int_Tables_number   1
_chemical_formula_structural   LaSmLu4(RuO7)2
_chemical_formula_sum   'La1 Sm1 Lu4 Ru2 O14'
_cell_volume   283.21507125
_cell_formula_units_Z   1
loop_
 _symmetry_equiv_pos_site_id
 _symmetry_equiv_pos_as_xyz
  1  'x, y, z'
loop_
 _atom_site_type_symbol
 _atom_site_label
 _atom_site_symmetry_multiplicity
 _atom_site_fract_x
 _atom_site_fract_y
 _atom_site_fract_z
 _atom_site_occupancy
  La  La0  1  0.000000  0.000000  0.500000  1
  Sm  Sm1  1  0.000000  0.000000  0.000000  1
  Lu  Lu2  1  0.485380  0.938366  0.751673  1
  Lu  Lu3  1  0.514620  0.061634  0.248327  1
  Lu  Lu4  1  0.938366  0.485380  0.751673  1
  Lu  Lu5  1  0.061634  0.514620  0.248327  1
  Ru  Ru6  1  0.500000  0.500000  0.500000  1
  Ru  Ru7  1  0.500000  0.500000  0.000000  1
  O  O8  1  0.593832  0.593832  0.749751  1
  O  O9  1  0.406168  0.406168  0.250249  1
  O  O10  1  0.835485  0.123160  0.755414  1
  O  O11  1  0.164515  0.876840  0.244586  1
  O  O12  1  0.123160  0.835485  0.755414  1
  O  O13  1  0.876840  0.164515  0.244586  1
  O  O14  1  0.438679  0.177755  0.963762  1
  O  O15  1  0.556708  0.821683  0.463302  1
  O  O16  1  0.177755  0.438679  0.963762  1
  O  O17  1  0.821683  0.556708  0.463302  1
  O  O18  1  0.443292  0.178317  0.536698  1
  O  O19  1  0.561321  0.822245  0.036238  1
  O  O20  1  0.822245  0.561321  0.036238  1
  O  O21  1  0.178317  0.443292  0.536698  1
