# generated using pymatgen
data_YBi3(PS4)4
_symmetry_space_group_name_H-M   'P 1'
_cell_length_a   8.98555092
_cell_length_b   6.71368327
_cell_length_c   12.95384538
_cell_angle_alpha   89.89819050
_cell_angle_beta   121.06714076
_cell_angle_gamma   90.00909313
_symmetry_Int_Tables_number   1
_chemical_formula_structural   YBi3(PS4)4
_chemical_formula_sum   'Y1 Bi3 P4 S16'
_cell_volume   669.36470952
_cell_formula_units_Z   1
loop_
 _symmetry_equiv_pos_site_id
 _symmetry_equiv_pos_as_xyz
  1  'x, y, z'
loop_
 _atom_site_type_symbol
 _atom_site_label
 _atom_site_symmetry_multiplicity
 _atom_site_fract_x
 _atom_site_fract_y
 _atom_site_fract_z
 _atom_site_occupancy
  Y  Y0  1  0.444210  0.681585  0.836318  1
  Bi  Bi1  1  0.564773  0.327732  0.165677  1
  Bi  Bi2  1  0.432956  0.828365  0.332467  1
  Bi  Bi3  1  0.561462  0.170820  0.663311  1
  P  P4  1  0.310353  0.766112  0.037648  1
  P  P5  1  0.691719  0.266794  0.459725  1
  P  P6  1  0.310290  0.729683  0.542748  1
  P  P7  1  0.684272  0.234207  0.958366  1
  S  S8  1  0.570063  0.735251  0.086086  1
  S  S9  1  0.274595  0.027211  0.107466  1
  S  S10  1  0.258883  0.549139  0.128132  1
  S  S11  1  0.844613  0.241736  0.139785  1
  S  S12  1  0.153686  0.745909  0.360785  1
  S  S13  1  0.742451  0.048116  0.370781  1
  S  S14  1  0.726998  0.528009  0.390839  1
  S  S15  1  0.430960  0.236447  0.410462  1
  S  S16  1  0.569837  0.764235  0.590682  1
  S  S17  1  0.279425  0.471035  0.614538  1
  S  S18  1  0.261917  0.944611  0.635643  1
  S  S19  1  0.845940  0.255525  0.641614  1
  S  S20  1  0.159056  0.753344  0.856929  1
  S  S21  1  0.737509  0.453091  0.870622  1
  S  S22  1  0.717602  0.967843  0.890341  1
  S  S23  1  0.426429  0.273197  0.909034  1
