# generated using pymatgen
data_Y3Mg3Al2Hg
_symmetry_space_group_name_H-M   'P 1'
_cell_length_a   7.51065300
_cell_length_b   7.51065213
_cell_length_c   4.42449500
_cell_angle_alpha   90.00000000
_cell_angle_beta   90.00000000
_cell_angle_gamma   120.00000825
_symmetry_Int_Tables_number   1
_chemical_formula_structural   Y3Mg3Al2Hg
_chemical_formula_sum   'Y3 Mg3 Al2 Hg1'
_cell_volume   216.14721738
_cell_formula_units_Z   1
loop_
 _symmetry_equiv_pos_site_id
 _symmetry_equiv_pos_as_xyz
  1  'x, y, z'
loop_
 _atom_site_type_symbol
 _atom_site_label
 _atom_site_symmetry_multiplicity
 _atom_site_fract_x
 _atom_site_fract_y
 _atom_site_fract_z
 _atom_site_occupancy
  Y  Y0  1  0.000000  0.575328  0.000000  1
  Y  Y1  1  0.424672  0.424672  0.000000  1
  Y  Y2  1  0.575328  0.000000  0.000000  1
  Mg  Mg3  1  0.753758  0.753758  0.500000  1
  Mg  Mg4  1  0.246242  0.000000  0.500000  1
  Mg  Mg5  1  0.000000  0.246242  0.500000  1
  Al  Al6  1  0.666667  0.333333  0.500000  1
  Al  Al7  1  0.333333  0.666667  0.500000  1
  Hg  Hg8  1  0.000000  0.000000  0.000000  1
