# generated using pymatgen
data_Be2NbB2Mo3
_symmetry_space_group_name_H-M   'P 1'
_cell_length_a   4.62497831
_cell_length_b   4.62497678
_cell_length_c   6.43337700
_cell_angle_alpha   90.00000000
_cell_angle_beta   90.00000000
_cell_angle_gamma   139.18210879
_symmetry_Int_Tables_number   1
_chemical_formula_structural   Be2NbB2Mo3
_chemical_formula_sum   'Be2 Nb1 B2 Mo3'
_cell_volume   89.95144480
_cell_formula_units_Z   1
loop_
 _symmetry_equiv_pos_site_id
 _symmetry_equiv_pos_as_xyz
  1  'x, y, z'
loop_
 _atom_site_type_symbol
 _atom_site_label
 _atom_site_symmetry_multiplicity
 _atom_site_fract_x
 _atom_site_fract_y
 _atom_site_fract_z
 _atom_site_occupancy
  Be  Be0  1  0.563996  0.436004  0.000000  1
  Be  Be1  1  0.564942  0.435058  0.500000  1
  Nb  Nb2  1  0.851059  0.148941  0.000000  1
  B  B3  1  0.435191  0.564809  0.253386  1
  B  B4  1  0.435191  0.564809  0.746614  1
  Mo  Mo5  1  0.853828  0.146172  0.500000  1
  Mo  Mo6  1  0.147896  0.852104  0.252475  1
  Mo  Mo7  1  0.147896  0.852104  0.747525  1
