# generated using pymatgen
data_Tb4DyY(RuBr3)2
_symmetry_space_group_name_H-M   'P 1'
_cell_length_a   4.10737900
_cell_length_b   8.55844835
_cell_length_c   11.94741131
_cell_angle_alpha   87.38838478
_cell_angle_beta   90.00000000
_cell_angle_gamma   90.00000000
_symmetry_Int_Tables_number   1
_chemical_formula_structural   Tb4DyY(RuBr3)2
_chemical_formula_sum   'Tb4 Dy1 Y1 Ru2 Br6'
_cell_volume   419.54863723
_cell_formula_units_Z   1
loop_
 _symmetry_equiv_pos_site_id
 _symmetry_equiv_pos_as_xyz
  1  'x, y, z'
loop_
 _atom_site_type_symbol
 _atom_site_label
 _atom_site_symmetry_multiplicity
 _atom_site_fract_x
 _atom_site_fract_y
 _atom_site_fract_z
 _atom_site_occupancy
  Tb  Tb0  1  0.250000  0.275488  0.397146  1
  Tb  Tb1  1  0.750000  0.722380  0.603478  1
  Tb  Tb2  1  0.250000  0.862585  0.364647  1
  Tb  Tb3  1  0.250000  0.891221  0.825401  1
  Dy  Dy4  1  0.750000  0.135615  0.633646  1
  Y  Y5  1  0.750000  0.111057  0.173765  1
  Ru  Ru6  1  0.250000  0.939621  0.595589  1
  Ru  Ru7  1  0.750000  0.059142  0.403668  1
  Br  Br8  1  0.250000  0.426788  0.630630  1
  Br  Br9  1  0.750000  0.569488  0.372239  1
  Br  Br10  1  0.250000  0.880521  0.103094  1
  Br  Br11  1  0.750000  0.125189  0.895865  1
  Br  Br12  1  0.250000  0.349340  0.143633  1
  Br  Br13  1  0.750000  0.651563  0.857204  1
