# generated using pymatgen
data_Cs4PdPtSe32
_symmetry_space_group_name_H-M   'P 1'
_cell_length_a   12.99953600
_cell_length_b   12.99953600
_cell_length_c   7.26841900
_cell_angle_alpha   90.00000000
_cell_angle_beta   90.00000000
_cell_angle_gamma   90.00000000
_symmetry_Int_Tables_number   1
_chemical_formula_structural   Cs4PdPtSe32
_chemical_formula_sum   'Cs4 Pd1 Pt1 Se32'
_cell_volume   1228.27512636
_cell_formula_units_Z   1
loop_
 _symmetry_equiv_pos_site_id
 _symmetry_equiv_pos_as_xyz
  1  'x, y, z'
loop_
 _atom_site_type_symbol
 _atom_site_label
 _atom_site_symmetry_multiplicity
 _atom_site_fract_x
 _atom_site_fract_y
 _atom_site_fract_z
 _atom_site_occupancy
  Cs  Cs0  1  0.500000  0.000000  0.000031  1
  Cs  Cs1  1  0.000000  0.500000  0.999969  1
  Cs  Cs2  1  0.500000  0.500000  0.500000  1
  Cs  Cs3  1  0.000000  0.000000  0.500000  1
  Pd  Pd4  1  0.500000  0.500000  0.000000  1
  Pt  Pt5  1  0.000000  0.000000  0.000000  1
  Se  Se6  1  0.191079  0.423120  0.582009  1
  Se  Se7  1  0.808921  0.576880  0.582009  1
  Se  Se8  1  0.576880  0.191079  0.417991  1
  Se  Se9  1  0.423120  0.808921  0.417991  1
  Se  Se10  1  0.308874  0.923114  0.582058  1
  Se  Se11  1  0.076886  0.308874  0.417942  1
  Se  Se12  1  0.814397  0.965100  0.968912  1
  Se  Se13  1  0.034900  0.814397  0.031088  1
  Se  Se14  1  0.965100  0.185603  0.031088  1
  Se  Se15  1  0.185603  0.034900  0.968912  1
  Se  Se16  1  0.535411  0.686260  0.032045  1
  Se  Se17  1  0.464589  0.313740  0.032045  1
  Se  Se18  1  0.686260  0.464589  0.967955  1
  Se  Se19  1  0.313740  0.535411  0.967955  1
  Se  Se20  1  0.789308  0.203976  0.126202  1
  Se  Se21  1  0.796024  0.789308  0.873798  1
  Se  Se22  1  0.203976  0.210692  0.873798  1
  Se  Se23  1  0.210692  0.796024  0.126202  1
  Se  Se24  1  0.296022  0.710200  0.874497  1
  Se  Se25  1  0.703978  0.289800  0.874497  1
  Se  Se26  1  0.710200  0.703978  0.125503  1
  Se  Se27  1  0.289800  0.296022  0.125503  1
  Se  Se28  1  0.919270  0.308442  0.587413  1
  Se  Se29  1  0.691558  0.919270  0.412587  1
  Se  Se30  1  0.308442  0.080730  0.412587  1
  Se  Se31  1  0.080730  0.691558  0.587413  1
  Se  Se32  1  0.191583  0.580749  0.412608  1
  Se  Se33  1  0.808417  0.419251  0.412608  1
  Se  Se34  1  0.580749  0.808417  0.587392  1
  Se  Se35  1  0.419251  0.191583  0.587392  1
  Se  Se36  1  0.691126  0.076886  0.582058  1
  Se  Se37  1  0.923114  0.691126  0.417942  1
