# generated using pymatgen
data_Pr8Re2MoOsC8
_symmetry_space_group_name_H-M   'P 1'
_cell_length_a   5.41467400
_cell_length_b   6.76968242
_cell_length_c   10.31100860
_cell_angle_alpha   89.67987474
_cell_angle_beta   90.00000000
_cell_angle_gamma   90.00000000
_symmetry_Int_Tables_number   1
_chemical_formula_structural   Pr8Re2MoOsC8
_chemical_formula_sum   'Pr8 Re2 Mo1 Os1 C8'
_cell_volume   377.95054888
_cell_formula_units_Z   1
loop_
 _symmetry_equiv_pos_site_id
 _symmetry_equiv_pos_as_xyz
  1  'x, y, z'
loop_
 _atom_site_type_symbol
 _atom_site_label
 _atom_site_symmetry_multiplicity
 _atom_site_fract_x
 _atom_site_fract_y
 _atom_site_fract_z
 _atom_site_occupancy
  Pr  Pr0  1  0.750000  0.523998  0.788125  1
  Pr  Pr1  1  0.250000  0.973141  0.286854  1
  Pr  Pr2  1  0.750000  0.687557  0.448841  1
  Pr  Pr3  1  0.250000  0.812422  0.949726  1
  Pr  Pr4  1  0.750000  0.189476  0.051236  1
  Pr  Pr5  1  0.250000  0.311323  0.550944  1
  Pr  Pr6  1  0.250000  0.474710  0.214520  1
  Pr  Pr7  1  0.750000  0.029163  0.715333  1
  Re  Re8  1  0.750000  0.230884  0.355720  1
  Re  Re9  1  0.750000  0.731554  0.143245  1
  Mo  Mo10  1  0.250000  0.769541  0.643035  1
  Os  Os11  1  0.250000  0.268670  0.856940  1
  C  C12  1  0.250000  0.686275  0.462192  1
  C  C13  1  0.250000  0.528511  0.758949  1
  C  C14  1  0.750000  0.467506  0.241342  1
  C  C15  1  0.750000  0.811969  0.964442  1
  C  C16  1  0.250000  0.036936  0.743763  1
  C  C17  1  0.250000  0.187765  0.034206  1
  C  C18  1  0.750000  0.310905  0.533631  1
  C  C19  1  0.750000  0.967696  0.256959  1
