# generated using pymatgen
data_Li2AgAsPd4
_symmetry_space_group_name_H-M   'P 1'
_cell_length_a   5.63057300
_cell_length_b   5.63060000
_cell_length_c   7.12437200
_cell_angle_alpha   90.00003053
_cell_angle_beta   89.99998982
_cell_angle_gamma   89.99808695
_symmetry_Int_Tables_number   1
_chemical_formula_structural   Li2AgAsPd4
_chemical_formula_sum   'Li4 Ag2 As2 Pd8'
_cell_volume   225.86755858
_cell_formula_units_Z   2
loop_
 _symmetry_equiv_pos_site_id
 _symmetry_equiv_pos_as_xyz
  1  'x, y, z'
loop_
 _atom_site_type_symbol
 _atom_site_label
 _atom_site_symmetry_multiplicity
 _atom_site_fract_x
 _atom_site_fract_y
 _atom_site_fract_z
 _atom_site_occupancy
  Li  Li0  1  0.750028  0.249981  0.999998  1
  Li  Li1  1  0.249972  0.750020  0.999998  1
  Li  Li2  1  0.250002  0.750010  0.500004  1
  Li  Li3  1  0.749998  0.249991  0.500006  1
  Ag  Ag4  1  0.749971  0.749993  0.500007  1
  Ag  Ag5  1  0.250029  0.250007  0.500007  1
  As  As6  1  0.249991  0.250008  0.999988  1
  As  As7  1  0.750009  0.749992  0.999987  1
  Pd  Pd8  1  0.500001  0.000001  0.225530  1
  Pd  Pd9  1  0.500000  0.500001  0.225525  1
  Pd  Pd10  1  0.000000  0.000000  0.225565  1
  Pd  Pd11  1  0.000000  0.500001  0.225558  1
  Pd  Pd12  1  0.999998  0.000000  0.774438  1
  Pd  Pd13  1  0.000000  0.500000  0.774446  1
  Pd  Pd14  1  0.499999  0.000000  0.774468  1
  Pd  Pd15  1  0.500000  0.500000  0.774477  1
