# generated using pymatgen
data_Nd16Cd4PdPt3
_symmetry_space_group_name_H-M   'P 1'
_cell_length_a   10.01523541
_cell_length_b   10.01523540
_cell_length_c   10.01523532
_cell_angle_alpha   60.32992681
_cell_angle_beta   60.32993019
_cell_angle_gamma   60.32992995
_symmetry_Int_Tables_number   1
_chemical_formula_structural   Nd16Cd4PdPt3
_chemical_formula_sum   'Nd16 Cd4 Pd1 Pt3'
_cell_volume   715.64604679
_cell_formula_units_Z   1
loop_
 _symmetry_equiv_pos_site_id
 _symmetry_equiv_pos_as_xyz
  1  'x, y, z'
loop_
 _atom_site_type_symbol
 _atom_site_label
 _atom_site_symmetry_multiplicity
 _atom_site_fract_x
 _atom_site_fract_y
 _atom_site_fract_z
 _atom_site_occupancy
  Nd  Nd0  1  0.348979  0.348979  0.348979  1
  Nd  Nd1  1  0.352029  0.352029  0.945677  1
  Nd  Nd2  1  0.352029  0.945677  0.352029  1
  Nd  Nd3  1  0.945677  0.352029  0.352029  1
  Nd  Nd4  1  0.808205  0.192171  0.192171  1
  Nd  Nd5  1  0.192016  0.808199  0.808199  1
  Nd  Nd6  1  0.192171  0.808205  0.192171  1
  Nd  Nd7  1  0.808199  0.192016  0.808199  1
  Nd  Nd8  1  0.192171  0.192171  0.808205  1
  Nd  Nd9  1  0.808199  0.808199  0.192016  1
  Nd  Nd10  1  0.939007  0.563906  0.563906  1
  Nd  Nd11  1  0.564356  0.935047  0.935047  1
  Nd  Nd12  1  0.563906  0.939007  0.563906  1
  Nd  Nd13  1  0.935047  0.564356  0.935047  1
  Nd  Nd14  1  0.563906  0.563906  0.939007  1
  Nd  Nd15  1  0.935047  0.935047  0.564356  1
  Cd  Cd16  1  0.580562  0.580562  0.580562  1
  Cd  Cd17  1  0.580414  0.580414  0.257903  1
  Cd  Cd18  1  0.580414  0.257903  0.580414  1
  Cd  Cd19  1  0.257903  0.580414  0.580414  1
  Pd  Pd20  1  0.143792  0.143792  0.143792  1
  Pt  Pt21  1  0.142382  0.142382  0.571209  1
  Pt  Pt22  1  0.142382  0.571209  0.142382  1
  Pt  Pt23  1  0.571209  0.142382  0.142382  1
