# generated using pymatgen
data_Hf2ScGa3NiPt2
_symmetry_space_group_name_H-M   'P 1'
_cell_length_a   7.20819782
_cell_length_b   7.20819768
_cell_length_c   3.37763500
_cell_angle_alpha   90.00000000
_cell_angle_beta   90.00000000
_cell_angle_gamma   119.94549734
_symmetry_Int_Tables_number   1
_chemical_formula_structural   Hf2ScGa3NiPt2
_chemical_formula_sum   'Hf2 Sc1 Ga3 Ni1 Pt2'
_cell_volume   152.06700325
_cell_formula_units_Z   1
loop_
 _symmetry_equiv_pos_site_id
 _symmetry_equiv_pos_as_xyz
  1  'x, y, z'
loop_
 _atom_site_type_symbol
 _atom_site_label
 _atom_site_symmetry_multiplicity
 _atom_site_fract_x
 _atom_site_fract_y
 _atom_site_fract_z
 _atom_site_occupancy
  Hf  Hf0  1  0.608980  0.000091  0.500000  1
  Hf  Hf1  1  0.000091  0.608980  0.500000  1
  Sc  Sc2  1  0.392910  0.392910  0.500000  1
  Ga  Ga3  1  0.739476  0.739476  0.000000  1
  Ga  Ga4  1  0.256886  0.004570  0.000000  1
  Ga  Ga5  1  0.004570  0.256886  0.000000  1
  Ni  Ni6  1  0.993179  0.993179  0.500000  1
  Pt  Pt7  1  0.670993  0.332915  0.000000  1
  Pt  Pt8  1  0.332915  0.670993  0.000000  1
