# generated using pymatgen
data_LaPr4Bi3C
_symmetry_space_group_name_H-M   'P 1'
_cell_length_a   9.55356186
_cell_length_b   9.56058383
_cell_length_c   6.79868800
_cell_angle_alpha   89.99997650
_cell_angle_beta   90.00001443
_cell_angle_gamma   120.02430681
_symmetry_Int_Tables_number   1
_chemical_formula_structural   LaPr4Bi3C
_chemical_formula_sum   'La2 Pr8 Bi6 C2'
_cell_volume   537.64926002
_cell_formula_units_Z   2
loop_
 _symmetry_equiv_pos_site_id
 _symmetry_equiv_pos_as_xyz
  1  'x, y, z'
loop_
 _atom_site_type_symbol
 _atom_site_label
 _atom_site_symmetry_multiplicity
 _atom_site_fract_x
 _atom_site_fract_y
 _atom_site_fract_z
 _atom_site_occupancy
  La  La0  1  0.787473  0.787616  0.750001  1
  La  La1  1  0.212527  0.000143  0.750001  1
  Pr  Pr2  1  0.666789  0.333164  0.000036  1
  Pr  Pr3  1  0.333211  0.666377  0.000036  1
  Pr  Pr4  1  0.333212  0.666376  0.499964  1
  Pr  Pr5  1  0.666788  0.333163  0.499964  1
  Pr  Pr6  1  0.000000  0.212521  0.749998  1
  Pr  Pr7  1  0.212479  0.212884  0.250001  1
  Pr  Pr8  1  0.787521  0.000405  0.250001  1
  Pr  Pr9  1  0.000000  0.788462  0.250000  1
  Bi  Bi10  1  0.401807  0.402627  0.750000  1
  Bi  Bi11  1  0.598193  0.000820  0.750000  1
  Bi  Bi12  1  0.000000  0.596149  0.750000  1
  Bi  Bi13  1  0.598106  0.598113  0.250000  1
  Bi  Bi14  1  0.401894  0.000007  0.250000  1
  Bi  Bi15  1  0.000000  0.401776  0.249999  1
  C  C16  1  0.000000  0.999699  0.999839  1
  C  C17  1  0.000000  0.999699  0.500161  1
