# generated using pymatgen
data_TmCo3Ni2P3
_symmetry_space_group_name_H-M   'P 1'
_cell_length_a   3.65406700
_cell_length_b   10.21217800
_cell_length_c   11.76678600
_cell_angle_alpha   90.00000000
_cell_angle_beta   90.00000000
_cell_angle_gamma   90.00000000
_symmetry_Int_Tables_number   1
_chemical_formula_structural   TmCo3Ni2P3
_chemical_formula_sum   'Tm4 Co12 Ni8 P12'
_cell_volume   439.08918196
_cell_formula_units_Z   4
loop_
 _symmetry_equiv_pos_site_id
 _symmetry_equiv_pos_as_xyz
  1  'x, y, z'
loop_
 _atom_site_type_symbol
 _atom_site_label
 _atom_site_symmetry_multiplicity
 _atom_site_fract_x
 _atom_site_fract_y
 _atom_site_fract_z
 _atom_site_occupancy
  Tm  Tm0  1  0.250000  0.582464  0.703620  1
  Tm  Tm1  1  0.250000  0.917536  0.203620  1
  Tm  Tm2  1  0.750000  0.417536  0.296380  1
  Tm  Tm3  1  0.750000  0.082464  0.796380  1
  Co  Co4  1  0.250000  0.221350  0.176859  1
  Co  Co5  1  0.250000  0.278650  0.676859  1
  Co  Co6  1  0.750000  0.778650  0.823141  1
  Co  Co7  1  0.750000  0.721350  0.323141  1
  Co  Co8  1  0.250000  0.882073  0.697952  1
  Co  Co9  1  0.250000  0.617927  0.197952  1
  Co  Co10  1  0.750000  0.117927  0.302048  1
  Co  Co11  1  0.750000  0.382073  0.802048  1
  Co  Co12  1  0.250000  0.467776  0.932326  1
  Co  Co13  1  0.250000  0.032224  0.432326  1
  Co  Co14  1  0.750000  0.532224  0.067674  1
  Co  Co15  1  0.750000  0.967776  0.567674  1
  Ni  Ni16  1  0.250000  0.714421  0.990008  1
  Ni  Ni17  1  0.250000  0.785579  0.490008  1
  Ni  Ni18  1  0.750000  0.285579  0.009992  1
  Ni  Ni19  1  0.750000  0.214421  0.509992  1
  Ni  Ni20  1  0.250000  0.408420  0.484996  1
  Ni  Ni21  1  0.250000  0.091580  0.984996  1
  Ni  Ni22  1  0.750000  0.591580  0.515004  1
  Ni  Ni23  1  0.750000  0.908420  0.015004  1
  P  P24  1  0.250000  0.419218  0.113473  1
  P  P25  1  0.250000  0.080782  0.613473  1
  P  P26  1  0.750000  0.580782  0.886527  1
  P  P27  1  0.750000  0.919218  0.386527  1
  P  P28  1  0.250000  0.271248  0.866257  1
  P  P29  1  0.250000  0.228752  0.366257  1
  P  P30  1  0.750000  0.728752  0.133743  1
  P  P31  1  0.750000  0.771248  0.633743  1
  P  P32  1  0.250000  0.603302  0.387018  1
  P  P33  1  0.250000  0.896698  0.887018  1
  P  P34  1  0.750000  0.396698  0.612982  1
  P  P35  1  0.750000  0.103302  0.112982  1
