# generated using pymatgen
data_Tb7ErTi11Si16Ir
_symmetry_space_group_name_H-M   'P 1'
_cell_length_a   7.04545228
_cell_length_b   7.04837239
_cell_length_c   12.90152019
_cell_angle_alpha   90.11961325
_cell_angle_beta   89.88473993
_cell_angle_gamma   89.85532369
_symmetry_Int_Tables_number   1
_chemical_formula_structural   Tb7ErTi11Si16Ir
_chemical_formula_sum   'Tb7 Er1 Ti11 Si16 Ir1'
_cell_volume   640.67147992
_cell_formula_units_Z   1
loop_
 _symmetry_equiv_pos_site_id
 _symmetry_equiv_pos_as_xyz
  1  'x, y, z'
loop_
 _atom_site_type_symbol
 _atom_site_label
 _atom_site_symmetry_multiplicity
 _atom_site_fract_x
 _atom_site_fract_y
 _atom_site_fract_z
 _atom_site_occupancy
  Tb  Tb0  1  0.495873  0.841764  0.717901  1
  Tb  Tb1  1  0.501205  0.158295  0.215144  1
  Tb  Tb2  1  0.841514  0.495878  0.282284  1
  Tb  Tb3  1  0.158492  0.501206  0.784859  1
  Tb  Tb4  1  0.657531  0.997344  0.968582  1
  Tb  Tb5  1  0.004644  0.340358  0.532427  1
  Tb  Tb6  1  0.997346  0.657370  0.031507  1
  Er  Er7  1  0.341195  0.003390  0.467311  1
  Ti  Ti8  1  0.175768  0.827069  0.248444  1
  Ti  Ti9  1  0.826918  0.175586  0.751501  1
  Ti  Ti10  1  0.673494  0.674143  0.499998  1
  Ti  Ti11  1  0.149940  0.003116  0.876274  1
  Ti  Ti12  1  0.493383  0.657282  0.125593  1
  Ti  Ti13  1  0.506407  0.349113  0.628056  1
  Ti  Ti14  1  0.657274  0.493380  0.874578  1
  Ti  Ti15  1  0.349121  0.507063  0.371773  1
  Ti  Ti16  1  0.848761  0.993610  0.375421  1
  Ti  Ti17  1  0.003412  0.149656  0.123809  1
  Ti  Ti18  1  0.993511  0.849011  0.624426  1
  Si  Si19  1  0.201924  0.132263  0.685554  1
  Si  Si20  1  0.373088  0.699710  0.934747  1
  Si  Si21  1  0.629336  0.295707  0.434995  1
  Si  Si22  1  0.699702  0.373033  0.065300  1
  Si  Si23  1  0.296921  0.631805  0.564676  1
  Si  Si24  1  0.797423  0.868731  0.184839  1
  Si  Si25  1  0.133107  0.200847  0.314720  1
  Si  Si26  1  0.868856  0.797523  0.815170  1
  Si  Si27  1  0.285676  0.950617  0.064173  1
  Si  Si28  1  0.547052  0.791983  0.316340  1
  Si  Si29  1  0.448946  0.210590  0.818418  1
  Si  Si30  1  0.791228  0.547621  0.683970  1
  Si  Si31  1  0.210559  0.448729  0.181698  1
  Si  Si32  1  0.708101  0.048301  0.565474  1
  Si  Si33  1  0.950972  0.285559  0.935749  1
  Si  Si34  1  0.049293  0.710122  0.434232  1
  Ir  Ir35  1  0.332024  0.332225  0.000058  1
