# generated using pymatgen
data_Hf10In3CuSb4
_symmetry_space_group_name_H-M   'P 1'
_cell_length_a   5.87468700
_cell_length_b   8.64924297
_cell_length_c   8.64932700
_cell_angle_alpha   119.99954465
_cell_angle_beta   89.99993923
_cell_angle_gamma   90.00029348
_symmetry_Int_Tables_number   1
_chemical_formula_structural   Hf10In3CuSb4
_chemical_formula_sum   'Hf10 In3 Cu1 Sb4'
_cell_volume   380.60787595
_cell_formula_units_Z   1
loop_
 _symmetry_equiv_pos_site_id
 _symmetry_equiv_pos_as_xyz
  1  'x, y, z'
loop_
 _atom_site_type_symbol
 _atom_site_label
 _atom_site_symmetry_multiplicity
 _atom_site_fract_x
 _atom_site_fract_y
 _atom_site_fract_z
 _atom_site_occupancy
  Hf  Hf0  1  0.498268  0.333330  0.666666  1
  Hf  Hf1  1  0.498267  0.666663  0.333332  1
  Hf  Hf2  1  0.002373  0.666661  0.333331  1
  Hf  Hf3  1  0.002376  0.333329  0.666665  1
  Hf  Hf4  1  0.732940  0.269321  0.999997  1
  Hf  Hf5  1  0.732934  0.730676  0.730677  1
  Hf  Hf6  1  0.732937  0.999996  0.269320  1
  Hf  Hf7  1  0.268584  0.723417  0.999999  1
  Hf  Hf8  1  0.268582  0.276584  0.276587  1
  Hf  Hf9  1  0.268584  0.999993  0.723411  1
  In  In10  1  0.245761  0.383375  0.999999  1
  In  In11  1  0.245742  0.616602  0.616604  1
  In  In12  1  0.245740  0.999997  0.383394  1
  Cu  Cu13  1  0.482463  0.000074  0.000030  1
  Sb  Sb14  1  0.755459  0.609676  0.999997  1
  Sb  Sb15  1  0.755463  0.390317  0.390320  1
  Sb  Sb16  1  0.755460  0.999992  0.609674  1
  Sb  Sb17  1  0.008069  0.999995  0.999997  1
