# generated using pymatgen
data_SmDyGa6(NiHg)2
_symmetry_space_group_name_H-M   'P 1'
_cell_length_a   4.19053615
_cell_length_b   6.60472700
_cell_length_c   8.18574822
_cell_angle_alpha   90.00000000
_cell_angle_beta   104.83078497
_cell_angle_gamma   90.00000000
_symmetry_Int_Tables_number   1
_chemical_formula_structural   SmDyGa6(NiHg)2
_chemical_formula_sum   'Sm1 Dy1 Ga6 Ni2 Hg2'
_cell_volume   219.01218271
_cell_formula_units_Z   1
loop_
 _symmetry_equiv_pos_site_id
 _symmetry_equiv_pos_as_xyz
  1  'x, y, z'
loop_
 _atom_site_type_symbol
 _atom_site_label
 _atom_site_symmetry_multiplicity
 _atom_site_fract_x
 _atom_site_fract_y
 _atom_site_fract_z
 _atom_site_occupancy
  Sm  Sm0  1  0.375663  0.750000  0.751327  1
  Dy  Dy1  1  0.624984  0.250000  0.249967  1
  Ga  Ga2  1  0.573322  0.750000  0.146646  1
  Ga  Ga3  1  0.426983  0.250000  0.853963  1
  Ga  Ga4  1  0.188102  0.549324  0.376204  1
  Ga  Ga5  1  0.810522  0.449095  0.621045  1
  Ga  Ga6  1  0.188102  0.950676  0.376204  1
  Ga  Ga7  1  0.810522  0.050905  0.621045  1
  Ni  Ni8  1  0.721395  0.750000  0.442791  1
  Ni  Ni9  1  0.277957  0.250000  0.555912  1
  Hg  Hg10  1  0.001224  0.497978  0.002448  1
  Hg  Hg11  1  0.001224  0.002022  0.002448  1
