# generated using pymatgen
data_ReIr3F24
_symmetry_space_group_name_H-M   'P 1'
_cell_length_a   9.90106513
_cell_length_b   9.03356866
_cell_length_c   5.24448257
_cell_angle_alpha   90.09019901
_cell_angle_beta   89.56532357
_cell_angle_gamma   90.13040976
_symmetry_Int_Tables_number   1
_chemical_formula_structural   ReIr3F24
_chemical_formula_sum   'Re1 Ir3 F24'
_cell_volume   469.06147391
_cell_formula_units_Z   1
loop_
 _symmetry_equiv_pos_site_id
 _symmetry_equiv_pos_as_xyz
  1  'x, y, z'
loop_
 _atom_site_type_symbol
 _atom_site_label
 _atom_site_symmetry_multiplicity
 _atom_site_fract_x
 _atom_site_fract_y
 _atom_site_fract_z
 _atom_site_occupancy
  Re  Re0  1  0.373060  0.750030  0.091604  1
  Ir  Ir1  1  0.873510  0.749907  0.408692  1
  Ir  Ir2  1  0.126069  0.250116  0.591161  1
  Ir  Ir3  1  0.627540  0.249937  0.908294  1
  F  F4  1  0.734586  0.102741  0.057336  1
  F  F5  1  0.734992  0.397362  0.057767  1
  F  F6  1  0.760269  0.749657  0.121744  1
  F  F7  1  0.514042  0.249997  0.197272  1
  F  F8  1  0.981819  0.603212  0.256119  1
  F  F9  1  0.982173  0.896711  0.256577  1
  F  F10  1  0.478711  0.604394  0.236828  1
  F  F11  1  0.479119  0.896343  0.237150  1
  F  F12  1  0.014164  0.249858  0.303904  1
  F  F13  1  0.263307  0.750048  0.382212  1
  F  F14  1  0.234479  0.102568  0.440307  1
  F  F15  1  0.234881  0.397710  0.440723  1
  F  F16  1  0.764789  0.602998  0.559637  1
  F  F17  1  0.765116  0.896721  0.560010  1
  F  F18  1  0.739543  0.249872  0.617971  1
  F  F19  1  0.986723  0.750176  0.695133  1
  F  F20  1  0.519093  0.102108  0.759423  1
  F  F21  1  0.519531  0.397579  0.759923  1
  F  F22  1  0.018441  0.102689  0.742678  1
  F  F23  1  0.018850  0.397489  0.743088  1
  F  F24  1  0.483006  0.750022  0.801608  1
  F  F25  1  0.238553  0.250316  0.878807  1
  F  F26  1  0.266628  0.603896  0.946898  1
  F  F27  1  0.266998  0.895543  0.947146  1
