# generated using pymatgen
data_Er5Tm(FeCo3)4
_symmetry_space_group_name_H-M   'P 1'
_cell_length_a   7.53700830
_cell_length_b   7.53700821
_cell_length_c   7.53700801
_cell_angle_alpha   109.46851442
_cell_angle_beta   109.46851217
_cell_angle_gamma   109.47662989
_symmetry_Int_Tables_number   1
_chemical_formula_structural   Er5Tm(FeCo3)4
_chemical_formula_sum   'Er5 Tm1 Fe4 Co12'
_cell_volume   329.59081121
_cell_formula_units_Z   1
loop_
 _symmetry_equiv_pos_site_id
 _symmetry_equiv_pos_as_xyz
  1  'x, y, z'
loop_
 _atom_site_type_symbol
 _atom_site_label
 _atom_site_symmetry_multiplicity
 _atom_site_fract_x
 _atom_site_fract_y
 _atom_site_fract_z
 _atom_site_occupancy
  Er  Er0  1  0.282789  0.999926  0.282862  1
  Er  Er1  1  0.999926  0.282789  0.282862  1
  Er  Er2  1  0.283206  0.283206  0.000000  1
  Er  Er3  1  0.717064  0.999926  0.717138  1
  Er  Er4  1  0.999926  0.717064  0.717138  1
  Tm  Tm5  1  0.716597  0.716597  0.000000  1
  Fe  Fe6  1  0.999894  0.999894  0.499810  1
  Fe  Fe7  1  0.999894  0.500084  0.000000  1
  Fe  Fe8  1  0.500084  0.999894  0.000000  1
  Fe  Fe9  1  0.500084  0.500084  0.500190  1
  Co  Co10  1  0.336127  0.336127  0.672005  1
  Co  Co11  1  0.664132  0.999854  0.335722  1
  Co  Co12  1  0.999854  0.664132  0.335722  1
  Co  Co13  1  0.664120  0.336127  0.000000  1
  Co  Co14  1  0.335878  0.671739  0.335862  1
  Co  Co15  1  0.000016  0.335878  0.664138  1
  Co  Co16  1  0.336127  0.664120  0.000000  1
  Co  Co17  1  0.335878  0.000016  0.664138  1
  Co  Co18  1  0.671739  0.335878  0.335862  1
  Co  Co19  1  0.664120  0.664120  0.327995  1
  Co  Co20  1  0.664132  0.328412  0.664278  1
  Co  Co21  1  0.328412  0.664132  0.664278  1
