# generated using pymatgen
data_Tm3Th(Tc3Ge4)2
_symmetry_space_group_name_H-M   'P 1'
_cell_length_a   8.31737929
_cell_length_b   5.71639334
_cell_length_c   7.00836087
_cell_angle_alpha   76.11496008
_cell_angle_beta   90.34069606
_cell_angle_gamma   90.19496764
_symmetry_Int_Tables_number   1
_chemical_formula_structural   Tm3Th(Tc3Ge4)2
_chemical_formula_sum   'Tm3 Th1 Tc6 Ge8'
_cell_volume   323.47218341
_cell_formula_units_Z   1
loop_
 _symmetry_equiv_pos_site_id
 _symmetry_equiv_pos_as_xyz
  1  'x, y, z'
loop_
 _atom_site_type_symbol
 _atom_site_label
 _atom_site_symmetry_multiplicity
 _atom_site_fract_x
 _atom_site_fract_y
 _atom_site_fract_z
 _atom_site_occupancy
  Tm  Tm0  1  0.052835  0.422847  0.755991  1
  Tm  Tm1  1  0.444310  0.923454  0.756864  1
  Tm  Tm2  1  0.944438  0.578382  0.242883  1
  Th  Th3  1  0.553251  0.076466  0.247910  1
  Tc  Tc4  1  0.210741  0.112636  0.114743  1
  Tc  Tc5  1  0.705998  0.382471  0.890907  1
  Tc  Tc6  1  0.795975  0.887241  0.885186  1
  Tc  Tc7  1  0.295337  0.613666  0.110087  1
  Tc  Tc8  1  0.999079  0.999537  0.498532  1
  Tc  Tc9  1  0.500147  0.499877  0.501086  1
  Ge  Ge10  1  0.906666  0.121406  0.126335  1
  Ge  Ge11  1  0.398242  0.385269  0.864391  1
  Ge  Ge12  1  0.099250  0.878159  0.871917  1
  Ge  Ge13  1  0.599808  0.623063  0.122448  1
  Ge  Ge14  1  0.751043  0.226250  0.582087  1
  Ge  Ge15  1  0.241609  0.284892  0.421885  1
  Ge  Ge16  1  0.246201  0.768497  0.423768  1
  Ge  Ge17  1  0.755070  0.715886  0.582978  1
