# generated using pymatgen
data_LuZr3(SiW)4
_symmetry_space_group_name_H-M   'P 1'
_cell_length_a   3.57380500
_cell_length_b   7.02803710
_cell_length_c   8.27529779
_cell_angle_alpha   90.03720171
_cell_angle_beta   90.00000000
_cell_angle_gamma   90.00000000
_symmetry_Int_Tables_number   1
_chemical_formula_structural   LuZr3(SiW)4
_chemical_formula_sum   'Lu1 Zr3 Si4 W4'
_cell_volume   207.84923821
_cell_formula_units_Z   1
loop_
 _symmetry_equiv_pos_site_id
 _symmetry_equiv_pos_as_xyz
  1  'x, y, z'
loop_
 _atom_site_type_symbol
 _atom_site_label
 _atom_site_symmetry_multiplicity
 _atom_site_fract_x
 _atom_site_fract_y
 _atom_site_fract_z
 _atom_site_occupancy
  Lu  Lu0  1  0.250000  0.040934  0.335313  1
  Zr  Zr1  1  0.250000  0.541662  0.164926  1
  Zr  Zr2  1  0.750000  0.958409  0.669662  1
  Zr  Zr3  1  0.750000  0.458310  0.832427  1
  Si  Si4  1  0.250000  0.259324  0.640156  1
  Si  Si5  1  0.250000  0.756389  0.861321  1
  Si  Si6  1  0.750000  0.737325  0.359208  1
  Si  Si7  1  0.750000  0.243721  0.137851  1
  W  W8  1  0.250000  0.131198  0.939202  1
  W  W9  1  0.250000  0.631000  0.559914  1
  W  W10  1  0.750000  0.869115  0.057900  1
  W  W11  1  0.750000  0.372613  0.442118  1
