# generated using pymatgen
data_Ca2Ag3SbO6
_symmetry_space_group_name_H-M   'P 1'
_cell_length_a   5.95719000
_cell_length_b   5.95719097
_cell_length_c   18.91269100
_cell_angle_alpha   90.00000000
_cell_angle_beta   90.00000000
_cell_angle_gamma   119.99999459
_symmetry_Int_Tables_number   1
_chemical_formula_structural   Ca2Ag3SbO6
_chemical_formula_sum   'Ca6 Ag9 Sb3 O18'
_cell_volume   581.25534164
_cell_formula_units_Z   3
loop_
 _symmetry_equiv_pos_site_id
 _symmetry_equiv_pos_as_xyz
  1  'x, y, z'
loop_
 _atom_site_type_symbol
 _atom_site_label
 _atom_site_symmetry_multiplicity
 _atom_site_fract_x
 _atom_site_fract_y
 _atom_site_fract_z
 _atom_site_occupancy
  Ca  Ca0  1  0.107044  0.892956  0.333333  1
  Ca  Ca1  1  0.107044  0.214088  0.666667  1
  Ca  Ca2  1  0.785912  0.892956  0.000000  1
  Ca  Ca3  1  0.773701  0.226299  0.333333  1
  Ca  Ca4  1  0.773701  0.547402  0.666667  1
  Ca  Ca5  1  0.452598  0.226299  0.000000  1
  Ag  Ag6  1  0.442609  0.221304  0.500000  1
  Ag  Ag7  1  0.778696  0.221304  0.833333  1
  Ag  Ag8  1  0.778696  0.557391  0.166667  1
  Ag  Ag9  1  0.149108  0.574554  0.500000  1
  Ag  Ag10  1  0.425446  0.574554  0.833333  1
  Ag  Ag11  1  0.425446  0.850892  0.166667  1
  Ag  Ag12  1  0.730798  0.865398  0.500000  1
  Ag  Ag13  1  0.134602  0.865398  0.833333  1
  Ag  Ag14  1  0.134602  0.269202  0.166667  1
  Sb  Sb15  1  0.440831  0.559169  0.333333  1
  Sb  Sb16  1  0.440831  0.881663  0.666667  1
  Sb  Sb17  1  0.118337  0.559169  0.000000  1
  O  O18  1  0.732009  0.559262  0.277050  1
  O  O19  1  0.440738  0.172747  0.610383  1
  O  O20  1  0.827253  0.267991  0.943717  1
  O  O21  1  0.732009  0.172747  0.722950  1
  O  O22  1  0.440738  0.267991  0.389617  1
  O  O23  1  0.827253  0.559262  0.056283  1
  O  O24  1  0.441089  0.851057  0.277508  1
  O  O25  1  0.148943  0.590032  0.610841  1
  O  O26  1  0.409968  0.558911  0.944175  1
  O  O27  1  0.441089  0.590032  0.722492  1
  O  O28  1  0.148943  0.558911  0.389159  1
  O  O29  1  0.409968  0.851057  0.055825  1
  O  O30  1  0.149550  0.267786  0.277518  1
  O  O31  1  0.732214  0.881764  0.610851  1
  O  O32  1  0.118236  0.850450  0.944184  1
  O  O33  1  0.149550  0.881764  0.722482  1
  O  O34  1  0.732214  0.850450  0.389149  1
  O  O35  1  0.118236  0.267786  0.055816  1
