# generated using pymatgen
data_Tb5Ho15Si15Os
_symmetry_space_group_name_H-M   'P 1'
_cell_length_a   7.37850180
_cell_length_b   7.73724970
_cell_length_c   14.54157276
_cell_angle_alpha   89.97511076
_cell_angle_beta   90.02753430
_cell_angle_gamma   90.03081214
_symmetry_Int_Tables_number   1
_chemical_formula_structural   Tb5Ho15Si15Os
_chemical_formula_sum   'Tb5 Ho15 Si15 Os1'
_cell_volume   830.16807370
_cell_formula_units_Z   1
loop_
 _symmetry_equiv_pos_site_id
 _symmetry_equiv_pos_as_xyz
  1  'x, y, z'
loop_
 _atom_site_type_symbol
 _atom_site_label
 _atom_site_symmetry_multiplicity
 _atom_site_fract_x
 _atom_site_fract_y
 _atom_site_fract_z
 _atom_site_occupancy
  Tb  Tb0  1  0.973821  0.182976  0.402740  1
  Tb  Tb1  1  0.474031  0.316337  0.403156  1
  Tb  Tb2  1  0.973875  0.182855  0.097010  1
  Tb  Tb3  1  0.522250  0.673123  0.903289  1
  Tb  Tb4  1  0.026255  0.817269  0.596546  1
  Ho  Ho5  1  0.671813  0.185273  0.625513  1
  Ho  Ho6  1  0.191335  0.324271  0.873576  1
  Ho  Ho7  1  0.318881  0.819173  0.123709  1
  Ho  Ho8  1  0.817251  0.678113  0.376572  1
  Ho  Ho9  1  0.319210  0.819018  0.376233  1
  Ho  Ho10  1  0.817593  0.678405  0.123144  1
  Ho  Ho11  1  0.671421  0.185492  0.874654  1
  Ho  Ho12  1  0.191601  0.324689  0.626492  1
  Ho  Ho13  1  0.522510  0.672968  0.597440  1
  Ho  Ho14  1  0.026895  0.816582  0.902840  1
  Ho  Ho15  1  0.472955  0.315642  0.097397  1
  Ho  Ho16  1  0.840758  0.511991  0.750007  1
  Ho  Ho17  1  0.354686  0.987264  0.749948  1
  Ho  Ho18  1  0.150442  0.485106  0.249928  1
  Ho  Ho19  1  0.650003  0.013736  0.249909  1
  Si  Si20  1  0.646424  0.970407  0.460677  1
  Si  Si21  1  0.149902  0.529141  0.039517  1
  Si  Si22  1  0.347875  0.025699  0.961317  1
  Si  Si23  1  0.855301  0.471283  0.539225  1
  Si  Si24  1  0.349104  0.024738  0.539087  1
  Si  Si25  1  0.856774  0.471651  0.960643  1
  Si  Si26  1  0.645692  0.971701  0.039786  1
  Si  Si27  1  0.148783  0.528998  0.460428  1
  Si  Si28  1  0.979714  0.101389  0.750259  1
  Si  Si29  1  0.523288  0.604653  0.249794  1
  Si  Si30  1  0.020601  0.893278  0.249893  1
  Si  Si31  1  0.740753  0.876388  0.750226  1
  Si  Si32  1  0.230438  0.633268  0.750072  1
  Si  Si33  1  0.268159  0.127838  0.249667  1
  Si  Si34  1  0.769103  0.372595  0.249618  1
  Os  Os35  1  0.480501  0.406686  0.749688  1
