# generated using pymatgen
data_Tb3Y3B14OsW
_symmetry_space_group_name_H-M   'P 1'
_cell_length_a   8.14613671
_cell_length_b   8.14613601
_cell_length_c   9.41731375
_cell_angle_alpha   89.95550560
_cell_angle_beta   90.04449435
_cell_angle_gamma   155.11962477
_symmetry_Int_Tables_number   1
_chemical_formula_structural   Tb3Y3B14OsW
_chemical_formula_sum   'Tb3 Y3 B14 Os1 W1'
_cell_volume   262.92306519
_cell_formula_units_Z   1
loop_
 _symmetry_equiv_pos_site_id
 _symmetry_equiv_pos_as_xyz
  1  'x, y, z'
loop_
 _atom_site_type_symbol
 _atom_site_label
 _atom_site_symmetry_multiplicity
 _atom_site_fract_x
 _atom_site_fract_y
 _atom_site_fract_z
 _atom_site_occupancy
  Tb  Tb0  1  0.894097  0.105903  0.937329  1
  Tb  Tb1  1  0.107055  0.892945  0.058844  1
  Tb  Tb2  1  0.894064  0.105936  0.562633  1
  Y  Y3  1  0.754962  0.245038  0.249972  1
  Y  Y4  1  0.243422  0.756578  0.749949  1
  Y  Y5  1  0.106967  0.893033  0.441191  1
  B  B6  1  0.544594  0.455406  0.250184  1
  B  B7  1  0.459008  0.540992  0.749954  1
  B  B8  1  0.521476  0.478524  0.903027  1
  B  B9  1  0.480141  0.519859  0.091508  1
  B  B10  1  0.480192  0.519808  0.408744  1
  B  B11  1  0.521452  0.478548  0.596885  1
  B  B12  1  0.631718  0.368282  0.848633  1
  B  B13  1  0.365344  0.634656  0.147392  1
  B  B14  1  0.726560  0.273440  0.964987  1
  B  B15  1  0.271988  0.728012  0.032229  1
  B  B16  1  0.271837  0.728163  0.467707  1
  B  B17  1  0.726454  0.273546  0.534976  1
  B  B18  1  0.631699  0.368301  0.651210  1
  B  B19  1  0.365335  0.634665  0.352591  1
  Os  Os20  1  0.054409  0.945591  0.749974  1
  W  W21  1  0.947224  0.052776  0.250083  1
