# generated using pymatgen
data_La5Nd3(SiBr6)2
_symmetry_space_group_name_H-M   'P 1'
_cell_length_a   4.27536400
_cell_length_b   13.85992379
_cell_length_c   14.73569248
_cell_angle_alpha   89.83323574
_cell_angle_beta   90.00000000
_cell_angle_gamma   90.00000000
_symmetry_Int_Tables_number   1
_chemical_formula_structural   La5Nd3(SiBr6)2
_chemical_formula_sum   'La5 Nd3 Si2 Br12'
_cell_volume   873.17772555
_cell_formula_units_Z   1
loop_
 _symmetry_equiv_pos_site_id
 _symmetry_equiv_pos_as_xyz
  1  'x, y, z'
loop_
 _atom_site_type_symbol
 _atom_site_label
 _atom_site_symmetry_multiplicity
 _atom_site_fract_x
 _atom_site_fract_y
 _atom_site_fract_z
 _atom_site_occupancy
  La  La0  1  0.500000  0.119800  0.337153  1
  La  La1  1  0.500000  0.877706  0.661272  1
  La  La2  1  0.500000  0.620846  0.161925  1
  La  La3  1  0.500000  0.380149  0.839310  1
  La  La4  1  0.000000  0.120344  0.579442  1
  Nd  Nd5  1  0.000000  0.881365  0.421737  1
  Nd  Nd6  1  0.000000  0.617931  0.922192  1
  Nd  Nd7  1  0.000000  0.382163  0.077981  1
  Si  Si8  1  0.500000  0.999267  0.499533  1
  Si  Si9  1  0.500000  0.500288  0.000454  1
  Br  Br10  1  0.500000  0.245996  0.160269  1
  Br  Br11  1  0.500000  0.753901  0.839679  1
  Br  Br12  1  0.500000  0.745325  0.339027  1
  Br  Br13  1  0.500000  0.257890  0.662041  1
  Br  Br14  1  0.000000  0.255050  0.410691  1
  Br  Br15  1  0.000000  0.745026  0.585927  1
  Br  Br16  1  0.000000  0.754154  0.085772  1
  Br  Br17  1  0.000000  0.245862  0.914175  1
  Br  Br18  1  0.000000  0.999195  0.245244  1
  Br  Br19  1  0.000000  0.997678  0.756071  1
  Br  Br20  1  0.000000  0.499246  0.254230  1
  Br  Br21  1  0.000000  0.500820  0.745874  1
