# generated using pymatgen
data_Yb2(PdAu3)3
_symmetry_space_group_name_H-M   'P 1'
_cell_length_a   5.64730913
_cell_length_b   5.64730878
_cell_length_c   9.99172000
_cell_angle_alpha   90.00000000
_cell_angle_beta   90.00000000
_cell_angle_gamma   122.30023407
_symmetry_Int_Tables_number   1
_chemical_formula_structural   Yb2(PdAu3)3
_chemical_formula_sum   'Yb2 Pd3 Au9'
_cell_volume   269.34783479
_cell_formula_units_Z   1
loop_
 _symmetry_equiv_pos_site_id
 _symmetry_equiv_pos_as_xyz
  1  'x, y, z'
loop_
 _atom_site_type_symbol
 _atom_site_label
 _atom_site_symmetry_multiplicity
 _atom_site_fract_x
 _atom_site_fract_y
 _atom_site_fract_z
 _atom_site_occupancy
  Yb  Yb0  1  0.000000  0.500000  0.755535  1
  Yb  Yb1  1  0.500000  0.000000  0.244465  1
  Pd  Pd2  1  0.000000  0.000000  0.500000  1
  Pd  Pd3  1  0.000000  0.000000  0.000000  1
  Pd  Pd4  1  0.500000  0.500000  0.500000  1
  Au  Au5  1  0.000000  0.500000  0.056666  1
  Au  Au6  1  0.500000  0.000000  0.541758  1
  Au  Au7  1  0.500000  0.000000  0.943334  1
  Au  Au8  1  0.000000  0.500000  0.458242  1
  Au  Au9  1  0.704212  0.800613  0.744821  1
  Au  Au10  1  0.199387  0.295788  0.255179  1
  Au  Au11  1  0.800613  0.704212  0.255179  1
  Au  Au12  1  0.295788  0.199387  0.744821  1
  Au  Au13  1  0.500000  0.500000  0.000000  1
