# generated using pymatgen
data_CaTbYb6(Si3Pd)4
_symmetry_space_group_name_H-M   'P 1'
_cell_length_a   8.24432700
_cell_length_b   8.24432535
_cell_length_c   8.23988300
_cell_angle_alpha   90.00000000
_cell_angle_beta   90.00000000
_cell_angle_gamma   120.00000262
_symmetry_Int_Tables_number   1
_chemical_formula_structural   CaTbYb6(Si3Pd)4
_chemical_formula_sum   'Ca1 Tb1 Yb6 Si12 Pd4'
_cell_volume   485.02262372
_cell_formula_units_Z   1
loop_
 _symmetry_equiv_pos_site_id
 _symmetry_equiv_pos_as_xyz
  1  'x, y, z'
loop_
 _atom_site_type_symbol
 _atom_site_label
 _atom_site_symmetry_multiplicity
 _atom_site_fract_x
 _atom_site_fract_y
 _atom_site_fract_z
 _atom_site_occupancy
  Ca  Ca0  1  0.000000  0.000000  0.250000  1
  Tb  Tb1  1  0.000000  0.000000  0.750000  1
  Yb  Yb2  1  0.501951  0.003901  0.250000  1
  Yb  Yb3  1  0.497830  0.995660  0.750000  1
  Yb  Yb4  1  0.996099  0.498049  0.250000  1
  Yb  Yb5  1  0.004340  0.502170  0.750000  1
  Yb  Yb6  1  0.501951  0.498049  0.250000  1
  Yb  Yb7  1  0.497830  0.502170  0.750000  1
  Si  Si8  1  0.164507  0.329013  0.998947  1
  Si  Si9  1  0.835500  0.671000  0.994801  1
  Si  Si10  1  0.670987  0.835493  0.998947  1
  Si  Si11  1  0.835500  0.671000  0.505199  1
  Si  Si12  1  0.329000  0.164500  0.994801  1
  Si  Si13  1  0.164507  0.329013  0.501053  1
  Si  Si14  1  0.164507  0.835493  0.998947  1
  Si  Si15  1  0.329000  0.164500  0.505199  1
  Si  Si16  1  0.835500  0.164500  0.994801  1
  Si  Si17  1  0.670987  0.835493  0.501053  1
  Si  Si18  1  0.835500  0.164500  0.505199  1
  Si  Si19  1  0.164507  0.835493  0.501053  1
  Pd  Pd20  1  0.333333  0.666667  0.004167  1
  Pd  Pd21  1  0.666667  0.333333  0.997575  1
  Pd  Pd22  1  0.666667  0.333333  0.502425  1
  Pd  Pd23  1  0.333333  0.666667  0.495833  1
