# generated using pymatgen
data_Zr6Ta2Co16SiP11
_symmetry_space_group_name_H-M   'P 1'
_cell_length_a   12.10765624
_cell_length_b   12.10568058
_cell_length_c   3.67153900
_cell_angle_alpha   90.00000000
_cell_angle_beta   90.00000000
_cell_angle_gamma   120.08017197
_symmetry_Int_Tables_number   1
_chemical_formula_structural   Zr6Ta2Co16SiP11
_chemical_formula_sum   'Zr6 Ta2 Co16 Si1 P11'
_cell_volume   465.66827434
_cell_formula_units_Z   1
loop_
 _symmetry_equiv_pos_site_id
 _symmetry_equiv_pos_as_xyz
  1  'x, y, z'
loop_
 _atom_site_type_symbol
 _atom_site_label
 _atom_site_symmetry_multiplicity
 _atom_site_fract_x
 _atom_site_fract_y
 _atom_site_fract_z
 _atom_site_occupancy
  Zr  Zr0  1  0.000429  0.555991  0.000000  1
  Zr  Zr1  1  0.665479  0.333735  0.000000  1
  Zr  Zr2  1  0.334401  0.667582  0.000000  1
  Zr  Zr3  1  0.823474  0.823149  0.500000  1
  Zr  Zr4  1  0.179274  0.000281  0.500000  1
  Zr  Zr5  1  0.000458  0.176989  0.500000  1
  Ta  Ta6  1  0.440463  0.440524  0.000000  1
  Ta  Ta7  1  0.554999  0.000954  0.000000  1
  Co  Co8  1  0.195146  0.373175  0.000000  1
  Co  Co9  1  0.181647  0.808778  0.000000  1
  Co  Co10  1  0.821512  0.626189  0.000000  1
  Co  Co11  1  0.804251  0.175939  0.000000  1
  Co  Co12  1  0.374279  0.195012  0.000000  1
  Co  Co13  1  0.127455  0.480817  0.500000  1
  Co  Co14  1  0.358967  0.875265  0.500000  1
  Co  Co15  1  0.515184  0.643595  0.500000  1
  Co  Co16  1  0.640752  0.516135  0.500000  1
  Co  Co17  1  0.872071  0.352097  0.500000  1
  Co  Co18  1  0.484409  0.127335  0.500000  1
  Co  Co19  1  0.000578  0.000371  0.000000  1
  Co  Co20  1  0.721059  0.000681  0.500000  1
  Co  Co21  1  0.000770  0.722988  0.500000  1
  Co  Co22  1  0.625425  0.825459  0.000000  1
  Co  Co23  1  0.278410  0.278876  0.500000  1
  Si  Si24  1  0.648735  0.650899  0.000000  1
  P  P25  1  0.352478  0.001910  0.000000  1
  P  P26  1  0.999678  0.345269  0.000000  1
  P  P27  1  0.479980  0.309429  0.500000  1
  P  P28  1  0.688655  0.169932  0.500000  1
  P  P29  1  0.824911  0.518352  0.500000  1
  P  P30  1  0.519021  0.829935  0.500000  1
  P  P31  1  0.174939  0.693273  0.500000  1
  P  P32  1  0.824057  0.998907  0.000000  1
  P  P33  1  0.000140  0.824160  0.000000  1
  P  P34  1  0.309797  0.480389  0.500000  1
  P  P35  1  0.176715  0.175626  0.000000  1
