# generated using pymatgen
data_Mn2V3Co2P4W
_symmetry_space_group_name_H-M   'P 1'
_cell_length_a   3.50833400
_cell_length_b   5.95605085
_cell_length_c   6.77718474
_cell_angle_alpha   89.39804877
_cell_angle_beta   90.00000000
_cell_angle_gamma   90.00000000
_symmetry_Int_Tables_number   1
_chemical_formula_structural   Mn2V3Co2P4W
_chemical_formula_sum   'Mn2 V3 Co2 P4 W1'
_cell_volume   141.60698789
_cell_formula_units_Z   1
loop_
 _symmetry_equiv_pos_site_id
 _symmetry_equiv_pos_as_xyz
  1  'x, y, z'
loop_
 _atom_site_type_symbol
 _atom_site_label
 _atom_site_symmetry_multiplicity
 _atom_site_fract_x
 _atom_site_fract_y
 _atom_site_fract_z
 _atom_site_occupancy
  Mn  Mn0  1  0.750000  0.855378  0.439045  1
  Mn  Mn1  1  0.250000  0.145666  0.560677  1
  V  V2  1  0.750000  0.977879  0.825318  1
  V  V3  1  0.250000  0.533812  0.333393  1
  V  V4  1  0.250000  0.018543  0.176641  1
  Co  Co5  1  0.750000  0.359887  0.061853  1
  Co  Co6  1  0.250000  0.640697  0.938238  1
  P  P7  1  0.750000  0.733986  0.124444  1
  P  P8  1  0.750000  0.228328  0.367000  1
  P  P9  1  0.250000  0.261070  0.881464  1
  P  P10  1  0.250000  0.776415  0.628387  1
  W  W11  1  0.750000  0.468339  0.663542  1
