# generated using pymatgen
data_Th4Si8Tc13Os3
_symmetry_space_group_name_H-M   'P 1'
_cell_length_a   4.11217900
_cell_length_b   7.24424184
_cell_length_c   15.69991214
_cell_angle_alpha   90.08246889
_cell_angle_beta   90.00000000
_cell_angle_gamma   90.00000000
_symmetry_Int_Tables_number   1
_chemical_formula_structural   Th4Si8Tc13Os3
_chemical_formula_sum   'Th4 Si8 Tc13 Os3'
_cell_volume   467.69391925
_cell_formula_units_Z   1
loop_
 _symmetry_equiv_pos_site_id
 _symmetry_equiv_pos_as_xyz
  1  'x, y, z'
loop_
 _atom_site_type_symbol
 _atom_site_label
 _atom_site_symmetry_multiplicity
 _atom_site_fract_x
 _atom_site_fract_y
 _atom_site_fract_z
 _atom_site_occupancy
  Th  Th0  1  0.000000  0.587141  0.120342  1
  Th  Th1  1  0.000000  0.413074  0.879989  1
  Th  Th2  1  0.500000  0.087739  0.380634  1
  Th  Th3  1  0.500000  0.909654  0.619741  1
  Si  Si4  1  0.000000  0.829924  0.473341  1
  Si  Si5  1  0.000000  0.170461  0.526552  1
  Si  Si6  1  0.500000  0.330387  0.026243  1
  Si  Si7  1  0.500000  0.669429  0.973659  1
  Si  Si8  1  0.000000  0.309615  0.273982  1
  Si  Si9  1  0.000000  0.688519  0.725987  1
  Si  Si10  1  0.500000  0.811438  0.225909  1
  Si  Si11  1  0.500000  0.188123  0.774117  1
  Tc  Tc12  1  0.500000  0.359715  0.549897  1
  Tc  Tc13  1  0.000000  0.733030  0.320717  1
  Tc  Tc14  1  0.000000  0.266810  0.679669  1
  Tc  Tc15  1  0.500000  0.233297  0.178283  1
  Tc  Tc16  1  0.500000  0.767091  0.821867  1
  Tc  Tc17  1  0.000000  0.427817  0.420762  1
  Tc  Tc18  1  0.000000  0.572078  0.578181  1
  Tc  Tc19  1  0.500000  0.928165  0.078640  1
  Tc  Tc20  1  0.500000  0.071528  0.921557  1
  Tc  Tc21  1  0.000000  0.005725  0.204839  1
  Tc  Tc22  1  0.000000  0.994225  0.794920  1
  Tc  Tc23  1  0.500000  0.506777  0.294475  1
  Tc  Tc24  1  0.500000  0.491958  0.705373  1
  Os  Os25  1  0.000000  0.146078  0.048901  1
  Os  Os26  1  0.000000  0.854051  0.951264  1
  Os  Os27  1  0.500000  0.646150  0.450160  1
