# generated using pymatgen
data_Pu3Th3Si4
_symmetry_space_group_name_H-M   'P 1'
_cell_length_a   7.65153600
_cell_length_b   7.65153546
_cell_length_c   4.23705100
_cell_angle_alpha   90.00000000
_cell_angle_beta   90.00000000
_cell_angle_gamma   90.51614210
_symmetry_Int_Tables_number   1
_chemical_formula_structural   Pu3Th3Si4
_chemical_formula_sum   'Pu3 Th3 Si4'
_cell_volume   248.05231863
_cell_formula_units_Z   1
loop_
 _symmetry_equiv_pos_site_id
 _symmetry_equiv_pos_as_xyz
  1  'x, y, z'
loop_
 _atom_site_type_symbol
 _atom_site_label
 _atom_site_symmetry_multiplicity
 _atom_site_fract_x
 _atom_site_fract_y
 _atom_site_fract_z
 _atom_site_occupancy
  Pu  Pu0  1  0.510765  0.485189  0.000000  1
  Pu  Pu1  1  0.985189  0.010765  0.000000  1
  Pu  Pu2  1  0.683157  0.183157  0.500000  1
  Th  Th3  1  0.316940  0.816940  0.500000  1
  Th  Th4  1  0.186202  0.319169  0.500000  1
  Th  Th5  1  0.819169  0.686202  0.500000  1
  Si  Si6  1  0.116394  0.616394  0.000000  1
  Si  Si7  1  0.885353  0.385353  0.000000  1
  Si  Si8  1  0.611828  0.885003  0.000000  1
  Si  Si9  1  0.385003  0.111828  0.000000  1
