# generated using pymatgen
data_CdBi3Sb2(RhO7)2
_symmetry_space_group_name_H-M   'P 1'
_cell_length_a   7.46667195
_cell_length_b   7.30959929
_cell_length_c   7.46667202
_cell_angle_alpha   59.88405735
_cell_angle_beta   60.82834355
_cell_angle_gamma   59.88405471
_symmetry_Int_Tables_number   1
_chemical_formula_structural   CdBi3Sb2(RhO7)2
_chemical_formula_sum   'Cd1 Bi3 Sb2 Rh2 O14'
_cell_volume   289.40421931
_cell_formula_units_Z   1
loop_
 _symmetry_equiv_pos_site_id
 _symmetry_equiv_pos_as_xyz
  1  'x, y, z'
loop_
 _atom_site_type_symbol
 _atom_site_label
 _atom_site_symmetry_multiplicity
 _atom_site_fract_x
 _atom_site_fract_y
 _atom_site_fract_z
 _atom_site_occupancy
  Cd  Cd0  1  0.125000  0.625000  0.125000  1
  Bi  Bi1  1  0.125000  0.125000  0.125000  1
  Bi  Bi2  1  0.625000  0.125000  0.125000  1
  Bi  Bi3  1  0.125000  0.125000  0.625000  1
  Sb  Sb4  1  0.625000  0.625000  0.125000  1
  Sb  Sb5  1  0.125000  0.625000  0.625000  1
  Rh  Rh6  1  0.625000  0.625000  0.625000  1
  Rh  Rh7  1  0.625000  0.125000  0.625000  1
  O  O8  1  0.247661  0.260563  0.247661  1
  O  O9  1  0.301047  0.702543  0.301047  1
  O  O10  1  0.955009  0.957139  0.542129  1
  O  O11  1  0.542255  0.958965  0.542255  1
  O  O12  1  0.701669  0.704930  0.295154  1
  O  O13  1  0.954846  0.545070  0.548331  1
  O  O14  1  0.707745  0.291035  0.707745  1
  O  O15  1  0.294991  0.292861  0.707871  1
  O  O16  1  0.707871  0.292861  0.294991  1
  O  O17  1  0.295154  0.704930  0.701669  1
  O  O18  1  0.948953  0.547457  0.948953  1
  O  O19  1  0.548331  0.545070  0.954846  1
  O  O20  1  0.002339  0.989437  0.002339  1
  O  O21  1  0.542129  0.957139  0.955009  1
