# generated using pymatgen
data_Sr8Si9SnIr18
_symmetry_space_group_name_H-M   'P 1'
_cell_length_a   5.74337500
_cell_length_b   5.74337455
_cell_length_c   22.97070800
_cell_angle_alpha   90.00000000
_cell_angle_beta   90.00000000
_cell_angle_gamma   119.99998531
_symmetry_Int_Tables_number   1
_chemical_formula_structural   Sr8Si9SnIr18
_chemical_formula_sum   'Sr8 Si9 Sn1 Ir18'
_cell_volume   656.20478058
_cell_formula_units_Z   1
loop_
 _symmetry_equiv_pos_site_id
 _symmetry_equiv_pos_as_xyz
  1  'x, y, z'
loop_
 _atom_site_type_symbol
 _atom_site_label
 _atom_site_symmetry_multiplicity
 _atom_site_fract_x
 _atom_site_fract_y
 _atom_site_fract_z
 _atom_site_occupancy
  Sr  Sr0  1  0.333333  0.666667  0.528631  1
  Sr  Sr1  1  0.666667  0.333333  0.471369  1
  Sr  Sr2  1  0.666667  0.333333  0.030588  1
  Sr  Sr3  1  0.333333  0.666667  0.969412  1
  Sr  Sr4  1  0.333333  0.666667  0.672653  1
  Sr  Sr5  1  0.666667  0.333333  0.327347  1
  Sr  Sr6  1  0.666667  0.333333  0.176958  1
  Sr  Sr7  1  0.333333  0.666667  0.823042  1
  Si  Si8  1  0.000000  0.000000  0.500000  1
  Si  Si9  1  0.333333  0.666667  0.174434  1
  Si  Si10  1  0.666667  0.333333  0.825566  1
  Si  Si11  1  0.666667  0.333333  0.666669  1
  Si  Si12  1  0.333333  0.666667  0.333331  1
  Si  Si13  1  0.000000  0.000000  0.173756  1
  Si  Si14  1  0.000000  0.000000  0.826244  1
  Si  Si15  1  0.000000  0.000000  0.667246  1
  Si  Si16  1  0.000000  0.000000  0.332754  1
  Sn  Sn17  1  0.000000  0.000000  0.000000  1
  Ir  Ir18  1  0.167560  0.335121  0.098514  1
  Ir  Ir19  1  0.832440  0.664879  0.901486  1
  Ir  Ir20  1  0.664879  0.832440  0.098514  1
  Ir  Ir21  1  0.835369  0.670738  0.590684  1
  Ir  Ir22  1  0.335121  0.167560  0.901486  1
  Ir  Ir23  1  0.164631  0.329262  0.409316  1
  Ir  Ir24  1  0.167560  0.832440  0.098514  1
  Ir  Ir25  1  0.329262  0.164631  0.590684  1
  Ir  Ir26  1  0.832440  0.167560  0.901486  1
  Ir  Ir27  1  0.670738  0.835369  0.409316  1
  Ir  Ir28  1  0.835369  0.164631  0.590684  1
  Ir  Ir29  1  0.164631  0.835369  0.409316  1
  Ir  Ir30  1  0.165865  0.331729  0.253501  1
  Ir  Ir31  1  0.834135  0.668271  0.746499  1
  Ir  Ir32  1  0.668271  0.834135  0.253501  1
  Ir  Ir33  1  0.331729  0.165865  0.746499  1
  Ir  Ir34  1  0.165865  0.834135  0.253501  1
  Ir  Ir35  1  0.834135  0.165865  0.746499  1
