# generated using pymatgen
data_Nd8SbPd17Pt7
_symmetry_space_group_name_H-M   'P 1'
_cell_length_a   8.54080472
_cell_length_b   8.51537543
_cell_length_c   8.59567536
_cell_angle_alpha   90.01052981
_cell_angle_beta   89.96821085
_cell_angle_gamma   89.96526686
_symmetry_Int_Tables_number   1
_chemical_formula_structural   Nd8SbPd17Pt7
_chemical_formula_sum   'Nd8 Sb1 Pd17 Pt7'
_cell_volume   625.14742012
_cell_formula_units_Z   1
loop_
 _symmetry_equiv_pos_site_id
 _symmetry_equiv_pos_as_xyz
  1  'x, y, z'
loop_
 _atom_site_type_symbol
 _atom_site_label
 _atom_site_symmetry_multiplicity
 _atom_site_fract_x
 _atom_site_fract_y
 _atom_site_fract_z
 _atom_site_occupancy
  Nd  Nd0  1  0.748335  0.748288  0.253392  1
  Nd  Nd1  1  0.746991  0.252738  0.746459  1
  Nd  Nd2  1  0.252830  0.747339  0.747946  1
  Nd  Nd3  1  0.747170  0.747261  0.746697  1
  Nd  Nd4  1  0.748129  0.251721  0.253555  1
  Nd  Nd5  1  0.252992  0.252553  0.747648  1
  Nd  Nd6  1  0.251451  0.748627  0.252265  1
  Nd  Nd7  1  0.251638  0.251247  0.252563  1
  Sb  Sb8  1  0.003081  0.000104  0.003231  1
  Pd  Pd9  1  0.731764  0.500169  0.999684  1
  Pd  Pd10  1  0.500282  0.000372  0.732396  1
  Pd  Pd11  1  0.999969  0.733961  0.500335  1
  Pd  Pd12  1  0.500244  0.000301  0.266688  1
  Pd  Pd13  1  0.999913  0.265600  0.500293  1
  Pd  Pd14  1  0.499799  0.732839  0.000021  1
  Pd  Pd15  1  0.500357  0.745207  0.500253  1
  Pd  Pd16  1  0.745254  0.499929  0.500278  1
  Pd  Pd17  1  0.999446  0.999859  0.692127  1
  Pd  Pd18  1  0.000794  0.500249  0.267125  1
  Pd  Pd19  1  0.998777  0.313257  0.999074  1
  Pd  Pd20  1  0.998773  0.687193  0.999136  1
  Pd  Pd21  1  0.689938  0.999725  0.998551  1
  Pd  Pd22  1  0.266657  0.500256  0.000134  1
  Pd  Pd23  1  0.264392  0.000334  0.500028  1
  Pd  Pd24  1  0.000446  0.500265  0.732060  1
  Pd  Pd25  1  0.499790  0.266530  0.999917  1
  Pt  Pt26  1  0.998727  0.999848  0.308594  1
  Pt  Pt27  1  0.734383  0.000424  0.500089  1
  Pt  Pt28  1  0.255071  0.499769  0.500107  1
  Pt  Pt29  1  0.499965  0.499834  0.745872  1
  Pt  Pt30  1  0.499758  0.499785  0.254537  1
  Pt  Pt31  1  0.500268  0.254419  0.500268  1
  Pt  Pt32  1  0.312618  0.999997  0.998677  1
