# generated using pymatgen
data_PrGaCu2Au9
_symmetry_space_group_name_H-M   'P 1'
_cell_length_a   9.51607892
_cell_length_b   7.10827294
_cell_length_c   7.58927694
_cell_angle_alpha   80.62846610
_cell_angle_beta   47.47691566
_cell_angle_gamma   48.05300009
_symmetry_Int_Tables_number   1
_chemical_formula_structural   PrGaCu2Au9
_chemical_formula_sum   'Pr1 Ga1 Cu2 Au9'
_cell_volume   239.12957577
_cell_formula_units_Z   1
loop_
 _symmetry_equiv_pos_site_id
 _symmetry_equiv_pos_as_xyz
  1  'x, y, z'
loop_
 _atom_site_type_symbol
 _atom_site_label
 _atom_site_symmetry_multiplicity
 _atom_site_fract_x
 _atom_site_fract_y
 _atom_site_fract_z
 _atom_site_occupancy
  Pr  Pr0  1  0.000000  0.000000  0.000000  1
  Ga  Ga1  1  0.000000  0.000000  0.500000  1
  Cu  Cu2  1  0.000000  0.500000  0.000000  1
  Cu  Cu3  1  0.500000  0.000000  0.500000  1
  Au  Au4  1  0.978516  0.385833  0.690840  1
  Au  Au5  1  0.021484  0.614167  0.309160  1
  Au  Au6  1  0.385833  0.978516  0.944812  1
  Au  Au7  1  0.614167  0.021484  0.055188  1
  Au  Au8  1  0.527149  0.255209  0.681360  1
  Au  Au9  1  0.472851  0.744791  0.318640  1
  Au  Au10  1  0.255209  0.527149  0.536282  1
  Au  Au11  1  0.744791  0.472851  0.463718  1
  Au  Au12  1  0.500000  0.500000  0.000000  1
