# generated using pymatgen
data_Ho4AlCo4
_symmetry_space_group_name_H-M   'P 1'
_cell_length_a   5.47469619
_cell_length_b   5.47469604
_cell_length_c   8.91150198
_cell_angle_alpha   70.99325257
_cell_angle_beta   70.99325166
_cell_angle_gamma   43.13881666
_symmetry_Int_Tables_number   1
_chemical_formula_structural   Ho4AlCo4
_chemical_formula_sum   'Ho4 Al1 Co4'
_cell_volume   171.06778955
_cell_formula_units_Z   1
loop_
 _symmetry_equiv_pos_site_id
 _symmetry_equiv_pos_as_xyz
  1  'x, y, z'
loop_
 _atom_site_type_symbol
 _atom_site_label
 _atom_site_symmetry_multiplicity
 _atom_site_fract_x
 _atom_site_fract_y
 _atom_site_fract_z
 _atom_site_occupancy
  Ho  Ho0  1  0.745658  0.745658  0.662440  1
  Ho  Ho1  1  0.254342  0.254342  0.337560  1
  Ho  Ho2  1  0.391617  0.391617  0.886077  1
  Ho  Ho3  1  0.608383  0.608383  0.113923  1
  Al  Al4  1  0.500000  0.500000  0.500000  1
  Co  Co5  1  0.037466  0.037466  0.645011  1
  Co  Co6  1  0.962534  0.962534  0.354989  1
  Co  Co7  1  0.092872  0.092872  0.880397  1
  Co  Co8  1  0.907128  0.907128  0.119603  1
