# generated using pymatgen
data_Er4VOs7
_symmetry_space_group_name_H-M   'P 1'
_cell_length_a   5.22655312
_cell_length_b   5.22655295
_cell_length_c   8.83191900
_cell_angle_alpha   90.00000000
_cell_angle_beta   90.00000000
_cell_angle_gamma   117.57620225
_symmetry_Int_Tables_number   1
_chemical_formula_structural   Er4VOs7
_chemical_formula_sum   'Er4 V1 Os7'
_cell_volume   213.85211749
_cell_formula_units_Z   1
loop_
 _symmetry_equiv_pos_site_id
 _symmetry_equiv_pos_as_xyz
  1  'x, y, z'
loop_
 _atom_site_type_symbol
 _atom_site_label
 _atom_site_symmetry_multiplicity
 _atom_site_fract_x
 _atom_site_fract_y
 _atom_site_fract_z
 _atom_site_occupancy
  Er  Er0  1  0.331121  0.668879  0.435853  1
  Er  Er1  1  0.668256  0.331744  0.566062  1
  Er  Er2  1  0.668256  0.331744  0.933938  1
  Er  Er3  1  0.331121  0.668879  0.064147  1
  V  V4  1  0.830893  0.169107  0.250000  1
  Os  Os5  1  0.997077  0.002923  0.498095  1
  Os  Os6  1  0.997077  0.002923  0.001905  1
  Os  Os7  1  0.826547  0.652335  0.250000  1
  Os  Os8  1  0.347665  0.173453  0.250000  1
  Os  Os9  1  0.171294  0.828706  0.750000  1
  Os  Os10  1  0.173450  0.342758  0.750000  1
  Os  Os11  1  0.657242  0.826550  0.750000  1
