# generated using pymatgen
data_Y20In3Hg3IrRu
_symmetry_space_group_name_H-M   'P 1'
_cell_length_a   9.78445800
_cell_length_b   9.78445784
_cell_length_c   9.68962600
_cell_angle_alpha   90.00000000
_cell_angle_beta   90.00000000
_cell_angle_gamma   120.00000056
_symmetry_Int_Tables_number   1
_chemical_formula_structural   Y20In3Hg3IrRu
_chemical_formula_sum   'Y20 In3 Hg3 Ir1 Ru1'
_cell_volume   803.36181119
_cell_formula_units_Z   1
loop_
 _symmetry_equiv_pos_site_id
 _symmetry_equiv_pos_as_xyz
  1  'x, y, z'
loop_
 _atom_site_type_symbol
 _atom_site_label
 _atom_site_symmetry_multiplicity
 _atom_site_fract_x
 _atom_site_fract_y
 _atom_site_fract_z
 _atom_site_occupancy
  Y  Y0  1  0.000000  0.000000  0.478804  1
  Y  Y1  1  0.000000  0.000000  0.021196  1
  Y  Y2  1  0.209468  0.790532  0.438154  1
  Y  Y3  1  0.209468  0.418938  0.438154  1
  Y  Y4  1  0.581062  0.790532  0.438154  1
  Y  Y5  1  0.791364  0.208636  0.560572  1
  Y  Y6  1  0.791364  0.582727  0.560572  1
  Y  Y7  1  0.417273  0.208636  0.560572  1
  Y  Y8  1  0.791364  0.208636  0.939428  1
  Y  Y9  1  0.791364  0.582727  0.939428  1
  Y  Y10  1  0.417273  0.208636  0.939428  1
  Y  Y11  1  0.209468  0.790532  0.061846  1
  Y  Y12  1  0.209468  0.418938  0.061846  1
  Y  Y13  1  0.581062  0.790532  0.061846  1
  Y  Y14  1  0.541167  0.458833  0.250000  1
  Y  Y15  1  0.541167  0.082336  0.250000  1
  Y  Y16  1  0.917664  0.458833  0.250000  1
  Y  Y17  1  0.459630  0.540370  0.750000  1
  Y  Y18  1  0.459630  0.919260  0.750000  1
  Y  Y19  1  0.080740  0.540370  0.750000  1
  In  In20  1  0.113214  0.886786  0.750000  1
  In  In21  1  0.113214  0.226428  0.750000  1
  In  In22  1  0.773572  0.886786  0.750000  1
  Hg  Hg23  1  0.875419  0.124581  0.250000  1
  Hg  Hg24  1  0.875419  0.750839  0.250000  1
  Hg  Hg25  1  0.249161  0.124581  0.250000  1
  Ir  Ir26  1  0.666667  0.333333  0.750000  1
  Ru  Ru27  1  0.333333  0.666667  0.250000  1
