# generated using pymatgen
data_Sc4Si6NiIrRh5
_symmetry_space_group_name_H-M   'P 1'
_cell_length_a   6.92402918
_cell_length_b   6.92402908
_cell_length_c   6.92402902
_cell_angle_alpha   109.27640110
_cell_angle_beta   109.27648236
_cell_angle_gamma   109.86146204
_symmetry_Int_Tables_number   1
_chemical_formula_structural   Sc4Si6NiIrRh5
_chemical_formula_sum   'Sc4 Si6 Ni1 Ir1 Rh5'
_cell_volume   255.52874391
_cell_formula_units_Z   1
loop_
 _symmetry_equiv_pos_site_id
 _symmetry_equiv_pos_as_xyz
  1  'x, y, z'
loop_
 _atom_site_type_symbol
 _atom_site_label
 _atom_site_symmetry_multiplicity
 _atom_site_fract_x
 _atom_site_fract_y
 _atom_site_fract_z
 _atom_site_occupancy
  Sc  Sc0  1  0.001109  0.998890  0.500000  1
  Sc  Sc1  1  0.001108  0.501109  0.002218  1
  Sc  Sc2  1  0.498890  0.998890  0.997782  1
  Sc  Sc3  1  0.498890  0.501109  0.500001  1
  Si  Si4  1  0.681634  0.681635  0.000001  1
  Si  Si5  1  0.324294  0.003548  0.320746  1
  Si  Si6  1  0.996453  0.317199  0.320746  1
  Si  Si7  1  0.318366  0.318367  0.000000  1
  Si  Si8  1  0.682803  0.003548  0.679255  1
  Si  Si9  1  0.996453  0.675706  0.679254  1
  Ni  Ni10  1  0.749996  0.249994  0.499998  1
  Ir  Ir11  1  0.000001  0.000001  0.000000  1
  Rh  Rh12  1  0.746771  0.495413  0.251359  1
  Rh  Rh13  1  0.504589  0.253233  0.748644  1
  Rh  Rh14  1  0.244054  0.495413  0.748642  1
  Rh  Rh15  1  0.250002  0.750002  0.500000  1
  Rh  Rh16  1  0.504587  0.755944  0.251356  1
