# generated using pymatgen
data_BaLiTiF6
_symmetry_space_group_name_H-M   'P 1'
_cell_length_a   10.52243000
_cell_length_b   5.65405664
_cell_length_c   8.59977900
_cell_angle_alpha   88.75766166
_cell_angle_beta   90.00000000
_cell_angle_gamma   90.00000000
_symmetry_Int_Tables_number   1
_chemical_formula_structural   BaLiTiF6
_chemical_formula_sum   'Ba4 Li4 Ti4 F24'
_cell_volume   511.51855427
_cell_formula_units_Z   4
loop_
 _symmetry_equiv_pos_site_id
 _symmetry_equiv_pos_as_xyz
  1  'x, y, z'
loop_
 _atom_site_type_symbol
 _atom_site_label
 _atom_site_symmetry_multiplicity
 _atom_site_fract_x
 _atom_site_fract_y
 _atom_site_fract_z
 _atom_site_occupancy
  Ba  Ba0  1  0.799527  0.313802  0.005618  1
  Ba  Ba1  1  0.700473  0.313802  0.505618  1
  Ba  Ba2  1  0.200473  0.686198  0.994382  1
  Ba  Ba3  1  0.299527  0.686198  0.494382  1
  Li  Li4  1  0.420171  0.241932  0.803241  1
  Li  Li5  1  0.920171  0.758068  0.696759  1
  Li  Li6  1  0.579829  0.758068  0.196759  1
  Li  Li7  1  0.079829  0.241932  0.303241  1
  Ti  Ti8  1  0.581703  0.778479  0.771062  1
  Ti  Ti9  1  0.918297  0.778479  0.271062  1
  Ti  Ti10  1  0.418297  0.221521  0.228938  1
  Ti  Ti11  1  0.081703  0.221521  0.728938  1
  F  F12  1  0.002911  0.515992  0.821475  1
  F  F13  1  0.868690  0.112519  0.319268  1
  F  F14  1  0.368690  0.887481  0.180732  1
  F  F15  1  0.131310  0.887481  0.680732  1
  F  F16  1  0.631310  0.112519  0.819268  1
  F  F17  1  0.598730  0.098131  0.213424  1
  F  F18  1  0.098730  0.901869  0.286576  1
  F  F19  1  0.401270  0.901869  0.786576  1
  F  F20  1  0.502911  0.484008  0.678525  1
  F  F21  1  0.244692  0.388287  0.249457  1
  F  F22  1  0.497089  0.515992  0.321475  1
  F  F23  1  0.997089  0.484008  0.178525  1
  F  F24  1  0.755308  0.611713  0.750543  1
  F  F25  1  0.255308  0.388287  0.749457  1
  F  F26  1  0.606214  0.870664  0.555385  1
  F  F27  1  0.744692  0.611713  0.250543  1
  F  F28  1  0.904843  0.671508  0.483440  1
  F  F29  1  0.106214  0.129336  0.944615  1
  F  F30  1  0.393786  0.129336  0.444615  1
  F  F31  1  0.893786  0.870664  0.055385  1
  F  F32  1  0.595157  0.671508  0.983440  1
  F  F33  1  0.095157  0.328492  0.516560  1
  F  F34  1  0.404843  0.328492  0.016560  1
  F  F35  1  0.901270  0.098131  0.713424  1
