# generated using pymatgen
data_CeDyTm2(Si3Rh)2
_symmetry_space_group_name_H-M   'P 1'
_cell_length_a   8.16068513
_cell_length_b   8.16068526
_cell_length_c   7.91950500
_cell_angle_alpha   90.00000000
_cell_angle_beta   90.00000000
_cell_angle_gamma   119.97954986
_symmetry_Int_Tables_number   1
_chemical_formula_structural   CeDyTm2(Si3Rh)2
_chemical_formula_sum   'Ce2 Dy2 Tm4 Si12 Rh4'
_cell_volume   456.84763046
_cell_formula_units_Z   2
loop_
 _symmetry_equiv_pos_site_id
 _symmetry_equiv_pos_as_xyz
  1  'x, y, z'
loop_
 _atom_site_type_symbol
 _atom_site_label
 _atom_site_symmetry_multiplicity
 _atom_site_fract_x
 _atom_site_fract_y
 _atom_site_fract_z
 _atom_site_occupancy
  Ce  Ce0  1  0.999972  0.000028  0.250000  1
  Ce  Ce1  1  0.999920  0.000080  0.750000  1
  Dy  Dy2  1  0.491827  0.982976  0.750000  1
  Dy  Dy3  1  0.017024  0.508173  0.750000  1
  Tm  Tm4  1  0.508613  0.491387  0.250000  1
  Tm  Tm5  1  0.508559  0.017251  0.250000  1
  Tm  Tm6  1  0.982749  0.491441  0.250000  1
  Tm  Tm7  1  0.492218  0.507782  0.750000  1
  Si  Si8  1  0.167549  0.832451  0.499170  1
  Si  Si9  1  0.168106  0.335314  0.500503  1
  Si  Si10  1  0.664686  0.831894  0.500503  1
  Si  Si11  1  0.832498  0.167502  0.496858  1
  Si  Si12  1  0.832461  0.665389  0.497318  1
  Si  Si13  1  0.334611  0.167539  0.497318  1
  Si  Si14  1  0.832498  0.167502  0.003142  1
  Si  Si15  1  0.832461  0.665389  0.002682  1
  Si  Si16  1  0.334611  0.167539  0.002682  1
  Si  Si17  1  0.167549  0.832451  0.000830  1
  Si  Si18  1  0.168106  0.335314  0.999497  1
  Si  Si19  1  0.664686  0.831894  0.999497  1
  Rh  Rh20  1  0.333646  0.666354  0.462724  1
  Rh  Rh21  1  0.666002  0.333998  0.528853  1
  Rh  Rh22  1  0.666002  0.333998  0.971147  1
  Rh  Rh23  1  0.333646  0.666354  0.037276  1
