# generated using pymatgen
data_Er6Zn10Ag13Se
_symmetry_space_group_name_H-M   'P 1'
_cell_length_a   9.25423318
_cell_length_b   9.28764523
_cell_length_c   9.28764600
_cell_angle_alpha   60.00117430
_cell_angle_beta   59.88195075
_cell_angle_gamma   59.88194819
_symmetry_Int_Tables_number   1
_chemical_formula_structural   Er6Zn10Ag13Se
_chemical_formula_sum   'Er6 Zn10 Ag13 Se1'
_cell_volume   563.46029398
_cell_formula_units_Z   1
loop_
 _symmetry_equiv_pos_site_id
 _symmetry_equiv_pos_as_xyz
  1  'x, y, z'
loop_
 _atom_site_type_symbol
 _atom_site_label
 _atom_site_symmetry_multiplicity
 _atom_site_fract_x
 _atom_site_fract_y
 _atom_site_fract_z
 _atom_site_occupancy
  Er  Er0  1  0.714450  0.285404  0.285404  1
  Er  Er1  1  0.714447  0.285403  0.714748  1
  Er  Er2  1  0.714447  0.714748  0.285403  1
  Er  Er3  1  0.285709  0.714804  0.714804  1
  Er  Er4  1  0.285706  0.714811  0.284676  1
  Er  Er5  1  0.285706  0.284676  0.714811  1
  Zn  Zn6  1  0.502653  0.997173  0.997173  1
  Zn  Zn7  1  0.502655  0.997173  0.502996  1
  Zn  Zn8  1  0.502655  0.502996  0.997173  1
  Zn  Zn9  1  0.996574  0.501180  0.501180  1
  Zn  Zn10  1  0.996574  0.501180  0.001065  1
  Zn  Zn11  1  0.996574  0.001065  0.501180  1
  Zn  Zn12  1  0.001938  0.999354  0.999354  1
  Zn  Zn13  1  0.668950  0.992542  0.669252  1
  Zn  Zn14  1  0.668950  0.669252  0.992542  1
  Zn  Zn15  1  0.668949  0.669259  0.669259  1
  Ag  Ag16  1  0.644094  0.118636  0.118636  1
  Ag  Ag17  1  0.119184  0.644254  0.118274  1
  Ag  Ag18  1  0.119184  0.118274  0.644254  1
  Ag  Ag19  1  0.119177  0.118288  0.118288  1
  Ag  Ag20  1  0.367659  0.877447  0.877447  1
  Ag  Ag21  1  0.876329  0.362945  0.880373  1
  Ag  Ag22  1  0.876329  0.880373  0.362945  1
  Ag  Ag23  1  0.876325  0.880363  0.880363  1
  Ag  Ag24  1  0.998212  0.333925  0.333925  1
  Ag  Ag25  1  0.333887  0.999022  0.333544  1
  Ag  Ag26  1  0.333887  0.333544  0.999022  1
  Ag  Ag27  1  0.333883  0.333545  0.333545  1
  Ag  Ag28  1  0.995056  0.668316  0.668316  1
  Se  Se29  1  0.499856  0.500047  0.500047  1
