# generated using pymatgen
data_Dy6Ho(ErSn2)3
_symmetry_space_group_name_H-M   'P 1'
_cell_length_a   8.94273400
_cell_length_b   8.94273229
_cell_length_c   6.51151500
_cell_angle_alpha   90.00000000
_cell_angle_beta   90.00000000
_cell_angle_gamma   119.99999154
_symmetry_Int_Tables_number   1
_chemical_formula_structural   Dy6Ho(ErSn2)3
_chemical_formula_sum   'Dy6 Ho1 Er3 Sn6'
_cell_volume   450.97581982
_cell_formula_units_Z   1
loop_
 _symmetry_equiv_pos_site_id
 _symmetry_equiv_pos_as_xyz
  1  'x, y, z'
loop_
 _atom_site_type_symbol
 _atom_site_label
 _atom_site_symmetry_multiplicity
 _atom_site_fract_x
 _atom_site_fract_y
 _atom_site_fract_z
 _atom_site_occupancy
  Dy  Dy0  1  0.999959  0.761303  0.749974  1
  Dy  Dy1  1  0.999959  0.238656  0.250026  1
  Dy  Dy2  1  0.761344  0.761303  0.250026  1
  Dy  Dy3  1  0.761344  0.000041  0.749974  1
  Dy  Dy4  1  0.238697  0.238656  0.749974  1
  Dy  Dy5  1  0.238697  0.000041  0.250026  1
  Ho  Ho6  1  0.333333  0.666667  0.000000  1
  Er  Er7  1  0.333333  0.666667  0.500000  1
  Er  Er8  1  0.666667  0.333333  0.000000  1
  Er  Er9  1  0.666667  0.333333  0.500000  1
  Sn  Sn10  1  0.395820  0.000185  0.749870  1
  Sn  Sn11  1  0.395820  0.395635  0.250130  1
  Sn  Sn12  1  0.999815  0.604180  0.250130  1
  Sn  Sn13  1  0.999815  0.395635  0.749870  1
  Sn  Sn14  1  0.604365  0.604180  0.749870  1
  Sn  Sn15  1  0.604365  0.000185  0.250130  1
