# generated using pymatgen
data_Yb14SmPu5Pt16
_symmetry_space_group_name_H-M   'P 1'
_cell_length_a   7.54826070
_cell_length_b   7.65049508
_cell_length_c   14.59924800
_cell_angle_alpha   90.14692250
_cell_angle_beta   89.95154164
_cell_angle_gamma   90.10545182
_symmetry_Int_Tables_number   1
_chemical_formula_structural   Yb14SmPu5Pt16
_chemical_formula_sum   'Yb14 Sm1 Pu5 Pt16'
_cell_volume   843.07187329
_cell_formula_units_Z   1
loop_
 _symmetry_equiv_pos_site_id
 _symmetry_equiv_pos_as_xyz
  1  'x, y, z'
loop_
 _atom_site_type_symbol
 _atom_site_label
 _atom_site_symmetry_multiplicity
 _atom_site_fract_x
 _atom_site_fract_y
 _atom_site_fract_z
 _atom_site_occupancy
  Yb  Yb0  1  0.655803  0.163945  0.877900  1
  Yb  Yb1  1  0.158334  0.334394  0.623313  1
  Yb  Yb2  1  0.499388  0.678413  0.596309  1
  Yb  Yb3  1  0.998080  0.821562  0.903638  1
  Yb  Yb4  1  0.501286  0.318648  0.093268  1
  Yb  Yb5  1  0.000619  0.180745  0.406074  1
  Yb  Yb6  1  0.498538  0.319812  0.403923  1
  Yb  Yb7  1  0.998995  0.181683  0.092967  1
  Yb  Yb8  1  0.498531  0.680868  0.903476  1
  Yb  Yb9  1  0.000494  0.816715  0.598289  1
  Yb  Yb10  1  0.819165  0.508555  0.750304  1
  Yb  Yb11  1  0.318791  0.992856  0.750916  1
  Yb  Yb12  1  0.182951  0.487484  0.250377  1
  Yb  Yb13  1  0.683818  0.013156  0.249737  1
  Sm  Sm14  1  0.659860  0.162667  0.622705  1
  Pu  Pu15  1  0.156749  0.340736  0.876486  1
  Pu  Pu16  1  0.344112  0.840188  0.122422  1
  Pu  Pu17  1  0.842663  0.661746  0.377560  1
  Pu  Pu18  1  0.342279  0.837366  0.377745  1
  Pu  Pu19  1  0.844100  0.662203  0.121086  1
  Pt  Pt20  1  0.678726  0.959105  0.455455  1
  Pt  Pt21  1  0.184421  0.540472  0.041500  1
  Pt  Pt22  1  0.315572  0.042250  0.958964  1
  Pt  Pt23  1  0.821145  0.464116  0.541063  1
  Pt  Pt24  1  0.320734  0.030065  0.542438  1
  Pt  Pt25  1  0.821089  0.465850  0.956670  1
  Pt  Pt26  1  0.673797  0.958096  0.042886  1
  Pt  Pt27  1  0.173331  0.539778  0.457029  1
  Pt  Pt28  1  0.455556  0.381673  0.748733  1
  Pt  Pt29  1  0.956566  0.117056  0.754993  1
  Pt  Pt30  1  0.545668  0.626490  0.249829  1
  Pt  Pt31  1  0.044326  0.871183  0.250116  1
  Pt  Pt32  1  0.693106  0.861665  0.749131  1
  Pt  Pt33  1  0.193328  0.637861  0.753006  1
  Pt  Pt34  1  0.307073  0.132618  0.250050  1
  Pt  Pt35  1  0.811004  0.367979  0.249645  1
