# generated using pymatgen
data_Tb3Ho3(TmPt2)2
_symmetry_space_group_name_H-M   'P 1'
_cell_length_a   4.76042800
_cell_length_b   7.13096885
_cell_length_c   8.77251818
_cell_angle_alpha   89.91069770
_cell_angle_beta   90.00000000
_cell_angle_gamma   90.00000000
_symmetry_Int_Tables_number   1
_chemical_formula_structural   Tb3Ho3(TmPt2)2
_chemical_formula_sum   'Tb3 Ho3 Tm2 Pt4'
_cell_volume   297.79560909
_cell_formula_units_Z   1
loop_
 _symmetry_equiv_pos_site_id
 _symmetry_equiv_pos_as_xyz
  1  'x, y, z'
loop_
 _atom_site_type_symbol
 _atom_site_label
 _atom_site_symmetry_multiplicity
 _atom_site_fract_x
 _atom_site_fract_y
 _atom_site_fract_z
 _atom_site_occupancy
  Tb  Tb0  1  0.250000  0.491448  0.168854  1
  Tb  Tb1  1  0.750000  0.008939  0.670937  1
  Tb  Tb2  1  0.250000  0.991909  0.330818  1
  Ho  Ho3  1  0.750000  0.643671  0.420656  1
  Ho  Ho4  1  0.750000  0.144147  0.079152  1
  Ho  Ho5  1  0.750000  0.509508  0.830592  1
  Tm  Tm6  1  0.250000  0.355981  0.580967  1
  Tm  Tm7  1  0.250000  0.855312  0.919948  1
  Pt  Pt8  1  0.750000  0.243191  0.409428  1
  Pt  Pt9  1  0.250000  0.755606  0.593294  1
  Pt  Pt10  1  0.750000  0.743095  0.089227  1
  Pt  Pt11  1  0.250000  0.257196  0.906127  1
