# generated using pymatgen
data_MnInFe(Sb6Os)2
_symmetry_space_group_name_H-M   'P 1'
_cell_length_a   8.17660581
_cell_length_b   8.15469675
_cell_length_c   8.13899186
_cell_angle_alpha   109.37678689
_cell_angle_beta   109.44912200
_cell_angle_gamma   109.62822273
_symmetry_Int_Tables_number   1
_chemical_formula_structural   MnInFe(Sb6Os)2
_chemical_formula_sum   'Mn1 In1 Fe1 Sb12 Os2'
_cell_volume   417.55226082
_cell_formula_units_Z   1
loop_
 _symmetry_equiv_pos_site_id
 _symmetry_equiv_pos_as_xyz
  1  'x, y, z'
loop_
 _atom_site_type_symbol
 _atom_site_label
 _atom_site_symmetry_multiplicity
 _atom_site_fract_x
 _atom_site_fract_y
 _atom_site_fract_z
 _atom_site_occupancy
  Mn  Mn0  1  0.000000  0.000000  0.500000  1
  In  In1  1  0.000000  0.000000  0.000000  1
  Fe  Fe2  1  0.500000  0.000000  0.000000  1
  Sb  Sb3  1  0.345143  0.180242  0.850356  1
  Sb  Sb4  1  0.654857  0.819758  0.149644  1
  Sb  Sb5  1  0.662505  0.506234  0.844055  1
  Sb  Sb6  1  0.337495  0.493766  0.155945  1
  Sb  Sb7  1  0.186771  0.843391  0.339593  1
  Sb  Sb8  1  0.813229  0.156609  0.660407  1
  Sb  Sb9  1  0.505858  0.845355  0.669301  1
  Sb  Sb10  1  0.494142  0.154645  0.330699  1
  Sb  Sb11  1  0.837447  0.331096  0.176714  1
  Sb  Sb12  1  0.162553  0.668904  0.823286  1
  Sb  Sb13  1  0.843218  0.656933  0.504088  1
  Sb  Sb14  1  0.156782  0.343067  0.495912  1
  Os  Os15  1  0.000000  0.500000  0.000000  1
  Os  Os16  1  0.500000  0.500000  0.500000  1
