# generated using pymatgen
data_Er13Lu7Bi11Sb
_symmetry_space_group_name_H-M   'P 1'
_cell_length_a   8.12569643
_cell_length_b   9.41069096
_cell_length_c   11.84352500
_cell_angle_alpha   90.00165604
_cell_angle_beta   89.98134962
_cell_angle_gamma   90.02577261
_symmetry_Int_Tables_number   1
_chemical_formula_structural   Er13Lu7Bi11Sb
_chemical_formula_sum   'Er13 Lu7 Bi11 Sb1'
_cell_volume   905.65547924
_cell_formula_units_Z   1
loop_
 _symmetry_equiv_pos_site_id
 _symmetry_equiv_pos_as_xyz
  1  'x, y, z'
loop_
 _atom_site_type_symbol
 _atom_site_label
 _atom_site_symmetry_multiplicity
 _atom_site_fract_x
 _atom_site_fract_y
 _atom_site_fract_z
 _atom_site_occupancy
  Er  Er0  1  0.355066  0.249940  0.285625  1
  Er  Er1  1  0.646017  0.750653  0.717102  1
  Er  Er2  1  0.145290  0.750412  0.782103  1
  Er  Er3  1  0.855126  0.250087  0.217360  1
  Er  Er4  1  0.189275  0.249860  0.780048  1
  Er  Er5  1  0.812363  0.750201  0.217923  1
  Er  Er6  1  0.313031  0.750141  0.282219  1
  Er  Er7  1  0.682189  0.250093  0.715088  1
  Er  Er8  1  0.807730  0.565122  0.940876  1
  Er  Er9  1  0.690259  0.067155  0.442299  1
  Er  Er10  1  0.192470  0.434464  0.059518  1
  Er  Er11  1  0.689519  0.432503  0.442408  1
  Er  Er12  1  0.308806  0.561525  0.558966  1
  Lu  Lu13  1  0.027599  0.250216  0.511155  1
  Lu  Lu14  1  0.977375  0.750006  0.489473  1
  Lu  Lu15  1  0.476063  0.749985  0.011228  1
  Lu  Lu16  1  0.524619  0.250050  0.988687  1
  Lu  Lu17  1  0.193739  0.066652  0.059909  1
  Lu  Lu18  1  0.806509  0.933816  0.940341  1
  Lu  Lu19  1  0.308287  0.937472  0.559111  1
  Bi  Bi20  1  0.595399  0.750273  0.457312  1
  Bi  Bi21  1  0.095142  0.751755  0.042601  1
  Bi  Bi22  1  0.905733  0.248243  0.956324  1
  Bi  Bi23  1  0.065946  0.003557  0.326370  1
  Bi  Bi24  1  0.933385  0.997106  0.673800  1
  Bi  Bi25  1  0.433645  0.996083  0.826388  1
  Bi  Bi26  1  0.933218  0.503149  0.673786  1
  Bi  Bi27  1  0.566065  0.004045  0.173822  1
  Bi  Bi28  1  0.066154  0.496624  0.326383  1
  Bi  Bi29  1  0.566396  0.496047  0.173850  1
  Bi  Bi30  1  0.433462  0.504039  0.826339  1
  Sb  Sb31  1  0.404131  0.248725  0.541587  1
