# generated using pymatgen
data_PrY5Cd23P
_symmetry_space_group_name_H-M   'P 1'
_cell_length_a   9.99881243
_cell_length_b   9.95408464
_cell_length_c   9.95408396
_cell_angle_alpha   60.29759733
_cell_angle_beta   59.85129774
_cell_angle_gamma   59.85129440
_symmetry_Int_Tables_number   1
_chemical_formula_structural   PrY5Cd23P
_chemical_formula_sum   'Pr1 Y5 Cd23 P1'
_cell_volume   700.51760383
_cell_formula_units_Z   1
loop_
 _symmetry_equiv_pos_site_id
 _symmetry_equiv_pos_as_xyz
  1  'x, y, z'
loop_
 _atom_site_type_symbol
 _atom_site_label
 _atom_site_symmetry_multiplicity
 _atom_site_fract_x
 _atom_site_fract_y
 _atom_site_fract_z
 _atom_site_occupancy
  Pr  Pr0  1  0.202755  0.797245  0.797245  1
  Y  Y1  1  0.803309  0.803536  0.196691  1
  Y  Y2  1  0.196465  0.803536  0.196691  1
  Y  Y3  1  0.799814  0.200187  0.200187  1
  Y  Y4  1  0.196465  0.196691  0.803536  1
  Y  Y5  1  0.803309  0.196691  0.803536  1
  Cd  Cd6  1  0.835850  0.838434  0.489867  1
  Cd  Cd7  1  0.835850  0.489867  0.838434  1
  Cd  Cd8  1  0.495540  0.835189  0.835189  1
  Cd  Cd9  1  0.834082  0.835189  0.835189  1
  Cd  Cd10  1  0.164811  0.165918  0.504461  1
  Cd  Cd11  1  0.164811  0.504461  0.165918  1
  Cd  Cd12  1  0.510133  0.164150  0.164150  1
  Cd  Cd13  1  0.161567  0.164150  0.164150  1
  Cd  Cd14  1  0.620451  0.621654  0.137444  1
  Cd  Cd15  1  0.620451  0.137444  0.621654  1
  Cd  Cd16  1  0.133677  0.619736  0.619736  1
  Cd  Cd17  1  0.626850  0.619736  0.619736  1
  Cd  Cd18  1  0.380263  0.373150  0.866323  1
  Cd  Cd19  1  0.380263  0.866323  0.373150  1
  Cd  Cd20  1  0.862556  0.379549  0.379549  1
  Cd  Cd21  1  0.378346  0.379549  0.379549  1
  Cd  Cd22  1  0.999547  0.000453  0.499975  1
  Cd  Cd23  1  0.500025  0.000452  0.499976  1
  Cd  Cd24  1  0.999317  0.500683  0.500683  1
  Cd  Cd25  1  0.500025  0.499976  0.000452  1
  Cd  Cd26  1  0.999547  0.499975  0.000453  1
  Cd  Cd27  1  0.499317  0.000683  0.000683  1
  Cd  Cd28  1  0.497730  0.502270  0.502270  1
  P  P29  1  0.996881  0.003119  0.003119  1
