# generated using pymatgen
data_Y5B2C5
_symmetry_space_group_name_H-M   'P 1'
_cell_length_a   8.14150700
_cell_length_b   8.14150700
_cell_length_c   10.74751900
_cell_angle_alpha   90.00000000
_cell_angle_beta   90.00000000
_cell_angle_gamma   90.00000000
_symmetry_Int_Tables_number   1
_chemical_formula_structural   Y5B2C5
_chemical_formula_sum   'Y20 B8 C20'
_cell_volume   712.39001354
_cell_formula_units_Z   4
loop_
 _symmetry_equiv_pos_site_id
 _symmetry_equiv_pos_as_xyz
  1  'x, y, z'
loop_
 _atom_site_type_symbol
 _atom_site_label
 _atom_site_symmetry_multiplicity
 _atom_site_fract_x
 _atom_site_fract_y
 _atom_site_fract_z
 _atom_site_occupancy
  Y  Y0  1  0.656169  0.036806  0.100577  1
  Y  Y1  1  0.843831  0.463195  0.100577  1
  Y  Y2  1  0.463195  0.656169  0.100577  1
  Y  Y3  1  0.036806  0.843831  0.100577  1
  Y  Y4  1  0.250000  0.250000  0.139814  1
  Y  Y5  1  0.750000  0.750000  0.360186  1
  Y  Y6  1  0.536806  0.156168  0.399423  1
  Y  Y7  1  0.963194  0.343831  0.399423  1
  Y  Y8  1  0.343831  0.536806  0.399423  1
  Y  Y9  1  0.156168  0.963194  0.399423  1
  Y  Y10  1  0.843831  0.036806  0.600577  1
  Y  Y11  1  0.656169  0.463195  0.600577  1
  Y  Y12  1  0.036806  0.656169  0.600577  1
  Y  Y13  1  0.463195  0.843831  0.600577  1
  Y  Y14  1  0.250000  0.250000  0.639814  1
  Y  Y15  1  0.750000  0.750000  0.860185  1
  Y  Y16  1  0.963194  0.156168  0.899423  1
  Y  Y17  1  0.536806  0.343831  0.899423  1
  Y  Y18  1  0.156168  0.536806  0.899423  1
  Y  Y19  1  0.343831  0.963194  0.899423  1
  B  B20  1  0.905882  0.094118  0.250000  1
  B  B21  1  0.594118  0.405881  0.250000  1
  B  B22  1  0.094118  0.594118  0.250000  1
  B  B23  1  0.405881  0.905882  0.250000  1
  B  B24  1  0.594118  0.094118  0.750000  1
  B  B25  1  0.905882  0.405881  0.750000  1
  B  B26  1  0.405881  0.594118  0.750000  1
  B  B27  1  0.094118  0.905882  0.750000  1
  C  C28  1  0.750000  0.750000  0.098856  1
  C  C29  1  0.947902  0.148805  0.124429  1
  C  C30  1  0.552098  0.351194  0.124429  1
  C  C31  1  0.148805  0.552098  0.124429  1
  C  C32  1  0.351194  0.947902  0.124429  1
  C  C33  1  0.851195  0.052097  0.375570  1
  C  C34  1  0.648805  0.447902  0.375570  1
  C  C35  1  0.052097  0.648805  0.375570  1
  C  C36  1  0.447902  0.851195  0.375570  1
  C  C37  1  0.250000  0.250000  0.401144  1
  C  C38  1  0.750000  0.750000  0.598856  1
  C  C39  1  0.552098  0.148805  0.624429  1
  C  C40  1  0.947902  0.351194  0.624429  1
  C  C41  1  0.351194  0.552098  0.624429  1
  C  C42  1  0.148805  0.947902  0.624429  1
  C  C43  1  0.648805  0.052097  0.875570  1
  C  C44  1  0.851195  0.447902  0.875570  1
  C  C45  1  0.447902  0.648805  0.875570  1
  C  C46  1  0.052097  0.851195  0.875570  1
  C  C47  1  0.250000  0.250000  0.901144  1
