# generated using pymatgen
data_TbErAl2(Co3B)2
_symmetry_space_group_name_H-M   'P 1'
_cell_length_a   5.14625100
_cell_length_b   5.14596501
_cell_length_c   6.62193600
_cell_angle_alpha   90.00000000
_cell_angle_beta   90.00000000
_cell_angle_gamma   120.00185772
_symmetry_Int_Tables_number   1
_chemical_formula_structural   TbErAl2(Co3B)2
_chemical_formula_sum   'Tb1 Er1 Al2 Co6 B2'
_cell_volume   151.86765046
_cell_formula_units_Z   1
loop_
 _symmetry_equiv_pos_site_id
 _symmetry_equiv_pos_as_xyz
  1  'x, y, z'
loop_
 _atom_site_type_symbol
 _atom_site_label
 _atom_site_symmetry_multiplicity
 _atom_site_fract_x
 _atom_site_fract_y
 _atom_site_fract_z
 _atom_site_occupancy
  Tb  Tb0  1  0.999980  0.000000  0.000000  1
  Er  Er1  1  0.999995  0.000000  0.500000  1
  Al  Al2  1  0.333349  0.666740  0.000000  1
  Al  Al3  1  0.666609  0.333260  0.000000  1
  Co  Co4  1  0.499986  0.000000  0.294918  1
  Co  Co5  1  0.499984  0.500002  0.294896  1
  Co  Co6  1  0.999982  0.499998  0.294896  1
  Co  Co7  1  0.499986  0.000000  0.705082  1
  Co  Co8  1  0.499984  0.500002  0.705104  1
  Co  Co9  1  0.999982  0.499998  0.705104  1
  B  B10  1  0.333322  0.666680  0.500000  1
  B  B11  1  0.666643  0.333320  0.500000  1
