# generated using pymatgen
data_Dy2HoLu5In3Co
_symmetry_space_group_name_H-M   'P 1'
_cell_length_a   10.17209762
_cell_length_b   10.17209905
_cell_length_c   7.00792133
_cell_angle_alpha   90.02597646
_cell_angle_beta   89.97402695
_cell_angle_gamma   120.04707063
_symmetry_Int_Tables_number   1
_chemical_formula_structural   Dy2HoLu5In3Co
_chemical_formula_sum   'Dy4 Ho2 Lu10 In6 Co2'
_cell_volume   627.67481257
_cell_formula_units_Z   2
loop_
 _symmetry_equiv_pos_site_id
 _symmetry_equiv_pos_as_xyz
  1  'x, y, z'
loop_
 _atom_site_type_symbol
 _atom_site_label
 _atom_site_symmetry_multiplicity
 _atom_site_fract_x
 _atom_site_fract_y
 _atom_site_fract_z
 _atom_site_occupancy
  Dy  Dy0  1  0.465325  0.534675  0.483979  1
  Dy  Dy1  1  0.068479  0.534279  0.483186  1
  Dy  Dy2  1  0.465721  0.931521  0.483186  1
  Dy  Dy3  1  0.535138  0.464862  0.983401  1
  Ho  Ho4  1  0.999982  0.000018  0.495059  1
  Ho  Ho5  1  0.999995  0.000005  0.994719  1
  Lu  Lu6  1  0.928226  0.464084  0.982156  1
  Lu  Lu7  1  0.535916  0.071774  0.982156  1
  Lu  Lu8  1  0.820163  0.179837  0.275774  1
  Lu  Lu9  1  0.359484  0.179009  0.277208  1
  Lu  Lu10  1  0.820991  0.640516  0.277208  1
  Lu  Lu11  1  0.179765  0.820235  0.780255  1
  Lu  Lu12  1  0.641050  0.821545  0.779450  1
  Lu  Lu13  1  0.178455  0.358950  0.779450  1
  Lu  Lu14  1  0.332773  0.667227  0.088956  1
  Lu  Lu15  1  0.667134  0.332866  0.589294  1
  In  In16  1  0.163382  0.836618  0.230963  1
  In  In17  1  0.673029  0.835779  0.231462  1
  In  In18  1  0.164221  0.326971  0.231462  1
  In  In19  1  0.836178  0.163822  0.732862  1
  In  In20  1  0.327236  0.163477  0.731663  1
  In  In21  1  0.836523  0.672764  0.731663  1
  Co  Co22  1  0.333324  0.666676  0.710362  1
  Co  Co23  1  0.667513  0.332487  0.208679  1
