# generated using pymatgen
data_LuNi3HgPt
_symmetry_space_group_name_H-M   'P 1'
_cell_length_a   5.12154707
_cell_length_b   5.12154763
_cell_length_c   5.12154800
_cell_angle_alpha   58.24055880
_cell_angle_beta   58.24055747
_cell_angle_gamma   58.24055252
_symmetry_Int_Tables_number   1
_chemical_formula_structural   LuNi3HgPt
_chemical_formula_sum   'Lu1 Ni3 Hg1 Pt1'
_cell_volume   91.16351034
_cell_formula_units_Z   1
loop_
 _symmetry_equiv_pos_site_id
 _symmetry_equiv_pos_as_xyz
  1  'x, y, z'
loop_
 _atom_site_type_symbol
 _atom_site_label
 _atom_site_symmetry_multiplicity
 _atom_site_fract_x
 _atom_site_fract_y
 _atom_site_fract_z
 _atom_site_occupancy
  Lu  Lu0  1  0.249519  0.249519  0.249519  1
  Ni  Ni1  1  0.624378  0.624378  0.121455  1
  Ni  Ni2  1  0.624378  0.121455  0.624378  1
  Ni  Ni3  1  0.121455  0.624378  0.624378  1
  Hg  Hg4  1  0.007164  0.007164  0.007164  1
  Pt  Pt5  1  0.623105  0.623105  0.623105  1
