# generated using pymatgen
data_SmHo7Pa2(Al2Ru3)2
_symmetry_space_group_name_H-M   'P 1'
_cell_length_a   8.42174035
_cell_length_b   8.36444975
_cell_length_c   8.33237771
_cell_angle_alpha   110.33748822
_cell_angle_beta   108.91462295
_cell_angle_gamma   110.11083962
_symmetry_Int_Tables_number   1
_chemical_formula_structural   SmHo7Pa2(Al2Ru3)2
_chemical_formula_sum   'Sm1 Ho7 Pa2 Al4 Ru6'
_cell_volume   446.41050303
_cell_formula_units_Z   1
loop_
 _symmetry_equiv_pos_site_id
 _symmetry_equiv_pos_as_xyz
  1  'x, y, z'
loop_
 _atom_site_type_symbol
 _atom_site_label
 _atom_site_symmetry_multiplicity
 _atom_site_fract_x
 _atom_site_fract_y
 _atom_site_fract_z
 _atom_site_occupancy
  Sm  Sm0  1  0.254207  0.191921  0.939356  1
  Ho  Ho1  1  0.777591  0.781726  0.774929  1
  Ho  Ho2  1  0.314421  0.564685  0.750525  1
  Ho  Ho3  1  0.748813  0.312076  0.564857  1
  Ho  Ho4  1  0.566606  0.749015  0.311477  1
  Ho  Ho5  1  0.725341  0.503102  0.998098  1
  Ho  Ho6  1  0.997682  0.722127  0.504665  1
  Ho  Ho7  1  0.501088  0.991968  0.718335  1
  Pa  Pa8  1  0.943936  0.252027  0.194591  1
  Pa  Pa9  1  0.195554  0.945408  0.251345  1
  Al  Al10  1  0.411560  0.405608  0.403139  1
  Al  Al11  1  0.094334  0.492177  0.996119  1
  Al  Al12  1  0.997048  0.098297  0.504787  1
  Al  Al13  1  0.504550  0.008496  0.099744  1
  Ru  Ru14  1  0.864558  0.116454  0.745819  1
  Ru  Ru15  1  0.763946  0.910021  0.124432  1
  Ru  Ru16  1  0.127415  0.764267  0.915309  1
  Ru  Ru17  1  0.218966  0.589536  0.360711  1
  Ru  Ru18  1  0.355795  0.215696  0.590530  1
  Ru  Ru19  1  0.636589  0.385395  0.251231  1
