# generated using pymatgen
data_Tb3Sm3Co16(P6Ru)2
_symmetry_space_group_name_H-M   'P 1'
_cell_length_a   3.73080500
_cell_length_b   10.56490939
_cell_length_c   12.31605546
_cell_angle_alpha   90.03123526
_cell_angle_beta   90.00000000
_cell_angle_gamma   90.00000000
_symmetry_Int_Tables_number   1
_chemical_formula_structural   Tb3Sm3Co16(P6Ru)2
_chemical_formula_sum   'Tb3 Sm3 Co16 P12 Ru2'
_cell_volume   485.44485009
_cell_formula_units_Z   1
loop_
 _symmetry_equiv_pos_site_id
 _symmetry_equiv_pos_as_xyz
  1  'x, y, z'
loop_
 _atom_site_type_symbol
 _atom_site_label
 _atom_site_symmetry_multiplicity
 _atom_site_fract_x
 _atom_site_fract_y
 _atom_site_fract_z
 _atom_site_occupancy
  Tb  Tb0  1  0.500000  0.183797  0.206251  1
  Tb  Tb1  1  0.000000  0.683269  0.793763  1
  Tb  Tb2  1  0.000000  0.316638  0.793419  1
  Sm  Sm3  1  0.000000  0.499947  0.524457  1
  Sm  Sm4  1  0.500000  0.000174  0.476095  1
  Sm  Sm5  1  0.500000  0.816822  0.206566  1
  Co  Co6  1  0.500000  0.499799  0.705635  1
  Co  Co7  1  0.000000  0.001395  0.294668  1
  Co  Co8  1  0.000000  0.499253  0.985680  1
  Co  Co9  1  0.500000  0.000797  0.012932  1
  Co  Co10  1  0.500000  0.332376  0.990541  1
  Co  Co11  1  0.500000  0.666935  0.990214  1
  Co  Co12  1  0.000000  0.168213  0.008704  1
  Co  Co13  1  0.000000  0.832635  0.008020  1
  Co  Co14  1  0.500000  0.297002  0.430484  1
  Co  Co15  1  0.500000  0.702813  0.431604  1
  Co  Co16  1  0.000000  0.203135  0.569746  1
  Co  Co17  1  0.000000  0.796982  0.570562  1
  Co  Co18  1  0.500000  0.879741  0.709498  1
  Co  Co19  1  0.500000  0.120233  0.709028  1
  Co  Co20  1  0.000000  0.619053  0.291761  1
  Co  Co21  1  0.000000  0.379501  0.290766  1
  P  P22  1  0.500000  0.499615  0.882746  1
  P  P23  1  0.000000  0.001338  0.115960  1
  P  P24  1  0.500000  0.500004  0.347521  1
  P  P25  1  0.000000  0.999945  0.652657  1
  P  P26  1  0.500000  0.309142  0.616591  1
  P  P27  1  0.500000  0.690577  0.617219  1
  P  P28  1  0.000000  0.191093  0.383537  1
  P  P29  1  0.000000  0.808895  0.385366  1
  P  P30  1  0.500000  0.846668  0.894256  1
  P  P31  1  0.500000  0.153573  0.893770  1
  P  P32  1  0.000000  0.652058  0.104568  1
  P  P33  1  0.000000  0.346861  0.105634  1
  Ru  Ru34  1  0.500000  0.499327  0.158251  1
  Ru  Ru35  1  0.000000  0.000391  0.841529  1
