# generated using pymatgen
data_HfI23
_symmetry_space_group_name_H-M   'P 1'
_cell_length_a   8.37974608
_cell_length_b   10.17647136
_cell_length_c   24.23122600
_cell_angle_alpha   70.02339045
_cell_angle_beta   101.87782431
_cell_angle_gamma   129.95836696
_symmetry_Int_Tables_number   1
_chemical_formula_structural   HfI23
_chemical_formula_sum   'Hf1 I23'
_cell_volume   1488.31587039
_cell_formula_units_Z   1
loop_
 _symmetry_equiv_pos_site_id
 _symmetry_equiv_pos_as_xyz
  1  'x, y, z'
loop_
 _atom_site_type_symbol
 _atom_site_label
 _atom_site_symmetry_multiplicity
 _atom_site_fract_x
 _atom_site_fract_y
 _atom_site_fract_z
 _atom_site_occupancy
  Hf  Hf0  1  0.306489  0.655489  0.678128  1
  I  I1  1  0.646812  0.321257  0.000629  1
  I  I2  1  0.358860  0.679157  0.999795  1
  I  I3  1  0.683450  0.349214  0.329171  1
  I  I4  1  0.974926  0.989941  0.332498  1
  I  I5  1  0.005469  0.066107  0.664858  1
  I  I6  1  0.998092  0.359008  0.086329  1
  I  I7  1  0.642117  0.681110  0.087883  1
  I  I8  1  0.352253  0.023820  0.093042  1
  I  I9  1  0.333813  0.308770  0.245212  1
  I  I10  1  0.975735  0.645048  0.236457  1
  I  I11  1  0.692346  0.987677  0.244270  1
  I  I12  1  0.981787  0.363965  0.413459  1
  I  I13  1  0.678511  0.696563  0.422694  1
  I  I14  1  0.330455  0.031600  0.418436  1
  I  I15  1  0.580587  0.917681  0.575942  1
  I  I16  1  0.317490  0.439105  0.612764  1
  I  I17  1  0.003371  0.625002  0.598862  1
  I  I18  1  0.377971  0.895362  0.724338  1
  I  I19  1  0.065082  0.347852  0.766210  1
  I  I20  1  0.672886  0.685214  0.733027  1
  I  I21  1  0.654388  0.974287  0.909675  1
  I  I22  1  0.362168  0.317325  0.912259  1
  I  I23  1  0.004933  0.639445  0.914060  1
