# generated using pymatgen
data_La4OsI5
_symmetry_space_group_name_H-M   'P 1'
_cell_length_a   10.24105047
_cell_length_b   10.24105117
_cell_length_c   9.43590989
_cell_angle_alpha   77.09848554
_cell_angle_beta   77.09848514
_cell_angle_gamma   25.01386516
_symmetry_Int_Tables_number   1
_chemical_formula_structural   La4OsI5
_chemical_formula_sum   'La4 Os1 I5'
_cell_volume   407.36214653
_cell_formula_units_Z   1
loop_
 _symmetry_equiv_pos_site_id
 _symmetry_equiv_pos_as_xyz
  1  'x, y, z'
loop_
 _atom_site_type_symbol
 _atom_site_label
 _atom_site_symmetry_multiplicity
 _atom_site_fract_x
 _atom_site_fract_y
 _atom_site_fract_z
 _atom_site_occupancy
  La  La0  1  0.860848  0.860848  0.072251  1
  La  La1  1  0.139152  0.139152  0.927749  1
  La  La2  1  0.500541  0.500541  0.206553  1
  La  La3  1  0.499459  0.499459  0.793447  1
  Os  Os4  1  0.000000  0.000000  0.000000  1
  I  I5  1  0.672717  0.672717  0.168819  1
  I  I6  1  0.327283  0.327283  0.831181  1
  I  I7  1  0.666384  0.666384  0.661372  1
  I  I8  1  0.333616  0.333616  0.338628  1
  I  I9  1  0.000000  0.000000  0.500000  1
