# generated using pymatgen
data_Nd3(Sn2Ru)2
_symmetry_space_group_name_H-M   'P 1'
_cell_length_a   7.67750800
_cell_length_b   7.67750803
_cell_length_c   4.26167400
_cell_angle_alpha   90.00000000
_cell_angle_beta   90.00000000
_cell_angle_gamma   119.99999987
_symmetry_Int_Tables_number   1
_chemical_formula_structural   Nd3(Sn2Ru)2
_chemical_formula_sum   'Nd3 Sn4 Ru2'
_cell_volume   217.54615620
_cell_formula_units_Z   1
loop_
 _symmetry_equiv_pos_site_id
 _symmetry_equiv_pos_as_xyz
  1  'x, y, z'
loop_
 _atom_site_type_symbol
 _atom_site_label
 _atom_site_symmetry_multiplicity
 _atom_site_fract_x
 _atom_site_fract_y
 _atom_site_fract_z
 _atom_site_occupancy
  Nd  Nd0  1  0.603956  0.020667  0.000000  1
  Nd  Nd1  1  0.979333  0.583289  0.000000  1
  Nd  Nd2  1  0.416711  0.396044  0.000000  1
  Sn  Sn3  1  0.252737  0.019861  0.500000  1
  Sn  Sn4  1  0.980139  0.232876  0.500000  1
  Sn  Sn5  1  0.767124  0.747263  0.500000  1
  Sn  Sn6  1  0.333333  0.666667  0.500000  1
  Ru  Ru7  1  0.666667  0.333333  0.500000  1
  Ru  Ru8  1  0.000000  0.000000  0.000000  1
