# generated using pymatgen
data_Tb4Ta4Co16Si5P7
_symmetry_space_group_name_H-M   'P 1'
_cell_length_a   3.72486200
_cell_length_b   10.61158211
_cell_length_c   12.13573813
_cell_angle_alpha   90.01662300
_cell_angle_beta   90.00000000
_cell_angle_gamma   90.00000000
_symmetry_Int_Tables_number   1
_chemical_formula_structural   Tb4Ta4Co16Si5P7
_chemical_formula_sum   'Tb4 Ta4 Co16 Si5 P7'
_cell_volume   479.68540482
_cell_formula_units_Z   1
loop_
 _symmetry_equiv_pos_site_id
 _symmetry_equiv_pos_as_xyz
  1  'x, y, z'
loop_
 _atom_site_type_symbol
 _atom_site_label
 _atom_site_symmetry_multiplicity
 _atom_site_fract_x
 _atom_site_fract_y
 _atom_site_fract_z
 _atom_site_occupancy
  Tb  Tb0  1  0.250000  0.580256  0.703892  1
  Tb  Tb1  1  0.250000  0.919134  0.203906  1
  Tb  Tb2  1  0.750000  0.419365  0.296247  1
  Tb  Tb3  1  0.750000  0.077094  0.796610  1
  Ta  Ta4  1  0.250000  0.701784  0.993727  1
  Ta  Ta5  1  0.250000  0.798056  0.493241  1
  Ta  Ta6  1  0.750000  0.298731  0.008211  1
  Ta  Ta7  1  0.750000  0.201946  0.506110  1
  Co  Co8  1  0.250000  0.407912  0.486094  1
  Co  Co9  1  0.250000  0.090004  0.990882  1
  Co  Co10  1  0.750000  0.592521  0.510682  1
  Co  Co11  1  0.750000  0.905991  0.011972  1
  Co  Co12  1  0.250000  0.216857  0.174220  1
  Co  Co13  1  0.250000  0.285499  0.668440  1
  Co  Co14  1  0.750000  0.783228  0.826587  1
  Co  Co15  1  0.750000  0.717293  0.326717  1
  Co  Co16  1  0.250000  0.881143  0.702846  1
  Co  Co17  1  0.250000  0.619457  0.203598  1
  Co  Co18  1  0.750000  0.118320  0.296764  1
  Co  Co19  1  0.750000  0.382544  0.795997  1
  Co  Co20  1  0.250000  0.464864  0.933720  1
  Co  Co21  1  0.250000  0.037502  0.432092  1
  Co  Co22  1  0.750000  0.538656  0.069356  1
  Co  Co23  1  0.750000  0.962786  0.568172  1
  Si  Si24  1  0.250000  0.424166  0.117528  1
  Si  Si25  1  0.250000  0.077355  0.617738  1
  Si  Si26  1  0.750000  0.575673  0.883131  1
  Si  Si27  1  0.750000  0.923917  0.382909  1
  Si  Si28  1  0.250000  0.269894  0.856029  1
  P  P29  1  0.250000  0.229188  0.357223  1
  P  P30  1  0.750000  0.729707  0.142813  1
  P  P31  1  0.750000  0.770640  0.642585  1
  P  P32  1  0.250000  0.592326  0.390490  1
  P  P33  1  0.250000  0.907176  0.891489  1
  P  P34  1  0.750000  0.407452  0.609006  1
  P  P35  1  0.750000  0.091561  0.108975  1
