# generated using pymatgen
data_Hf18ZnRe8Os
_symmetry_space_group_name_H-M   'P 1'
_cell_length_a   8.63709000
_cell_length_b   8.63708969
_cell_length_c   8.56067100
_cell_angle_alpha   90.00000000
_cell_angle_beta   90.00000000
_cell_angle_gamma   120.00000118
_symmetry_Int_Tables_number   1
_chemical_formula_structural   Hf18ZnRe8Os
_chemical_formula_sum   'Hf18 Zn1 Re8 Os1'
_cell_volume   553.06134814
_cell_formula_units_Z   1
loop_
 _symmetry_equiv_pos_site_id
 _symmetry_equiv_pos_as_xyz
  1  'x, y, z'
loop_
 _atom_site_type_symbol
 _atom_site_label
 _atom_site_symmetry_multiplicity
 _atom_site_fract_x
 _atom_site_fract_y
 _atom_site_fract_z
 _atom_site_occupancy
  Hf  Hf0  1  0.197269  0.802731  0.447151  1
  Hf  Hf1  1  0.197269  0.394537  0.447151  1
  Hf  Hf2  1  0.605463  0.802731  0.447151  1
  Hf  Hf3  1  0.807115  0.192885  0.549841  1
  Hf  Hf4  1  0.807115  0.614229  0.549841  1
  Hf  Hf5  1  0.385771  0.192885  0.549841  1
  Hf  Hf6  1  0.807115  0.192885  0.950159  1
  Hf  Hf7  1  0.807115  0.614229  0.950159  1
  Hf  Hf8  1  0.385771  0.192885  0.950159  1
  Hf  Hf9  1  0.197269  0.802731  0.052849  1
  Hf  Hf10  1  0.197269  0.394537  0.052849  1
  Hf  Hf11  1  0.605463  0.802731  0.052849  1
  Hf  Hf12  1  0.540483  0.459517  0.250000  1
  Hf  Hf13  1  0.540483  0.080967  0.250000  1
  Hf  Hf14  1  0.919033  0.459517  0.250000  1
  Hf  Hf15  1  0.460435  0.539565  0.750000  1
  Hf  Hf16  1  0.460435  0.920869  0.750000  1
  Hf  Hf17  1  0.079131  0.539565  0.750000  1
  Zn  Zn18  1  0.666667  0.333333  0.750000  1
  Re  Re19  1  0.889360  0.110640  0.250000  1
  Re  Re20  1  0.889360  0.778720  0.250000  1
  Re  Re21  1  0.221280  0.110640  0.250000  1
  Re  Re22  1  0.110436  0.889564  0.750000  1
  Re  Re23  1  0.110436  0.220873  0.750000  1
  Re  Re24  1  0.779127  0.889564  0.750000  1
  Re  Re25  1  0.000000  0.000000  0.499059  1
  Re  Re26  1  0.000000  0.000000  0.000941  1
  Os  Os27  1  0.333333  0.666667  0.250000  1
