# generated using pymatgen
data_Yb3Pr(Ga12Pt)2
_symmetry_space_group_name_H-M   'P 1'
_cell_length_a   6.11119949
_cell_length_b   6.11119949
_cell_length_c   15.76261400
_cell_angle_alpha   90.00000000
_cell_angle_beta   90.00000000
_cell_angle_gamma   89.59328833
_symmetry_Int_Tables_number   1
_chemical_formula_structural   Yb3Pr(Ga12Pt)2
_chemical_formula_sum   'Yb3 Pr1 Ga24 Pt2'
_cell_volume   588.66771856
_cell_formula_units_Z   1
loop_
 _symmetry_equiv_pos_site_id
 _symmetry_equiv_pos_as_xyz
  1  'x, y, z'
loop_
 _atom_site_type_symbol
 _atom_site_label
 _atom_site_symmetry_multiplicity
 _atom_site_fract_x
 _atom_site_fract_y
 _atom_site_fract_z
 _atom_site_occupancy
  Yb  Yb0  1  0.750000  0.250000  0.244993  1
  Yb  Yb1  1  0.250000  0.750000  0.244588  1
  Yb  Yb2  1  0.250000  0.750000  0.754336  1
  Pr  Pr3  1  0.750000  0.250000  0.756166  1
  Ga  Ga4  1  0.250000  0.250000  0.189146  1
  Ga  Ga5  1  0.750000  0.750000  0.189146  1
  Ga  Ga6  1  0.750000  0.750000  0.811183  1
  Ga  Ga7  1  0.250000  0.250000  0.811183  1
  Ga  Ga8  1  0.250000  0.250000  0.344530  1
  Ga  Ga9  1  0.750000  0.750000  0.344530  1
  Ga  Ga10  1  0.750000  0.750000  0.655068  1
  Ga  Ga11  1  0.250000  0.250000  0.655068  1
  Ga  Ga12  1  0.498313  0.998313  0.910339  1
  Ga  Ga13  1  0.001598  0.998402  0.909875  1
  Ga  Ga14  1  0.498402  0.501598  0.909875  1
  Ga  Ga15  1  0.001687  0.501687  0.910339  1
  Ga  Ga16  1  0.500676  0.000676  0.090860  1
  Ga  Ga17  1  0.999605  0.000395  0.091560  1
  Ga  Ga18  1  0.500395  0.499605  0.091560  1
  Ga  Ga19  1  0.999324  0.499324  0.090860  1
  Ga  Ga20  1  0.579574  0.079574  0.431293  1
  Ga  Ga21  1  0.079898  0.920102  0.429848  1
  Ga  Ga22  1  0.420102  0.579898  0.429848  1
  Ga  Ga23  1  0.920426  0.420426  0.431293  1
  Ga  Ga24  1  0.419174  0.919174  0.568658  1
  Ga  Ga25  1  0.921247  0.078753  0.568269  1
  Ga  Ga26  1  0.578753  0.421247  0.568269  1
  Ga  Ga27  1  0.080826  0.580826  0.568658  1
  Pt  Pt28  1  0.750000  0.250000  0.998758  1
  Pt  Pt29  1  0.250000  0.750000  0.999897  1
