# generated using pymatgen
data_Lu4ZnPt2Au
_symmetry_space_group_name_H-M   'P 1'
_cell_length_a   4.52272900
_cell_length_b   5.51862420
_cell_length_c   6.97140378
_cell_angle_alpha   88.38496111
_cell_angle_beta   90.00000000
_cell_angle_gamma   90.00000000
_symmetry_Int_Tables_number   1
_chemical_formula_structural   Lu4ZnPt2Au
_chemical_formula_sum   'Lu4 Zn1 Pt2 Au1'
_cell_volume   173.93183048
_cell_formula_units_Z   1
loop_
 _symmetry_equiv_pos_site_id
 _symmetry_equiv_pos_as_xyz
  1  'x, y, z'
loop_
 _atom_site_type_symbol
 _atom_site_label
 _atom_site_symmetry_multiplicity
 _atom_site_fract_x
 _atom_site_fract_y
 _atom_site_fract_z
 _atom_site_occupancy
  Lu  Lu0  1  0.250000  0.638026  0.195866  1
  Lu  Lu1  1  0.750000  0.364726  0.803153  1
  Lu  Lu2  1  0.750000  0.149490  0.330759  1
  Lu  Lu3  1  0.250000  0.843462  0.671388  1
  Zn  Zn4  1  0.250000  0.149926  0.027782  1
  Pt  Pt5  1  0.750000  0.659679  0.450959  1
  Pt  Pt6  1  0.250000  0.330836  0.550309  1
  Au  Au7  1  0.750000  0.863856  0.969785  1
