# generated using pymatgen
data_Dy3YNp2O12
_symmetry_space_group_name_H-M   'P 1'
_cell_length_a   5.53590400
_cell_length_b   7.84420847
_cell_length_c   11.86482696
_cell_angle_alpha   73.83548629
_cell_angle_beta   90.00000000
_cell_angle_gamma   90.00000000
_symmetry_Int_Tables_number   1
_chemical_formula_structural   Dy3YNp2O12
_chemical_formula_sum   'Dy6 Y2 Np4 O24'
_cell_volume   494.85870643
_cell_formula_units_Z   2
loop_
 _symmetry_equiv_pos_site_id
 _symmetry_equiv_pos_as_xyz
  1  'x, y, z'
loop_
 _atom_site_type_symbol
 _atom_site_label
 _atom_site_symmetry_multiplicity
 _atom_site_fract_x
 _atom_site_fract_y
 _atom_site_fract_z
 _atom_site_occupancy
  Dy  Dy0  1  0.744125  0.000000  0.750000  1
  Dy  Dy1  1  0.255875  0.000000  0.250000  1
  Dy  Dy2  1  0.187132  0.794929  0.579312  1
  Dy  Dy3  1  0.812868  0.794929  0.079312  1
  Dy  Dy4  1  0.187132  0.205071  0.920688  1
  Dy  Dy5  1  0.812868  0.205071  0.420688  1
  Y  Y6  1  0.697423  0.500000  0.750000  1
  Y  Y7  1  0.302577  0.500000  0.250000  1
  Np  Np8  1  0.255429  0.720991  0.886581  1
  Np  Np9  1  0.744571  0.720991  0.386581  1
  Np  Np10  1  0.255429  0.279009  0.613419  1
  Np  Np11  1  0.744571  0.279009  0.113419  1
  O  O12  1  0.043943  0.943868  0.896550  1
  O  O13  1  0.552138  0.849723  0.931364  1
  O  O14  1  0.956057  0.943868  0.396550  1
  O  O15  1  0.449828  0.800850  0.726662  1
  O  O16  1  0.447862  0.849723  0.431364  1
  O  O17  1  0.964414  0.713666  0.766727  1
  O  O18  1  0.550172  0.800850  0.226662  1
  O  O19  1  0.874282  0.627688  0.554467  1
  O  O20  1  0.387607  0.481145  0.883616  1
  O  O21  1  0.035586  0.713666  0.266727  1
  O  O22  1  0.387607  0.518855  0.616384  1
  O  O23  1  0.874282  0.372312  0.945533  1
  O  O24  1  0.125718  0.627688  0.054467  1
  O  O25  1  0.612393  0.481145  0.383616  1
  O  O26  1  0.964414  0.286334  0.733273  1
  O  O27  1  0.612393  0.518855  0.116384  1
  O  O28  1  0.125718  0.372312  0.445533  1
  O  O29  1  0.449828  0.199150  0.773338  1
  O  O30  1  0.035586  0.286334  0.233273  1
  O  O31  1  0.552138  0.150277  0.568636  1
  O  O32  1  0.550172  0.199150  0.273338  1
  O  O33  1  0.043943  0.056132  0.603450  1
  O  O34  1  0.447862  0.150277  0.068636  1
  O  O35  1  0.956057  0.056132  0.103450  1
