# generated using pymatgen
data_Y3HoAlGa17Ir6
_symmetry_space_group_name_H-M   'P 1'
_cell_length_a   7.59329760
_cell_length_b   7.59409036
_cell_length_c   9.49748401
_cell_angle_alpha   89.99899173
_cell_angle_beta   89.99955390
_cell_angle_gamma   119.85493454
_symmetry_Int_Tables_number   1
_chemical_formula_structural   Y3HoAlGa17Ir6
_chemical_formula_sum   'Y3 Ho1 Al1 Ga17 Ir6'
_cell_volume   474.98333365
_cell_formula_units_Z   1
loop_
 _symmetry_equiv_pos_site_id
 _symmetry_equiv_pos_as_xyz
  1  'x, y, z'
loop_
 _atom_site_type_symbol
 _atom_site_label
 _atom_site_symmetry_multiplicity
 _atom_site_fract_x
 _atom_site_fract_y
 _atom_site_fract_z
 _atom_site_occupancy
  Y  Y0  1  0.998669  0.669143  0.249681  1
  Y  Y1  1  0.001564  0.330119  0.749477  1
  Y  Y2  1  0.669157  0.998679  0.249681  1
  Ho  Ho3  1  0.330081  0.001460  0.749460  1
  Al  Al4  1  0.335696  0.335574  0.950182  1
  Ga  Ga5  1  0.126855  0.126859  0.249342  1
  Ga  Ga6  1  0.872703  0.872545  0.749201  1
  Ga  Ga7  1  0.998602  0.334391  0.079962  1
  Ga  Ga8  1  0.000140  0.665141  0.918418  1
  Ga  Ga9  1  0.999705  0.664867  0.581058  1
  Ga  Ga10  1  0.334666  0.999829  0.418410  1
  Ga  Ga11  1  0.999827  0.334666  0.418264  1
  Ga  Ga12  1  0.664452  0.999503  0.581061  1
  Ga  Ga13  1  0.664723  0.999932  0.918416  1
  Ga  Ga14  1  0.334389  0.998599  0.079818  1
  Ga  Ga15  1  0.331813  0.331631  0.563872  1
  Ga  Ga16  1  0.667884  0.667884  0.435046  1
  Ga  Ga17  1  0.671649  0.671655  0.064881  1
  Ga  Ga18  1  0.340678  0.547996  0.249749  1
  Ga  Ga19  1  0.655448  0.450782  0.750229  1
  Ga  Ga20  1  0.547993  0.340668  0.249748  1
  Ga  Ga21  1  0.450995  0.655788  0.750229  1
  Ir  Ir22  1  0.669054  0.328214  0.998950  1
  Ir  Ir23  1  0.328282  0.669217  0.998952  1
  Ir  Ir24  1  0.328369  0.671857  0.499721  1
  Ir  Ir25  1  0.671710  0.328313  0.499704  1
  Ir  Ir26  1  0.004943  0.004824  0.997190  1
  Ir  Ir27  1  0.999951  0.999862  0.499300  1
