# generated using pymatgen
data_YbSm2Si6(Pd9Pt)2
_symmetry_space_group_name_H-M   'P 1'
_cell_length_a   8.75732709
_cell_length_b   8.75732737
_cell_length_c   8.75732703
_cell_angle_alpha   59.75514234
_cell_angle_beta   59.75513671
_cell_angle_gamma   59.75514534
_symmetry_Int_Tables_number   1
_chemical_formula_structural   YbSm2Si6(Pd9Pt)2
_chemical_formula_sum   'Yb1 Sm2 Si6 Pd18 Pt2'
_cell_volume   472.25687825
_cell_formula_units_Z   1
loop_
 _symmetry_equiv_pos_site_id
 _symmetry_equiv_pos_as_xyz
  1  'x, y, z'
loop_
 _atom_site_type_symbol
 _atom_site_label
 _atom_site_symmetry_multiplicity
 _atom_site_fract_x
 _atom_site_fract_y
 _atom_site_fract_z
 _atom_site_occupancy
  Yb  Yb0  1  0.000000  0.000000  0.000000  1
  Sm  Sm1  1  0.250248  0.250248  0.250248  1
  Sm  Sm2  1  0.749752  0.749752  0.749752  1
  Si  Si3  1  0.731907  0.267066  0.267066  1
  Si  Si4  1  0.268093  0.732934  0.732934  1
  Si  Si5  1  0.267066  0.731907  0.267066  1
  Si  Si6  1  0.732934  0.268093  0.732934  1
  Si  Si7  1  0.267066  0.267066  0.731907  1
  Si  Si8  1  0.732934  0.732934  0.268093  1
  Pd  Pd9  1  0.382781  0.382781  0.847951  1
  Pd  Pd10  1  0.382781  0.847951  0.382781  1
  Pd  Pd11  1  0.617219  0.617219  0.152049  1
  Pd  Pd12  1  0.617219  0.152049  0.617219  1
  Pd  Pd13  1  0.847951  0.382781  0.382781  1
  Pd  Pd14  1  0.152049  0.617219  0.617219  1
  Pd  Pd15  1  0.345346  0.999761  0.999761  1
  Pd  Pd16  1  0.654654  0.000239  0.000239  1
  Pd  Pd17  1  0.000000  0.344839  0.655161  1
  Pd  Pd18  1  0.000000  0.655161  0.344839  1
  Pd  Pd19  1  0.999761  0.345346  0.999761  1
  Pd  Pd20  1  0.655161  0.000000  0.344839  1
  Pd  Pd21  1  0.000239  0.654654  0.000239  1
  Pd  Pd22  1  0.344839  0.000000  0.655161  1
  Pd  Pd23  1  0.999761  0.999761  0.345346  1
  Pd  Pd24  1  0.000239  0.000239  0.654654  1
  Pd  Pd25  1  0.655161  0.344839  0.000000  1
  Pd  Pd26  1  0.344839  0.655161  0.000000  1
  Pt  Pt27  1  0.385483  0.385483  0.385483  1
  Pt  Pt28  1  0.614517  0.614517  0.614517  1
