# generated using pymatgen
data_Nd12Sn4Ge4Ir7Rh
_symmetry_space_group_name_H-M   'P 1'
_cell_length_a   5.78536519
_cell_length_b   8.40845405
_cell_length_c   13.67078062
_cell_angle_alpha   89.93805268
_cell_angle_beta   89.91681180
_cell_angle_gamma   90.14571402
_symmetry_Int_Tables_number   1
_chemical_formula_structural   Nd12Sn4Ge4Ir7Rh
_chemical_formula_sum   'Nd12 Sn4 Ge4 Ir7 Rh1'
_cell_volume   665.02524116
_cell_formula_units_Z   1
loop_
 _symmetry_equiv_pos_site_id
 _symmetry_equiv_pos_as_xyz
  1  'x, y, z'
loop_
 _atom_site_type_symbol
 _atom_site_label
 _atom_site_symmetry_multiplicity
 _atom_site_fract_x
 _atom_site_fract_y
 _atom_site_fract_z
 _atom_site_occupancy
  Nd  Nd0  1  0.640267  0.250176  0.250648  1
  Nd  Nd1  1  0.359944  0.748467  0.750224  1
  Nd  Nd2  1  0.359763  0.752063  0.250765  1
  Nd  Nd3  1  0.639554  0.248979  0.749930  1
  Nd  Nd4  1  0.160251  0.394063  0.100831  1
  Nd  Nd5  1  0.841494  0.606382  0.899040  1
  Nd  Nd6  1  0.841350  0.605508  0.601204  1
  Nd  Nd7  1  0.841860  0.894877  0.399281  1
  Nd  Nd8  1  0.158683  0.394009  0.398525  1
  Nd  Nd9  1  0.159128  0.105877  0.600681  1
  Nd  Nd10  1  0.158636  0.105030  0.899332  1
  Nd  Nd11  1  0.842291  0.895759  0.101195  1
  Sn  Sn12  1  0.658319  0.250094  0.000147  1
  Sn  Sn13  1  0.342392  0.749821  0.000104  1
  Sn  Sn14  1  0.342392  0.749536  0.499987  1
  Sn  Sn15  1  0.657677  0.250395  0.500022  1
  Ge  Ge16  1  0.139828  0.104182  0.249927  1
  Ge  Ge17  1  0.860203  0.895866  0.749926  1
  Ge  Ge18  1  0.860009  0.604894  0.249411  1
  Ge  Ge19  1  0.139513  0.396171  0.750094  1
  Ir  Ir20  1  0.370453  0.039560  0.097359  1
  Ir  Ir21  1  0.630386  0.960588  0.902524  1
  Ir  Ir22  1  0.630935  0.959573  0.597076  1
  Ir  Ir23  1  0.629185  0.539905  0.402085  1
  Ir  Ir24  1  0.368664  0.039772  0.402739  1
  Ir  Ir25  1  0.369935  0.460157  0.597592  1
  Ir  Ir26  1  0.368947  0.459230  0.902862  1
  Rh  Rh27  1  0.627942  0.539066  0.096489  1
