# generated using pymatgen
data_NaCaInF6
_symmetry_space_group_name_H-M   'P 1'
_cell_length_a   5.66156200
_cell_length_b   5.66156242
_cell_length_c   9.87765000
_cell_angle_alpha   90.00000000
_cell_angle_beta   90.00000000
_cell_angle_gamma   119.99999756
_symmetry_Int_Tables_number   1
_chemical_formula_structural   NaCaInF6
_chemical_formula_sum   'Na2 Ca2 In2 F12'
_cell_volume   274.19330305
_cell_formula_units_Z   2
loop_
 _symmetry_equiv_pos_site_id
 _symmetry_equiv_pos_as_xyz
  1  'x, y, z'
loop_
 _atom_site_type_symbol
 _atom_site_label
 _atom_site_symmetry_multiplicity
 _atom_site_fract_x
 _atom_site_fract_y
 _atom_site_fract_z
 _atom_site_occupancy
  Na  Na0  1  0.333333  0.666667  0.750000  1
  Na  Na1  1  0.666667  0.333333  0.250000  1
  Ca  Ca2  1  0.000000  0.000000  0.500000  1
  Ca  Ca3  1  0.000000  0.000000  0.000000  1
  In  In4  1  0.666667  0.333333  0.750000  1
  In  In5  1  0.333333  0.666667  0.250000  1
  F  F6  1  0.677767  0.027214  0.632547  1
  F  F7  1  0.322233  0.972786  0.367453  1
  F  F8  1  0.972786  0.650553  0.632547  1
  F  F9  1  0.677767  0.650553  0.867453  1
  F  F10  1  0.027214  0.349447  0.367453  1
  F  F11  1  0.322233  0.349447  0.132547  1
  F  F12  1  0.349447  0.322233  0.632547  1
  F  F13  1  0.972786  0.322233  0.867453  1
  F  F14  1  0.650553  0.677767  0.367453  1
  F  F15  1  0.027214  0.677767  0.132547  1
  F  F16  1  0.349447  0.027214  0.867453  1
  F  F17  1  0.650553  0.972786  0.132547  1
