# generated using pymatgen
data_Zr6Sn6RuRh4Au
_symmetry_space_group_name_H-M   'P 1'
_cell_length_a   7.44237900
_cell_length_b   7.44237764
_cell_length_c   7.36382400
_cell_angle_alpha   90.00000000
_cell_angle_beta   90.00000000
_cell_angle_gamma   120.00000159
_symmetry_Int_Tables_number   1
_chemical_formula_structural   Zr6Sn6RuRh4Au
_chemical_formula_sum   'Zr6 Sn6 Ru1 Rh4 Au1'
_cell_volume   353.22994249
_cell_formula_units_Z   1
loop_
 _symmetry_equiv_pos_site_id
 _symmetry_equiv_pos_as_xyz
  1  'x, y, z'
loop_
 _atom_site_type_symbol
 _atom_site_label
 _atom_site_symmetry_multiplicity
 _atom_site_fract_x
 _atom_site_fract_y
 _atom_site_fract_z
 _atom_site_occupancy
  Zr  Zr0  1  0.587758  0.970684  0.743401  1
  Zr  Zr1  1  0.382927  0.412242  0.743401  1
  Zr  Zr2  1  0.029316  0.617073  0.743401  1
  Zr  Zr3  1  0.613368  0.020574  0.260290  1
  Zr  Zr4  1  0.407205  0.386632  0.260290  1
  Zr  Zr5  1  0.979426  0.592795  0.260290  1
  Sn  Sn6  1  0.264645  0.992450  0.004681  1
  Sn  Sn7  1  0.732476  0.730875  0.502730  1
  Sn  Sn8  1  0.998400  0.267524  0.502730  1
  Sn  Sn9  1  0.007550  0.272195  0.004681  1
  Sn  Sn10  1  0.727805  0.735355  0.004681  1
  Sn  Sn11  1  0.269125  0.001600  0.502730  1
  Ru  Ru12  1  0.666667  0.333333  0.523363  1
  Rh  Rh13  1  0.333333  0.666667  0.034597  1
  Rh  Rh14  1  0.333333  0.666667  0.456260  1
  Rh  Rh15  1  0.000000  0.000000  0.754718  1
  Rh  Rh16  1  0.000000  0.000000  0.252964  1
  Au  Au17  1  0.666667  0.333333  0.944791  1
