# generated using pymatgen
data_La2Pr6Cd2IrPt
_symmetry_space_group_name_H-M   'P 1'
_cell_length_a   10.10735552
_cell_length_b   10.10735443
_cell_length_c   10.09539000
_cell_angle_alpha   60.03914993
_cell_angle_beta   60.03915350
_cell_angle_gamma   60.15318519
_symmetry_Int_Tables_number   1
_chemical_formula_structural   La2Pr6Cd2IrPt
_chemical_formula_sum   'La4 Pr12 Cd4 Ir2 Pt2'
_cell_volume   730.53453159
_cell_formula_units_Z   2
loop_
 _symmetry_equiv_pos_site_id
 _symmetry_equiv_pos_as_xyz
  1  'x, y, z'
loop_
 _atom_site_type_symbol
 _atom_site_label
 _atom_site_symmetry_multiplicity
 _atom_site_fract_x
 _atom_site_fract_y
 _atom_site_fract_z
 _atom_site_occupancy
  La  La0  1  0.349277  0.349277  0.344804  1
  La  La1  1  0.349277  0.349277  0.956639  1
  La  La2  1  0.352391  0.953206  0.347200  1
  La  La3  1  0.953206  0.352391  0.347200  1
  Pr  Pr4  1  0.806963  0.189819  0.190426  1
  Pr  Pr5  1  0.189819  0.806963  0.812792  1
  Pr  Pr6  1  0.189819  0.806963  0.190426  1
  Pr  Pr7  1  0.806963  0.189819  0.812792  1
  Pr  Pr8  1  0.190701  0.190701  0.809299  1
  Pr  Pr9  1  0.810453  0.810453  0.189547  1
  Pr  Pr10  1  0.937977  0.563543  0.561930  1
  Pr  Pr11  1  0.563543  0.937977  0.936550  1
  Pr  Pr12  1  0.563543  0.937977  0.561930  1
  Pr  Pr13  1  0.937977  0.563543  0.936550  1
  Pr  Pr14  1  0.562579  0.562579  0.937421  1
  Pr  Pr15  1  0.936806  0.936806  0.563194  1
  Cd  Cd16  1  0.579943  0.579943  0.579739  1
  Cd  Cd17  1  0.579943  0.579943  0.260372  1
  Cd  Cd18  1  0.579999  0.260201  0.579899  1
  Cd  Cd19  1  0.260201  0.579999  0.579899  1
  Ir  Ir20  1  0.142454  0.571532  0.143007  1
  Ir  Ir21  1  0.571532  0.142454  0.143007  1
  Pt  Pt22  1  0.142315  0.142315  0.143091  1
  Pt  Pt23  1  0.142315  0.142315  0.572280  1
