# generated using pymatgen
data_TbGd3(SiO5)2
_symmetry_space_group_name_H-M   'P 1'
_cell_length_a   6.88414443
_cell_length_b   8.09558901
_cell_length_c   9.80623293
_cell_angle_alpha   90.27122807
_cell_angle_beta   110.44315303
_cell_angle_gamma   115.29095124
_symmetry_Int_Tables_number   1
_chemical_formula_structural   TbGd3(SiO5)2
_chemical_formula_sum   'Tb2 Gd6 Si4 O20'
_cell_volume   455.30061213
_cell_formula_units_Z   2
loop_
 _symmetry_equiv_pos_site_id
 _symmetry_equiv_pos_as_xyz
  1  'x, y, z'
loop_
 _atom_site_type_symbol
 _atom_site_label
 _atom_site_symmetry_multiplicity
 _atom_site_fract_x
 _atom_site_fract_y
 _atom_site_fract_z
 _atom_site_occupancy
  Tb  Tb0  1  0.325087  0.106188  0.032626  1
  Tb  Tb1  1  0.919638  0.449753  0.162303  1
  Gd  Gd2  1  0.813336  0.050389  0.335580  1
  Gd  Gd3  1  0.684989  0.391937  0.468008  1
  Gd  Gd4  1  0.315717  0.606949  0.532269  1
  Gd  Gd5  1  0.188971  0.950188  0.663412  1
  Gd  Gd6  1  0.075023  0.550775  0.838452  1
  Gd  Gd7  1  0.675552  0.893776  0.966279  1
  Si  Si8  1  0.462571  0.555246  0.193615  1
  Si  Si9  1  0.214477  0.943156  0.304705  1
  Si  Si10  1  0.788008  0.056294  0.694270  1
  Si  Si11  1  0.535119  0.443999  0.807983  1
  O  O12  1  0.193157  0.468684  0.070901  1
  O  O13  1  0.712435  0.138836  0.102910  1
  O  O14  1  0.056545  0.960076  0.139702  1
  O  O15  1  0.616947  0.766148  0.174213  1
  O  O16  1  0.575080  0.415701  0.173656  1
  O  O17  1  0.484944  0.080421  0.320113  1
  O  O18  1  0.171950  0.730939  0.321830  1
  O  O19  1  0.461757  0.543561  0.361281  1
  O  O20  1  0.971893  0.363513  0.393944  1
  O  O21  1  0.164392  0.032232  0.432078  1
  O  O22  1  0.838802  0.968311  0.566842  1
  O  O23  1  0.028253  0.637325  0.604401  1
  O  O24  1  0.543343  0.457385  0.642089  1
  O  O25  1  0.826281  0.267240  0.676044  1
  O  O26  1  0.517670  0.918248  0.679079  1
  O  O27  1  0.418355  0.581288  0.823768  1
  O  O28  1  0.382986  0.232573  0.827014  1
  O  O29  1  0.948882  0.042624  0.859539  1
  O  O30  1  0.285779  0.863085  0.896556  1
  O  O31  1  0.802065  0.533162  0.934540  1
