# generated using pymatgen
data_Tb4Dy4Tm4Co5Bi
_symmetry_space_group_name_H-M   'P 1'
_cell_length_a   8.30046496
_cell_length_b   8.30046666
_cell_length_c   8.30046650
_cell_angle_alpha   110.97929842
_cell_angle_beta   110.49269140
_cell_angle_gamma   106.97063540
_symmetry_Int_Tables_number   1
_chemical_formula_structural   Tb4Dy4Tm4Co5Bi
_chemical_formula_sum   'Tb4 Dy4 Tm4 Co5 Bi1'
_cell_volume   439.60219775
_cell_formula_units_Z   1
loop_
 _symmetry_equiv_pos_site_id
 _symmetry_equiv_pos_as_xyz
  1  'x, y, z'
loop_
 _atom_site_type_symbol
 _atom_site_label
 _atom_site_symmetry_multiplicity
 _atom_site_fract_x
 _atom_site_fract_y
 _atom_site_fract_z
 _atom_site_occupancy
  Tb  Tb0  1  0.597925  0.792761  0.805164  1
  Tb  Tb1  1  0.402075  0.207239  0.194836  1
  Tb  Tb2  1  0.987597  0.792761  0.194836  1
  Tb  Tb3  1  0.012403  0.207239  0.805164  1
  Dy  Dy4  1  0.816903  0.710202  0.527105  1
  Dy  Dy5  1  0.183097  0.289798  0.472895  1
  Dy  Dy6  1  0.183097  0.710202  0.893300  1
  Dy  Dy7  1  0.816903  0.289798  0.106700  1
  Tm  Tm8  1  0.686658  0.375148  0.688489  1
  Tm  Tm9  1  0.313342  0.624852  0.311511  1
  Tm  Tm10  1  0.686658  0.998170  0.311511  1
  Tm  Tm11  1  0.313342  0.001830  0.688489  1
  Co  Co12  1  0.622785  0.000000  0.622785  1
  Co  Co13  1  0.377215  0.000000  0.377215  1
  Co  Co14  1  0.111849  0.611849  0.500000  1
  Co  Co15  1  0.888151  0.388151  0.500000  1
  Co  Co16  1  0.000000  0.000000  0.000000  1
  Bi  Bi17  1  0.500000  0.500000  0.000000  1
