# generated using pymatgen
data_DyCrClO4
_symmetry_space_group_name_H-M   'P 1'
_cell_length_a   6.15944932
_cell_length_b   6.15944891
_cell_length_c   6.69764304
_cell_angle_alpha   102.67882871
_cell_angle_beta   102.67883158
_cell_angle_gamma   71.37275744
_symmetry_Int_Tables_number   1
_chemical_formula_structural   DyCrClO4
_chemical_formula_sum   'Dy2 Cr2 Cl2 O8'
_cell_volume   231.83167595
_cell_formula_units_Z   2
loop_
 _symmetry_equiv_pos_site_id
 _symmetry_equiv_pos_as_xyz
  1  'x, y, z'
loop_
 _atom_site_type_symbol
 _atom_site_label
 _atom_site_symmetry_multiplicity
 _atom_site_fract_x
 _atom_site_fract_y
 _atom_site_fract_z
 _atom_site_occupancy
  Dy  Dy0  1  0.776275  0.776275  0.387939  1
  Dy  Dy1  1  0.223725  0.223725  0.612062  1
  Cr  Cr2  1  0.360284  0.360284  0.230720  1
  Cr  Cr3  1  0.639716  0.639716  0.769279  1
  Cl  Cl4  1  0.011544  0.011544  0.262739  1
  Cl  Cl5  1  0.988456  0.988456  0.737262  1
  O  O6  1  0.710758  0.710758  0.020032  1
  O  O7  1  0.530270  0.530270  0.277696  1
  O  O8  1  0.488643  0.123143  0.349174  1
  O  O9  1  0.123143  0.488643  0.349174  1
  O  O10  1  0.876857  0.511357  0.650826  1
  O  O11  1  0.511357  0.876857  0.650826  1
  O  O12  1  0.469730  0.469730  0.722304  1
  O  O13  1  0.289242  0.289242  0.979969  1
