# generated using pymatgen
data_Eu4DyHoNb2O12
_symmetry_space_group_name_H-M   'P 1'
_cell_length_a   5.77031099
_cell_length_b   5.96678406
_cell_length_c   10.06048014
_cell_angle_alpha   90.01427767
_cell_angle_beta   124.78608966
_cell_angle_gamma   89.98558712
_symmetry_Int_Tables_number   1
_chemical_formula_structural   Eu4DyHoNb2O12
_chemical_formula_sum   'Eu4 Dy1 Ho1 Nb2 O12'
_cell_volume   284.48120165
_cell_formula_units_Z   1
loop_
 _symmetry_equiv_pos_site_id
 _symmetry_equiv_pos_as_xyz
  1  'x, y, z'
loop_
 _atom_site_type_symbol
 _atom_site_label
 _atom_site_symmetry_multiplicity
 _atom_site_fract_x
 _atom_site_fract_y
 _atom_site_fract_z
 _atom_site_occupancy
  Eu  Eu0  1  0.236477  0.447940  0.751523  1
  Eu  Eu1  1  0.237366  0.052271  0.252393  1
  Eu  Eu2  1  0.763523  0.552060  0.248477  1
  Eu  Eu3  1  0.762634  0.947729  0.747607  1
  Dy  Dy4  1  0.500000  0.000000  0.000000  1
  Ho  Ho5  1  0.500000  0.500000  0.500000  1
  Nb  Nb6  1  0.000000  0.500000  0.000000  1
  Nb  Nb7  1  0.000000  0.000000  0.500000  1
  O  O8  1  0.338207  0.036698  0.736250  1
  O  O9  1  0.338473  0.463470  0.236959  1
  O  O10  1  0.661793  0.963302  0.263750  1
  O  O11  1  0.661527  0.536530  0.763041  1
  O  O12  1  0.764352  0.193012  0.549971  1
  O  O13  1  0.764708  0.307870  0.050223  1
  O  O14  1  0.235648  0.806988  0.450029  1
  O  O15  1  0.235292  0.692130  0.949777  1
  O  O16  1  0.130115  0.217817  0.941758  1
  O  O17  1  0.131413  0.282321  0.442052  1
  O  O18  1  0.869885  0.782183  0.058242  1
  O  O19  1  0.868587  0.717679  0.557948  1
