# generated using pymatgen
data_Rb4Mn3Be3Se8
_symmetry_space_group_name_H-M   'P 1'
_cell_length_a   9.66721100
_cell_length_b   9.61433642
_cell_length_c   9.66721027
_cell_angle_alpha   144.95913089
_cell_angle_beta   104.54609695
_cell_angle_gamma   86.22817313
_symmetry_Int_Tables_number   1
_chemical_formula_structural   Rb4Mn3Be3Se8
_chemical_formula_sum   'Rb4 Mn3 Be3 Se8'
_cell_volume   483.28241822
_cell_formula_units_Z   1
loop_
 _symmetry_equiv_pos_site_id
 _symmetry_equiv_pos_as_xyz
  1  'x, y, z'
loop_
 _atom_site_type_symbol
 _atom_site_label
 _atom_site_symmetry_multiplicity
 _atom_site_fract_x
 _atom_site_fract_y
 _atom_site_fract_z
 _atom_site_occupancy
  Rb  Rb0  1  0.121793  0.240934  0.359989  1
  Rb  Rb1  1  0.381694  0.732951  0.109231  1
  Rb  Rb2  1  0.619055  0.259066  0.880859  1
  Rb  Rb3  1  0.876281  0.767049  0.648744  1
  Mn  Mn4  1  0.745902  0.250000  0.495902  1
  Mn  Mn5  1  0.256306  0.750000  0.506306  1
  Mn  Mn6  1  0.018550  0.250000  0.768550  1
  Be  Be7  1  0.508571  0.750000  0.758571  1
  Be  Be8  1  0.989632  0.750000  0.239632  1
  Be  Be9  1  0.493028  0.250000  0.243028  1
  Se  Se10  1  0.212476  0.055609  0.561897  1
  Se  Se11  1  0.305364  0.896747  0.885093  1
  Se  Se12  1  0.006288  0.444391  0.156867  1
  Se  Se13  1  0.488346  0.603253  0.408617  1
  Se  Se14  1  0.789750  0.896608  0.375702  1
  Se  Se15  1  0.695577  0.105769  0.118060  1
  Se  Se16  1  0.979095  0.603392  0.893143  1
  Se  Se17  1  0.512291  0.394231  0.589808  1
