# generated using pymatgen
data_HoErPaP4Pd7
_symmetry_space_group_name_H-M   'P 1'
_cell_length_a   7.92126076
_cell_length_b   7.92126147
_cell_length_c   9.43358928
_cell_angle_alpha   55.36963831
_cell_angle_beta   55.36963253
_cell_angle_gamma   29.37264776
_symmetry_Int_Tables_number   1
_chemical_formula_structural   HoErPaP4Pd7
_chemical_formula_sum   'Ho1 Er1 Pa1 P4 Pd7'
_cell_volume   234.94863725
_cell_formula_units_Z   1
loop_
 _symmetry_equiv_pos_site_id
 _symmetry_equiv_pos_as_xyz
  1  'x, y, z'
loop_
 _atom_site_type_symbol
 _atom_site_label
 _atom_site_symmetry_multiplicity
 _atom_site_fract_x
 _atom_site_fract_y
 _atom_site_fract_z
 _atom_site_occupancy
  Ho  Ho0  1  0.680944  0.680944  0.320079  1
  Er  Er1  1  0.319131  0.319131  0.679784  1
  Pa  Pa2  1  0.000006  0.000006  0.000053  1
  P  P3  1  0.345836  0.345836  0.243978  1
  P  P4  1  0.654147  0.654147  0.756048  1
  P  P5  1  0.896533  0.896533  0.822953  1
  P  P6  1  0.103523  0.103523  0.176950  1
  Pd  Pd7  1  0.307093  0.307093  0.026055  1
  Pd  Pd8  1  0.693279  0.693279  0.972783  1
  Pd  Pd9  1  0.511010  0.511010  0.707975  1
  Pd  Pd10  1  0.830297  0.830297  0.429411  1
  Pd  Pd11  1  0.488838  0.488838  0.292008  1
  Pd  Pd12  1  0.169891  0.169891  0.571336  1
  Pd  Pd13  1  0.999472  0.999472  0.500587  1
