# generated using pymatgen
data_La2NdSm3OsI10
_symmetry_space_group_name_H-M   'P 1'
_cell_length_a   7.98988370
_cell_length_b   10.09362744
_cell_length_c   9.94371357
_cell_angle_alpha   107.23613867
_cell_angle_beta   96.03747434
_cell_angle_gamma   105.51268495
_symmetry_Int_Tables_number   1
_chemical_formula_structural   La2NdSm3OsI10
_chemical_formula_sum   'La2 Nd1 Sm3 Os1 I10'
_cell_volume   723.04384828
_cell_formula_units_Z   1
loop_
 _symmetry_equiv_pos_site_id
 _symmetry_equiv_pos_as_xyz
  1  'x, y, z'
loop_
 _atom_site_type_symbol
 _atom_site_label
 _atom_site_symmetry_multiplicity
 _atom_site_fract_x
 _atom_site_fract_y
 _atom_site_fract_z
 _atom_site_occupancy
  La  La0  1  0.385564  0.958036  0.729011  1
  La  La1  1  0.613878  0.041838  0.270580  1
  Nd  Nd2  1  0.470332  0.294073  0.590395  1
  Sm  Sm3  1  0.529605  0.708934  0.410278  1
  Sm  Sm4  1  0.855881  0.129486  0.671575  1
  Sm  Sm5  1  0.144186  0.869342  0.328286  1
  Os  Os6  1  0.499852  0.000023  0.499770  1
  I  I7  1  0.417146  0.629507  0.676260  1
  I  I8  1  0.584120  0.373006  0.321237  1
  I  I9  1  0.281608  0.260447  0.848794  1
  I  I10  1  0.715784  0.737496  0.153499  1
  I  I11  1  0.857033  0.450293  0.770885  1
  I  I12  1  0.147760  0.549369  0.230589  1
  I  I13  1  0.047358  0.177680  0.411762  1
  I  I14  1  0.235506  0.911781  0.043641  1
  I  I15  1  0.763797  0.087806  0.956396  1
  I  I16  1  0.950589  0.820883  0.587043  1
