# generated using pymatgen
data_Li4Ni9MoAs7
_symmetry_space_group_name_H-M   'P 1'
_cell_length_a   9.44225662
_cell_length_b   9.49613473
_cell_length_c   3.73153700
_cell_angle_alpha   90.00000000
_cell_angle_beta   90.00000000
_cell_angle_gamma   120.27667910
_symmetry_Int_Tables_number   1
_chemical_formula_structural   Li4Ni9MoAs7
_chemical_formula_sum   'Li4 Ni9 Mo1 As7'
_cell_volume   288.95051512
_cell_formula_units_Z   1
loop_
 _symmetry_equiv_pos_site_id
 _symmetry_equiv_pos_as_xyz
  1  'x, y, z'
loop_
 _atom_site_type_symbol
 _atom_site_label
 _atom_site_symmetry_multiplicity
 _atom_site_fract_x
 _atom_site_fract_y
 _atom_site_fract_z
 _atom_site_occupancy
  Li  Li0  1  0.444859  0.212288  0.500000  1
  Li  Li1  1  0.787344  0.233342  0.500000  1
  Li  Li2  1  0.334087  0.668654  0.000000  1
  Li  Li3  1  0.998077  0.001212  0.500000  1
  Ni  Ni4  1  0.278202  0.375098  0.500000  1
  Ni  Ni5  1  0.624723  0.902003  0.500000  1
  Ni  Ni6  1  0.099967  0.718845  0.500000  1
  Ni  Ni7  1  0.498205  0.450549  0.000000  1
  Ni  Ni8  1  0.548544  0.048019  0.000000  1
  Ni  Ni9  1  0.957057  0.501912  0.000000  1
  Ni  Ni10  1  0.719185  0.762919  0.000000  1
  Ni  Ni11  1  0.237963  0.957278  0.000000  1
  Ni  Ni12  1  0.045425  0.283734  0.000000  1
  Mo  Mo13  1  0.758815  0.550621  0.500000  1
  As  As14  1  0.962555  0.757314  0.000000  1
  As  As15  1  0.240429  0.204336  0.000000  1
  As  As16  1  0.795760  0.037843  0.000000  1
  As  As17  1  0.669118  0.334599  0.000000  1
  As  As18  1  0.535696  0.623415  0.500000  1
  As  As19  1  0.376601  0.912558  0.500000  1
  As  As20  1  0.087388  0.463462  0.500000  1
