# generated using pymatgen
data_Pr2NdCo8TcP6
_symmetry_space_group_name_H-M   'P 1'
_cell_length_a   3.78485400
_cell_length_b   10.69268100
_cell_length_c   12.46036300
_cell_angle_alpha   90.00000000
_cell_angle_beta   90.00000000
_cell_angle_gamma   90.00000000
_symmetry_Int_Tables_number   1
_chemical_formula_structural   Pr2NdCo8TcP6
_chemical_formula_sum   'Pr4 Nd2 Co16 Tc2 P12'
_cell_volume   504.27383691
_cell_formula_units_Z   2
loop_
 _symmetry_equiv_pos_site_id
 _symmetry_equiv_pos_as_xyz
  1  'x, y, z'
loop_
 _atom_site_type_symbol
 _atom_site_label
 _atom_site_symmetry_multiplicity
 _atom_site_fract_x
 _atom_site_fract_y
 _atom_site_fract_z
 _atom_site_occupancy
  Pr  Pr0  1  0.000000  0.500000  0.522550  1
  Pr  Pr1  1  0.500000  0.000000  0.477751  1
  Pr  Pr2  1  0.500000  0.817204  0.205787  1
  Pr  Pr3  1  0.500000  0.182796  0.205787  1
  Nd  Nd4  1  0.000000  0.682828  0.794359  1
  Nd  Nd5  1  0.000000  0.317172  0.794359  1
  Co  Co6  1  0.500000  0.500000  0.705663  1
  Co  Co7  1  0.000000  0.000000  0.294759  1
  Co  Co8  1  0.000000  0.500000  0.987773  1
  Co  Co9  1  0.500000  0.000000  0.011093  1
  Co  Co10  1  0.500000  0.332322  0.991458  1
  Co  Co11  1  0.500000  0.667678  0.991458  1
  Co  Co12  1  0.000000  0.168124  0.007505  1
  Co  Co13  1  0.000000  0.831876  0.007505  1
  Co  Co14  1  0.500000  0.296523  0.430752  1
  Co  Co15  1  0.500000  0.703477  0.430752  1
  Co  Co16  1  0.000000  0.203700  0.570162  1
  Co  Co17  1  0.000000  0.796300  0.570162  1
  Co  Co18  1  0.500000  0.881591  0.710224  1
  Co  Co19  1  0.500000  0.118409  0.710224  1
  Co  Co20  1  0.000000  0.618066  0.290175  1
  Co  Co21  1  0.000000  0.381934  0.290175  1
  Tc  Tc22  1  0.500000  0.500000  0.154269  1
  Tc  Tc23  1  0.000000  0.000000  0.845489  1
  P  P24  1  0.500000  0.500000  0.885882  1
  P  P25  1  0.000000  0.000000  0.112845  1
  P  P26  1  0.500000  0.500000  0.342554  1
  P  P27  1  0.000000  0.000000  0.657539  1
  P  P28  1  0.500000  0.306132  0.614696  1
  P  P29  1  0.500000  0.693868  0.614696  1
  P  P30  1  0.000000  0.194282  0.386472  1
  P  P31  1  0.000000  0.805718  0.386472  1
  P  P32  1  0.500000  0.847889  0.895365  1
  P  P33  1  0.500000  0.152111  0.895365  1
  P  P34  1  0.000000  0.651439  0.103959  1
  P  P35  1  0.000000  0.348561  0.103959  1
