# generated using pymatgen
data_Y3Tm3Th2(MgIr)2
_symmetry_space_group_name_H-M   'P 1'
_cell_length_a   9.76618981
_cell_length_b   9.76618965
_cell_length_c   9.76619100
_cell_angle_alpha   60.00000558
_cell_angle_beta   60.00000614
_cell_angle_gamma   60.00000549
_symmetry_Int_Tables_number   1
_chemical_formula_structural   Y3Tm3Th2(MgIr)2
_chemical_formula_sum   'Y6 Tm6 Th4 Mg4 Ir4'
_cell_volume   658.65893364
_cell_formula_units_Z   2
loop_
 _symmetry_equiv_pos_site_id
 _symmetry_equiv_pos_as_xyz
  1  'x, y, z'
loop_
 _atom_site_type_symbol
 _atom_site_label
 _atom_site_symmetry_multiplicity
 _atom_site_fract_x
 _atom_site_fract_y
 _atom_site_fract_z
 _atom_site_occupancy
  Y  Y0  1  0.185713  0.814287  0.814287  1
  Y  Y1  1  0.814287  0.185713  0.185713  1
  Y  Y2  1  0.814287  0.185713  0.814287  1
  Y  Y3  1  0.185713  0.814287  0.185713  1
  Y  Y4  1  0.814287  0.814287  0.185713  1
  Y  Y5  1  0.185713  0.185713  0.814287  1
  Tm  Tm6  1  0.063816  0.436184  0.436184  1
  Tm  Tm7  1  0.436184  0.063816  0.063816  1
  Tm  Tm8  1  0.436184  0.063816  0.436184  1
  Tm  Tm9  1  0.063816  0.436184  0.063816  1
  Tm  Tm10  1  0.436184  0.436184  0.063816  1
  Tm  Tm11  1  0.063816  0.063816  0.436184  1
  Th  Th12  1  0.598471  0.598471  0.598471  1
  Th  Th13  1  0.598471  0.598471  0.204585  1
  Th  Th14  1  0.598471  0.204585  0.598471  1
  Th  Th15  1  0.204585  0.598471  0.598471  1
  Mg  Mg16  1  0.830310  0.830310  0.830310  1
  Mg  Mg17  1  0.830310  0.830310  0.509071  1
  Mg  Mg18  1  0.830310  0.509071  0.830310  1
  Mg  Mg19  1  0.509071  0.830310  0.830310  1
  Ir  Ir20  1  0.392454  0.392454  0.392454  1
  Ir  Ir21  1  0.392454  0.392454  0.822637  1
  Ir  Ir22  1  0.392454  0.822637  0.392454  1
  Ir  Ir23  1  0.822637  0.392454  0.392454  1
