# generated using pymatgen
data_TaTi5(V2Ga3)2
_symmetry_space_group_name_H-M   'P 1'
_cell_length_a   7.53713738
_cell_length_b   7.53713669
_cell_length_c   5.07137300
_cell_angle_alpha   90.00000000
_cell_angle_beta   90.00000000
_cell_angle_gamma   120.28539610
_symmetry_Int_Tables_number   1
_chemical_formula_structural   TaTi5(V2Ga3)2
_chemical_formula_sum   'Ta1 Ti5 V4 Ga6'
_cell_volume   248.77850258
_cell_formula_units_Z   1
loop_
 _symmetry_equiv_pos_site_id
 _symmetry_equiv_pos_as_xyz
  1  'x, y, z'
loop_
 _atom_site_type_symbol
 _atom_site_label
 _atom_site_symmetry_multiplicity
 _atom_site_fract_x
 _atom_site_fract_y
 _atom_site_fract_z
 _atom_site_occupancy
  Ta  Ta0  1  0.761031  0.761031  0.750000  1
  Ti  Ti1  1  0.241405  0.998578  0.750000  1
  Ti  Ti2  1  0.998578  0.241405  0.750000  1
  Ti  Ti3  1  0.242353  0.242353  0.250000  1
  Ti  Ti4  1  0.755454  0.998814  0.250000  1
  Ti  Ti5  1  0.998814  0.755454  0.250000  1
  V  V6  1  0.666890  0.335457  0.000338  1
  V  V7  1  0.335457  0.666890  0.000338  1
  V  V8  1  0.335457  0.666890  0.499662  1
  V  V9  1  0.666890  0.335457  0.499662  1
  Ga  Ga10  1  0.396966  0.396966  0.750000  1
  Ga  Ga11  1  0.598810  0.003243  0.750000  1
  Ga  Ga12  1  0.003243  0.598810  0.750000  1
  Ga  Ga13  1  0.599610  0.599610  0.250000  1
  Ga  Ga14  1  0.399164  0.999875  0.250000  1
  Ga  Ga15  1  0.999875  0.399164  0.250000  1
