# generated using pymatgen
data_Nd5Sn2BiSe
_symmetry_space_group_name_H-M   'P 1'
_cell_length_a   9.48730010
_cell_length_b   9.51126962
_cell_length_c   6.91999000
_cell_angle_alpha   90.00000000
_cell_angle_beta   90.00000000
_cell_angle_gamma   120.08361420
_symmetry_Int_Tables_number   1
_chemical_formula_structural   Nd5Sn2BiSe
_chemical_formula_sum   'Nd10 Sn4 Bi2 Se2'
_cell_volume   540.31956931
_cell_formula_units_Z   2
loop_
 _symmetry_equiv_pos_site_id
 _symmetry_equiv_pos_as_xyz
  1  'x, y, z'
loop_
 _atom_site_type_symbol
 _atom_site_label
 _atom_site_symmetry_multiplicity
 _atom_site_fract_x
 _atom_site_fract_y
 _atom_site_fract_z
 _atom_site_occupancy
  Nd  Nd0  1  0.751439  0.746195  0.750000  1
  Nd  Nd1  1  0.248561  0.994756  0.750000  1
  Nd  Nd2  1  0.000000  0.254398  0.750000  1
  Nd  Nd3  1  0.252936  0.252028  0.250000  1
  Nd  Nd4  1  0.747064  0.999092  0.250000  1
  Nd  Nd5  1  0.000000  0.747169  0.250000  1
  Nd  Nd6  1  0.670999  0.336645  0.003236  1
  Nd  Nd7  1  0.329001  0.665647  0.003236  1
  Nd  Nd8  1  0.329001  0.665647  0.496764  1
  Nd  Nd9  1  0.670999  0.336645  0.496764  1
  Sn  Sn10  1  0.000000  0.604557  0.750000  1
  Sn  Sn11  1  0.605484  0.605990  0.250000  1
  Sn  Sn12  1  0.394516  0.000505  0.250000  1
  Sn  Sn13  1  0.000000  0.394454  0.250000  1
  Bi  Bi14  1  0.393774  0.393847  0.750000  1
  Bi  Bi15  1  0.606226  0.000073  0.750000  1
  Se  Se16  1  0.000000  0.001176  0.999617  1
  Se  Se17  1  0.000000  0.001176  0.500383  1
