# generated using pymatgen
data_Sc3Sn3PdRh2
_symmetry_space_group_name_H-M   'P 1'
_cell_length_a   7.62308300
_cell_length_b   7.62308365
_cell_length_c   6.90207300
_cell_angle_alpha   90.00000000
_cell_angle_beta   90.00000000
_cell_angle_gamma   120.00000150
_symmetry_Int_Tables_number   1
_chemical_formula_structural   Sc3Sn3PdRh2
_chemical_formula_sum   'Sc6 Sn6 Pd2 Rh4'
_cell_volume   347.35336261
_cell_formula_units_Z   2
loop_
 _symmetry_equiv_pos_site_id
 _symmetry_equiv_pos_as_xyz
  1  'x, y, z'
loop_
 _atom_site_type_symbol
 _atom_site_label
 _atom_site_symmetry_multiplicity
 _atom_site_fract_x
 _atom_site_fract_y
 _atom_site_fract_z
 _atom_site_occupancy
  Sc  Sc0  1  0.387167  0.990075  0.250000  1
  Sc  Sc1  1  0.602908  0.612833  0.250000  1
  Sc  Sc2  1  0.009925  0.397092  0.250000  1
  Sc  Sc3  1  0.381409  0.977379  0.750000  1
  Sc  Sc4  1  0.595970  0.618591  0.750000  1
  Sc  Sc5  1  0.022621  0.404030  0.750000  1
  Sn  Sn6  1  0.726317  0.004585  0.000071  1
  Sn  Sn7  1  0.278268  0.273683  0.499929  1
  Sn  Sn8  1  0.995415  0.721732  0.499929  1
  Sn  Sn9  1  0.995415  0.721732  0.000071  1
  Sn  Sn10  1  0.278268  0.273683  0.000071  1
  Sn  Sn11  1  0.726317  0.004585  0.499929  1
  Pd  Pd12  1  0.666667  0.333333  0.983125  1
  Pd  Pd13  1  0.666667  0.333333  0.516875  1
  Rh  Rh14  1  0.333333  0.666667  0.011323  1
  Rh  Rh15  1  0.333333  0.666667  0.488677  1
  Rh  Rh16  1  0.000000  0.000000  0.250000  1
  Rh  Rh17  1  0.000000  0.000000  0.750000  1
