# generated using pymatgen
data_HfZr9(CoAs3)2
_symmetry_space_group_name_H-M   'P 1'
_cell_length_a   17.63449700
_cell_length_b   3.73530500
_cell_length_c   10.51178400
_cell_angle_alpha   90.00000000
_cell_angle_beta   90.00000000
_cell_angle_gamma   90.00000650
_symmetry_Int_Tables_number   1
_chemical_formula_structural   HfZr9(CoAs3)2
_chemical_formula_sum   'Hf2 Zr18 Co4 As12'
_cell_volume   692.41357530
_cell_formula_units_Z   2
loop_
 _symmetry_equiv_pos_site_id
 _symmetry_equiv_pos_as_xyz
  1  'x, y, z'
loop_
 _atom_site_type_symbol
 _atom_site_label
 _atom_site_symmetry_multiplicity
 _atom_site_fract_x
 _atom_site_fract_y
 _atom_site_fract_z
 _atom_site_occupancy
  Hf  Hf0  1  0.665937  0.250000  0.257979  1
  Hf  Hf1  1  0.834063  0.750001  0.757979  1
  Zr  Zr2  1  0.368130  0.250000  0.185484  1
  Zr  Zr3  1  0.131870  0.750001  0.685484  1
  Zr  Zr4  1  0.867437  0.250001  0.315104  1
  Zr  Zr5  1  0.632563  0.750000  0.815103  1
  Zr  Zr6  1  0.076623  0.250000  0.942072  1
  Zr  Zr7  1  0.423377  0.750001  0.442072  1
  Zr  Zr8  1  0.577036  0.250001  0.557696  1
  Zr  Zr9  1  0.922964  0.750000  0.057696  1
  Zr  Zr10  1  0.477453  0.250000  0.879140  1
  Zr  Zr11  1  0.022547  0.750001  0.379140  1
  Zr  Zr12  1  0.977069  0.250000  0.621007  1
  Zr  Zr13  1  0.522931  0.750001  0.121007  1
  Zr  Zr14  1  0.274918  0.250001  0.514027  1
  Zr  Zr15  1  0.225082  0.750000  0.014027  1
  Zr  Zr16  1  0.775045  0.250000  0.984890  1
  Zr  Zr17  1  0.724955  0.750001  0.484890  1
  Zr  Zr18  1  0.166176  0.250000  0.243236  1
  Zr  Zr19  1  0.333824  0.750001  0.743235  1
  Co  Co20  1  0.408675  0.250000  0.632199  1
  Co  Co21  1  0.091325  0.750001  0.132199  1
  Co  Co22  1  0.907822  0.250001  0.866077  1
  Co  Co23  1  0.592178  0.750000  0.366077  1
  As  As24  1  0.219290  0.250000  0.812995  1
  As  As25  1  0.280710  0.750001  0.312995  1
  As  As26  1  0.720305  0.250000  0.686906  1
  As  As27  1  0.779695  0.750001  0.186906  1
  As  As28  1  0.117834  0.250000  0.492953  1
  As  As29  1  0.382166  0.750001  0.992953  1
  As  As30  1  0.618363  0.250000  0.008297  1
  As  As31  1  0.881637  0.750001  0.508298  1
  As  As32  1  0.008115  0.250000  0.187561  1
  As  As33  1  0.491885  0.750001  0.687561  1
  As  As34  1  0.508555  0.250000  0.312376  1
  As  As35  1  0.991445  0.750001  0.812377  1
