# generated using pymatgen
data_Ho2ScB4Ru10W3
_symmetry_space_group_name_H-M   'P 1'
_cell_length_a   9.53882131
_cell_length_b   9.54360007
_cell_length_c   3.04874200
_cell_angle_alpha   90.00000000
_cell_angle_beta   90.00000000
_cell_angle_gamma   90.04709825
_symmetry_Int_Tables_number   1
_chemical_formula_structural   Ho2ScB4Ru10W3
_chemical_formula_sum   'Ho2 Sc1 B4 Ru10 W3'
_cell_volume   277.54120654
_cell_formula_units_Z   1
loop_
 _symmetry_equiv_pos_site_id
 _symmetry_equiv_pos_as_xyz
  1  'x, y, z'
loop_
 _atom_site_type_symbol
 _atom_site_label
 _atom_site_symmetry_multiplicity
 _atom_site_fract_x
 _atom_site_fract_y
 _atom_site_fract_z
 _atom_site_occupancy
  Ho  Ho0  1  0.174987  0.824201  0.000000  1
  Ho  Ho1  1  0.325735  0.325516  0.000000  1
  Sc  Sc2  1  0.675337  0.677225  0.000000  1
  B  B3  1  0.623369  0.378863  0.000000  1
  B  B4  1  0.383761  0.618657  0.000000  1
  B  B5  1  0.118978  0.120759  0.000000  1
  B  B6  1  0.875671  0.877568  0.000000  1
  Ru  Ru7  1  0.509554  0.501729  0.500000  1
  Ru  Ru8  1  0.988364  0.008527  0.500000  1
  Ru  Ru9  1  0.583279  0.211907  0.500000  1
  Ru  Ru10  1  0.436739  0.782457  0.500000  1
  Ru  Ru11  1  0.056100  0.280869  0.500000  1
  Ru  Ru12  1  0.923819  0.716584  0.500000  1
  Ru  Ru13  1  0.280831  0.070446  0.500000  1
  Ru  Ru14  1  0.716660  0.940026  0.500000  1
  Ru  Ru15  1  0.218122  0.567679  0.500000  1
  Ru  Ru16  1  0.788646  0.419090  0.500000  1
  W  W17  1  0.497174  0.996447  0.000000  1
  W  W18  1  0.000510  0.503869  0.000000  1
  W  W19  1  0.822364  0.177581  0.000000  1
