# generated using pymatgen
data_Dy6Tc16N
_symmetry_space_group_name_H-M   'P 1'
_cell_length_a   8.06875612
_cell_length_b   8.06875645
_cell_length_c   8.06875600
_cell_angle_alpha   109.47122452
_cell_angle_beta   109.47122536
_cell_angle_gamma   109.47121507
_symmetry_Int_Tables_number   1
_chemical_formula_structural   Dy6Tc16N
_chemical_formula_sum   'Dy6 Tc16 N1'
_cell_volume   404.38763834
_cell_formula_units_Z   1
loop_
 _symmetry_equiv_pos_site_id
 _symmetry_equiv_pos_as_xyz
  1  'x, y, z'
loop_
 _atom_site_type_symbol
 _atom_site_label
 _atom_site_symmetry_multiplicity
 _atom_site_fract_x
 _atom_site_fract_y
 _atom_site_fract_z
 _atom_site_occupancy
  Dy  Dy0  1  0.740199  0.740199  0.000000  1
  Dy  Dy1  1  0.259800  0.000000  0.259801  1
  Dy  Dy2  1  0.740199  0.000000  0.740199  1
  Dy  Dy3  1  0.000000  0.740199  0.740200  1
  Dy  Dy4  1  0.000000  0.259800  0.259801  1
  Dy  Dy5  1  0.259800  0.259800  0.000000  1
  Tc  Tc6  1  0.000000  0.500000  0.000000  1
  Tc  Tc7  1  0.500000  0.000000  0.000000  1
  Tc  Tc8  1  0.000000  0.000000  0.500000  1
  Tc  Tc9  1  0.500000  0.500000  0.500000  1
  Tc  Tc10  1  0.339845  0.339845  0.679691  1
  Tc  Tc11  1  0.660155  0.660155  0.320309  1
  Tc  Tc12  1  0.000000  0.339845  0.660155  1
  Tc  Tc13  1  0.320309  0.660155  0.660155  1
  Tc  Tc14  1  0.660155  0.320309  0.660155  1
  Tc  Tc15  1  0.339845  0.000000  0.660155  1
  Tc  Tc16  1  0.660155  0.339845  0.000000  1
  Tc  Tc17  1  0.339845  0.660155  0.000000  1
  Tc  Tc18  1  0.339845  0.679691  0.339845  1
  Tc  Tc19  1  0.000000  0.660155  0.339845  1
  Tc  Tc20  1  0.660155  0.000000  0.339845  1
  Tc  Tc21  1  0.679691  0.339845  0.339845  1
  N  N22  1  0.000000  0.000000  0.000000  1
