# generated using pymatgen
data_HoLu3(Sc4Bi3)4
_symmetry_space_group_name_H-M   'P 1'
_cell_length_a   7.85787030
_cell_length_b   9.05438300
_cell_length_c   11.51867345
_cell_angle_alpha   90.00000000
_cell_angle_beta   90.03188145
_cell_angle_gamma   90.00000000
_symmetry_Int_Tables_number   1
_chemical_formula_structural   HoLu3(Sc4Bi3)4
_chemical_formula_sum   'Ho1 Lu3 Sc16 Bi12'
_cell_volume   819.53237850
_cell_formula_units_Z   1
loop_
 _symmetry_equiv_pos_site_id
 _symmetry_equiv_pos_as_xyz
  1  'x, y, z'
loop_
 _atom_site_type_symbol
 _atom_site_label
 _atom_site_symmetry_multiplicity
 _atom_site_fract_x
 _atom_site_fract_y
 _atom_site_fract_z
 _atom_site_occupancy
  Ho  Ho0  1  0.184231  0.750000  0.718583  1
  Lu  Lu1  1  0.315514  0.250000  0.218166  1
  Lu  Lu2  1  0.815563  0.250000  0.281871  1
  Lu  Lu3  1  0.684342  0.750000  0.781856  1
  Sc  Sc4  1  0.350177  0.750000  0.220256  1
  Sc  Sc5  1  0.850056  0.750000  0.279767  1
  Sc  Sc6  1  0.649900  0.250000  0.779827  1
  Sc  Sc7  1  0.149996  0.250000  0.720181  1
  Sc  Sc8  1  0.693190  0.567422  0.061635  1
  Sc  Sc9  1  0.193054  0.932581  0.438191  1
  Sc  Sc10  1  0.306857  0.067460  0.938475  1
  Sc  Sc11  1  0.807042  0.432625  0.561646  1
  Sc  Sc12  1  0.306857  0.432540  0.938475  1
  Sc  Sc13  1  0.807042  0.067375  0.561646  1
  Sc  Sc14  1  0.693190  0.932578  0.061635  1
  Sc  Sc15  1  0.193054  0.567419  0.438191  1
  Sc  Sc16  1  0.481788  0.250000  0.488577  1
  Sc  Sc17  1  0.981666  0.250000  0.011444  1
  Sc  Sc18  1  0.518520  0.750000  0.511135  1
  Sc  Sc19  1  0.017970  0.750000  0.988906  1
  Bi  Bi20  1  0.402907  0.750000  0.965498  1
  Bi  Bi21  1  0.901702  0.750000  0.534074  1
  Bi  Bi22  1  0.597415  0.250000  0.034848  1
  Bi  Bi23  1  0.097508  0.250000  0.465187  1
  Bi  Bi24  1  0.564706  0.991699  0.327548  1
  Bi  Bi25  1  0.064806  0.508334  0.172319  1
  Bi  Bi26  1  0.436056  0.490942  0.672205  1
  Bi  Bi27  1  0.934662  0.008813  0.827893  1
  Bi  Bi28  1  0.436056  0.009058  0.672205  1
  Bi  Bi29  1  0.934662  0.491187  0.827893  1
  Bi  Bi30  1  0.564706  0.508301  0.327548  1
  Bi  Bi31  1  0.064806  0.991666  0.172319  1
