# generated using pymatgen
data_Ho8Ta12Si15As
_symmetry_space_group_name_H-M   'P 1'
_cell_length_a   7.03657011
_cell_length_b   7.02954458
_cell_length_c   13.00410487
_cell_angle_alpha   89.95984366
_cell_angle_beta   89.89275456
_cell_angle_gamma   89.95136237
_symmetry_Int_Tables_number   1
_chemical_formula_structural   Ho8Ta12Si15As
_chemical_formula_sum   'Ho8 Ta12 Si15 As1'
_cell_volume   643.23200930
_cell_formula_units_Z   1
loop_
 _symmetry_equiv_pos_site_id
 _symmetry_equiv_pos_as_xyz
  1  'x, y, z'
loop_
 _atom_site_type_symbol
 _atom_site_label
 _atom_site_symmetry_multiplicity
 _atom_site_fract_x
 _atom_site_fract_y
 _atom_site_fract_z
 _atom_site_occupancy
  Ho  Ho0  1  0.341823  0.001805  0.467459  1
  Ho  Ho1  1  0.497521  0.842915  0.718972  1
  Ho  Ho2  1  0.502047  0.158178  0.218210  1
  Ho  Ho3  1  0.841189  0.497144  0.281617  1
  Ho  Ho4  1  0.158558  0.501970  0.781723  1
  Ho  Ho5  1  0.660012  0.996330  0.969195  1
  Ho  Ho6  1  0.999024  0.344046  0.530409  1
  Ho  Ho7  1  0.998022  0.658468  0.031740  1
  Ta  Ta8  1  0.328486  0.328843  0.000156  1
  Ta  Ta9  1  0.171912  0.828408  0.249825  1
  Ta  Ta10  1  0.825796  0.171921  0.750024  1
  Ta  Ta11  1  0.671008  0.670697  0.500185  1
  Ta  Ta12  1  0.154686  0.007251  0.874664  1
  Ta  Ta13  1  0.492949  0.652924  0.124411  1
  Ta  Ta14  1  0.508232  0.347747  0.624805  1
  Ta  Ta15  1  0.653958  0.496005  0.876508  1
  Ta  Ta16  1  0.346493  0.506282  0.375695  1
  Ta  Ta17  1  0.846514  0.993779  0.374466  1
  Ta  Ta18  1  0.006934  0.152506  0.125542  1
  Ta  Ta19  1  0.990826  0.842762  0.624372  1
  Si  Si20  1  0.365250  0.703602  0.932157  1
  Si  Si21  1  0.633464  0.296555  0.432038  1
  Si  Si22  1  0.703415  0.365500  0.068070  1
  Si  Si23  1  0.297058  0.634172  0.567631  1
  Si  Si24  1  0.797122  0.865441  0.182346  1
  Si  Si25  1  0.134432  0.202761  0.317940  1
  Si  Si26  1  0.866384  0.797382  0.817906  1
  Si  Si27  1  0.295076  0.954644  0.063874  1
  Si  Si28  1  0.545545  0.794111  0.313778  1
  Si  Si29  1  0.462251  0.206642  0.818295  1
  Si  Si30  1  0.794137  0.545405  0.686372  1
  Si  Si31  1  0.205227  0.454478  0.186057  1
  Si  Si32  1  0.705163  0.045220  0.563602  1
  Si  Si33  1  0.954633  0.294550  0.936283  1
  Si  Si34  1  0.045219  0.705612  0.435190  1
  As  As35  1  0.199634  0.133942  0.678483  1
