# generated using pymatgen
data_Rb4Th6PBr18
_symmetry_space_group_name_H-M   'P 1'
_cell_length_a   11.10449910
_cell_length_b   11.36234233
_cell_length_c   11.43671400
_cell_angle_alpha   118.71178716
_cell_angle_beta   100.31279067
_cell_angle_gamma   103.92105262
_symmetry_Int_Tables_number   1
_chemical_formula_structural   Rb4Th6PBr18
_chemical_formula_sum   'Rb4 Th6 P1 Br18'
_cell_volume   1152.50949517
_cell_formula_units_Z   1
loop_
 _symmetry_equiv_pos_site_id
 _symmetry_equiv_pos_as_xyz
  1  'x, y, z'
loop_
 _atom_site_type_symbol
 _atom_site_label
 _atom_site_symmetry_multiplicity
 _atom_site_fract_x
 _atom_site_fract_y
 _atom_site_fract_z
 _atom_site_occupancy
  Rb  Rb0  1  0.190444  0.727501  0.566657  1
  Rb  Rb1  1  0.845171  0.962356  0.771157  1
  Rb  Rb2  1  0.154829  0.037644  0.228843  1
  Rb  Rb3  1  0.809556  0.272499  0.433343  1
  Th  Th4  1  0.337502  0.439176  0.751709  1
  Th  Th5  1  0.353628  0.638179  0.145279  1
  Th  Th6  1  0.654976  0.755881  0.046838  1
  Th  Th7  1  0.662498  0.560824  0.248291  1
  Th  Th8  1  0.345024  0.244119  0.953162  1
  Th  Th9  1  0.646372  0.361821  0.854721  1
  P  P10  1  0.500000  0.500000  0.000000  1
  Br  Br11  1  0.831239  0.417567  0.112345  1
  Br  Br12  1  0.519034  0.715017  0.427231  1
  Br  Br13  1  0.165157  0.967568  0.897293  1
  Br  Br14  1  0.168761  0.582433  0.887655  1
  Br  Br15  1  0.841577  0.845139  0.321302  1
  Br  Br16  1  0.506484  0.289246  0.219711  1
  Br  Br17  1  0.800273  0.211683  0.698464  1
  Br  Br18  1  0.158423  0.154861  0.678698  1
  Br  Br19  1  0.510916  0.927604  0.207422  1
  Br  Br20  1  0.826960  0.630177  0.898644  1
  Br  Br21  1  0.199727  0.788317  0.301536  1
  Br  Br22  1  0.153770  0.375643  0.485345  1
  Br  Br23  1  0.493516  0.710754  0.780289  1
  Br  Br24  1  0.834843  0.032432  0.102707  1
  Br  Br25  1  0.480966  0.284983  0.572769  1
  Br  Br26  1  0.173040  0.369823  0.101356  1
  Br  Br27  1  0.846230  0.624357  0.514655  1
  Br  Br28  1  0.489084  0.072396  0.792578  1
