# generated using pymatgen
data_Tb5Dy5(Si3O)2
_symmetry_space_group_name_H-M   'P 1'
_cell_length_a   8.42891700
_cell_length_b   8.42849255
_cell_length_c   6.23227800
_cell_angle_alpha   90.00000000
_cell_angle_beta   90.00000000
_cell_angle_gamma   120.00165409
_symmetry_Int_Tables_number   1
_chemical_formula_structural   Tb5Dy5(Si3O)2
_chemical_formula_sum   'Tb5 Dy5 Si6 O2'
_cell_volume   383.43512546
_cell_formula_units_Z   1
loop_
 _symmetry_equiv_pos_site_id
 _symmetry_equiv_pos_as_xyz
  1  'x, y, z'
loop_
 _atom_site_type_symbol
 _atom_site_label
 _atom_site_symmetry_multiplicity
 _atom_site_fract_x
 _atom_site_fract_y
 _atom_site_fract_z
 _atom_site_occupancy
  Tb  Tb0  1  0.768135  0.768116  0.250000  1
  Tb  Tb1  1  0.768093  0.000000  0.750000  1
  Tb  Tb2  1  0.000018  0.231884  0.250000  1
  Tb  Tb3  1  0.000098  0.768161  0.750000  1
  Tb  Tb4  1  0.231937  0.231839  0.750000  1
  Dy  Dy5  1  0.231554  0.000000  0.250000  1
  Dy  Dy6  1  0.666559  0.333253  0.000033  1
  Dy  Dy7  1  0.333304  0.666747  0.499967  1
  Dy  Dy8  1  0.333304  0.666747  0.000033  1
  Dy  Dy9  1  0.666559  0.333253  0.499967  1
  Si  Si10  1  0.398878  0.000000  0.750000  1
  Si  Si11  1  0.398719  0.398506  0.250000  1
  Si  Si12  1  0.000213  0.601494  0.250000  1
  Si  Si13  1  0.999998  0.398904  0.750000  1
  Si  Si14  1  0.601094  0.601096  0.750000  1
  Si  Si15  1  0.600910  0.000000  0.250000  1
  O  O16  1  0.000313  0.000000  0.499599  1
  O  O17  1  0.000313  0.000000  0.000401  1
