# generated using pymatgen
data_Er9TmOs3Ru
_symmetry_space_group_name_H-M   'P 1'
_cell_length_a   6.28332590
_cell_length_b   7.30242131
_cell_length_c   8.34755182
_cell_angle_alpha   96.83902666
_cell_angle_beta   112.19343983
_cell_angle_gamma   90.05214874
_symmetry_Int_Tables_number   1
_chemical_formula_structural   Er9TmOs3Ru
_chemical_formula_sum   'Er9 Tm1 Os3 Ru1'
_cell_volume   351.67637361
_cell_formula_units_Z   1
loop_
 _symmetry_equiv_pos_site_id
 _symmetry_equiv_pos_as_xyz
  1  'x, y, z'
loop_
 _atom_site_type_symbol
 _atom_site_label
 _atom_site_symmetry_multiplicity
 _atom_site_fract_x
 _atom_site_fract_y
 _atom_site_fract_z
 _atom_site_occupancy
  Er  Er0  1  0.793745  0.083942  0.816837  1
  Er  Er1  1  0.975153  0.416219  0.182763  1
  Er  Er2  1  0.208053  0.916308  0.185419  1
  Er  Er3  1  0.024833  0.585103  0.817491  1
  Er  Er4  1  0.203760  0.183038  0.564665  1
  Er  Er5  1  0.640660  0.317087  0.436138  1
  Er  Er6  1  0.794663  0.816070  0.434663  1
  Er  Er7  1  0.360143  0.682356  0.563600  1
  Er  Er8  1  0.420369  0.249809  0.999936  1
  Tm  Tm9  1  0.580008  0.750040  0.000516  1
  Os  Os10  1  0.603079  0.422593  0.780901  1
  Os  Os11  1  0.821850  0.077212  0.219286  1
  Os  Os12  1  0.397018  0.578095  0.218460  1
  Ru  Ru13  1  0.176666  0.922130  0.779327  1
