# generated using pymatgen
data_TbTmLu2Ga16Co3
_symmetry_space_group_name_H-M   'P 1'
_cell_length_a   6.00545900
_cell_length_b   5.98823400
_cell_length_c   11.07154800
_cell_angle_alpha   90.00000000
_cell_angle_beta   90.00000000
_cell_angle_gamma   90.00000000
_symmetry_Int_Tables_number   1
_chemical_formula_structural   TbTmLu2Ga16Co3
_chemical_formula_sum   'Tb1 Tm1 Lu2 Ga16 Co3'
_cell_volume   398.15604735
_cell_formula_units_Z   1
loop_
 _symmetry_equiv_pos_site_id
 _symmetry_equiv_pos_as_xyz
  1  'x, y, z'
loop_
 _atom_site_type_symbol
 _atom_site_label
 _atom_site_symmetry_multiplicity
 _atom_site_fract_x
 _atom_site_fract_y
 _atom_site_fract_z
 _atom_site_occupancy
  Tb  Tb0  1  0.000000  0.500000  0.193321  1
  Tm  Tm1  1  0.500000  0.000000  0.193832  1
  Lu  Lu2  1  0.500000  0.000000  0.803930  1
  Lu  Lu3  1  0.000000  0.500000  0.804436  1
  Ga  Ga4  1  0.249385  0.249668  0.617530  1
  Ga  Ga5  1  0.750615  0.750332  0.617530  1
  Ga  Ga6  1  0.750615  0.249668  0.617530  1
  Ga  Ga7  1  0.249385  0.750332  0.617530  1
  Ga  Ga8  1  0.749403  0.750330  0.385317  1
  Ga  Ga9  1  0.250597  0.249670  0.385317  1
  Ga  Ga10  1  0.250597  0.750330  0.385317  1
  Ga  Ga11  1  0.749403  0.249670  0.385317  1
  Ga  Ga12  1  0.280591  0.279021  0.996987  1
  Ga  Ga13  1  0.719409  0.720979  0.996987  1
  Ga  Ga14  1  0.719409  0.279021  0.996987  1
  Ga  Ga15  1  0.280591  0.720979  0.996987  1
  Ga  Ga16  1  0.500000  0.500000  0.804565  1
  Ga  Ga17  1  0.500000  0.500000  0.192559  1
  Ga  Ga18  1  0.000000  0.000000  0.783966  1
  Ga  Ga19  1  0.000000  0.000000  0.219060  1
  Co  Co20  1  0.500000  0.000000  0.501892  1
  Co  Co21  1  0.000000  0.500000  0.501765  1
  Co  Co22  1  0.000000  0.000000  0.001336  1
