# generated using pymatgen
data_Ho3Cd3IrPd2
_symmetry_space_group_name_H-M   'P 1'
_cell_length_a   7.60793200
_cell_length_b   7.60793067
_cell_length_c   3.89387800
_cell_angle_alpha   90.00000000
_cell_angle_beta   90.00000000
_cell_angle_gamma   119.99998840
_symmetry_Int_Tables_number   1
_chemical_formula_structural   Ho3Cd3IrPd2
_chemical_formula_sum   'Ho3 Cd3 Ir1 Pd2'
_cell_volume   195.18488868
_cell_formula_units_Z   1
loop_
 _symmetry_equiv_pos_site_id
 _symmetry_equiv_pos_as_xyz
  1  'x, y, z'
loop_
 _atom_site_type_symbol
 _atom_site_label
 _atom_site_symmetry_multiplicity
 _atom_site_fract_x
 _atom_site_fract_y
 _atom_site_fract_z
 _atom_site_occupancy
  Ho  Ho0  1  0.582280  0.980628  0.000000  1
  Ho  Ho1  1  0.019372  0.601652  0.000000  1
  Ho  Ho2  1  0.398348  0.417720  0.000000  1
  Cd  Cd3  1  0.260362  0.005152  0.500000  1
  Cd  Cd4  1  0.994848  0.255210  0.500000  1
  Cd  Cd5  1  0.744790  0.739638  0.500000  1
  Ir  Ir6  1  0.333333  0.666667  0.500000  1
  Pd  Pd7  1  0.666667  0.333333  0.500000  1
  Pd  Pd8  1  0.000000  0.000000  0.000000  1
