# generated using pymatgen
data_Sr9CeSi6O
_symmetry_space_group_name_H-M   'P 1'
_cell_length_a   9.53218434
_cell_length_b   9.50858561
_cell_length_c   9.52461500
_cell_angle_alpha   129.99863119
_cell_angle_beta   130.06474876
_cell_angle_gamma   73.32184526
_symmetry_Int_Tables_number   1
_chemical_formula_structural   Sr9CeSi6O
_chemical_formula_sum   'Sr9 Ce1 Si6 O1'
_cell_volume   494.16279917
_cell_formula_units_Z   1
loop_
 _symmetry_equiv_pos_site_id
 _symmetry_equiv_pos_as_xyz
  1  'x, y, z'
loop_
 _atom_site_type_symbol
 _atom_site_label
 _atom_site_symmetry_multiplicity
 _atom_site_fract_x
 _atom_site_fract_y
 _atom_site_fract_z
 _atom_site_occupancy
  Sr  Sr0  1  0.432238  0.767237  0.000003  1
  Sr  Sr1  1  0.926085  0.928741  0.639605  1
  Sr  Sr2  1  0.286480  0.289138  0.360392  1
  Sr  Sr3  1  0.710313  0.070841  0.999996  1
  Sr  Sr4  1  0.069587  0.712777  0.000002  1
  Sr  Sr5  1  0.564929  0.564477  0.327749  1
  Sr  Sr6  1  0.237179  0.236726  0.672254  1
  Sr  Sr7  1  0.250011  0.750251  0.502975  1
  Sr  Sr8  1  0.747034  0.247277  0.497024  1
  Ce  Ce9  1  0.757522  0.440108  0.000000  1
  Si  Si10  1  0.993156  0.497774  0.481395  1
  Si  Si11  1  0.511763  0.016379  0.518606  1
  Si  Si12  1  0.129194  0.357889  0.999997  1
  Si  Si13  1  0.350070  0.140819  0.000002  1
  Si  Si14  1  0.861192  0.850115  0.214245  1
  Si  Si15  1  0.646950  0.635877  0.785755  1
  O  O16  1  0.526295  0.493571  0.999999  1
