# generated using pymatgen
data_Er8Re2OsWC8
_symmetry_space_group_name_H-M   'P 1'
_cell_length_a   5.05646200
_cell_length_b   6.54952768
_cell_length_c   9.80765430
_cell_angle_alpha   89.62519984
_cell_angle_beta   90.00000000
_cell_angle_gamma   90.00000000
_symmetry_Int_Tables_number   1
_chemical_formula_structural   Er8Re2OsWC8
_chemical_formula_sum   'Er8 Re2 Os1 W1 C8'
_cell_volume   324.79743193
_cell_formula_units_Z   1
loop_
 _symmetry_equiv_pos_site_id
 _symmetry_equiv_pos_as_xyz
  1  'x, y, z'
loop_
 _atom_site_type_symbol
 _atom_site_label
 _atom_site_symmetry_multiplicity
 _atom_site_fract_x
 _atom_site_fract_y
 _atom_site_fract_z
 _atom_site_occupancy
  Er  Er0  1  0.750000  0.533016  0.784400  1
  Er  Er1  1  0.250000  0.964713  0.283458  1
  Er  Er2  1  0.750000  0.676954  0.442179  1
  Er  Er3  1  0.250000  0.822752  0.943191  1
  Er  Er4  1  0.750000  0.178482  0.058378  1
  Er  Er5  1  0.250000  0.322731  0.558095  1
  Er  Er6  1  0.250000  0.467039  0.218096  1
  Er  Er7  1  0.750000  0.037294  0.718838  1
  Re  Re8  1  0.750000  0.217752  0.368039  1
  Re  Re9  1  0.750000  0.719361  0.132408  1
  Os  Os10  1  0.250000  0.280752  0.868448  1
  W  W11  1  0.250000  0.783334  0.631411  1
  C  C12  1  0.250000  0.673056  0.444158  1
  C  C13  1  0.250000  0.546586  0.759317  1
  C  C14  1  0.750000  0.451140  0.240087  1
  C  C15  1  0.750000  0.824327  0.947670  1
  C  C16  1  0.250000  0.050739  0.741317  1
  C  C17  1  0.250000  0.174258  0.050956  1
  C  C18  1  0.750000  0.324179  0.551186  1
  C  C19  1  0.750000  0.951537  0.258370  1
