# generated using pymatgen
data_CaHo7(Si4W3)4
_symmetry_space_group_name_H-M   'P 1'
_cell_length_a   6.75353329
_cell_length_b   6.92849592
_cell_length_c   12.90226094
_cell_angle_alpha   89.92895365
_cell_angle_beta   89.95742145
_cell_angle_gamma   89.86982758
_symmetry_Int_Tables_number   1
_chemical_formula_structural   CaHo7(Si4W3)4
_chemical_formula_sum   'Ca1 Ho7 Si16 W12'
_cell_volume   603.71818489
_cell_formula_units_Z   1
loop_
 _symmetry_equiv_pos_site_id
 _symmetry_equiv_pos_as_xyz
  1  'x, y, z'
loop_
 _atom_site_type_symbol
 _atom_site_label
 _atom_site_symmetry_multiplicity
 _atom_site_fract_x
 _atom_site_fract_y
 _atom_site_fract_z
 _atom_site_occupancy
  Ca  Ca0  1  0.995720  0.832529  0.590970  1
  Ho  Ho1  1  0.496455  0.668185  0.593785  1
  Ho  Ho2  1  0.996542  0.831518  0.906412  1
  Ho  Ho3  1  0.504777  0.331758  0.093320  1
  Ho  Ho4  1  0.003898  0.167318  0.407790  1
  Ho  Ho5  1  0.503900  0.332095  0.407161  1
  Ho  Ho6  1  0.004568  0.168079  0.093490  1
  Ho  Ho7  1  0.495943  0.668114  0.906001  1
  Si  Si8  1  0.660923  0.957612  0.453680  1
  Si  Si9  1  0.162894  0.542963  0.045766  1
  Si  Si10  1  0.337226  0.042237  0.953554  1
  Si  Si11  1  0.838322  0.458914  0.547016  1
  Si  Si12  1  0.337779  0.041168  0.546930  1
  Si  Si13  1  0.837407  0.457402  0.954064  1
  Si  Si14  1  0.663194  0.957504  0.046077  1
  Si  Si15  1  0.161530  0.542629  0.453201  1
  Si  Si16  1  0.464307  0.371469  0.750429  1
  Si  Si17  1  0.964638  0.127986  0.749542  1
  Si  Si18  1  0.535203  0.629089  0.250095  1
  Si  Si19  1  0.035401  0.870641  0.250711  1
  Si  Si20  1  0.698432  0.866576  0.748823  1
  Si  Si21  1  0.194859  0.635324  0.748840  1
  Si  Si22  1  0.303135  0.134180  0.250194  1
  Si  Si23  1  0.803927  0.365187  0.250485  1
  W  W24  1  0.666562  0.166305  0.625531  1
  W  W25  1  0.169357  0.338083  0.874971  1
  W  W26  1  0.331639  0.836561  0.125760  1
  W  W27  1  0.829383  0.661439  0.373579  1
  W  W28  1  0.332157  0.837280  0.374209  1
  W  W29  1  0.830728  0.662299  0.125508  1
  W  W30  1  0.668726  0.163416  0.874258  1
  W  W31  1  0.169617  0.335866  0.626224  1
  W  W32  1  0.834180  0.495999  0.751061  1
  W  W33  1  0.334022  0.001441  0.751045  1
  W  W34  1  0.165944  0.501344  0.249919  1
  W  W35  1  0.666702  0.999493  0.249595  1
