# generated using pymatgen
data_Pr5FePtO12
_symmetry_space_group_name_H-M   'P 1'
_cell_length_a   7.10238740
_cell_length_b   7.10238771
_cell_length_c   7.66333816
_cell_angle_alpha   74.47620305
_cell_angle_beta   74.47620392
_cell_angle_gamma   51.01814719
_symmetry_Int_Tables_number   1
_chemical_formula_structural   Pr5FePtO12
_chemical_formula_sum   'Pr5 Fe1 Pt1 O12'
_cell_volume   286.98048871
_cell_formula_units_Z   1
loop_
 _symmetry_equiv_pos_site_id
 _symmetry_equiv_pos_as_xyz
  1  'x, y, z'
loop_
 _atom_site_type_symbol
 _atom_site_label
 _atom_site_symmetry_multiplicity
 _atom_site_fract_x
 _atom_site_fract_y
 _atom_site_fract_z
 _atom_site_occupancy
  Pr  Pr0  1  0.307736  0.305054  0.357787  1
  Pr  Pr1  1  0.694946  0.692264  0.642213  1
  Pr  Pr2  1  0.692346  0.694512  0.166277  1
  Pr  Pr3  1  0.305488  0.307654  0.833723  1
  Pr  Pr4  1  0.002874  0.997126  0.500000  1
  Fe  Fe5  1  0.755999  0.244001  0.000000  1
  Pt  Pt6  1  0.242951  0.757049  0.000000  1
  O  O7  1  0.095699  0.593140  0.578897  1
  O  O8  1  0.000558  0.997360  0.176519  1
  O  O9  1  0.406860  0.904301  0.421103  1
  O  O10  1  0.493708  0.507240  0.175103  1
  O  O11  1  0.097232  0.577293  0.078743  1
  O  O12  1  0.904979  0.401626  0.422631  1
  O  O13  1  0.002640  0.999442  0.823481  1
  O  O14  1  0.598374  0.095020  0.577369  1
  O  O15  1  0.492760  0.506292  0.824897  1
  O  O16  1  0.587465  0.105323  0.075786  1
  O  O17  1  0.422707  0.902768  0.921257  1
  O  O18  1  0.894677  0.412535  0.924214  1
