# generated using pymatgen
data_Pr2Nd2GeI5
_symmetry_space_group_name_H-M   'P 1'
_cell_length_a   10.11029698
_cell_length_b   10.11029638
_cell_length_c   9.13898867
_cell_angle_alpha   77.72193560
_cell_angle_beta   77.72193628
_cell_angle_gamma   25.04263788
_symmetry_Int_Tables_number   1
_chemical_formula_structural   Pr2Nd2GeI5
_chemical_formula_sum   'Pr2 Nd2 Ge1 I5'
_cell_volume   385.93109905
_cell_formula_units_Z   1
loop_
 _symmetry_equiv_pos_site_id
 _symmetry_equiv_pos_as_xyz
  1  'x, y, z'
loop_
 _atom_site_type_symbol
 _atom_site_label
 _atom_site_symmetry_multiplicity
 _atom_site_fract_x
 _atom_site_fract_y
 _atom_site_fract_z
 _atom_site_occupancy
  Pr  Pr0  1  0.500760  0.500760  0.215727  1
  Pr  Pr1  1  0.499240  0.499240  0.784273  1
  Nd  Nd2  1  0.852646  0.852646  0.075354  1
  Nd  Nd3  1  0.147354  0.147354  0.924646  1
  Ge  Ge4  1  0.000000  0.000000  0.000000  1
  I  I5  1  0.672645  0.672645  0.166747  1
  I  I6  1  0.327355  0.327355  0.833253  1
  I  I7  1  0.666784  0.666784  0.666178  1
  I  I8  1  0.333216  0.333216  0.333822  1
  I  I9  1  0.000000  0.000000  0.500000  1
