# generated using pymatgen
data_Hf8Fe5Co2Si14Pd
_symmetry_space_group_name_H-M   'P 1'
_cell_length_a   9.50088086
_cell_length_b   9.46860964
_cell_length_c   9.47538665
_cell_angle_alpha   94.12691618
_cell_angle_beta   94.30926925
_cell_angle_gamma   148.54262107
_symmetry_Int_Tables_number   1
_chemical_formula_structural   Hf8Fe5Co2Si14Pd
_chemical_formula_sum   'Hf8 Fe5 Co2 Si14 Pd1'
_cell_volume   428.15236347
_cell_formula_units_Z   1
loop_
 _symmetry_equiv_pos_site_id
 _symmetry_equiv_pos_as_xyz
  1  'x, y, z'
loop_
 _atom_site_type_symbol
 _atom_site_label
 _atom_site_symmetry_multiplicity
 _atom_site_fract_x
 _atom_site_fract_y
 _atom_site_fract_z
 _atom_site_occupancy
  Hf  Hf0  1  0.138476  0.138476  0.276954  1
  Hf  Hf1  1  0.861711  0.861700  0.723409  1
  Hf  Hf2  1  0.134880  0.858835  0.998864  1
  Hf  Hf3  1  0.863993  0.140027  0.998872  1
  Hf  Hf4  1  0.307877  0.504541  0.802119  1
  Hf  Hf5  1  0.697656  0.503964  0.195154  1
  Hf  Hf6  1  0.497506  0.691193  0.195155  1
  Hf  Hf7  1  0.494245  0.297575  0.802123  1
  Fe  Fe8  1  0.390730  0.890735  0.781455  1
  Fe  Fe9  1  0.907774  0.103072  0.504829  1
  Fe  Fe10  1  0.597046  0.401753  0.504811  1
  Fe  Fe11  1  0.599759  0.099768  0.199552  1
  Fe  Fe12  1  0.903306  0.403312  0.806558  1
  Co  Co13  1  0.101895  0.889515  0.497083  1
  Co  Co14  1  0.395186  0.607564  0.497062  1
  Si  Si15  1  0.290442  0.290408  0.581100  1
  Si  Si16  1  0.710165  0.710133  0.420018  1
  Si  Si17  1  0.307563  0.725515  0.993621  1
  Si  Si18  1  0.686039  0.268094  0.993615  1
  Si  Si19  1  0.073853  0.482770  0.591411  1
  Si  Si20  1  0.860334  0.458107  0.414333  1
  Si  Si21  1  0.554052  0.956323  0.414355  1
  Si  Si22  1  0.517427  0.108552  0.591421  1
  Si  Si23  1  0.249338  0.249474  0.999291  1
  Si  Si24  1  0.749955  0.749797  0.999272  1
  Si  Si25  1  0.317355  0.024443  0.301973  1
  Si  Si26  1  0.709452  0.009601  0.700701  1
  Si  Si27  1  0.991352  0.691206  0.700649  1
  Si  Si28  1  0.984487  0.277397  0.301933  1
  Pd  Pd29  1  0.106144  0.606150  0.212308  1
