# generated using pymatgen
data_Tb7Sm(C2Cl3)2
_symmetry_space_group_name_H-M   'P 1'
_cell_length_a   3.67513200
_cell_length_b   10.55017039
_cell_length_c   19.88740000
_cell_angle_alpha   90.26446964
_cell_angle_beta   90.00000000
_cell_angle_gamma   90.00000000
_symmetry_Int_Tables_number   1
_chemical_formula_structural   Tb7Sm(C2Cl3)2
_chemical_formula_sum   'Tb14 Sm2 C8 Cl12'
_cell_volume   771.09129159
_cell_formula_units_Z   2
loop_
 _symmetry_equiv_pos_site_id
 _symmetry_equiv_pos_as_xyz
  1  'x, y, z'
loop_
 _atom_site_type_symbol
 _atom_site_label
 _atom_site_symmetry_multiplicity
 _atom_site_fract_x
 _atom_site_fract_y
 _atom_site_fract_z
 _atom_site_occupancy
  Tb  Tb0  1  0.750000  0.636078  0.073615  1
  Tb  Tb1  1  0.250000  0.363922  0.926385  1
  Tb  Tb2  1  0.250000  0.865973  0.745335  1
  Tb  Tb3  1  0.750000  0.134027  0.254665  1
  Tb  Tb4  1  0.750000  0.634169  0.243606  1
  Tb  Tb5  1  0.250000  0.365831  0.756394  1
  Tb  Tb6  1  0.250000  0.872579  0.164744  1
  Tb  Tb7  1  0.750000  0.127421  0.835256  1
  Tb  Tb8  1  0.750000  0.626378  0.666649  1
  Tb  Tb9  1  0.250000  0.373622  0.333351  1
  Tb  Tb10  1  0.250000  0.896728  0.331745  1
  Tb  Tb11  1  0.750000  0.103272  0.668255  1
  Tb  Tb12  1  0.750000  0.604441  0.833592  1
  Tb  Tb13  1  0.250000  0.395559  0.166408  1
  Sm  Sm14  1  0.250000  0.861707  0.572725  1
  Sm  Sm15  1  0.750000  0.138293  0.427275  1
  C  C16  1  0.250000  0.614569  0.752060  1
  C  C17  1  0.750000  0.385431  0.247940  1
  C  C18  1  0.750000  0.884279  0.249744  1
  C  C19  1  0.250000  0.115721  0.750256  1
  C  C20  1  0.250000  0.632708  0.151965  1
  C  C21  1  0.750000  0.367292  0.848035  1
  C  C22  1  0.750000  0.865541  0.654697  1
  C  C23  1  0.250000  0.134459  0.345303  1
  Cl  Cl24  1  0.250000  0.607066  0.559228  1
  Cl  Cl25  1  0.750000  0.392934  0.440772  1
  Cl  Cl26  1  0.750000  0.884730  0.056688  1
  Cl  Cl27  1  0.250000  0.115270  0.943312  1
  Cl  Cl28  1  0.250000  0.623204  0.953559  1
  Cl  Cl29  1  0.750000  0.376796  0.046441  1
  Cl  Cl30  1  0.750000  0.872923  0.449568  1
  Cl  Cl31  1  0.250000  0.127077  0.550432  1
  Cl  Cl32  1  0.250000  0.636804  0.352343  1
  Cl  Cl33  1  0.750000  0.363196  0.647657  1
  Cl  Cl34  1  0.750000  0.864524  0.854777  1
  Cl  Cl35  1  0.250000  0.135476  0.145223  1
