# generated using pymatgen
data_Dy15Ho5(Bi3Sb)3
_symmetry_space_group_name_H-M   'P 1'
_cell_length_a   8.18978850
_cell_length_b   9.47088400
_cell_length_c   12.00784656
_cell_angle_alpha   89.99812737
_cell_angle_beta   90.07402356
_cell_angle_gamma   89.99885934
_symmetry_Int_Tables_number   1
_chemical_formula_structural   Dy15Ho5(Bi3Sb)3
_chemical_formula_sum   'Dy15 Ho5 Bi9 Sb3'
_cell_volume   931.38228006
_cell_formula_units_Z   1
loop_
 _symmetry_equiv_pos_site_id
 _symmetry_equiv_pos_as_xyz
  1  'x, y, z'
loop_
 _atom_site_type_symbol
 _atom_site_label
 _atom_site_symmetry_multiplicity
 _atom_site_fract_x
 _atom_site_fract_y
 _atom_site_fract_z
 _atom_site_occupancy
  Dy  Dy0  1  0.352620  0.750073  0.213046  1
  Dy  Dy1  1  0.853141  0.750055  0.286418  1
  Dy  Dy2  1  0.647102  0.250137  0.786696  1
  Dy  Dy3  1  0.148251  0.250142  0.716460  1
  Dy  Dy4  1  0.808491  0.060075  0.559104  1
  Dy  Dy5  1  0.688909  0.937207  0.057440  1
  Dy  Dy6  1  0.190478  0.565824  0.442478  1
  Dy  Dy7  1  0.475494  0.250020  0.487946  1
  Dy  Dy8  1  0.973247  0.250087  0.011724  1
  Dy  Dy9  1  0.528473  0.750053  0.512772  1
  Dy  Dy10  1  0.027667  0.749956  0.988000  1
  Dy  Dy11  1  0.318287  0.250008  0.216158  1
  Dy  Dy12  1  0.811592  0.250125  0.278913  1
  Dy  Dy13  1  0.683133  0.749873  0.782198  1
  Dy  Dy14  1  0.183602  0.750111  0.717951  1
  Ho  Ho15  1  0.688852  0.563078  0.057394  1
  Ho  Ho16  1  0.190182  0.933702  0.442526  1
  Ho  Ho17  1  0.311383  0.062757  0.942832  1
  Ho  Ho18  1  0.808664  0.439656  0.559056  1
  Ho  Ho19  1  0.311217  0.437280  0.942754  1
  Bi  Bi20  1  0.092132  0.249526  0.456671  1
  Bi  Bi21  1  0.565526  0.995156  0.325613  1
  Bi  Bi22  1  0.065912  0.504041  0.174277  1
  Bi  Bi23  1  0.433764  0.495554  0.674720  1
  Bi  Bi24  1  0.934013  0.004022  0.825869  1
  Bi  Bi25  1  0.433581  0.004525  0.674675  1
  Bi  Bi26  1  0.933928  0.496023  0.825879  1
  Bi  Bi27  1  0.565739  0.504897  0.325577  1
  Bi  Bi28  1  0.066176  0.996029  0.174397  1
  Sb  Sb29  1  0.406893  0.749697  0.958076  1
  Sb  Sb30  1  0.908105  0.749524  0.541383  1
  Sb  Sb31  1  0.593447  0.250787  0.040993  1
