# generated using pymatgen
data_Ho10Tl7In(PtAu)2
_symmetry_space_group_name_H-M   'P 1'
_cell_length_a   3.64037900
_cell_length_b   8.27917704
_cell_length_c   18.48070969
_cell_angle_alpha   89.94978231
_cell_angle_beta   90.00000000
_cell_angle_gamma   90.00000000
_symmetry_Int_Tables_number   1
_chemical_formula_structural   Ho10Tl7In(PtAu)2
_chemical_formula_sum   'Ho10 Tl7 In1 Pt2 Au2'
_cell_volume   556.99622049
_cell_formula_units_Z   1
loop_
 _symmetry_equiv_pos_site_id
 _symmetry_equiv_pos_as_xyz
  1  'x, y, z'
loop_
 _atom_site_type_symbol
 _atom_site_label
 _atom_site_symmetry_multiplicity
 _atom_site_fract_x
 _atom_site_fract_y
 _atom_site_fract_z
 _atom_site_occupancy
  Ho  Ho0  1  0.000000  0.499331  0.500355  1
  Ho  Ho1  1  0.000000  0.000726  0.997961  1
  Ho  Ho2  1  0.000000  0.755802  0.284020  1
  Ho  Ho3  1  0.000000  0.245778  0.716237  1
  Ho  Ho4  1  0.000000  0.768436  0.780351  1
  Ho  Ho5  1  0.000000  0.231465  0.219899  1
  Ho  Ho6  1  0.000000  0.617231  0.082855  1
  Ho  Ho7  1  0.000000  0.381099  0.917337  1
  Ho  Ho8  1  0.000000  0.886507  0.586927  1
  Ho  Ho9  1  0.000000  0.113100  0.413946  1
  Tl  Tl10  1  0.500000  0.711365  0.933785  1
  Tl  Tl11  1  0.500000  0.290773  0.064841  1
  Tl  Tl12  1  0.500000  0.792954  0.438499  1
  Tl  Tl13  1  0.500000  0.206327  0.562488  1
  Tl  Tl14  1  0.500000  0.579417  0.646613  1
  Tl  Tl15  1  0.500000  0.420381  0.354780  1
  Tl  Tl16  1  0.500000  0.919149  0.144579  1
  In  In17  1  0.500000  0.082129  0.852176  1
  Pt  Pt18  1  0.500000  0.972105  0.698681  1
  Pt  Pt19  1  0.500000  0.028585  0.302931  1
  Au  Au20  1  0.500000  0.529762  0.199238  1
  Au  Au21  1  0.500000  0.467577  0.801502  1
