# generated using pymatgen
data_Sm3Lu5Sc12Si15Ag
_symmetry_space_group_name_H-M   'P 1'
_cell_length_a   7.10853985
_cell_length_b   7.35349631
_cell_length_c   14.06626543
_cell_angle_alpha   89.97916803
_cell_angle_beta   89.33255676
_cell_angle_gamma   90.10652846
_symmetry_Int_Tables_number   1
_chemical_formula_structural   Sm3Lu5Sc12Si15Ag
_chemical_formula_sum   'Sm3 Lu5 Sc12 Si15 Ag1'
_cell_volume   735.22935567
_cell_formula_units_Z   1
loop_
 _symmetry_equiv_pos_site_id
 _symmetry_equiv_pos_as_xyz
  1  'x, y, z'
loop_
 _atom_site_type_symbol
 _atom_site_label
 _atom_site_symmetry_multiplicity
 _atom_site_fract_x
 _atom_site_fract_y
 _atom_site_fract_z
 _atom_site_occupancy
  Sm  Sm0  1  0.006876  0.169979  0.399184  1
  Sm  Sm1  1  0.511816  0.322230  0.400324  1
  Sm  Sm2  1  0.496070  0.677701  0.601786  1
  Lu  Lu3  1  0.012066  0.176407  0.096203  1
  Lu  Lu4  1  0.987932  0.825165  0.905274  1
  Lu  Lu5  1  0.486701  0.678736  0.903279  1
  Lu  Lu6  1  0.992049  0.831691  0.599966  1
  Lu  Lu7  1  0.511878  0.321794  0.095354  1
  Sc  Sc8  1  0.164619  0.501782  0.755063  1
  Sc  Sc9  1  0.835912  0.498704  0.248786  1
  Sc  Sc10  1  0.334948  0.000524  0.246035  1
  Sc  Sc11  1  0.667642  0.994737  0.752918  1
  Sc  Sc12  1  0.344392  0.170244  0.628940  1
  Sc  Sc13  1  0.661923  0.825181  0.372565  1
  Sc  Sc14  1  0.163750  0.676444  0.369344  1
  Sc  Sc15  1  0.668298  0.823778  0.121510  1
  Sc  Sc16  1  0.828344  0.326331  0.627922  1
  Sc  Sc17  1  0.329502  0.175473  0.877511  1
  Sc  Sc18  1  0.831931  0.321610  0.876738  1
  Sc  Sc19  1  0.167738  0.676337  0.122691  1
  Si  Si20  1  0.038150  0.118655  0.751889  1
  Si  Si21  1  0.961631  0.882747  0.245114  1
  Si  Si22  1  0.465023  0.615643  0.245184  1
  Si  Si23  1  0.535816  0.385863  0.755495  1
  Si  Si24  1  0.284429  0.873596  0.754646  1
  Si  Si25  1  0.710807  0.126516  0.243417  1
  Si  Si26  1  0.213783  0.371017  0.243730  1
  Si  Si27  1  0.792712  0.629933  0.756099  1
  Si  Si28  1  0.836370  0.545469  0.460744  1
  Si  Si29  1  0.333196  0.956751  0.462836  1
  Si  Si30  1  0.842170  0.533645  0.038591  1
  Si  Si31  1  0.666744  0.035768  0.540036  1
  Si  Si32  1  0.156920  0.466000  0.961367  1
  Si  Si33  1  0.659136  0.034067  0.959614  1
  Si  Si34  1  0.339314  0.965329  0.039465  1
  Ag  Ag35  1  0.159411  0.464151  0.540380  1
