# generated using pymatgen
data_Hf4Co3Si4Ir
_symmetry_space_group_name_H-M   'P 1'
_cell_length_a   3.86650800
_cell_length_b   6.42649898
_cell_length_c   7.20281798
_cell_angle_alpha   89.60739773
_cell_angle_beta   90.00000000
_cell_angle_gamma   90.00000000
_symmetry_Int_Tables_number   1
_chemical_formula_structural   Hf4Co3Si4Ir
_chemical_formula_sum   'Hf4 Co3 Si4 Ir1'
_cell_volume   178.97220977
_cell_formula_units_Z   1
loop_
 _symmetry_equiv_pos_site_id
 _symmetry_equiv_pos_as_xyz
  1  'x, y, z'
loop_
 _atom_site_type_symbol
 _atom_site_label
 _atom_site_symmetry_multiplicity
 _atom_site_fract_x
 _atom_site_fract_y
 _atom_site_fract_z
 _atom_site_occupancy
  Hf  Hf0  1  0.250000  0.007670  0.314752  1
  Hf  Hf1  1  0.250000  0.516343  0.194542  1
  Hf  Hf2  1  0.750000  0.987006  0.682367  1
  Hf  Hf3  1  0.750000  0.487261  0.806060  1
  Co  Co4  1  0.250000  0.644711  0.566667  1
  Co  Co5  1  0.750000  0.849669  0.065513  1
  Co  Co6  1  0.750000  0.355631  0.432131  1
  Si  Si7  1  0.250000  0.283446  0.600899  1
  Si  Si8  1  0.250000  0.775160  0.887500  1
  Si  Si9  1  0.750000  0.720021  0.391237  1
  Si  Si10  1  0.750000  0.221473  0.124326  1
  Ir  Ir11  1  0.250000  0.151609  0.934005  1
