# generated using pymatgen
data_Dy3Y2IrOs
_symmetry_space_group_name_H-M   'P 1'
_cell_length_a   6.44382013
_cell_length_b   7.32538753
_cell_length_c   8.47833937
_cell_angle_alpha   96.76530614
_cell_angle_beta   112.33472367
_cell_angle_gamma   89.99998673
_symmetry_Int_Tables_number   1
_chemical_formula_structural   Dy3Y2IrOs
_chemical_formula_sum   'Dy6 Y4 Ir2 Os2'
_cell_volume   367.16899060
_cell_formula_units_Z   2
loop_
 _symmetry_equiv_pos_site_id
 _symmetry_equiv_pos_as_xyz
  1  'x, y, z'
loop_
 _atom_site_type_symbol
 _atom_site_label
 _atom_site_symmetry_multiplicity
 _atom_site_fract_x
 _atom_site_fract_y
 _atom_site_fract_z
 _atom_site_occupancy
  Dy  Dy0  1  0.210605  0.184288  0.561298  1
  Dy  Dy1  1  0.649306  0.315712  0.438702  1
  Dy  Dy2  1  0.790078  0.818115  0.436554  1
  Dy  Dy3  1  0.353526  0.681885  0.563446  1
  Dy  Dy4  1  0.426539  0.250000  0.000000  1
  Dy  Dy5  1  0.575203  0.750000  0.000000  1
  Y  Y6  1  0.791075  0.084017  0.818188  1
  Y  Y7  1  0.972887  0.415983  0.181812  1
  Y  Y8  1  0.208726  0.918193  0.185485  1
  Y  Y9  1  0.023241  0.581807  0.814515  1
  Ir  Ir10  1  0.397895  0.575604  0.222192  1
  Ir  Ir11  1  0.175704  0.924396  0.777808  1
  Os  Os12  1  0.603032  0.426374  0.780847  1
  Os  Os13  1  0.822186  0.073626  0.219153  1
