# generated using pymatgen
data_Yb3In2HgAu3
_symmetry_space_group_name_H-M   'P 1'
_cell_length_a   8.00630576
_cell_length_b   8.03549852
_cell_length_c   3.81436100
_cell_angle_alpha   90.00000000
_cell_angle_beta   90.00000000
_cell_angle_gamma   120.12068948
_symmetry_Int_Tables_number   1
_chemical_formula_structural   Yb3In2HgAu3
_chemical_formula_sum   'Yb3 In2 Hg1 Au3'
_cell_volume   212.25990746
_cell_formula_units_Z   1
loop_
 _symmetry_equiv_pos_site_id
 _symmetry_equiv_pos_as_xyz
  1  'x, y, z'
loop_
 _atom_site_type_symbol
 _atom_site_label
 _atom_site_symmetry_multiplicity
 _atom_site_fract_x
 _atom_site_fract_y
 _atom_site_fract_z
 _atom_site_occupancy
  Yb  Yb0  1  0.000000  0.589757  0.500000  1
  Yb  Yb1  1  0.616913  0.011460  0.500000  1
  Yb  Yb2  1  0.383087  0.394547  0.500000  1
  In  In3  1  0.270789  0.996545  0.000000  1
  In  In4  1  0.729211  0.725756  0.000000  1
  Hg  Hg5  1  0.000000  0.277323  0.000000  1
  Au  Au6  1  0.000000  0.987966  0.500000  1
  Au  Au7  1  0.653482  0.335064  0.000000  1
  Au  Au8  1  0.346518  0.681583  0.000000  1
