# generated using pymatgen
data_Hf18CoW8S
_symmetry_space_group_name_H-M   'P 1'
_cell_length_a   8.68752100
_cell_length_b   8.68752135
_cell_length_c   8.56103300
_cell_angle_alpha   90.00000000
_cell_angle_beta   90.00000000
_cell_angle_gamma   120.00000247
_symmetry_Int_Tables_number   1
_chemical_formula_structural   Hf18CoW8S
_chemical_formula_sum   'Hf18 Co1 W8 S1'
_cell_volume   559.56242604
_cell_formula_units_Z   1
loop_
 _symmetry_equiv_pos_site_id
 _symmetry_equiv_pos_as_xyz
  1  'x, y, z'
loop_
 _atom_site_type_symbol
 _atom_site_label
 _atom_site_symmetry_multiplicity
 _atom_site_fract_x
 _atom_site_fract_y
 _atom_site_fract_z
 _atom_site_occupancy
  Hf  Hf0  1  0.196214  0.803786  0.448781  1
  Hf  Hf1  1  0.196214  0.392429  0.448781  1
  Hf  Hf2  1  0.607571  0.803786  0.448781  1
  Hf  Hf3  1  0.799000  0.201000  0.558867  1
  Hf  Hf4  1  0.799000  0.598000  0.558867  1
  Hf  Hf5  1  0.402000  0.201000  0.558867  1
  Hf  Hf6  1  0.799000  0.201000  0.941133  1
  Hf  Hf7  1  0.799000  0.598000  0.941133  1
  Hf  Hf8  1  0.402000  0.201000  0.941133  1
  Hf  Hf9  1  0.196214  0.803786  0.051219  1
  Hf  Hf10  1  0.196214  0.392429  0.051219  1
  Hf  Hf11  1  0.607571  0.803786  0.051219  1
  Hf  Hf12  1  0.545530  0.454470  0.250000  1
  Hf  Hf13  1  0.545530  0.091060  0.250000  1
  Hf  Hf14  1  0.908940  0.454470  0.250000  1
  Hf  Hf15  1  0.458027  0.541973  0.750000  1
  Hf  Hf16  1  0.458027  0.916055  0.750000  1
  Hf  Hf17  1  0.083945  0.541973  0.750000  1
  Co  Co18  1  0.666667  0.333333  0.750000  1
  W  W19  1  0.888962  0.111038  0.250000  1
  W  W20  1  0.888962  0.777926  0.250000  1
  W  W21  1  0.222074  0.111038  0.250000  1
  W  W22  1  0.111983  0.888017  0.750000  1
  W  W23  1  0.111983  0.223966  0.750000  1
  W  W24  1  0.776034  0.888017  0.750000  1
  W  W25  1  0.000000  0.000000  0.501129  1
  W  W26  1  0.000000  0.000000  0.998871  1
  S  S27  1  0.333333  0.666667  0.250000  1
