# generated using pymatgen
data_DyTm4P12Ir6Ru13
_symmetry_space_group_name_H-M   'P 1'
_cell_length_a   12.56264424
_cell_length_b   12.51893628
_cell_length_c   3.95912900
_cell_angle_alpha   90.00000000
_cell_angle_beta   90.00000000
_cell_angle_gamma   119.83795615
_symmetry_Int_Tables_number   1
_chemical_formula_structural   DyTm4P12Ir6Ru13
_chemical_formula_sum   'Dy1 Tm4 P12 Ir6 Ru13'
_cell_volume   540.11421013
_cell_formula_units_Z   1
loop_
 _symmetry_equiv_pos_site_id
 _symmetry_equiv_pos_as_xyz
  1  'x, y, z'
loop_
 _atom_site_type_symbol
 _atom_site_label
 _atom_site_symmetry_multiplicity
 _atom_site_fract_x
 _atom_site_fract_y
 _atom_site_fract_z
 _atom_site_occupancy
  Dy  Dy0  1  0.332997  0.666494  0.000000  1
  Tm  Tm1  1  0.666690  0.332839  0.000000  1
  Tm  Tm2  1  0.813414  0.001506  0.500000  1
  Tm  Tm3  1  0.185700  0.186716  0.500000  1
  Tm  Tm4  1  0.000101  0.813535  0.500000  1
  P  P5  1  0.630837  0.003316  0.000000  1
  P  P6  1  0.371451  0.371099  0.000000  1
  P  P7  1  0.000065  0.628793  0.000000  1
  P  P8  1  0.688576  0.516991  0.500000  1
  P  P9  1  0.828078  0.307800  0.500000  1
  P  P10  1  0.312637  0.831012  0.500000  1
  P  P11  1  0.518467  0.687200  0.500000  1
  P  P12  1  0.181256  0.001090  0.000000  1
  P  P13  1  0.817853  0.818629  0.000000  1
  P  P14  1  0.996799  0.182414  0.000000  1
  P  P15  1  0.482228  0.169201  0.500000  1
  P  P16  1  0.169678  0.481981  0.500000  1
  Ir  Ir17  1  0.625730  0.809293  0.000000  1
  Ir  Ir18  1  0.184169  0.374083  0.000000  1
  Ir  Ir19  1  0.374454  0.183212  0.000000  1
  Ir  Ir20  1  0.190079  0.817639  0.000000  1
  Ir  Ir21  1  0.808695  0.625118  0.000000  1
  Ir  Ir22  1  0.999224  0.000427  0.000000  1
  Ru  Ru23  1  0.871744  0.508411  0.500000  1
  Ru  Ru24  1  0.491010  0.361286  0.500000  1
  Ru  Ru25  1  0.636387  0.124948  0.500000  1
  Ru  Ru26  1  0.128381  0.639534  0.500000  1
  Ru  Ru27  1  0.361886  0.488948  0.500000  1
  Ru  Ru28  1  0.509781  0.870566  0.500000  1
  Ru  Ru29  1  0.716731  0.716273  0.500000  1
  Ru  Ru30  1  0.001818  0.284597  0.500000  1
  Ru  Ru31  1  0.445868  0.997652  0.000000  1
  Ru  Ru32  1  0.552577  0.552164  0.000000  1
  Ru  Ru33  1  0.003527  0.449341  0.000000  1
  Ru  Ru34  1  0.817656  0.195374  0.000000  1
  Ru  Ru35  1  0.283458  0.000519  0.500000  1
