# generated using pymatgen
data_Mn8Mo3Ru
_symmetry_space_group_name_H-M   'P 1'
_cell_length_a   4.69223400
_cell_length_b   4.69223190
_cell_length_c   7.72881300
_cell_angle_alpha   90.00000000
_cell_angle_beta   90.00000000
_cell_angle_gamma   120.00000069
_symmetry_Int_Tables_number   1
_chemical_formula_structural   Mn8Mo3Ru
_chemical_formula_sum   'Mn8 Mo3 Ru1'
_cell_volume   147.36778581
_cell_formula_units_Z   1
loop_
 _symmetry_equiv_pos_site_id
 _symmetry_equiv_pos_as_xyz
  1  'x, y, z'
loop_
 _atom_site_type_symbol
 _atom_site_label
 _atom_site_symmetry_multiplicity
 _atom_site_fract_x
 _atom_site_fract_y
 _atom_site_fract_z
 _atom_site_occupancy
  Mn  Mn0  1  0.172749  0.345498  0.749145  1
  Mn  Mn1  1  0.827166  0.172834  0.251231  1
  Mn  Mn2  1  0.345668  0.172834  0.251231  1
  Mn  Mn3  1  0.654502  0.827251  0.749145  1
  Mn  Mn4  1  0.000000  0.000000  0.000820  1
  Mn  Mn5  1  0.000000  0.000000  0.500743  1
  Mn  Mn6  1  0.827166  0.654332  0.251231  1
  Mn  Mn7  1  0.172749  0.827251  0.749145  1
  Mo  Mo8  1  0.666667  0.333333  0.935044  1
  Mo  Mo9  1  0.666667  0.333333  0.562161  1
  Mo  Mo10  1  0.333333  0.666667  0.068948  1
  Ru  Ru11  1  0.333333  0.666667  0.431153  1
