# generated using pymatgen
data_La16MgCd3(CoOs)2
_symmetry_space_group_name_H-M   'P 1'
_cell_length_a   10.03802595
_cell_length_b   9.97676560
_cell_length_c   10.04775950
_cell_angle_alpha   60.23344770
_cell_angle_beta   60.56467963
_cell_angle_gamma   60.20167687
_symmetry_Int_Tables_number   1
_chemical_formula_structural   La16MgCd3(CoOs)2
_chemical_formula_sum   'La16 Mg1 Cd3 Co2 Os2'
_cell_volume   716.87592211
_cell_formula_units_Z   1
loop_
 _symmetry_equiv_pos_site_id
 _symmetry_equiv_pos_as_xyz
  1  'x, y, z'
loop_
 _atom_site_type_symbol
 _atom_site_label
 _atom_site_symmetry_multiplicity
 _atom_site_fract_x
 _atom_site_fract_y
 _atom_site_fract_z
 _atom_site_occupancy
  La  La0  1  0.937806  0.946172  0.556827  1
  La  La1  1  0.561050  0.939705  0.559539  1
  La  La2  1  0.558167  0.945404  0.937458  1
  La  La3  1  0.685905  0.694115  0.308535  1
  La  La4  1  0.159131  0.151896  0.537076  1
  La  La5  1  0.309974  0.692684  0.684207  1
  La  La6  1  0.157074  0.150638  0.157917  1
  La  La7  1  0.539152  0.151022  0.158801  1
  La  La8  1  0.309895  0.689945  0.310215  1
  La  La9  1  0.309974  0.313135  0.684207  1
  La  La10  1  0.688979  0.311004  0.689013  1
  La  La11  1  0.937806  0.559195  0.556827  1
  La  La12  1  0.558167  0.558970  0.937458  1
  La  La13  1  0.157074  0.534371  0.157917  1
  La  La14  1  0.685905  0.311444  0.308535  1
  La  La15  1  0.942625  0.557360  0.942654  1
  Mg  Mg16  1  0.229280  0.924057  0.922606  1
  Cd  Cd17  1  0.921341  0.921371  0.920820  1
  Cd  Cd18  1  0.920013  0.920820  0.238347  1
  Cd  Cd19  1  0.921341  0.236467  0.920820  1
  Co  Co20  1  0.363650  0.915187  0.364217  1
  Co  Co21  1  0.363650  0.356944  0.364217  1
  Os  Os22  1  0.918183  0.358762  0.364292  1
  Os  Os23  1  0.363857  0.359326  0.917491  1
