# generated using pymatgen
data_DyMg7(CoB6)4
_symmetry_space_group_name_H-M   'P 1'
_cell_length_a   8.80368500
_cell_length_b   11.10417400
_cell_length_c   3.30607200
_cell_angle_alpha   90.00000000
_cell_angle_beta   90.00000000
_cell_angle_gamma   89.99972513
_symmetry_Int_Tables_number   1
_chemical_formula_structural   DyMg7(CoB6)4
_chemical_formula_sum   'Dy1 Mg7 Co4 B24'
_cell_volume   323.19382972
_cell_formula_units_Z   1
loop_
 _symmetry_equiv_pos_site_id
 _symmetry_equiv_pos_as_xyz
  1  'x, y, z'
loop_
 _atom_site_type_symbol
 _atom_site_label
 _atom_site_symmetry_multiplicity
 _atom_site_fract_x
 _atom_site_fract_y
 _atom_site_fract_z
 _atom_site_occupancy
  Dy  Dy0  1  0.822731  0.085343  0.000000  1
  Mg  Mg1  1  0.443063  0.128479  0.000000  1
  Mg  Mg2  1  0.944154  0.373066  0.000000  1
  Mg  Mg3  1  0.323773  0.416548  0.000000  1
  Mg  Mg4  1  0.674811  0.585782  0.000000  1
  Mg  Mg5  1  0.057748  0.629088  0.000000  1
  Mg  Mg6  1  0.554368  0.869839  0.000000  1
  Mg  Mg7  1  0.179625  0.913153  0.000000  1
  Co  Co8  1  0.142216  0.182830  0.000000  1
  Co  Co9  1  0.640707  0.320480  0.000000  1
  Co  Co10  1  0.358821  0.680469  0.000000  1
  Co  Co11  1  0.859282  0.816021  0.000000  1
  B  B12  1  0.594037  0.025225  0.499999  1
  B  B13  1  0.058391  0.066761  0.499999  1
  B  B14  1  0.253124  0.080455  0.499999  1
  B  B15  1  0.627535  0.184974  0.499999  1
  B  B16  1  0.985735  0.214318  0.499999  1
  B  B17  1  0.293616  0.237456  0.499999  1
  B  B18  1  0.792030  0.267038  0.499999  1
  B  B19  1  0.481437  0.289031  0.499999  1
  B  B20  1  0.130903  0.319135  0.499999  1
  B  B21  1  0.752034  0.421681  0.499999  1
  B  B22  1  0.555390  0.434627  0.499999  1
  B  B23  1  0.096727  0.474547  0.499999  1
  B  B24  1  0.904016  0.526522  0.499999  1
  B  B25  1  0.443859  0.565900  0.499999  1
  B  B26  1  0.247827  0.580155  0.499999  1
  B  B27  1  0.870076  0.681641  0.499999  1
  B  B28  1  0.516605  0.710862  0.499999  1
  B  B29  1  0.206967  0.736213  0.499999  1
  B  B30  1  0.705485  0.761113  0.499999  1
  B  B31  1  0.018509  0.786322  0.499999  1
  B  B32  1  0.369159  0.817083  0.499999  1
  B  B33  1  0.746889  0.914731  0.499999  1
  B  B34  1  0.946001  0.929785  0.499999  1
  B  B35  1  0.402353  0.973325  0.499999  1
