# generated using pymatgen
data_Ho2LuSn3Ir2Rh
_symmetry_space_group_name_H-M   'P 1'
_cell_length_a   7.64865092
_cell_length_b   7.67298308
_cell_length_c   3.68794900
_cell_angle_alpha   90.00000000
_cell_angle_beta   90.00000000
_cell_angle_gamma   120.10529705
_symmetry_Int_Tables_number   1
_chemical_formula_structural   Ho2LuSn3Ir2Rh
_chemical_formula_sum   'Ho2 Lu1 Sn3 Ir2 Rh1'
_cell_volume   187.24181194
_cell_formula_units_Z   1
loop_
 _symmetry_equiv_pos_site_id
 _symmetry_equiv_pos_as_xyz
  1  'x, y, z'
loop_
 _atom_site_type_symbol
 _atom_site_label
 _atom_site_symmetry_multiplicity
 _atom_site_fract_x
 _atom_site_fract_y
 _atom_site_fract_z
 _atom_site_occupancy
  Ho  Ho0  1  0.402419  0.402320  0.500000  1
  Ho  Ho1  1  0.597581  0.999901  0.500000  1
  Lu  Lu2  1  0.000000  0.597773  0.500000  1
  Sn  Sn3  1  0.734470  0.732580  0.000000  1
  Sn  Sn4  1  0.265530  0.998110  0.000000  1
  Sn  Sn5  1  0.000000  0.267969  0.000000  1
  Ir  Ir6  1  0.669645  0.335847  0.000000  1
  Ir  Ir7  1  0.330355  0.666203  0.000000  1
  Rh  Rh8  1  0.000000  0.999297  0.500000  1
