# generated using pymatgen
data_Y4Mn3Co17As12
_symmetry_space_group_name_H-M   'P 1'
_cell_length_a   3.79379000
_cell_length_b   10.72155291
_cell_length_c   12.28686137
_cell_angle_alpha   89.96295095
_cell_angle_beta   90.00000000
_cell_angle_gamma   90.00000000
_symmetry_Int_Tables_number   1
_chemical_formula_structural   Y4Mn3Co17As12
_chemical_formula_sum   'Y4 Mn3 Co17 As12'
_cell_volume   499.77191629
_cell_formula_units_Z   1
loop_
 _symmetry_equiv_pos_site_id
 _symmetry_equiv_pos_as_xyz
  1  'x, y, z'
loop_
 _atom_site_type_symbol
 _atom_site_label
 _atom_site_symmetry_multiplicity
 _atom_site_fract_x
 _atom_site_fract_y
 _atom_site_fract_z
 _atom_site_occupancy
  Y  Y0  1  0.250000  0.919395  0.203332  1
  Y  Y1  1  0.750000  0.079089  0.796988  1
  Y  Y2  1  0.750000  0.419922  0.297807  1
  Y  Y3  1  0.250000  0.579408  0.703494  1
  Mn  Mn4  1  0.250000  0.797832  0.490697  1
  Mn  Mn5  1  0.750000  0.201754  0.509613  1
  Mn  Mn6  1  0.750000  0.296996  0.009861  1
  Co  Co7  1  0.250000  0.706679  0.990039  1
  Co  Co8  1  0.250000  0.093844  0.987347  1
  Co  Co9  1  0.750000  0.904939  0.011850  1
  Co  Co10  1  0.750000  0.594382  0.512123  1
  Co  Co11  1  0.250000  0.406253  0.486380  1
  Co  Co12  1  0.250000  0.283133  0.675387  1
  Co  Co13  1  0.750000  0.717420  0.322376  1
  Co  Co14  1  0.750000  0.782613  0.825500  1
  Co  Co15  1  0.250000  0.217858  0.175378  1
  Co  Co16  1  0.250000  0.617322  0.196495  1
  Co  Co17  1  0.750000  0.383649  0.802705  1
  Co  Co18  1  0.750000  0.117217  0.301548  1
  Co  Co19  1  0.250000  0.881367  0.699322  1
  Co  Co20  1  0.250000  0.033919  0.433015  1
  Co  Co21  1  0.750000  0.965515  0.567513  1
  Co  Co22  1  0.750000  0.533798  0.066915  1
  Co  Co23  1  0.250000  0.467841  0.933963  1
  As  As24  1  0.250000  0.080611  0.616420  1
  As  As25  1  0.750000  0.918561  0.384076  1
  As  As26  1  0.750000  0.582786  0.885670  1
  As  As27  1  0.250000  0.418836  0.116475  1
  As  As28  1  0.250000  0.232126  0.365518  1
  As  As29  1  0.750000  0.766964  0.634701  1
  As  As30  1  0.750000  0.732298  0.131835  1
  As  As31  1  0.250000  0.268578  0.864924  1
  As  As32  1  0.250000  0.898664  0.892633  1
  As  As33  1  0.750000  0.096930  0.109431  1
  As  As34  1  0.750000  0.402359  0.608821  1
  As  As35  1  0.250000  0.599141  0.389846  1
