# generated using pymatgen
data_Nd9Ho6Lu5Si16
_symmetry_space_group_name_H-M   'P 1'
_cell_length_a   7.71928441
_cell_length_b   7.72932527
_cell_length_c   14.31368147
_cell_angle_alpha   89.80052040
_cell_angle_beta   90.13363145
_cell_angle_gamma   90.02013906
_symmetry_Int_Tables_number   1
_chemical_formula_structural   Nd9Ho6Lu5Si16
_chemical_formula_sum   'Nd9 Ho6 Lu5 Si16'
_cell_volume   854.01625280
_cell_formula_units_Z   1
loop_
 _symmetry_equiv_pos_site_id
 _symmetry_equiv_pos_as_xyz
  1  'x, y, z'
loop_
 _atom_site_type_symbol
 _atom_site_label
 _atom_site_symmetry_multiplicity
 _atom_site_fract_x
 _atom_site_fract_y
 _atom_site_fract_z
 _atom_site_occupancy
  Nd  Nd0  1  0.012025  0.862047  0.126337  1
  Nd  Nd1  1  0.639290  0.991236  0.458926  1
  Nd  Nd2  1  0.362009  0.007388  0.955016  1
  Nd  Nd3  1  0.990325  0.641310  0.541348  1
  Nd  Nd4  1  0.491949  0.860025  0.208687  1
  Nd  Nd5  1  0.508641  0.139853  0.707113  1
  Nd  Nd6  1  0.860028  0.490294  0.791098  1
  Nd  Nd7  1  0.138715  0.509934  0.293961  1
  Nd  Nd8  1  0.009416  0.360879  0.043096  1
  Ho  Ho9  1  0.489182  0.361395  0.124573  1
  Ho  Ho10  1  0.990690  0.137308  0.624374  1
  Ho  Ho11  1  0.862980  0.008710  0.873763  1
  Ho  Ho12  1  0.136542  0.992491  0.376432  1
  Ho  Ho13  1  0.508563  0.637512  0.624545  1
  Ho  Ho14  1  0.364343  0.489577  0.873220  1
  Lu  Lu15  1  0.636376  0.508269  0.376474  1
  Lu  Lu16  1  0.316140  0.317255  0.500266  1
  Lu  Lu17  1  0.183655  0.815425  0.748681  1
  Lu  Lu18  1  0.813910  0.185877  0.250980  1
  Lu  Lu19  1  0.685093  0.682883  0.000199  1
  Si  Si20  1  0.289309  0.935429  0.562486  1
  Si  Si21  1  0.708575  0.066469  0.061295  1
  Si  Si22  1  0.933386  0.291303  0.437497  1
  Si  Si23  1  0.436202  0.213352  0.314128  1
  Si  Si24  1  0.565870  0.788035  0.811932  1
  Si  Si25  1  0.210745  0.434848  0.686471  1
  Si  Si26  1  0.784711  0.561212  0.190426  1
  Si  Si27  1  0.066335  0.707185  0.934365  1
  Si  Si28  1  0.798490  0.844822  0.689813  1
  Si  Si29  1  0.201797  0.161319  0.195357  1
  Si  Si30  1  0.841566  0.796246  0.314350  1
  Si  Si31  1  0.346252  0.701578  0.440114  1
  Si  Si32  1  0.656150  0.298029  0.940542  1
  Si  Si33  1  0.700680  0.346430  0.558839  1
  Si  Si34  1  0.304559  0.653298  0.055488  1
  Si  Si35  1  0.155501  0.200770  0.807810  1
