# generated using pymatgen
data_U(TaS2)4
_symmetry_space_group_name_H-M   'P 1'
_cell_length_a   6.68320000
_cell_length_b   6.68319915
_cell_length_c   14.10968700
_cell_angle_alpha   90.00000000
_cell_angle_beta   90.00000000
_cell_angle_gamma   120.00000419
_symmetry_Int_Tables_number   1
_chemical_formula_structural   U(TaS2)4
_chemical_formula_sum   'U2 Ta8 S16'
_cell_volume   545.77904098
_cell_formula_units_Z   2
loop_
 _symmetry_equiv_pos_site_id
 _symmetry_equiv_pos_as_xyz
  1  'x, y, z'
loop_
 _atom_site_type_symbol
 _atom_site_label
 _atom_site_symmetry_multiplicity
 _atom_site_fract_x
 _atom_site_fract_y
 _atom_site_fract_z
 _atom_site_occupancy
  U  U0  1  0.000000  0.000000  0.500000  1
  U  U1  1  0.000000  0.000000  0.000000  1
  Ta  Ta2  1  0.504866  0.495134  0.750000  1
  Ta  Ta3  1  0.009731  0.504866  0.250000  1
  Ta  Ta4  1  0.495134  0.990269  0.250000  1
  Ta  Ta5  1  0.504866  0.009731  0.750000  1
  Ta  Ta6  1  0.990269  0.495134  0.750000  1
  Ta  Ta7  1  0.495134  0.504866  0.250000  1
  Ta  Ta8  1  0.000000  0.000000  0.750000  1
  Ta  Ta9  1  0.000000  0.000000  0.250000  1
  S  S10  1  0.831735  0.168265  0.361276  1
  S  S11  1  0.831735  0.663470  0.361276  1
  S  S12  1  0.336530  0.168265  0.361276  1
  S  S13  1  0.663470  0.831735  0.861276  1
  S  S14  1  0.168265  0.336530  0.638724  1
  S  S15  1  0.168265  0.831735  0.861276  1
  S  S16  1  0.168265  0.336530  0.861276  1
  S  S17  1  0.831735  0.168265  0.138724  1
  S  S18  1  0.336530  0.168265  0.138724  1
  S  S19  1  0.663470  0.831735  0.638724  1
  S  S20  1  0.333333  0.666667  0.135592  1
  S  S21  1  0.666667  0.333333  0.635592  1
  S  S22  1  0.666667  0.333333  0.864408  1
  S  S23  1  0.333333  0.666667  0.364408  1
  S  S24  1  0.831735  0.663470  0.138724  1
  S  S25  1  0.168265  0.831735  0.638724  1
