# generated using pymatgen
data_Dy3ThMgIr
_symmetry_space_group_name_H-M   'P 1'
_cell_length_a   9.81309427
_cell_length_b   9.81309447
_cell_length_c   9.81309500
_cell_angle_alpha   60.00000158
_cell_angle_beta   60.00000089
_cell_angle_gamma   59.99999739
_symmetry_Int_Tables_number   1
_chemical_formula_structural   Dy3ThMgIr
_chemical_formula_sum   'Dy12 Th4 Mg4 Ir4'
_cell_volume   668.19459040
_cell_formula_units_Z   4
loop_
 _symmetry_equiv_pos_site_id
 _symmetry_equiv_pos_as_xyz
  1  'x, y, z'
loop_
 _atom_site_type_symbol
 _atom_site_label
 _atom_site_symmetry_multiplicity
 _atom_site_fract_x
 _atom_site_fract_y
 _atom_site_fract_z
 _atom_site_occupancy
  Dy  Dy0  1  0.812727  0.187273  0.187273  1
  Dy  Dy1  1  0.187273  0.812727  0.812727  1
  Dy  Dy2  1  0.187273  0.812727  0.187273  1
  Dy  Dy3  1  0.812727  0.187273  0.812727  1
  Dy  Dy4  1  0.187273  0.187273  0.812727  1
  Dy  Dy5  1  0.812727  0.812727  0.187273  1
  Dy  Dy6  1  0.935201  0.564799  0.564799  1
  Dy  Dy7  1  0.564799  0.935201  0.935201  1
  Dy  Dy8  1  0.564799  0.935201  0.564799  1
  Dy  Dy9  1  0.935201  0.564799  0.935201  1
  Dy  Dy10  1  0.564799  0.564799  0.935201  1
  Dy  Dy11  1  0.935201  0.935201  0.564799  1
  Th  Th12  1  0.348198  0.348198  0.348198  1
  Th  Th13  1  0.348198  0.348198  0.955404  1
  Th  Th14  1  0.348198  0.955404  0.348198  1
  Th  Th15  1  0.955404  0.348198  0.348198  1
  Mg  Mg16  1  0.580217  0.580217  0.580217  1
  Mg  Mg17  1  0.580217  0.580217  0.259349  1
  Mg  Mg18  1  0.580217  0.259349  0.580217  1
  Mg  Mg19  1  0.259349  0.580217  0.580217  1
  Ir  Ir20  1  0.143457  0.143457  0.143457  1
  Ir  Ir21  1  0.143457  0.143457  0.569631  1
  Ir  Ir22  1  0.143457  0.569631  0.143457  1
  Ir  Ir23  1  0.569631  0.143457  0.143457  1
