# generated using pymatgen
data_La10Sn6Se
_symmetry_space_group_name_H-M   'P 1'
_cell_length_a   9.64151600
_cell_length_b   9.64151928
_cell_length_c   7.00735900
_cell_angle_alpha   90.00000000
_cell_angle_beta   90.00000000
_cell_angle_gamma   119.99999560
_symmetry_Int_Tables_number   1
_chemical_formula_structural   La10Sn6Se
_chemical_formula_sum   'La10 Sn6 Se1'
_cell_volume   564.12561395
_cell_formula_units_Z   1
loop_
 _symmetry_equiv_pos_site_id
 _symmetry_equiv_pos_as_xyz
  1  'x, y, z'
loop_
 _atom_site_type_symbol
 _atom_site_label
 _atom_site_symmetry_multiplicity
 _atom_site_fract_x
 _atom_site_fract_y
 _atom_site_fract_z
 _atom_site_occupancy
  La  La0  1  0.666667  0.333333  0.500000  1
  La  La1  1  0.333333  0.666667  0.500000  1
  La  La2  1  0.333333  0.666667  0.000000  1
  La  La3  1  0.666667  0.333333  0.000000  1
  La  La4  1  0.749014  0.749014  0.245508  1
  La  La5  1  0.250986  0.000000  0.245508  1
  La  La6  1  0.000000  0.250986  0.245508  1
  La  La7  1  0.250986  0.250986  0.754492  1
  La  La8  1  0.749014  0.000000  0.754492  1
  La  La9  1  0.000000  0.749014  0.754492  1
  Sn  Sn10  1  0.392734  0.392734  0.249141  1
  Sn  Sn11  1  0.607266  0.000000  0.249141  1
  Sn  Sn12  1  0.000000  0.607266  0.249141  1
  Sn  Sn13  1  0.607266  0.607266  0.750859  1
  Sn  Sn14  1  0.392734  0.000000  0.750859  1
  Sn  Sn15  1  0.000000  0.392734  0.750859  1
  Se  Se16  1  0.000000  0.000000  0.500000  1
