# generated using pymatgen
data_LuMgScB2Rh5
_symmetry_space_group_name_H-M   'P 1'
_cell_length_a   9.52535894
_cell_length_b   9.52535894
_cell_length_c   3.10254700
_cell_angle_alpha   90.00000000
_cell_angle_beta   90.00000000
_cell_angle_gamma   89.19687221
_symmetry_Int_Tables_number   1
_chemical_formula_structural   LuMgScB2Rh5
_chemical_formula_sum   'Lu2 Mg2 Sc2 B4 Rh10'
_cell_volume   281.47407634
_cell_formula_units_Z   2
loop_
 _symmetry_equiv_pos_site_id
 _symmetry_equiv_pos_as_xyz
  1  'x, y, z'
loop_
 _atom_site_type_symbol
 _atom_site_label
 _atom_site_symmetry_multiplicity
 _atom_site_fract_x
 _atom_site_fract_y
 _atom_site_fract_z
 _atom_site_occupancy
  Lu  Lu0  1  0.676428  0.176428  0.000000  1
  Lu  Lu1  1  0.323572  0.823572  0.000000  1
  Mg  Mg2  1  0.000000  0.000000  0.000000  1
  Mg  Mg3  1  0.500000  0.500000  0.000000  1
  Sc  Sc4  1  0.174847  0.325153  0.000000  1
  Sc  Sc5  1  0.825153  0.674847  0.000000  1
  B  B6  1  0.122849  0.622849  0.000000  1
  B  B7  1  0.877151  0.377151  0.000000  1
  B  B8  1  0.625952  0.874048  0.000000  1
  B  B9  1  0.374048  0.125952  0.000000  1
  Rh  Rh10  1  0.500000  0.000000  0.500000  1
  Rh  Rh11  1  0.000000  0.500000  0.500000  1
  Rh  Rh12  1  0.220190  0.074746  0.500000  1
  Rh  Rh13  1  0.779810  0.925254  0.500000  1
  Rh  Rh14  1  0.066860  0.776494  0.500000  1
  Rh  Rh15  1  0.723506  0.433140  0.500000  1
  Rh  Rh16  1  0.933140  0.223506  0.500000  1
  Rh  Rh17  1  0.276494  0.566860  0.500000  1
  Rh  Rh18  1  0.574746  0.720190  0.500000  1
  Rh  Rh19  1  0.425254  0.279810  0.500000  1
