# generated using pymatgen
data_LuTh4CdPt4
_symmetry_space_group_name_H-M   'P 1'
_cell_length_a   7.97539900
_cell_length_b   7.97539900
_cell_length_c   3.88125600
_cell_angle_alpha   90.00000000
_cell_angle_beta   90.00000000
_cell_angle_gamma   90.00000000
_symmetry_Int_Tables_number   1
_chemical_formula_structural   LuTh4CdPt4
_chemical_formula_sum   'Lu1 Th4 Cd1 Pt4'
_cell_volume   246.87500851
_cell_formula_units_Z   1
loop_
 _symmetry_equiv_pos_site_id
 _symmetry_equiv_pos_as_xyz
  1  'x, y, z'
loop_
 _atom_site_type_symbol
 _atom_site_label
 _atom_site_symmetry_multiplicity
 _atom_site_fract_x
 _atom_site_fract_y
 _atom_site_fract_z
 _atom_site_occupancy
  Lu  Lu0  1  0.000000  0.000000  0.000000  1
  Th  Th1  1  0.335957  0.177459  0.500001  1
  Th  Th2  1  0.822541  0.335957  0.500001  1
  Th  Th3  1  0.177459  0.664043  0.500001  1
  Th  Th4  1  0.664043  0.822541  0.500001  1
  Cd  Cd5  1  0.500000  0.500000  0.000000  1
  Pt  Pt6  1  0.639822  0.126133  0.000000  1
  Pt  Pt7  1  0.126133  0.360178  0.000000  1
  Pt  Pt8  1  0.873867  0.639822  0.000000  1
  Pt  Pt9  1  0.360178  0.873867  0.000000  1
