# generated using pymatgen
data_Tb12OsPdPt2
_symmetry_space_group_name_H-M   'P 1'
_cell_length_a   6.45279153
_cell_length_b   7.16460209
_cell_length_c   9.56655700
_cell_angle_alpha   90.00000000
_cell_angle_beta   90.00000000
_cell_angle_gamma   90.05065106
_symmetry_Int_Tables_number   1
_chemical_formula_structural   Tb12OsPdPt2
_chemical_formula_sum   'Tb12 Os1 Pd1 Pt2'
_cell_volume   442.27786469
_cell_formula_units_Z   1
loop_
 _symmetry_equiv_pos_site_id
 _symmetry_equiv_pos_as_xyz
  1  'x, y, z'
loop_
 _atom_site_type_symbol
 _atom_site_label
 _atom_site_symmetry_multiplicity
 _atom_site_fract_x
 _atom_site_fract_y
 _atom_site_fract_z
 _atom_site_occupancy
  Tb  Tb0  1  0.625743  0.037550  0.250000  1
  Tb  Tb1  1  0.366010  0.969607  0.750000  1
  Tb  Tb2  1  0.131253  0.470874  0.750000  1
  Tb  Tb3  1  0.865803  0.526643  0.250000  1
  Tb  Tb4  1  0.179916  0.183318  0.063187  1
  Tb  Tb5  1  0.826056  0.819879  0.937893  1
  Tb  Tb6  1  0.671757  0.318837  0.943820  1
  Tb  Tb7  1  0.826056  0.819879  0.562107  1
  Tb  Tb8  1  0.327590  0.675674  0.063429  1
  Tb  Tb9  1  0.179916  0.183318  0.436813  1
  Tb  Tb10  1  0.327590  0.675674  0.436571  1
  Tb  Tb11  1  0.671757  0.318837  0.556180  1
  Os  Os12  1  0.450146  0.386926  0.250000  1
  Pd  Pd13  1  0.049306  0.887434  0.250000  1
  Pt  Pt14  1  0.556632  0.611551  0.750000  1
  Pt  Pt15  1  0.944472  0.113996  0.750000  1
