# generated using pymatgen
data_Na3(HO2)2
_symmetry_space_group_name_H-M   'P 1'
_cell_length_a   3.44171131
_cell_length_b   4.76661716
_cell_length_c   12.34629011
_cell_angle_alpha   116.66105076
_cell_angle_beta   91.39452503
_cell_angle_gamma   134.45867178
_symmetry_Int_Tables_number   1
_chemical_formula_structural   Na3(HO2)2
_chemical_formula_sum   'Na3 H2 O4'
_cell_volume   109.48972183
_cell_formula_units_Z   1
loop_
 _symmetry_equiv_pos_site_id
 _symmetry_equiv_pos_as_xyz
  1  'x, y, z'
loop_
 _atom_site_type_symbol
 _atom_site_label
 _atom_site_symmetry_multiplicity
 _atom_site_fract_x
 _atom_site_fract_y
 _atom_site_fract_z
 _atom_site_occupancy
  Na  Na0  1  0.689972  0.896187  0.838459  1
  Na  Na1  1  0.159961  0.876996  0.617592  1
  Na  Na2  1  0.035512  0.395171  0.283303  1
  H  H3  1  0.046844  0.195951  0.495600  1
  H  H4  1  0.974209  0.696731  0.963885  1
  O  O5  1  0.788863  0.639341  0.169405  1
  O  O6  1  0.134924  0.984057  0.316718  1
  O  O7  1  0.974924  0.227840  0.573483  1
  O  O8  1  0.747046  0.447728  0.860296  1
