# generated using pymatgen
data_Sm2ErSn3Hg2
_symmetry_space_group_name_H-M   'P 1'
_cell_length_a   6.48274099
_cell_length_b   6.48274218
_cell_length_c   10.27239900
_cell_angle_alpha   90.00000000
_cell_angle_beta   90.00000000
_cell_angle_gamma   102.82366881
_symmetry_Int_Tables_number   1
_chemical_formula_structural   Sm2ErSn3Hg2
_chemical_formula_sum   'Sm4 Er2 Sn6 Hg4'
_cell_volume   420.93945874
_cell_formula_units_Z   2
loop_
 _symmetry_equiv_pos_site_id
 _symmetry_equiv_pos_as_xyz
  1  'x, y, z'
loop_
 _atom_site_type_symbol
 _atom_site_label
 _atom_site_symmetry_multiplicity
 _atom_site_fract_x
 _atom_site_fract_y
 _atom_site_fract_z
 _atom_site_occupancy
  Sm  Sm0  1  0.795511  0.204489  0.000000  1
  Sm  Sm1  1  0.204489  0.795511  0.000000  1
  Sm  Sm2  1  0.204489  0.795511  0.500000  1
  Sm  Sm3  1  0.795511  0.204489  0.500000  1
  Er  Er4  1  0.626229  0.626229  0.250000  1
  Er  Er5  1  0.373771  0.373771  0.750000  1
  Sn  Sn6  1  0.065556  0.495628  0.250000  1
  Sn  Sn7  1  0.934444  0.504372  0.750000  1
  Sn  Sn8  1  0.495628  0.065556  0.250000  1
  Sn  Sn9  1  0.504372  0.934444  0.750000  1
  Sn  Sn10  1  0.013544  0.013544  0.250000  1
  Sn  Sn11  1  0.986456  0.986456  0.750000  1
  Hg  Hg12  1  0.314581  0.314581  0.039127  1
  Hg  Hg13  1  0.685419  0.685419  0.960873  1
  Hg  Hg14  1  0.685419  0.685419  0.539127  1
  Hg  Hg15  1  0.314581  0.314581  0.460873  1
