# generated using pymatgen
data_Ba2AsP3Ir4
_symmetry_space_group_name_H-M   'P 1'
_cell_length_a   7.07826045
_cell_length_b   7.07826021
_cell_length_c   5.66862800
_cell_angle_alpha   90.00000000
_cell_angle_beta   90.00000000
_cell_angle_gamma   132.75018856
_symmetry_Int_Tables_number   1
_chemical_formula_structural   Ba2AsP3Ir4
_chemical_formula_sum   'Ba2 As1 P3 Ir4'
_cell_volume   208.55304748
_cell_formula_units_Z   1
loop_
 _symmetry_equiv_pos_site_id
 _symmetry_equiv_pos_as_xyz
  1  'x, y, z'
loop_
 _atom_site_type_symbol
 _atom_site_label
 _atom_site_symmetry_multiplicity
 _atom_site_fract_x
 _atom_site_fract_y
 _atom_site_fract_z
 _atom_site_occupancy
  Ba  Ba0  1  0.498878  0.501122  0.500000  1
  Ba  Ba1  1  0.989024  0.010976  0.000000  1
  As  As2  1  0.130822  0.869178  0.500000  1
  P  P3  1  0.657897  0.342103  0.000000  1
  P  P4  1  0.352456  0.647544  0.000000  1
  P  P5  1  0.847083  0.152917  0.500000  1
  Ir  Ir6  1  0.499296  0.994425  0.250694  1
  Ir  Ir7  1  0.005575  0.500704  0.749306  1
  Ir  Ir8  1  0.005575  0.500704  0.250694  1
  Ir  Ir9  1  0.499296  0.994425  0.749306  1
