# generated using pymatgen
data_La10Zn4RuRh5
_symmetry_space_group_name_H-M   'P 1'
_cell_length_a   8.65472121
_cell_length_b   8.65472069
_cell_length_c   8.62788685
_cell_angle_alpha   109.36838192
_cell_angle_beta   109.50104143
_cell_angle_gamma   109.66979018
_symmetry_Int_Tables_number   1
_chemical_formula_structural   La10Zn4RuRh5
_chemical_formula_sum   'La10 Zn4 Ru1 Rh5'
_cell_volume   496.72002456
_cell_formula_units_Z   1
loop_
 _symmetry_equiv_pos_site_id
 _symmetry_equiv_pos_as_xyz
  1  'x, y, z'
loop_
 _atom_site_type_symbol
 _atom_site_label
 _atom_site_symmetry_multiplicity
 _atom_site_fract_x
 _atom_site_fract_y
 _atom_site_fract_z
 _atom_site_occupancy
  La  La0  1  0.251297  0.689061  0.443872  1
  La  La1  1  0.745190  0.807425  0.056129  1
  La  La2  1  0.440150  0.251102  0.690832  1
  La  La3  1  0.690327  0.440328  0.250000  1
  La  La4  1  0.060270  0.749317  0.809168  1
  La  La5  1  0.808868  0.058868  0.750000  1
  La  La6  1  0.219236  0.219369  0.219194  1
  La  La7  1  0.500176  0.000042  0.280806  1
  La  La8  1  0.281963  0.501992  0.997821  1
  La  La9  1  0.004170  0.284142  0.502180  1
  Zn  Zn10  1  0.499268  0.998226  0.912315  1
  Zn  Zn11  1  0.585910  0.586951  0.587685  1
  Zn  Zn12  1  0.912366  0.499928  0.000235  1
  Zn  Zn13  1  0.999692  0.912131  0.499766  1
  Ru  Ru14  1  0.371306  0.621306  0.750000  1
  Rh  Rh15  1  0.250159  0.128336  0.878150  1
  Rh  Rh16  1  0.750186  0.372007  0.621849  1
  Rh  Rh17  1  0.877768  0.250325  0.126787  1
  Rh  Rh18  1  0.128167  0.878167  0.250001  1
  Rh  Rh19  1  0.623535  0.750981  0.373212  1
