# generated using pymatgen
data_Ho2Ni5P6Rh5
_symmetry_space_group_name_H-M   'P 1'
_cell_length_a   3.78589100
_cell_length_b   10.64241600
_cell_length_c   12.17568400
_cell_angle_alpha   90.00000000
_cell_angle_beta   90.00000000
_cell_angle_gamma   90.00000000
_symmetry_Int_Tables_number   1
_chemical_formula_structural   Ho2Ni5P6Rh5
_chemical_formula_sum   'Ho4 Ni10 P12 Rh10'
_cell_volume   490.57081221
_cell_formula_units_Z   2
loop_
 _symmetry_equiv_pos_site_id
 _symmetry_equiv_pos_as_xyz
  1  'x, y, z'
loop_
 _atom_site_type_symbol
 _atom_site_label
 _atom_site_symmetry_multiplicity
 _atom_site_fract_x
 _atom_site_fract_y
 _atom_site_fract_z
 _atom_site_occupancy
  Ho  Ho0  1  0.250000  0.590622  0.709541  1
  Ho  Ho1  1  0.250000  0.909378  0.209541  1
  Ho  Ho2  1  0.750000  0.419727  0.293310  1
  Ho  Ho3  1  0.750000  0.080273  0.793310  1
  Ni  Ni4  1  0.750000  0.778863  0.817853  1
  Ni  Ni5  1  0.750000  0.721137  0.317853  1
  Ni  Ni6  1  0.250000  0.885473  0.696349  1
  Ni  Ni7  1  0.250000  0.614527  0.196349  1
  Ni  Ni8  1  0.750000  0.103664  0.300976  1
  Ni  Ni9  1  0.750000  0.396336  0.800976  1
  Ni  Ni10  1  0.250000  0.462233  0.933245  1
  Ni  Ni11  1  0.250000  0.037767  0.433245  1
  Ni  Ni12  1  0.750000  0.533455  0.065919  1
  Ni  Ni13  1  0.750000  0.966545  0.565919  1
  P  P14  1  0.250000  0.422968  0.112943  1
  P  P15  1  0.250000  0.077032  0.612943  1
  P  P16  1  0.750000  0.584874  0.887049  1
  P  P17  1  0.750000  0.915126  0.387049  1
  P  P18  1  0.250000  0.269495  0.874268  1
  P  P19  1  0.250000  0.230505  0.374268  1
  P  P20  1  0.750000  0.724823  0.134427  1
  P  P21  1  0.750000  0.775177  0.634427  1
  P  P22  1  0.250000  0.604571  0.381336  1
  P  P23  1  0.250000  0.895429  0.881336  1
  P  P24  1  0.750000  0.405345  0.615821  1
  P  P25  1  0.750000  0.094655  0.115821  1
  Rh  Rh26  1  0.250000  0.705674  0.982205  1
  Rh  Rh27  1  0.250000  0.794326  0.482205  1
  Rh  Rh28  1  0.750000  0.284565  0.009000  1
  Rh  Rh29  1  0.750000  0.215435  0.509000  1
  Rh  Rh30  1  0.250000  0.413349  0.483012  1
  Rh  Rh31  1  0.250000  0.086651  0.983012  1
  Rh  Rh32  1  0.750000  0.599516  0.518079  1
  Rh  Rh33  1  0.750000  0.900484  0.018079  1
  Rh  Rh34  1  0.250000  0.224687  0.184667  1
  Rh  Rh35  1  0.250000  0.275313  0.684667  1
