# generated using pymatgen
data_PuB2Os2Rh
_symmetry_space_group_name_H-M   'P 1'
_cell_length_a   5.57162856
_cell_length_b   5.57162845
_cell_length_c   2.95693000
_cell_angle_alpha   90.00000000
_cell_angle_beta   90.00000000
_cell_angle_gamma   118.61907752
_symmetry_Int_Tables_number   1
_chemical_formula_structural   PuB2Os2Rh
_chemical_formula_sum   'Pu1 B2 Os2 Rh1'
_cell_volume   80.57727366
_cell_formula_units_Z   1
loop_
 _symmetry_equiv_pos_site_id
 _symmetry_equiv_pos_as_xyz
  1  'x, y, z'
loop_
 _atom_site_type_symbol
 _atom_site_label
 _atom_site_symmetry_multiplicity
 _atom_site_fract_x
 _atom_site_fract_y
 _atom_site_fract_z
 _atom_site_occupancy
  Pu  Pu0  1  0.000000  0.000000  0.500000  1
  B  B1  1  0.672328  0.327672  0.500000  1
  B  B2  1  0.327672  0.672328  0.500000  1
  Os  Os3  1  0.000000  0.500000  0.000000  1
  Os  Os4  1  0.500000  0.000000  0.000000  1
  Rh  Rh5  1  0.500000  0.500000  0.000000  1
