# generated using pymatgen
data_SnSe13
_symmetry_space_group_name_H-M   'P 1'
_cell_length_a   15.60634813
_cell_length_b   15.60634840
_cell_length_c   9.01069365
_cell_angle_alpha   82.42060988
_cell_angle_beta   82.42060967
_cell_angle_gamma   14.91743091
_symmetry_Int_Tables_number   1
_chemical_formula_structural   SnSe13
_chemical_formula_sum   'Sn1 Se13'
_cell_volume   559.93490951
_cell_formula_units_Z   1
loop_
 _symmetry_equiv_pos_site_id
 _symmetry_equiv_pos_as_xyz
  1  'x, y, z'
loop_
 _atom_site_type_symbol
 _atom_site_label
 _atom_site_symmetry_multiplicity
 _atom_site_fract_x
 _atom_site_fract_y
 _atom_site_fract_z
 _atom_site_occupancy
  Sn  Sn0  1  0.500000  0.500000  0.500000  1
  Se  Se1  1  0.000000  0.000000  0.000000  1
  Se  Se2  1  0.345074  0.345074  0.902687  1
  Se  Se3  1  0.654926  0.654926  0.097313  1
  Se  Se4  1  0.343191  0.343191  0.335092  1
  Se  Se5  1  0.656809  0.656809  0.664908  1
  Se  Se6  1  0.522867  0.522867  0.824191  1
  Se  Se7  1  0.477133  0.477133  0.175809  1
  Se  Se8  1  0.175696  0.175696  0.191257  1
  Se  Se9  1  0.824304  0.824304  0.808743  1
  Se  Se10  1  0.047492  0.047492  0.612516  1
  Se  Se11  1  0.952508  0.952508  0.387484  1
  Se  Se12  1  0.191595  0.191595  0.604880  1
  Se  Se13  1  0.808405  0.808405  0.395120  1
