# generated using pymatgen
data_Dy3Er4Tm(CdPt)2
_symmetry_space_group_name_H-M   'P 1'
_cell_length_a   9.63095153
_cell_length_b   9.63095153
_cell_length_c   9.62625000
_cell_angle_alpha   60.01614033
_cell_angle_beta   60.01614031
_cell_angle_gamma   59.96771390
_symmetry_Int_Tables_number   1
_chemical_formula_structural   Dy3Er4Tm(CdPt)2
_chemical_formula_sum   'Dy6 Er8 Tm2 Cd4 Pt4'
_cell_volume   631.36471713
_cell_formula_units_Z   2
loop_
 _symmetry_equiv_pos_site_id
 _symmetry_equiv_pos_as_xyz
  1  'x, y, z'
loop_
 _atom_site_type_symbol
 _atom_site_label
 _atom_site_symmetry_multiplicity
 _atom_site_fract_x
 _atom_site_fract_y
 _atom_site_fract_z
 _atom_site_occupancy
  Dy  Dy0  1  0.935878  0.564122  0.564122  1
  Dy  Dy1  1  0.564122  0.935878  0.935878  1
  Dy  Dy2  1  0.564122  0.935878  0.564122  1
  Dy  Dy3  1  0.935878  0.564121  0.935878  1
  Dy  Dy4  1  0.564165  0.564165  0.935835  1
  Dy  Dy5  1  0.935835  0.935835  0.564164  1
  Er  Er6  1  0.352126  0.352126  0.352538  1
  Er  Er7  1  0.352126  0.352126  0.943212  1
  Er  Er8  1  0.352538  0.943212  0.352126  1
  Er  Er9  1  0.943212  0.352538  0.352126  1
  Er  Er10  1  0.810937  0.189063  0.189063  1
  Er  Er11  1  0.189063  0.810937  0.810937  1
  Er  Er12  1  0.189063  0.810937  0.189063  1
  Er  Er13  1  0.810937  0.189063  0.810937  1
  Tm  Tm14  1  0.189085  0.189085  0.810915  1
  Tm  Tm15  1  0.810915  0.810915  0.189085  1
  Cd  Cd16  1  0.581603  0.581603  0.581499  1
  Cd  Cd17  1  0.581603  0.581603  0.255295  1
  Cd  Cd18  1  0.581499  0.255295  0.581603  1
  Cd  Cd19  1  0.255295  0.581499  0.581603  1
  Pt  Pt20  1  0.143478  0.143478  0.142700  1
  Pt  Pt21  1  0.143478  0.143478  0.570347  1
  Pt  Pt22  1  0.142700  0.570347  0.143478  1
  Pt  Pt23  1  0.570347  0.142700  0.143478  1
