# generated using pymatgen
data_Zr6V7FeRe4
_symmetry_space_group_name_H-M   'P 1'
_cell_length_a   5.21785618
_cell_length_b   5.22341168
_cell_length_c   12.79535141
_cell_angle_alpha   90.04762641
_cell_angle_beta   89.54534890
_cell_angle_gamma   119.94234229
_symmetry_Int_Tables_number   1
_chemical_formula_structural   Zr6V7FeRe4
_chemical_formula_sum   'Zr6 V7 Fe1 Re4'
_cell_volume   302.17931744
_cell_formula_units_Z   1
loop_
 _symmetry_equiv_pos_site_id
 _symmetry_equiv_pos_as_xyz
  1  'x, y, z'
loop_
 _atom_site_type_symbol
 _atom_site_label
 _atom_site_symmetry_multiplicity
 _atom_site_fract_x
 _atom_site_fract_y
 _atom_site_fract_z
 _atom_site_occupancy
  Zr  Zr0  1  0.334661  0.665397  0.916617  1
  Zr  Zr1  1  0.001048  0.002071  0.252668  1
  Zr  Zr2  1  0.668364  0.336011  0.580070  1
  Zr  Zr3  1  0.331791  0.665326  0.662983  1
  Zr  Zr4  1  0.000419  0.999419  0.001107  1
  Zr  Zr5  1  0.664071  0.331857  0.336439  1
  V  V6  1  0.833508  0.665639  0.789595  1
  V  V7  1  0.329022  0.661744  0.297229  1
  V  V8  1  0.002340  0.006355  0.621294  1
  V  V9  1  0.668085  0.331175  0.956838  1
  V  V10  1  0.001428  0.501256  0.126186  1
  V  V11  1  0.665644  0.834009  0.458994  1
  V  V12  1  0.332814  0.164524  0.790069  1
  Fe  Fe13  1  0.166936  0.334417  0.457823  1
  Re  Re14  1  0.500383  0.500034  0.126937  1
  Re  Re15  1  0.166137  0.835600  0.458603  1
  Re  Re16  1  0.833240  0.165166  0.789609  1
  Re  Re17  1  0.500108  0.000000  0.126936  1
