# generated using pymatgen
data_DyHo6ErC10
_symmetry_space_group_name_H-M   'P 1'
_cell_length_a   3.65083600
_cell_length_b   6.54741574
_cell_length_c   11.88233357
_cell_angle_alpha   90.07120415
_cell_angle_beta   90.00000000
_cell_angle_gamma   90.00000000
_symmetry_Int_Tables_number   1
_chemical_formula_structural   DyHo6ErC10
_chemical_formula_sum   'Dy1 Ho6 Er1 C10'
_cell_volume   284.02962937
_cell_formula_units_Z   1
loop_
 _symmetry_equiv_pos_site_id
 _symmetry_equiv_pos_as_xyz
  1  'x, y, z'
loop_
 _atom_site_type_symbol
 _atom_site_label
 _atom_site_symmetry_multiplicity
 _atom_site_fract_x
 _atom_site_fract_y
 _atom_site_fract_z
 _atom_site_occupancy
  Dy  Dy0  1  0.500000  0.893777  0.197001  1
  Ho  Ho1  1  0.500000  0.391614  0.303929  1
  Ho  Ho2  1  0.500000  0.606229  0.696693  1
  Ho  Ho3  1  0.500000  0.108252  0.803773  1
  Ho  Ho4  1  0.000000  0.750249  0.956160  1
  Ho  Ho5  1  0.000000  0.262624  0.542032  1
  Ho  Ho6  1  0.000000  0.750106  0.456303  1
  Er  Er7  1  0.000000  0.236851  0.041722  1
  C  C8  1  0.500000  0.990214  0.000213  1
  C  C9  1  0.500000  0.511344  0.500772  1
  C  C10  1  0.000000  0.137133  0.234454  1
  C  C11  1  0.000000  0.856281  0.762447  1
  C  C12  1  0.000000  0.364509  0.735550  1
  C  C13  1  0.000000  0.642176  0.262243  1
  C  C14  1  0.000000  0.113326  0.346254  1
  C  C15  1  0.000000  0.923590  0.656605  1
  C  C16  1  0.000000  0.386982  0.847511  1
  C  C17  1  0.000000  0.574745  0.156336  1
