# generated using pymatgen
data_Rb(TiS2)8
_symmetry_space_group_name_H-M   'P 1'
_cell_length_a   6.85081900
_cell_length_b   6.85081936
_cell_length_c   15.84859300
_cell_angle_alpha   90.00000000
_cell_angle_beta   90.00000000
_cell_angle_gamma   119.99999341
_symmetry_Int_Tables_number   1
_chemical_formula_structural   Rb(TiS2)8
_chemical_formula_sum   'Rb1 Ti8 S16'
_cell_volume   644.17873366
_cell_formula_units_Z   1
loop_
 _symmetry_equiv_pos_site_id
 _symmetry_equiv_pos_as_xyz
  1  'x, y, z'
loop_
 _atom_site_type_symbol
 _atom_site_label
 _atom_site_symmetry_multiplicity
 _atom_site_fract_x
 _atom_site_fract_y
 _atom_site_fract_z
 _atom_site_occupancy
  Rb  Rb0  1  0.000000  0.000000  0.000000  1
  Ti  Ti1  1  0.500355  0.499645  0.734454  1
  Ti  Ti2  1  0.499645  0.500355  0.265546  1
  Ti  Ti3  1  0.500355  0.000709  0.734454  1
  Ti  Ti4  1  0.499645  0.999291  0.265546  1
  Ti  Ti5  1  0.999291  0.499645  0.734454  1
  Ti  Ti6  1  0.000709  0.500355  0.265546  1
  Ti  Ti7  1  0.000000  0.000000  0.732134  1
  Ti  Ti8  1  0.000000  0.000000  0.267866  1
  S  S9  1  0.833490  0.666981  0.175319  1
  S  S10  1  0.832798  0.665598  0.645239  1
  S  S11  1  0.833490  0.166510  0.175319  1
  S  S12  1  0.832798  0.167202  0.645239  1
  S  S13  1  0.333333  0.666667  0.174547  1
  S  S14  1  0.333333  0.666667  0.645916  1
  S  S15  1  0.333019  0.166510  0.175319  1
  S  S16  1  0.334402  0.167202  0.645239  1
  S  S17  1  0.666981  0.833490  0.824681  1
  S  S18  1  0.665598  0.832798  0.354761  1
  S  S19  1  0.666667  0.333333  0.825453  1
  S  S20  1  0.666667  0.333333  0.354084  1
  S  S21  1  0.166510  0.833490  0.824681  1
  S  S22  1  0.167202  0.832798  0.354761  1
  S  S23  1  0.166510  0.333019  0.824681  1
  S  S24  1  0.167202  0.334402  0.354761  1
