# generated using pymatgen
data_Ti19ReSi16
_symmetry_space_group_name_H-M   'P 1'
_cell_length_a   6.68848577
_cell_length_b   6.68848577
_cell_length_c   12.18266247
_cell_angle_alpha   89.91651559
_cell_angle_beta   90.08348441
_cell_angle_gamma   90.00057865
_symmetry_Int_Tables_number   1
_chemical_formula_structural   Ti19ReSi16
_chemical_formula_sum   'Ti19 Re1 Si16'
_cell_volume   545.00050568
_cell_formula_units_Z   1
loop_
 _symmetry_equiv_pos_site_id
 _symmetry_equiv_pos_as_xyz
  1  'x, y, z'
loop_
 _atom_site_type_symbol
 _atom_site_label
 _atom_site_symmetry_multiplicity
 _atom_site_fract_x
 _atom_site_fract_y
 _atom_site_fract_z
 _atom_site_occupancy
  Ti  Ti0  1  0.996157  0.148023  0.622987  1
  Ti  Ti1  1  0.350943  0.496999  0.871155  1
  Ti  Ti2  1  0.649304  0.504467  0.371441  1
  Ti  Ti3  1  0.496999  0.350943  0.128845  1
  Ti  Ti4  1  0.504467  0.649304  0.628559  1
  Ti  Ti5  1  0.005236  0.850162  0.120513  1
  Ti  Ti6  1  0.148023  0.996157  0.377013  1
  Ti  Ti7  1  0.850162  0.005236  0.879487  1
  Ti  Ti8  1  0.002836  0.346017  0.219225  1
  Ti  Ti9  1  0.154761  0.502433  0.468791  1
  Ti  Ti10  1  0.841487  0.498311  0.969908  1
  Ti  Ti11  1  0.502433  0.154761  0.531209  1
  Ti  Ti12  1  0.498311  0.841487  0.030092  1
  Ti  Ti13  1  0.997343  0.657088  0.719996  1
  Ti  Ti14  1  0.346017  0.002836  0.780775  1
  Ti  Ti15  1  0.657088  0.997343  0.280004  1
  Ti  Ti16  1  0.328955  0.670572  0.248554  1
  Ti  Ti17  1  0.670572  0.328955  0.751446  1
  Ti  Ti18  1  0.828927  0.828927  0.500000  1
  Re  Re19  1  0.172124  0.172124  0.000000  1
  Si  Si20  1  0.045285  0.300856  0.814527  1
  Si  Si21  1  0.198866  0.541585  0.063294  1
  Si  Si22  1  0.801445  0.454836  0.563989  1
  Si  Si23  1  0.541585  0.198866  0.936706  1
  Si  Si24  1  0.454836  0.801445  0.436011  1
  Si  Si25  1  0.955572  0.698504  0.313474  1
  Si  Si26  1  0.300856  0.045285  0.185473  1
  Si  Si27  1  0.698504  0.955572  0.686526  1
  Si  Si28  1  0.295000  0.357126  0.673253  1
  Si  Si29  1  0.141963  0.795173  0.921608  1
  Si  Si30  1  0.857263  0.205548  0.423700  1
  Si  Si31  1  0.795173  0.141963  0.078392  1
  Si  Si32  1  0.205548  0.857263  0.576300  1
  Si  Si33  1  0.705843  0.642989  0.172913  1
  Si  Si34  1  0.357126  0.295000  0.326747  1
  Si  Si35  1  0.642989  0.705843  0.827087  1
