# generated using pymatgen
data_CaAc2Sn5
_symmetry_space_group_name_H-M   'P 1'
_cell_length_a   6.81260593
_cell_length_b   6.81260503
_cell_length_c   10.84558000
_cell_angle_alpha   90.00000000
_cell_angle_beta   90.00000000
_cell_angle_gamma   102.02745060
_symmetry_Int_Tables_number   1
_chemical_formula_structural   CaAc2Sn5
_chemical_formula_sum   'Ca2 Ac4 Sn10'
_cell_volume   492.31081461
_cell_formula_units_Z   2
loop_
 _symmetry_equiv_pos_site_id
 _symmetry_equiv_pos_as_xyz
  1  'x, y, z'
loop_
 _atom_site_type_symbol
 _atom_site_label
 _atom_site_symmetry_multiplicity
 _atom_site_fract_x
 _atom_site_fract_y
 _atom_site_fract_z
 _atom_site_occupancy
  Ca  Ca0  1  0.631292  0.631292  0.250000  1
  Ca  Ca1  1  0.368708  0.368708  0.750000  1
  Ac  Ac2  1  0.796616  0.203384  0.000000  1
  Ac  Ac3  1  0.203384  0.796616  0.000000  1
  Ac  Ac4  1  0.203384  0.796616  0.500000  1
  Ac  Ac5  1  0.796616  0.203384  0.500000  1
  Sn  Sn6  1  0.075310  0.488751  0.250000  1
  Sn  Sn7  1  0.924691  0.511249  0.750000  1
  Sn  Sn8  1  0.488751  0.075309  0.250000  1
  Sn  Sn9  1  0.511249  0.924691  0.750000  1
  Sn  Sn10  1  0.024184  0.024184  0.250000  1
  Sn  Sn11  1  0.975816  0.975816  0.750000  1
  Sn  Sn12  1  0.319333  0.319333  0.043882  1
  Sn  Sn13  1  0.680667  0.680667  0.956118  1
  Sn  Sn14  1  0.680667  0.680667  0.543882  1
  Sn  Sn15  1  0.319333  0.319333  0.456118  1
