# generated using pymatgen
data_Dy5Al2SiC4
_symmetry_space_group_name_H-M   'P 1'
_cell_length_a   10.75817200
_cell_length_b   10.75817200
_cell_length_c   3.51859500
_cell_angle_alpha   90.00000000
_cell_angle_beta   90.00000000
_cell_angle_gamma   90.00000000
_symmetry_Int_Tables_number   1
_chemical_formula_structural   Dy5Al2SiC4
_chemical_formula_sum   'Dy10 Al4 Si2 C8'
_cell_volume   407.23607977
_cell_formula_units_Z   2
loop_
 _symmetry_equiv_pos_site_id
 _symmetry_equiv_pos_as_xyz
  1  'x, y, z'
loop_
 _atom_site_type_symbol
 _atom_site_label
 _atom_site_symmetry_multiplicity
 _atom_site_fract_x
 _atom_site_fract_y
 _atom_site_fract_z
 _atom_site_occupancy
  Dy  Dy0  1  0.550768  0.724605  0.500000  1
  Dy  Dy1  1  0.449232  0.275395  0.500000  1
  Dy  Dy2  1  0.050768  0.775395  0.500000  1
  Dy  Dy3  1  0.949232  0.224605  0.500000  1
  Dy  Dy4  1  0.275395  0.550768  0.500000  1
  Dy  Dy5  1  0.724605  0.449232  0.500000  1
  Dy  Dy6  1  0.224605  0.050768  0.500000  1
  Dy  Dy7  1  0.775395  0.949232  0.500000  1
  Dy  Dy8  1  0.500000  0.000000  0.000000  1
  Dy  Dy9  1  0.000000  0.500000  0.000000  1
  Al  Al10  1  0.703725  0.203725  0.000000  1
  Al  Al11  1  0.296275  0.796275  0.000000  1
  Al  Al12  1  0.203725  0.296275  0.000000  1
  Al  Al13  1  0.796275  0.703725  0.000000  1
  Si  Si14  1  0.500000  0.500000  0.000000  1
  Si  Si15  1  0.000000  0.000000  0.000000  1
  C  C16  1  0.633856  0.133856  0.500000  1
  C  C17  1  0.366144  0.866144  0.500000  1
  C  C18  1  0.133856  0.366144  0.500000  1
  C  C19  1  0.866144  0.633856  0.500000  1
  C  C20  1  0.163073  0.663073  0.000000  1
  C  C21  1  0.836927  0.336927  0.000000  1
  C  C22  1  0.663073  0.836927  0.000000  1
  C  C23  1  0.336927  0.163073  0.000000  1
