# generated using pymatgen
data_Ba2AlGaI
_symmetry_space_group_name_H-M   'P 1'
_cell_length_a   4.60339500
_cell_length_b   4.60339610
_cell_length_c   19.70333400
_cell_angle_alpha   90.00000000
_cell_angle_beta   90.00000000
_cell_angle_gamma   119.99999925
_symmetry_Int_Tables_number   1
_chemical_formula_structural   Ba2AlGaI
_chemical_formula_sum   'Ba4 Al2 Ga2 I2'
_cell_volume   361.59876773
_cell_formula_units_Z   2
loop_
 _symmetry_equiv_pos_site_id
 _symmetry_equiv_pos_as_xyz
  1  'x, y, z'
loop_
 _atom_site_type_symbol
 _atom_site_label
 _atom_site_symmetry_multiplicity
 _atom_site_fract_x
 _atom_site_fract_y
 _atom_site_fract_z
 _atom_site_occupancy
  Ba  Ba0  1  0.000000  0.000000  0.619731  1
  Ba  Ba1  1  0.000000  0.000000  0.381550  1
  Ba  Ba2  1  0.000000  0.000000  0.119731  1
  Ba  Ba3  1  0.000000  0.000000  0.881550  1
  Al  Al4  1  0.666667  0.333333  0.504675  1
  Al  Al5  1  0.333333  0.666667  0.004675  1
  Ga  Ga6  1  0.666667  0.333333  0.993677  1
  Ga  Ga7  1  0.333333  0.666667  0.493677  1
  I  I8  1  0.666667  0.333333  0.250368  1
  I  I9  1  0.333333  0.666667  0.750368  1
