# generated using pymatgen
data_Ho3Lu13(InRu)4
_symmetry_space_group_name_H-M   'P 1'
_cell_length_a   9.48613593
_cell_length_b   9.49414424
_cell_length_c   9.46535288
_cell_angle_alpha   60.04435968
_cell_angle_beta   59.82312373
_cell_angle_gamma   59.82725057
_symmetry_Int_Tables_number   1
_chemical_formula_structural   Ho3Lu13(InRu)4
_chemical_formula_sum   'Ho3 Lu13 In4 Ru4'
_cell_volume   601.39385520
_cell_formula_units_Z   1
loop_
 _symmetry_equiv_pos_site_id
 _symmetry_equiv_pos_as_xyz
  1  'x, y, z'
loop_
 _atom_site_type_symbol
 _atom_site_label
 _atom_site_symmetry_multiplicity
 _atom_site_fract_x
 _atom_site_fract_y
 _atom_site_fract_z
 _atom_site_occupancy
  Ho  Ho0  1  0.192586  0.807414  0.192586  1
  Ho  Ho1  1  0.810304  0.811460  0.188337  1
  Ho  Ho2  1  0.188337  0.189898  0.810304  1
  Lu  Lu3  1  0.600569  0.597451  0.596573  1
  Lu  Lu4  1  0.599463  0.599973  0.204629  1
  Lu  Lu5  1  0.596573  0.205407  0.600569  1
  Lu  Lu6  1  0.204629  0.595933  0.599463  1
  Lu  Lu7  1  0.059384  0.440258  0.440024  1
  Lu  Lu8  1  0.440024  0.060334  0.059384  1
  Lu  Lu9  1  0.440421  0.059579  0.440421  1
  Lu  Lu10  1  0.059298  0.440702  0.059298  1
  Lu  Lu11  1  0.441448  0.441107  0.058418  1
  Lu  Lu12  1  0.058418  0.059028  0.441448  1
  Lu  Lu13  1  0.194242  0.805241  0.805016  1
  Lu  Lu14  1  0.805016  0.195500  0.194242  1
  Lu  Lu15  1  0.807518  0.192482  0.807518  1
  In  In16  1  0.833052  0.833780  0.832933  1
  In  In17  1  0.831964  0.832860  0.502329  1
  In  In18  1  0.832933  0.500236  0.833052  1
  In  In19  1  0.502329  0.832846  0.831964  1
  Ru  Ru20  1  0.393069  0.389407  0.388196  1
  Ru  Ru21  1  0.391179  0.392697  0.829048  1
  Ru  Ru22  1  0.388196  0.829329  0.393069  1
  Ru  Ru23  1  0.829048  0.387077  0.391179  1
