# generated using pymatgen
data_Tb4Er7(Sc3Bi4)3
_symmetry_space_group_name_H-M   'P 1'
_cell_length_a   8.00138027
_cell_length_b   9.23258398
_cell_length_c   11.82976800
_cell_angle_alpha   90.04987620
_cell_angle_beta   89.89563220
_cell_angle_gamma   89.98165338
_symmetry_Int_Tables_number   1
_chemical_formula_structural   Tb4Er7(Sc3Bi4)3
_chemical_formula_sum   'Tb4 Er7 Sc9 Bi12'
_cell_volume   873.90353829
_cell_formula_units_Z   1
loop_
 _symmetry_equiv_pos_site_id
 _symmetry_equiv_pos_as_xyz
  1  'x, y, z'
loop_
 _atom_site_type_symbol
 _atom_site_label
 _atom_site_symmetry_multiplicity
 _atom_site_fract_x
 _atom_site_fract_y
 _atom_site_fract_z
 _atom_site_occupancy
  Tb  Tb0  1  0.318347  0.251910  0.220112  1
  Tb  Tb1  1  0.817932  0.249776  0.281334  1
  Tb  Tb2  1  0.682074  0.750215  0.780818  1
  Tb  Tb3  1  0.182821  0.749657  0.718798  1
  Er  Er4  1  0.352521  0.750199  0.218727  1
  Er  Er5  1  0.852200  0.752582  0.282130  1
  Er  Er6  1  0.650176  0.251880  0.780348  1
  Er  Er7  1  0.147495  0.251371  0.717683  1
  Er  Er8  1  0.692250  0.561969  0.061024  1
  Er  Er9  1  0.188907  0.937804  0.440543  1
  Er  Er10  1  0.308171  0.062083  0.939036  1
  Sc  Sc11  1  0.806925  0.433488  0.559823  1
  Sc  Sc12  1  0.309103  0.428847  0.941664  1
  Sc  Sc13  1  0.808682  0.068938  0.557990  1
  Sc  Sc14  1  0.691079  0.928568  0.058416  1
  Sc  Sc15  1  0.191430  0.570494  0.441650  1
  Sc  Sc16  1  0.482581  0.251135  0.490167  1
  Sc  Sc17  1  0.980946  0.251173  0.009870  1
  Sc  Sc18  1  0.518944  0.749410  0.510531  1
  Sc  Sc19  1  0.019094  0.751343  0.988862  1
  Bi  Bi20  1  0.398787  0.742002  0.960087  1
  Bi  Bi21  1  0.896661  0.748299  0.540905  1
  Bi  Bi22  1  0.601321  0.241614  0.039541  1
  Bi  Bi23  1  0.097048  0.260245  0.461494  1
  Bi  Bi24  1  0.567258  0.995727  0.332679  1
  Bi  Bi25  1  0.067722  0.505952  0.167973  1
  Bi  Bi26  1  0.434962  0.494933  0.667273  1
  Bi  Bi27  1  0.932096  0.005534  0.830926  1
  Bi  Bi28  1  0.437122  0.005916  0.666654  1
  Bi  Bi29  1  0.936699  0.495413  0.831843  1
  Bi  Bi30  1  0.564919  0.505352  0.334660  1
  Bi  Bi31  1  0.063724  0.996166  0.166442  1
