# generated using pymatgen
data_Pr2NdCd(Mo2O7)2
_symmetry_space_group_name_H-M   'P 1'
_cell_length_a   7.40505780
_cell_length_b   7.60344531
_cell_length_c   7.57444417
_cell_angle_alpha   120.38439592
_cell_angle_beta   120.00996432
_cell_angle_gamma   90.33067950
_symmetry_Int_Tables_number   1
_chemical_formula_structural   Pr2NdCd(Mo2O7)2
_chemical_formula_sum   'Pr2 Nd1 Cd1 Mo4 O14'
_cell_volume   298.85360027
_cell_formula_units_Z   1
loop_
 _symmetry_equiv_pos_site_id
 _symmetry_equiv_pos_as_xyz
  1  'x, y, z'
loop_
 _atom_site_type_symbol
 _atom_site_label
 _atom_site_symmetry_multiplicity
 _atom_site_fract_x
 _atom_site_fract_y
 _atom_site_fract_z
 _atom_site_occupancy
  Pr  Pr0  1  0.375000  0.625000  0.750000  1
  Pr  Pr1  1  0.375000  0.125000  0.750000  1
  Nd  Nd2  1  0.375000  0.625000  0.250000  1
  Cd  Cd3  1  0.875000  0.625000  0.250000  1
  Mo  Mo4  1  0.875000  0.625000  0.750000  1
  Mo  Mo5  1  0.375000  0.125000  0.250000  1
  Mo  Mo6  1  0.875000  0.125000  0.250000  1
  Mo  Mo7  1  0.875000  0.125000  0.750000  1
  O  O8  1  0.790450  0.183578  0.985431  1
  O  O9  1  0.540449  0.461993  0.490139  1
  O  O10  1  0.204445  0.210624  0.001138  1
  O  O11  1  0.953851  0.449703  0.502122  1
  O  O12  1  0.801775  0.810717  0.602920  1
  O  O13  1  0.530428  0.039479  0.076278  1
  O  O14  1  0.235706  0.744022  0.489594  1
  O  O15  1  0.948225  0.439283  0.897080  1
  O  O16  1  0.959550  0.066422  0.514569  1
  O  O17  1  0.545555  0.039376  0.498862  1
  O  O18  1  0.219572  0.210521  0.423722  1
  O  O19  1  0.514294  0.505978  0.010406  1
  O  O20  1  0.796149  0.800297  0.997878  1
  O  O21  1  0.209551  0.788007  0.009861  1
