# generated using pymatgen
data_Y7HoTi11Si16Ag
_symmetry_space_group_name_H-M   'P 1'
_cell_length_a   7.07448046
_cell_length_b   7.07425427
_cell_length_c   12.92153002
_cell_angle_alpha   90.08008250
_cell_angle_beta   89.92692691
_cell_angle_gamma   89.62900718
_symmetry_Int_Tables_number   1
_chemical_formula_structural   Y7HoTi11Si16Ag
_chemical_formula_sum   'Y7 Ho1 Ti11 Si16 Ag1'
_cell_volume   646.66487354
_cell_formula_units_Z   1
loop_
 _symmetry_equiv_pos_site_id
 _symmetry_equiv_pos_as_xyz
  1  'x, y, z'
loop_
 _atom_site_type_symbol
 _atom_site_label
 _atom_site_symmetry_multiplicity
 _atom_site_fract_x
 _atom_site_fract_y
 _atom_site_fract_z
 _atom_site_occupancy
  Y  Y0  1  0.340817  0.002451  0.466611  1
  Y  Y1  1  0.497615  0.840143  0.716759  1
  Y  Y2  1  0.501045  0.158302  0.214514  1
  Y  Y3  1  0.840195  0.497646  0.283193  1
  Y  Y4  1  0.158261  0.501055  0.785548  1
  Y  Y5  1  0.656479  0.000564  0.968341  1
  Y  Y6  1  0.002435  0.340815  0.533374  1
  Ho  Ho7  1  0.000794  0.656334  0.031781  1
  Ti  Ti8  1  0.173851  0.826466  0.249943  1
  Ti  Ti9  1  0.826552  0.173959  0.749980  1
  Ti  Ti10  1  0.672903  0.672918  0.499980  1
  Ti  Ti11  1  0.148091  0.007993  0.877012  1
  Ti  Ti12  1  0.494827  0.650751  0.123578  1
  Ti  Ti13  1  0.508119  0.350321  0.625292  1
  Ti  Ti14  1  0.650873  0.494897  0.876496  1
  Ti  Ti15  1  0.350296  0.508142  0.374683  1
  Ti  Ti16  1  0.849548  0.991945  0.374593  1
  Ti  Ti17  1  0.008128  0.148126  0.123053  1
  Ti  Ti18  1  0.991987  0.849516  0.625390  1
  Si  Si19  1  0.202226  0.131978  0.684552  1
  Si  Si20  1  0.373595  0.718630  0.929585  1
  Si  Si21  1  0.630989  0.294613  0.432906  1
  Si  Si22  1  0.719026  0.374183  0.070475  1
  Si  Si23  1  0.294644  0.630984  0.567047  1
  Si  Si24  1  0.797694  0.867894  0.182815  1
  Si  Si25  1  0.131939  0.202209  0.315452  1
  Si  Si26  1  0.868217  0.797342  0.817153  1
  Si  Si27  1  0.285492  0.937784  0.066186  1
  Si  Si28  1  0.546642  0.791112  0.314445  1
  Si  Si29  1  0.455531  0.207783  0.808767  1
  Si  Si30  1  0.791122  0.546620  0.685565  1
  Si  Si31  1  0.207549  0.455733  0.191090  1
  Si  Si32  1  0.709117  0.047664  0.564290  1
  Si  Si33  1  0.938168  0.286100  0.933896  1
  Si  Si34  1  0.047657  0.709156  0.435648  1
  Ag  Ag35  1  0.327574  0.327870  0.000007  1
