# generated using pymatgen
data_Hf9TiMnIr3
_symmetry_space_group_name_H-M   'P 1'
_cell_length_a   8.48486600
_cell_length_b   8.51685856
_cell_length_c   8.51687800
_cell_angle_alpha   119.99854520
_cell_angle_beta   90.00000000
_cell_angle_gamma   90.00000000
_symmetry_Int_Tables_number   1
_chemical_formula_structural   Hf9TiMnIr3
_chemical_formula_sum   'Hf18 Ti2 Mn2 Ir6'
_cell_volume   533.01796565
_cell_formula_units_Z   2
loop_
 _symmetry_equiv_pos_site_id
 _symmetry_equiv_pos_as_xyz
  1  'x, y, z'
loop_
 _atom_site_type_symbol
 _atom_site_label
 _atom_site_symmetry_multiplicity
 _atom_site_fract_x
 _atom_site_fract_y
 _atom_site_fract_z
 _atom_site_occupancy
  Hf  Hf0  1  0.558765  0.798097  0.596203  1
  Hf  Hf1  1  0.558772  0.798123  0.201875  1
  Hf  Hf2  1  0.558766  0.403798  0.201903  1
  Hf  Hf3  1  0.441235  0.201903  0.403797  1
  Hf  Hf4  1  0.441228  0.201877  0.798125  1
  Hf  Hf5  1  0.441234  0.596202  0.798097  1
  Hf  Hf6  1  0.058765  0.201903  0.403797  1
  Hf  Hf7  1  0.058772  0.201877  0.798125  1
  Hf  Hf8  1  0.058766  0.596202  0.798097  1
  Hf  Hf9  1  0.941235  0.798097  0.596203  1
  Hf  Hf10  1  0.941228  0.798123  0.201875  1
  Hf  Hf11  1  0.941234  0.403798  0.201903  1
  Hf  Hf12  1  0.750000  0.460570  0.921149  1
  Hf  Hf13  1  0.750000  0.460570  0.539431  1
  Hf  Hf14  1  0.750000  0.078849  0.539430  1
  Hf  Hf15  1  0.250000  0.539430  0.078851  1
  Hf  Hf16  1  0.250000  0.539430  0.460569  1
  Hf  Hf17  1  0.250000  0.921151  0.460570  1
  Ti  Ti18  1  0.500000  0.000000  0.000000  1
  Ti  Ti19  1  0.000000  0.000000  0.000000  1
  Mn  Mn20  1  0.750000  0.666687  0.333275  1
  Mn  Mn21  1  0.250000  0.333313  0.666725  1
  Ir  Ir22  1  0.750000  0.113549  0.227089  1
  Ir  Ir23  1  0.750000  0.113555  0.886448  1
  Ir  Ir24  1  0.750000  0.772912  0.886452  1
  Ir  Ir25  1  0.250000  0.886451  0.772911  1
  Ir  Ir26  1  0.250000  0.886445  0.113552  1
  Ir  Ir27  1  0.250000  0.227088  0.113548  1
