# generated using pymatgen
data_Ac2CdGe3
_symmetry_space_group_name_H-M   'P 1'
_cell_length_a   4.64325600
_cell_length_b   7.30577400
_cell_length_c   19.61477500
_cell_angle_alpha   90.00000000
_cell_angle_beta   90.00000000
_cell_angle_gamma   90.00000000
_symmetry_Int_Tables_number   1
_chemical_formula_structural   Ac2CdGe3
_chemical_formula_sum   'Ac8 Cd4 Ge12'
_cell_volume   665.38375372
_cell_formula_units_Z   4
loop_
 _symmetry_equiv_pos_site_id
 _symmetry_equiv_pos_as_xyz
  1  'x, y, z'
loop_
 _atom_site_type_symbol
 _atom_site_label
 _atom_site_symmetry_multiplicity
 _atom_site_fract_x
 _atom_site_fract_y
 _atom_site_fract_z
 _atom_site_occupancy
  Ac  Ac0  1  0.750000  0.826435  0.918924  1
  Ac  Ac1  1  0.250000  0.673565  0.418924  1
  Ac  Ac2  1  0.750000  0.326435  0.581076  1
  Ac  Ac3  1  0.250000  0.173565  0.081076  1
  Ac  Ac4  1  0.750000  0.812245  0.700352  1
  Ac  Ac5  1  0.250000  0.687755  0.200352  1
  Ac  Ac6  1  0.750000  0.312245  0.799648  1
  Ac  Ac7  1  0.250000  0.187755  0.299648  1
  Cd  Cd8  1  0.750000  0.547078  0.064476  1
  Cd  Cd9  1  0.250000  0.952922  0.564476  1
  Cd  Cd10  1  0.750000  0.047078  0.435524  1
  Cd  Cd11  1  0.250000  0.452922  0.935524  1
  Ge  Ge12  1  0.750000  0.758358  0.535666  1
  Ge  Ge13  1  0.250000  0.741642  0.035666  1
  Ge  Ge14  1  0.750000  0.258358  0.964334  1
  Ge  Ge15  1  0.250000  0.241642  0.464334  1
  Ge  Ge16  1  0.750000  0.507317  0.312390  1
  Ge  Ge17  1  0.250000  0.992683  0.812390  1
  Ge  Ge18  1  0.750000  0.007317  0.187610  1
  Ge  Ge19  1  0.250000  0.492683  0.687610  1
  Ge  Ge20  1  0.750000  0.860752  0.308584  1
  Ge  Ge21  1  0.250000  0.639248  0.808584  1
  Ge  Ge22  1  0.750000  0.360752  0.191416  1
  Ge  Ge23  1  0.250000  0.139248  0.691416  1
