# generated using pymatgen
data_TiCo6W
_symmetry_space_group_name_H-M   'P 1'
_cell_length_a   4.11021200
_cell_length_b   5.09409967
_cell_length_c   5.09469208
_cell_angle_alpha   120.02173187
_cell_angle_beta   90.00000000
_cell_angle_gamma   90.00000000
_symmetry_Int_Tables_number   1
_chemical_formula_structural   TiCo6W
_chemical_formula_sum   'Ti1 Co6 W1'
_cell_volume   92.36024734
_cell_formula_units_Z   1
loop_
 _symmetry_equiv_pos_site_id
 _symmetry_equiv_pos_as_xyz
  1  'x, y, z'
loop_
 _atom_site_type_symbol
 _atom_site_label
 _atom_site_symmetry_multiplicity
 _atom_site_fract_x
 _atom_site_fract_y
 _atom_site_fract_z
 _atom_site_occupancy
  Ti  Ti0  1  0.250000  0.333170  0.666698  1
  Co  Co1  1  0.750000  0.159760  0.319255  1
  Co  Co2  1  0.750000  0.159695  0.840389  1
  Co  Co3  1  0.750000  0.680850  0.840333  1
  Co  Co4  1  0.250000  0.839029  0.678163  1
  Co  Co5  1  0.250000  0.839063  0.160878  1
  Co  Co6  1  0.250000  0.321690  0.160872  1
  W  W7  1  0.750000  0.666742  0.333411  1
