# generated using pymatgen
data_Li7Lu8ZnSn8
_symmetry_space_group_name_H-M   'P 1'
_cell_length_a   9.31681200
_cell_length_b   9.30999323
_cell_length_c   7.03972568
_cell_angle_alpha   89.95763606
_cell_angle_beta   90.00000000
_cell_angle_gamma   120.02423814
_symmetry_Int_Tables_number   1
_chemical_formula_structural   Li7Lu8ZnSn8
_chemical_formula_sum   'Li7 Lu8 Zn1 Sn8'
_cell_volume   528.68474941
_cell_formula_units_Z   1
loop_
 _symmetry_equiv_pos_site_id
 _symmetry_equiv_pos_as_xyz
  1  'x, y, z'
loop_
 _atom_site_type_symbol
 _atom_site_label
 _atom_site_symmetry_multiplicity
 _atom_site_fract_x
 _atom_site_fract_y
 _atom_site_fract_z
 _atom_site_occupancy
  Li  Li0  1  0.165521  0.833010  0.283631  1
  Li  Li1  1  0.667488  0.833010  0.283631  1
  Li  Li2  1  0.833146  0.666292  0.787272  1
  Li  Li3  1  0.832023  0.165884  0.783115  1
  Li  Li4  1  0.333862  0.165884  0.783115  1
  Li  Li5  1  0.333743  0.667487  0.688425  1
  Li  Li6  1  0.668115  0.336228  0.184885  1
  Lu  Lu7  1  0.509904  0.019808  0.496734  1
  Lu  Lu8  1  0.510941  0.490572  0.492729  1
  Lu  Lu9  1  0.979632  0.490572  0.492729  1
  Lu  Lu10  1  0.490222  0.980443  0.989425  1
  Lu  Lu11  1  0.487153  0.507671  0.992665  1
  Lu  Lu12  1  0.020518  0.507671  0.992665  1
  Lu  Lu13  1  0.998969  0.997938  0.498184  1
  Lu  Lu14  1  0.001788  0.003577  0.997647  1
  Zn  Zn15  1  0.166850  0.333701  0.306060  1
  Sn  Sn16  1  0.166334  0.332668  0.733848  1
  Sn  Sn17  1  0.165558  0.832942  0.729956  1
  Sn  Sn18  1  0.667384  0.832942  0.729956  1
  Sn  Sn19  1  0.833707  0.667414  0.232255  1
  Sn  Sn20  1  0.831265  0.165589  0.227717  1
  Sn  Sn21  1  0.334324  0.165589  0.227717  1
  Sn  Sn22  1  0.334920  0.669841  0.251443  1
  Sn  Sn23  1  0.666634  0.333267  0.756194  1
