# generated using pymatgen
data_Hf4Sc2Re5Si6Ru
_symmetry_space_group_name_H-M   'P 1'
_cell_length_a   7.73997409
_cell_length_b   7.75756745
_cell_length_c   7.74493851
_cell_angle_alpha   126.63812688
_cell_angle_beta   127.78276060
_cell_angle_gamma   77.86356429
_symmetry_Int_Tables_number   1
_chemical_formula_structural   Hf4Sc2Re5Si6Ru
_chemical_formula_sum   'Hf4 Sc2 Re5 Si6 Ru1'
_cell_volume   285.92807315
_cell_formula_units_Z   1
loop_
 _symmetry_equiv_pos_site_id
 _symmetry_equiv_pos_as_xyz
  1  'x, y, z'
loop_
 _atom_site_type_symbol
 _atom_site_label
 _atom_site_symmetry_multiplicity
 _atom_site_fract_x
 _atom_site_fract_y
 _atom_site_fract_z
 _atom_site_occupancy
  Hf  Hf0  1  0.750070  0.849292  0.600458  1
  Hf  Hf1  1  0.246886  0.847647  0.098901  1
  Hf  Hf2  1  0.050723  0.253622  0.703705  1
  Hf  Hf3  1  0.951627  0.658059  0.208037  1
  Sc  Sc4  1  0.450036  0.657194  0.705337  1
  Sc  Sc5  1  0.549472  0.252648  0.202921  1
  Re  Re6  1  0.500128  0.510368  0.010183  1
  Re  Re7  1  0.999734  0.511267  0.511506  1
  Re  Re8  1  0.124802  0.252496  0.121015  1
  Re  Re9  1  0.875138  0.997412  0.128414  1
  Re  Re10  1  0.369552  0.997378  0.620821  1
  Si  Si11  1  0.253268  0.256262  0.503834  1
  Si  Si12  1  0.748415  0.252651  0.002972  1
  Si  Si13  1  0.332271  0.584785  0.252831  1
  Si  Si14  1  0.666873  0.920225  0.252832  1
  Si  Si15  1  0.167486  0.921251  0.754165  1
  Si  Si16  1  0.832376  0.585125  0.753573  1
  Ru  Ru17  1  0.631146  0.251921  0.628100  1
