# generated using pymatgen
data_Yb8Be3Si12Rh
_symmetry_space_group_name_H-M   'P 1'
_cell_length_a   7.99765400
_cell_length_b   7.99765390
_cell_length_c   8.39611900
_cell_angle_alpha   90.00000000
_cell_angle_beta   90.00000000
_cell_angle_gamma   119.99999213
_symmetry_Int_Tables_number   1
_chemical_formula_structural   Yb8Be3Si12Rh
_chemical_formula_sum   'Yb8 Be3 Si12 Rh1'
_cell_volume   465.08728776
_cell_formula_units_Z   1
loop_
 _symmetry_equiv_pos_site_id
 _symmetry_equiv_pos_as_xyz
  1  'x, y, z'
loop_
 _atom_site_type_symbol
 _atom_site_label
 _atom_site_symmetry_multiplicity
 _atom_site_fract_x
 _atom_site_fract_y
 _atom_site_fract_z
 _atom_site_occupancy
  Yb  Yb0  1  0.000000  0.000000  0.251459  1
  Yb  Yb1  1  0.000000  0.000000  0.748525  1
  Yb  Yb2  1  0.497622  0.502378  0.245501  1
  Yb  Yb3  1  0.497622  0.995245  0.245501  1
  Yb  Yb4  1  0.004755  0.502378  0.245501  1
  Yb  Yb5  1  0.497413  0.502587  0.754548  1
  Yb  Yb6  1  0.497413  0.994826  0.754548  1
  Yb  Yb7  1  0.005174  0.502587  0.754548  1
  Be  Be8  1  0.333333  0.666667  0.499018  1
  Be  Be9  1  0.666667  0.333333  0.500690  1
  Be  Be10  1  0.666667  0.333333  0.999849  1
  Si  Si11  1  0.172192  0.827808  0.499622  1
  Si  Si12  1  0.172192  0.344384  0.499622  1
  Si  Si13  1  0.655616  0.827808  0.499622  1
  Si  Si14  1  0.827750  0.172250  0.499871  1
  Si  Si15  1  0.827750  0.655498  0.499871  1
  Si  Si16  1  0.344502  0.172250  0.499871  1
  Si  Si17  1  0.830833  0.169167  0.000131  1
  Si  Si18  1  0.830833  0.661666  0.000131  1
  Si  Si19  1  0.338334  0.169167  0.000131  1
  Si  Si20  1  0.167978  0.832022  0.000244  1
  Si  Si21  1  0.167978  0.335956  0.000244  1
  Si  Si22  1  0.664044  0.832022  0.000244  1
  Rh  Rh23  1  0.333333  0.666667  0.000708  1
