# generated using pymatgen
data_Gd3ZnHg2IrPd2
_symmetry_space_group_name_H-M   'P 1'
_cell_length_a   7.59236700
_cell_length_b   7.57549599
_cell_length_c   3.93104400
_cell_angle_alpha   90.00000000
_cell_angle_beta   90.00000000
_cell_angle_gamma   120.47038054
_symmetry_Int_Tables_number   1
_chemical_formula_structural   Gd3ZnHg2IrPd2
_chemical_formula_sum   'Gd3 Zn1 Hg2 Ir1 Pd2'
_cell_volume   194.87167946
_cell_formula_units_Z   1
loop_
 _symmetry_equiv_pos_site_id
 _symmetry_equiv_pos_as_xyz
  1  'x, y, z'
loop_
 _atom_site_type_symbol
 _atom_site_label
 _atom_site_symmetry_multiplicity
 _atom_site_fract_x
 _atom_site_fract_y
 _atom_site_fract_z
 _atom_site_occupancy
  Gd  Gd0  1  0.421107  0.407113  0.500000  1
  Gd  Gd1  1  0.601398  0.014016  0.500000  1
  Gd  Gd2  1  0.983374  0.586852  0.500000  1
  Zn  Zn3  1  0.740075  0.739576  0.000000  1
  Hg  Hg4  1  0.254028  0.994555  0.000000  1
  Hg  Hg5  1  0.007569  0.261680  0.000000  1
  Ir  Ir6  1  0.670305  0.350705  0.000000  1
  Pd  Pd7  1  0.351766  0.672701  0.000000  1
  Pd  Pd8  1  0.970379  0.972801  0.500000  1
