# generated using pymatgen
data_Dy3Y4Er3Ru4
_symmetry_space_group_name_H-M   'P 1'
_cell_length_a   6.33367436
_cell_length_b   7.29241863
_cell_length_c   8.47232219
_cell_angle_alpha   96.81145325
_cell_angle_beta   111.95810200
_cell_angle_gamma   89.92087701
_symmetry_Int_Tables_number   1
_chemical_formula_structural   Dy3Y4Er3Ru4
_chemical_formula_sum   'Dy3 Y4 Er3 Ru4'
_cell_volume   359.97669594
_cell_formula_units_Z   1
loop_
 _symmetry_equiv_pos_site_id
 _symmetry_equiv_pos_as_xyz
  1  'x, y, z'
loop_
 _atom_site_type_symbol
 _atom_site_label
 _atom_site_symmetry_multiplicity
 _atom_site_fract_x
 _atom_site_fract_y
 _atom_site_fract_z
 _atom_site_occupancy
  Dy  Dy0  1  0.205328  0.685154  0.566031  1
  Dy  Dy1  1  0.638915  0.815184  0.434412  1
  Dy  Dy2  1  0.795115  0.314721  0.434134  1
  Y  Y3  1  0.790439  0.583403  0.812866  1
  Y  Y4  1  0.977859  0.916495  0.186975  1
  Y  Y5  1  0.209113  0.416219  0.187222  1
  Y  Y6  1  0.022714  0.083884  0.813038  1
  Er  Er7  1  0.361142  0.184715  0.565977  1
  Er  Er8  1  0.420697  0.749633  0.999848  1
  Er  Er9  1  0.579059  0.250293  0.999661  1
  Ru  Ru10  1  0.598145  0.925674  0.778990  1
  Ru  Ru11  1  0.819116  0.575546  0.220525  1
  Ru  Ru12  1  0.401274  0.074977  0.221332  1
  Ru  Ru13  1  0.181086  0.424101  0.778989  1
