# generated using pymatgen
data_YbPrDy5IrBr12
_symmetry_space_group_name_H-M   'P 1'
_cell_length_a   9.29790463
_cell_length_b   9.34335462
_cell_length_c   9.33552000
_cell_angle_alpha   106.82699802
_cell_angle_beta   107.23973906
_cell_angle_gamma   106.76003854
_symmetry_Int_Tables_number   1
_chemical_formula_structural   YbPrDy5IrBr12
_chemical_formula_sum   'Yb1 Pr1 Dy5 Ir1 Br12'
_cell_volume   676.46750160
_cell_formula_units_Z   1
loop_
 _symmetry_equiv_pos_site_id
 _symmetry_equiv_pos_as_xyz
  1  'x, y, z'
loop_
 _atom_site_type_symbol
 _atom_site_label
 _atom_site_symmetry_multiplicity
 _atom_site_fract_x
 _atom_site_fract_y
 _atom_site_fract_z
 _atom_site_occupancy
  Yb  Yb0  1  0.501324  0.497938  0.499470  1
  Pr  Pr1  1  0.683502  0.975369  0.895415  1
  Dy  Dy2  1  0.971930  0.895722  0.684341  1
  Dy  Dy3  1  0.026352  0.104733  0.315792  1
  Dy  Dy4  1  0.106410  0.315909  0.027016  1
  Dy  Dy5  1  0.304883  0.025240  0.102339  1
  Dy  Dy6  1  0.898810  0.687008  0.974444  1
  Ir  Ir7  1  0.999532  0.001704  0.000392  1
  Br  Br8  1  0.545235  0.611223  0.838100  1
  Br  Br9  1  0.454564  0.374931  0.158912  1
  Br  Br10  1  0.309954  0.927417  0.779948  1
  Br  Br11  1  0.377385  0.158856  0.454280  1
  Br  Br12  1  0.930787  0.782687  0.320899  1
  Br  Br13  1  0.682379  0.075239  0.231622  1
  Br  Br14  1  0.071878  0.218366  0.679904  1
  Br  Br15  1  0.788897  0.332137  0.931290  1
  Br  Br16  1  0.221464  0.682170  0.072596  1
  Br  Br17  1  0.843004  0.546447  0.622985  1
  Br  Br18  1  0.160567  0.454709  0.377779  1
  Br  Br19  1  0.621143  0.832195  0.532479  1
