# generated using pymatgen
data_Zn3AsI2Cl
_symmetry_space_group_name_H-M   'P 1'
_cell_length_a   4.27148700
_cell_length_b   6.93450831
_cell_length_c   7.46582695
_cell_angle_alpha   87.36379896
_cell_angle_beta   90.00000000
_cell_angle_gamma   90.00000000
_symmetry_Int_Tables_number   1
_chemical_formula_structural   Zn3AsI2Cl
_chemical_formula_sum   'Zn3 As1 I2 Cl1'
_cell_volume   220.90870411
_cell_formula_units_Z   1
loop_
 _symmetry_equiv_pos_site_id
 _symmetry_equiv_pos_as_xyz
  1  'x, y, z'
loop_
 _atom_site_type_symbol
 _atom_site_label
 _atom_site_symmetry_multiplicity
 _atom_site_fract_x
 _atom_site_fract_y
 _atom_site_fract_z
 _atom_site_occupancy
  Zn  Zn0  1  0.000000  0.469382  0.705057  1
  Zn  Zn1  1  0.500000  0.512650  0.116781  1
  Zn  Zn2  1  0.500000  0.023963  0.867023  1
  As  As3  1  0.500000  0.370335  0.829709  1
  I  I4  1  0.000000  0.876709  0.676746  1
  I  I5  1  0.000000  0.393305  0.330451  1
  Cl  Cl6  1  0.500000  0.849655  0.140884  1
