# generated using pymatgen
data_CsMnCuTe2
_symmetry_space_group_name_H-M   'P 1'
_cell_length_a   8.56233249
_cell_length_b   8.56233224
_cell_length_c   8.56233205
_cell_angle_alpha   150.03936316
_cell_angle_beta   150.03936389
_cell_angle_gamma   42.88362058
_symmetry_Int_Tables_number   1
_chemical_formula_structural   CsMnCuTe2
_chemical_formula_sum   'Cs1 Mn1 Cu1 Te2'
_cell_volume   156.15855049
_cell_formula_units_Z   1
loop_
 _symmetry_equiv_pos_site_id
 _symmetry_equiv_pos_as_xyz
  1  'x, y, z'
loop_
 _atom_site_type_symbol
 _atom_site_label
 _atom_site_symmetry_multiplicity
 _atom_site_fract_x
 _atom_site_fract_y
 _atom_site_fract_z
 _atom_site_occupancy
  Cs  Cs0  1  0.000000  0.000000  0.000000  1
  Mn  Mn1  1  0.750000  0.250000  0.500000  1
  Cu  Cu2  1  0.250000  0.750000  0.500000  1
  Te  Te3  1  0.649454  0.649454  0.000000  1
  Te  Te4  1  0.350546  0.350546  0.000000  1
