# generated using pymatgen
data_K4TmUTe6
_symmetry_space_group_name_H-M   'P 1'
_cell_length_a   8.01541696
_cell_length_b   8.01541706
_cell_length_c   8.60643014
_cell_angle_alpha   80.94537801
_cell_angle_beta   80.94538039
_cell_angle_gamma   120.07457140
_symmetry_Int_Tables_number   1
_chemical_formula_structural   K4TmUTe6
_chemical_formula_sum   'K4 Tm1 U1 Te6'
_cell_volume   454.12035809
_cell_formula_units_Z   1
loop_
 _symmetry_equiv_pos_site_id
 _symmetry_equiv_pos_as_xyz
  1  'x, y, z'
loop_
 _atom_site_type_symbol
 _atom_site_label
 _atom_site_symmetry_multiplicity
 _atom_site_fract_x
 _atom_site_fract_y
 _atom_site_fract_z
 _atom_site_occupancy
  K  K0  1  0.345882  0.654118  0.500000  1
  K  K1  1  0.654286  0.345714  0.500000  1
  K  K2  1  0.999884  0.000116  0.500000  1
  K  K3  1  0.499965  0.500035  0.000000  1
  Tm  Tm4  1  0.168003  0.831997  0.000000  1
  U  U5  1  0.831832  0.168168  0.000000  1
  Te  Te6  1  0.796351  0.802311  0.208256  1
  Te  Te7  1  0.433874  0.059448  0.212387  1
  Te  Te8  1  0.052983  0.421302  0.212026  1
  Te  Te9  1  0.578698  0.947017  0.787974  1
  Te  Te10  1  0.940552  0.566126  0.787613  1
  Te  Te11  1  0.197689  0.203649  0.791744  1
