# generated using pymatgen
data_PrGdY2(WO6)2
_symmetry_space_group_name_H-M   'P 1'
_cell_length_a   5.49360000
_cell_length_b   7.81923836
_cell_length_c   11.58221011
_cell_angle_alpha   75.89824076
_cell_angle_beta   90.00000000
_cell_angle_gamma   90.00000000
_symmetry_Int_Tables_number   1
_chemical_formula_structural   PrGdY2(WO6)2
_chemical_formula_sum   'Pr2 Gd2 Y4 W4 O24'
_cell_volume   482.52964954
_cell_formula_units_Z   2
loop_
 _symmetry_equiv_pos_site_id
 _symmetry_equiv_pos_as_xyz
  1  'x, y, z'
loop_
 _atom_site_type_symbol
 _atom_site_label
 _atom_site_symmetry_multiplicity
 _atom_site_fract_x
 _atom_site_fract_y
 _atom_site_fract_z
 _atom_site_occupancy
  Pr  Pr0  1  0.315592  0.500000  0.750000  1
  Pr  Pr1  1  0.684408  0.500000  0.250000  1
  Gd  Gd2  1  0.258293  0.000000  0.750000  1
  Gd  Gd3  1  0.741707  0.000000  0.250000  1
  Y  Y4  1  0.185842  0.795340  0.077035  1
  Y  Y5  1  0.185842  0.204660  0.422965  1
  Y  Y6  1  0.814158  0.204660  0.922965  1
  Y  Y7  1  0.814158  0.795340  0.577035  1
  W  W8  1  0.746407  0.727347  0.884676  1
  W  W9  1  0.253593  0.727347  0.384676  1
  W  W10  1  0.746407  0.272653  0.615324  1
  W  W11  1  0.253593  0.272653  0.115324  1
  O  O12  1  0.853501  0.358475  0.454736  1
  O  O13  1  0.468184  0.843589  0.931619  1
  O  O14  1  0.853501  0.641525  0.045264  1
  O  O15  1  0.013106  0.282297  0.729135  1
  O  O16  1  0.986894  0.282297  0.229135  1
  O  O17  1  0.146499  0.358475  0.954736  1
  O  O18  1  0.651720  0.494477  0.887322  1
  O  O19  1  0.531816  0.156411  0.068381  1
  O  O20  1  0.146499  0.641525  0.545264  1
  O  O21  1  0.013106  0.717703  0.770865  1
  O  O22  1  0.452603  0.207294  0.271986  1
  O  O23  1  0.046728  0.940295  0.396782  1
  O  O24  1  0.468184  0.156411  0.568381  1
  O  O25  1  0.986894  0.717703  0.270865  1
  O  O26  1  0.953272  0.059705  0.603218  1
  O  O27  1  0.547397  0.207294  0.771986  1
  O  O28  1  0.547397  0.792706  0.728014  1
  O  O29  1  0.046728  0.059705  0.103218  1
  O  O30  1  0.651720  0.505523  0.612678  1
  O  O31  1  0.348280  0.505523  0.112678  1
  O  O32  1  0.452603  0.792706  0.228014  1
  O  O33  1  0.348280  0.494477  0.387322  1
  O  O34  1  0.531816  0.843589  0.431619  1
  O  O35  1  0.953272  0.940295  0.896782  1
