# generated using pymatgen
data_Nd2Dy3Y(SiRh2)6
_symmetry_space_group_name_H-M   'P 1'
_cell_length_a   5.61462900
_cell_length_b   5.61462708
_cell_length_c   15.02123500
_cell_angle_alpha   90.00000000
_cell_angle_beta   90.00000000
_cell_angle_gamma   119.99999362
_symmetry_Int_Tables_number   1
_chemical_formula_structural   Nd2Dy3Y(SiRh2)6
_chemical_formula_sum   'Nd2 Dy3 Y1 Si6 Rh12'
_cell_volume   410.08915178
_cell_formula_units_Z   1
loop_
 _symmetry_equiv_pos_site_id
 _symmetry_equiv_pos_as_xyz
  1  'x, y, z'
loop_
 _atom_site_type_symbol
 _atom_site_label
 _atom_site_symmetry_multiplicity
 _atom_site_fract_x
 _atom_site_fract_y
 _atom_site_fract_z
 _atom_site_occupancy
  Nd  Nd0  1  0.666667  0.333333  0.750043  1
  Nd  Nd1  1  0.333333  0.666667  0.249499  1
  Dy  Dy2  1  0.666667  0.333333  0.963755  1
  Dy  Dy3  1  0.666667  0.333333  0.536310  1
  Dy  Dy4  1  0.333333  0.666667  0.036132  1
  Y  Y5  1  0.333333  0.666667  0.463617  1
  Si  Si6  1  0.666667  0.333333  0.249867  1
  Si  Si7  1  0.000000  0.000000  0.500042  1
  Si  Si8  1  0.000000  0.000000  0.249950  1
  Si  Si9  1  0.000000  0.000000  0.750279  1
  Si  Si10  1  0.333333  0.666667  0.750073  1
  Si  Si11  1  0.000000  0.000000  0.999927  1
  Rh  Rh12  1  0.166581  0.333162  0.870037  1
  Rh  Rh13  1  0.166515  0.333030  0.630363  1
  Rh  Rh14  1  0.666838  0.833419  0.870037  1
  Rh  Rh15  1  0.333118  0.166559  0.369818  1
  Rh  Rh16  1  0.833441  0.666882  0.369818  1
  Rh  Rh17  1  0.833441  0.166559  0.369818  1
  Rh  Rh18  1  0.833418  0.166582  0.129952  1
  Rh  Rh19  1  0.333164  0.166582  0.129952  1
  Rh  Rh20  1  0.666970  0.833485  0.630363  1
  Rh  Rh21  1  0.166515  0.833485  0.630363  1
  Rh  Rh22  1  0.833418  0.666836  0.129952  1
  Rh  Rh23  1  0.166581  0.833419  0.870037  1
