# generated using pymatgen
data_Pr2Zn7Ga
_symmetry_space_group_name_H-M   'P 1'
_cell_length_a   6.05493600
_cell_length_b   6.05493399
_cell_length_c   6.04182800
_cell_angle_alpha   90.00000000
_cell_angle_beta   90.00000000
_cell_angle_gamma   117.61031616
_symmetry_Int_Tables_number   1
_chemical_formula_structural   Pr2Zn7Ga
_chemical_formula_sum   'Pr2 Zn7 Ga1'
_cell_volume   196.28175776
_cell_formula_units_Z   1
loop_
 _symmetry_equiv_pos_site_id
 _symmetry_equiv_pos_as_xyz
  1  'x, y, z'
loop_
 _atom_site_type_symbol
 _atom_site_label
 _atom_site_symmetry_multiplicity
 _atom_site_fract_x
 _atom_site_fract_y
 _atom_site_fract_z
 _atom_site_occupancy
  Pr  Pr0  1  0.267063  0.732937  0.750000  1
  Pr  Pr1  1  0.732267  0.267733  0.250000  1
  Zn  Zn2  1  0.151249  0.848751  0.250000  1
  Zn  Zn3  1  0.608310  0.391690  0.750000  1
  Zn  Zn4  1  0.388563  0.611437  0.250000  1
  Zn  Zn5  1  0.782388  0.780450  0.002920  1
  Zn  Zn6  1  0.782388  0.780450  0.497080  1
  Zn  Zn7  1  0.219550  0.217612  0.002920  1
  Zn  Zn8  1  0.219550  0.217612  0.497080  1
  Ga  Ga9  1  0.848674  0.151326  0.750000  1
