# generated using pymatgen
data_KBa3(PPt3)8
_symmetry_space_group_name_H-M   'P 1'
_cell_length_a   8.63616801
_cell_length_b   8.63616801
_cell_length_c   8.63616801
_cell_angle_alpha   89.99574064
_cell_angle_beta   89.99574064
_cell_angle_gamma   89.99574064
_symmetry_Int_Tables_number   1
_chemical_formula_structural   KBa3(PPt3)8
_chemical_formula_sum   'K1 Ba3 P8 Pt24'
_cell_volume   644.11475009
_cell_formula_units_Z   1
loop_
 _symmetry_equiv_pos_site_id
 _symmetry_equiv_pos_as_xyz
  1  'x, y, z'
loop_
 _atom_site_type_symbol
 _atom_site_label
 _atom_site_symmetry_multiplicity
 _atom_site_fract_x
 _atom_site_fract_y
 _atom_site_fract_z
 _atom_site_occupancy
  K  K0  1  0.000000  0.000000  0.000000  1
  Ba  Ba1  1  0.500000  0.500000  0.000000  1
  Ba  Ba2  1  0.500000  0.000000  0.500000  1
  Ba  Ba3  1  0.000000  0.500000  0.500000  1
  P  P4  1  0.807048  0.304678  0.193104  1
  P  P5  1  0.193104  0.807048  0.304678  1
  P  P6  1  0.694446  0.694446  0.694446  1
  P  P7  1  0.304678  0.193104  0.807048  1
  P  P8  1  0.192952  0.695322  0.806896  1
  P  P9  1  0.806896  0.192952  0.695322  1
  P  P10  1  0.305554  0.305554  0.305554  1
  P  P11  1  0.695322  0.806896  0.192952  1
  Pt  Pt12  1  0.421596  0.843222  0.155611  1
  Pt  Pt13  1  0.578937  0.343067  0.343957  1
  Pt  Pt14  1  0.078768  0.156088  0.656635  1
  Pt  Pt15  1  0.921758  0.657689  0.844976  1
  Pt  Pt16  1  0.155611  0.421596  0.843222  1
  Pt  Pt17  1  0.343957  0.578937  0.343067  1
  Pt  Pt18  1  0.656635  0.078768  0.156088  1
  Pt  Pt19  1  0.844976  0.921758  0.657689  1
  Pt  Pt20  1  0.843222  0.155611  0.421596  1
  Pt  Pt21  1  0.343067  0.343957  0.578937  1
  Pt  Pt22  1  0.156088  0.656635  0.078768  1
  Pt  Pt23  1  0.657689  0.844976  0.921758  1
  Pt  Pt24  1  0.578404  0.156778  0.844389  1
  Pt  Pt25  1  0.421063  0.656933  0.656043  1
  Pt  Pt26  1  0.921232  0.843912  0.343365  1
  Pt  Pt27  1  0.078242  0.342311  0.155024  1
  Pt  Pt28  1  0.844389  0.578404  0.156778  1
  Pt  Pt29  1  0.656043  0.421063  0.656933  1
  Pt  Pt30  1  0.343365  0.921232  0.843912  1
  Pt  Pt31  1  0.155024  0.078242  0.342311  1
  Pt  Pt32  1  0.156778  0.844389  0.578404  1
  Pt  Pt33  1  0.656933  0.656043  0.421063  1
  Pt  Pt34  1  0.843912  0.343365  0.921232  1
  Pt  Pt35  1  0.342311  0.155024  0.078242  1
