# generated using pymatgen
data_TbYb(ScIr)2
_symmetry_space_group_name_H-M   'P 1'
_cell_length_a   7.03760000
_cell_length_b   4.20321100
_cell_length_c   8.66098500
_cell_angle_alpha   90.00000000
_cell_angle_beta   90.00000000
_cell_angle_gamma   90.00000000
_symmetry_Int_Tables_number   1
_chemical_formula_structural   TbYb(ScIr)2
_chemical_formula_sum   'Tb2 Yb2 Sc4 Ir4'
_cell_volume   256.19642038
_cell_formula_units_Z   2
loop_
 _symmetry_equiv_pos_site_id
 _symmetry_equiv_pos_as_xyz
  1  'x, y, z'
loop_
 _atom_site_type_symbol
 _atom_site_label
 _atom_site_symmetry_multiplicity
 _atom_site_fract_x
 _atom_site_fract_y
 _atom_site_fract_z
 _atom_site_occupancy
  Tb  Tb0  1  0.975822  0.250000  0.176394  1
  Tb  Tb1  1  0.475822  0.250000  0.323606  1
  Yb  Yb2  1  0.023739  0.750000  0.822654  1
  Yb  Yb3  1  0.523739  0.750000  0.677346  1
  Sc  Sc4  1  0.855812  0.250000  0.567635  1
  Sc  Sc5  1  0.355812  0.250000  0.932365  1
  Sc  Sc6  1  0.142014  0.750000  0.436449  1
  Sc  Sc7  1  0.642014  0.750000  0.063551  1
  Ir  Ir8  1  0.733503  0.250000  0.893296  1
  Ir  Ir9  1  0.233503  0.250000  0.606704  1
  Ir  Ir10  1  0.269109  0.750000  0.118381  1
  Ir  Ir11  1  0.769109  0.750000  0.381619  1
