# generated using pymatgen
data_Sr2Li3TbPt3
_symmetry_space_group_name_H-M   'P 1'
_cell_length_a   7.44488111
_cell_length_b   7.47103770
_cell_length_c   4.18406400
_cell_angle_alpha   90.00000000
_cell_angle_beta   90.00000000
_cell_angle_gamma   120.11626961
_symmetry_Int_Tables_number   1
_chemical_formula_structural   Sr2Li3TbPt3
_chemical_formula_sum   'Sr2 Li3 Tb1 Pt3'
_cell_volume   201.30642144
_cell_formula_units_Z   1
loop_
 _symmetry_equiv_pos_site_id
 _symmetry_equiv_pos_as_xyz
  1  'x, y, z'
loop_
 _atom_site_type_symbol
 _atom_site_label
 _atom_site_symmetry_multiplicity
 _atom_site_fract_x
 _atom_site_fract_y
 _atom_site_fract_z
 _atom_site_occupancy
  Sr  Sr0  1  0.414440  0.416310  0.000000  1
  Sr  Sr1  1  0.585560  0.001871  0.000000  1
  Li  Li2  1  0.774640  0.766082  0.500000  1
  Li  Li3  1  0.225360  0.991442  0.500000  1
  Li  Li4  1  0.000000  0.233110  0.500000  1
  Tb  Tb5  1  0.000000  0.595289  0.000000  1
  Pt  Pt6  1  0.000000  0.976077  0.000000  1
  Pt  Pt7  1  0.704210  0.362013  0.500000  1
  Pt  Pt8  1  0.295790  0.657804  0.500000  1
