# generated using pymatgen
data_Hf16RuPt7O4
_symmetry_space_group_name_H-M   'P 1'
_cell_length_a   8.78840375
_cell_length_b   8.79637584
_cell_length_c   8.79637600
_cell_angle_alpha   60.00000692
_cell_angle_beta   59.96999526
_cell_angle_gamma   59.96998950
_symmetry_Int_Tables_number   1
_chemical_formula_structural   Hf16RuPt7O4
_chemical_formula_sum   'Hf16 Ru1 Pt7 O4'
_cell_volume   480.62400444
_cell_formula_units_Z   1
loop_
 _symmetry_equiv_pos_site_id
 _symmetry_equiv_pos_as_xyz
  1  'x, y, z'
loop_
 _atom_site_type_symbol
 _atom_site_label
 _atom_site_symmetry_multiplicity
 _atom_site_fract_x
 _atom_site_fract_y
 _atom_site_fract_z
 _atom_site_occupancy
  Hf  Hf0  1  0.125693  0.624769  0.624769  1
  Hf  Hf1  1  0.626310  0.129428  0.622131  1
  Hf  Hf2  1  0.626310  0.622131  0.129428  1
  Hf  Hf3  1  0.626310  0.622131  0.622131  1
  Hf  Hf4  1  0.813504  0.811992  0.187252  1
  Hf  Hf5  1  0.186365  0.186245  0.813695  1
  Hf  Hf6  1  0.813504  0.187252  0.811992  1
  Hf  Hf7  1  0.186365  0.813695  0.186245  1
  Hf  Hf8  1  0.186365  0.813695  0.813695  1
  Hf  Hf9  1  0.813504  0.187252  0.187252  1
  Hf  Hf10  1  0.435969  0.436266  0.063883  1
  Hf  Hf11  1  0.059279  0.071055  0.434833  1
  Hf  Hf12  1  0.435969  0.063883  0.436266  1
  Hf  Hf13  1  0.059279  0.434833  0.071055  1
  Hf  Hf14  1  0.059279  0.434833  0.434833  1
  Hf  Hf15  1  0.435969  0.063883  0.063883  1
  Ru  Ru16  1  0.791193  0.402936  0.402936  1
  Pt  Pt17  1  0.404516  0.788465  0.403509  1
  Pt  Pt18  1  0.404516  0.403509  0.788465  1
  Pt  Pt19  1  0.404516  0.403509  0.403509  1
  Pt  Pt20  1  0.461622  0.846126  0.846126  1
  Pt  Pt21  1  0.846695  0.461971  0.845667  1
  Pt  Pt22  1  0.846695  0.845667  0.461971  1
  Pt  Pt23  1  0.846695  0.845667  0.845667  1
  O  O24  1  0.624670  0.125110  0.125110  1
  O  O25  1  0.126302  0.625620  0.124039  1
  O  O26  1  0.126302  0.124039  0.625620  1
  O  O27  1  0.126302  0.124039  0.124039  1
