# generated using pymatgen
data_Ca4Mg3CdPt4
_symmetry_space_group_name_H-M   'P 1'
_cell_length_a   4.28918700
_cell_length_b   7.33487417
_cell_length_c   8.50543838
_cell_angle_alpha   90.30870897
_cell_angle_beta   90.00000000
_cell_angle_gamma   90.00000000
_symmetry_Int_Tables_number   1
_chemical_formula_structural   Ca4Mg3CdPt4
_chemical_formula_sum   'Ca4 Mg3 Cd1 Pt4'
_cell_volume   267.58271007
_cell_formula_units_Z   1
loop_
 _symmetry_equiv_pos_site_id
 _symmetry_equiv_pos_as_xyz
  1  'x, y, z'
loop_
 _atom_site_type_symbol
 _atom_site_label
 _atom_site_symmetry_multiplicity
 _atom_site_fract_x
 _atom_site_fract_y
 _atom_site_fract_z
 _atom_site_occupancy
  Ca  Ca0  1  0.250000  0.036660  0.326003  1
  Ca  Ca1  1  0.250000  0.533422  0.176631  1
  Ca  Ca2  1  0.750000  0.967592  0.674931  1
  Ca  Ca3  1  0.750000  0.464201  0.824064  1
  Mg  Mg4  1  0.250000  0.138211  0.938013  1
  Mg  Mg5  1  0.250000  0.638598  0.561138  1
  Mg  Mg6  1  0.750000  0.860955  0.060768  1
  Cd  Cd7  1  0.750000  0.358828  0.436003  1
  Pt  Pt8  1  0.250000  0.264296  0.636874  1
  Pt  Pt9  1  0.250000  0.767635  0.874797  1
  Pt  Pt10  1  0.750000  0.740694  0.373456  1
  Pt  Pt11  1  0.750000  0.228907  0.117323  1
