# generated using pymatgen
data_Tb19DyIrRh11
_symmetry_space_group_name_H-M   'P 1'
_cell_length_a   10.94768207
_cell_length_b   10.94773187
_cell_length_c   6.38078300
_cell_angle_alpha   89.99863095
_cell_angle_beta   89.99534950
_cell_angle_gamma   90.04607617
_symmetry_Int_Tables_number   1
_chemical_formula_structural   Tb19DyIrRh11
_chemical_formula_sum   'Tb19 Dy1 Ir1 Rh11'
_cell_volume   764.75119158
_cell_formula_units_Z   1
loop_
 _symmetry_equiv_pos_site_id
 _symmetry_equiv_pos_as_xyz
  1  'x, y, z'
loop_
 _atom_site_type_symbol
 _atom_site_label
 _atom_site_symmetry_multiplicity
 _atom_site_fract_x
 _atom_site_fract_y
 _atom_site_fract_z
 _atom_site_occupancy
  Tb  Tb0  1  0.290880  0.089035  0.378854  1
  Tb  Tb1  1  0.291220  0.909631  0.878736  1
  Tb  Tb2  1  0.709025  0.088826  0.878790  1
  Tb  Tb3  1  0.708935  0.910929  0.378700  1
  Tb  Tb4  1  0.587627  0.790374  0.878469  1
  Tb  Tb5  1  0.589002  0.209110  0.379187  1
  Tb  Tb6  1  0.410592  0.790214  0.379857  1
  Tb  Tb7  1  0.410980  0.208887  0.878672  1
  Tb  Tb8  1  0.209693  0.412379  0.621477  1
  Tb  Tb9  1  0.209726  0.589410  0.120193  1
  Tb  Tb10  1  0.790952  0.410996  0.120867  1
  Tb  Tb11  1  0.791051  0.589012  0.621271  1
  Tb  Tb12  1  0.910989  0.709124  0.121123  1
  Tb  Tb13  1  0.911150  0.290976  0.621227  1
  Tb  Tb14  1  0.090394  0.708779  0.621284  1
  Tb  Tb15  1  0.089048  0.291065  0.121280  1
  Tb  Tb16  1  0.999839  0.999923  0.500089  1
  Tb  Tb17  1  0.000073  0.000158  0.999915  1
  Tb  Tb18  1  0.499746  0.500026  0.000091  1
  Dy  Dy19  1  0.499932  0.500290  0.499959  1
  Ir  Ir20  1  0.346174  0.653834  0.749766  1
  Rh  Rh21  1  0.845999  0.154005  0.249993  1
  Rh  Rh22  1  0.845896  0.846176  0.750193  1
  Rh  Rh23  1  0.153828  0.154097  0.749822  1
  Rh  Rh24  1  0.153407  0.846588  0.249986  1
  Rh  Rh25  1  0.653888  0.346107  0.749814  1
  Rh  Rh26  1  0.654487  0.653957  0.250283  1
  Rh  Rh27  1  0.346041  0.345521  0.250095  1
  Rh  Rh28  1  0.500235  0.000446  0.124676  1
  Rh  Rh29  1  0.500290  0.000648  0.624171  1
  Rh  Rh30  1  0.999349  0.499709  0.875843  1
  Rh  Rh31  1  0.999557  0.499765  0.375318  1
