# generated using pymatgen
data_VMo2Br13
_symmetry_space_group_name_H-M   'P 1'
_cell_length_a   11.83614600
_cell_length_b   9.95349979
_cell_length_c   10.54212184
_cell_angle_alpha   83.60538950
_cell_angle_beta   90.00000000
_cell_angle_gamma   90.00000000
_symmetry_Int_Tables_number   1
_chemical_formula_structural   VMo2Br13
_chemical_formula_sum   'V2 Mo4 Br26'
_cell_volume   1234.25162956
_cell_formula_units_Z   2
loop_
 _symmetry_equiv_pos_site_id
 _symmetry_equiv_pos_as_xyz
  1  'x, y, z'
loop_
 _atom_site_type_symbol
 _atom_site_label
 _atom_site_symmetry_multiplicity
 _atom_site_fract_x
 _atom_site_fract_y
 _atom_site_fract_z
 _atom_site_occupancy
  V  V0  1  0.250000  0.261931  0.503787  1
  V  V1  1  0.750000  0.738069  0.496213  1
  Mo  Mo2  1  0.250000  0.825093  0.089734  1
  Mo  Mo3  1  0.750000  0.174907  0.910266  1
  Mo  Mo4  1  0.250000  0.686664  0.871622  1
  Mo  Mo5  1  0.750000  0.313336  0.128378  1
  Br  Br6  1  0.592988  0.815964  0.588615  1
  Br  Br7  1  0.092988  0.184036  0.411385  1
  Br  Br8  1  0.750000  0.438131  0.897521  1
  Br  Br9  1  0.250000  0.561869  0.102479  1
  Br  Br10  1  0.910236  0.145833  0.080496  1
  Br  Br11  1  0.410236  0.854167  0.919504  1
  Br  Br12  1  0.089764  0.854167  0.919504  1
  Br  Br13  1  0.589764  0.145833  0.080496  1
  Br  Br14  1  0.750000  0.198621  0.351020  1
  Br  Br15  1  0.250000  0.801379  0.648980  1
  Br  Br16  1  0.900691  0.470254  0.179269  1
  Br  Br17  1  0.400691  0.529746  0.820731  1
  Br  Br18  1  0.099309  0.529746  0.820731  1
  Br  Br19  1  0.599309  0.470254  0.179269  1
  Br  Br20  1  0.750000  0.924540  0.917089  1
  Br  Br21  1  0.250000  0.075460  0.082911  1
  Br  Br22  1  0.899809  0.197435  0.744913  1
  Br  Br23  1  0.399809  0.802565  0.255087  1
  Br  Br24  1  0.100191  0.802565  0.255087  1
  Br  Br25  1  0.600191  0.197435  0.744913  1
  Br  Br26  1  0.750000  0.807444  0.283794  1
  Br  Br27  1  0.250000  0.192556  0.716206  1
  Br  Br28  1  0.750000  0.508758  0.523056  1
  Br  Br29  1  0.250000  0.491242  0.476944  1
  Br  Br30  1  0.907012  0.815964  0.588615  1
  Br  Br31  1  0.407012  0.184036  0.411385  1
