# generated using pymatgen
data_DyEr15(HgRh)4
_symmetry_space_group_name_H-M   'P 1'
_cell_length_a   9.50378864
_cell_length_b   9.50648489
_cell_length_c   9.50378818
_cell_angle_alpha   59.99060992
_cell_angle_beta   59.95181225
_cell_angle_gamma   59.99061057
_symmetry_Int_Tables_number   1
_chemical_formula_structural   DyEr15(HgRh)4
_chemical_formula_sum   'Dy1 Er15 Hg4 Rh4'
_cell_volume   606.84595907
_cell_formula_units_Z   1
loop_
 _symmetry_equiv_pos_site_id
 _symmetry_equiv_pos_as_xyz
  1  'x, y, z'
loop_
 _atom_site_type_symbol
 _atom_site_label
 _atom_site_symmetry_multiplicity
 _atom_site_fract_x
 _atom_site_fract_y
 _atom_site_fract_z
 _atom_site_occupancy
  Dy  Dy0  1  0.563613  0.936387  0.563613  1
  Er  Er1  1  0.563224  0.562436  0.937592  1
  Er  Er2  1  0.148656  0.553403  0.148656  1
  Er  Er3  1  0.689052  0.311234  0.310850  1
  Er  Er4  1  0.937592  0.562436  0.563224  1
  Er  Er5  1  0.936668  0.563332  0.936668  1
  Er  Er6  1  0.689052  0.688863  0.310850  1
  Er  Er7  1  0.563224  0.936748  0.937592  1
  Er  Er8  1  0.148656  0.149285  0.148656  1
  Er  Er9  1  0.310887  0.689113  0.310887  1
  Er  Er10  1  0.552936  0.149020  0.149024  1
  Er  Er11  1  0.310850  0.311234  0.689052  1
  Er  Er12  1  0.310850  0.688863  0.689052  1
  Er  Er13  1  0.149024  0.149020  0.552936  1
  Er  Er14  1  0.689137  0.310863  0.689137  1
  Er  Er15  1  0.937592  0.936748  0.563224  1
  Hg  Hg16  1  0.914827  0.914854  0.914827  1
  Hg  Hg17  1  0.254572  0.914877  0.915673  1
  Hg  Hg18  1  0.915673  0.914877  0.254572  1
  Hg  Hg19  1  0.914827  0.255491  0.914827  1
  Rh  Rh20  1  0.356883  0.357381  0.928354  1
  Rh  Rh21  1  0.356923  0.357774  0.356923  1
  Rh  Rh22  1  0.928354  0.357381  0.356883  1
  Rh  Rh23  1  0.356923  0.928377  0.356923  1
