# generated using pymatgen
data_TbDyTm3CoSb2
_symmetry_space_group_name_H-M   'P 1'
_cell_length_a   7.82793600
_cell_length_b   8.77098200
_cell_length_c   12.08467000
_cell_angle_alpha   90.00000000
_cell_angle_beta   90.00000000
_cell_angle_gamma   90.00000000
_symmetry_Int_Tables_number   1
_chemical_formula_structural   TbDyTm3CoSb2
_chemical_formula_sum   'Tb4 Dy4 Tm12 Co4 Sb8'
_cell_volume   829.71755996
_cell_formula_units_Z   4
loop_
 _symmetry_equiv_pos_site_id
 _symmetry_equiv_pos_as_xyz
  1  'x, y, z'
loop_
 _atom_site_type_symbol
 _atom_site_label
 _atom_site_symmetry_multiplicity
 _atom_site_fract_x
 _atom_site_fract_y
 _atom_site_fract_z
 _atom_site_occupancy
  Tb  Tb0  1  0.622000  0.750000  0.306631  1
  Tb  Tb1  1  0.122000  0.250000  0.193369  1
  Tb  Tb2  1  0.378000  0.250000  0.693369  1
  Tb  Tb3  1  0.878000  0.750000  0.806631  1
  Dy  Dy4  1  0.154767  0.750000  0.203403  1
  Dy  Dy5  1  0.654767  0.250000  0.296597  1
  Dy  Dy6  1  0.845233  0.250000  0.796597  1
  Dy  Dy7  1  0.345233  0.750000  0.703403  1
  Tm  Tm8  1  0.450557  0.750000  0.997648  1
  Tm  Tm9  1  0.950557  0.250000  0.502352  1
  Tm  Tm10  1  0.549443  0.250000  0.002352  1
  Tm  Tm11  1  0.049443  0.750000  0.497648  1
  Tm  Tm12  1  0.822722  0.963444  0.064830  1
  Tm  Tm13  1  0.322722  0.036556  0.435170  1
  Tm  Tm14  1  0.177278  0.463444  0.935170  1
  Tm  Tm15  1  0.677278  0.536556  0.564830  1
  Tm  Tm16  1  0.177278  0.036556  0.935170  1
  Tm  Tm17  1  0.677278  0.963444  0.564830  1
  Tm  Tm18  1  0.822722  0.536556  0.064830  1
  Tm  Tm19  1  0.322722  0.463444  0.435170  1
  Co  Co20  1  0.431931  0.750000  0.490584  1
  Co  Co21  1  0.931931  0.250000  0.009416  1
  Co  Co22  1  0.568069  0.250000  0.509416  1
  Co  Co23  1  0.068069  0.750000  0.990584  1
  Sb  Sb24  1  0.929556  0.991516  0.328743  1
  Sb  Sb25  1  0.429556  0.008484  0.171257  1
  Sb  Sb26  1  0.070444  0.491516  0.671257  1
  Sb  Sb27  1  0.570444  0.508484  0.828743  1
  Sb  Sb28  1  0.070444  0.008484  0.671257  1
  Sb  Sb29  1  0.570444  0.991516  0.828743  1
  Sb  Sb30  1  0.929556  0.508484  0.328743  1
  Sb  Sb31  1  0.429556  0.491516  0.171257  1
