# generated using pymatgen
data_LaTh7(CoSi3)4
_symmetry_space_group_name_H-M   'P 1'
_cell_length_a   8.08047300
_cell_length_b   8.08047198
_cell_length_c   8.43615900
_cell_angle_alpha   90.00000000
_cell_angle_beta   90.00000000
_cell_angle_gamma   120.00000009
_symmetry_Int_Tables_number   1
_chemical_formula_structural   LaTh7(CoSi3)4
_chemical_formula_sum   'La1 Th7 Co4 Si12'
_cell_volume   477.03352303
_cell_formula_units_Z   1
loop_
 _symmetry_equiv_pos_site_id
 _symmetry_equiv_pos_as_xyz
  1  'x, y, z'
loop_
 _atom_site_type_symbol
 _atom_site_label
 _atom_site_symmetry_multiplicity
 _atom_site_fract_x
 _atom_site_fract_y
 _atom_site_fract_z
 _atom_site_occupancy
  La  La0  1  0.000000  0.000000  0.250000  1
  Th  Th1  1  0.499546  0.500454  0.750000  1
  Th  Th2  1  0.499912  0.500088  0.250000  1
  Th  Th3  1  0.000906  0.500454  0.750000  1
  Th  Th4  1  0.000177  0.500088  0.250000  1
  Th  Th5  1  0.499546  0.999094  0.750000  1
  Th  Th6  1  0.499912  0.999823  0.250000  1
  Th  Th7  1  0.000000  0.000000  0.750000  1
  Co  Co8  1  0.666667  0.333333  0.998813  1
  Co  Co9  1  0.333333  0.666667  0.001401  1
  Co  Co10  1  0.333333  0.666667  0.498599  1
  Co  Co11  1  0.666667  0.333333  0.501187  1
  Si  Si12  1  0.828773  0.171227  0.998951  1
  Si  Si13  1  0.171256  0.828744  0.999397  1
  Si  Si14  1  0.342453  0.171227  0.998951  1
  Si  Si15  1  0.171256  0.828744  0.500603  1
  Si  Si16  1  0.657486  0.828744  0.999397  1
  Si  Si17  1  0.828773  0.171227  0.501049  1
  Si  Si18  1  0.828773  0.657547  0.998951  1
  Si  Si19  1  0.657486  0.828744  0.500603  1
  Si  Si20  1  0.171256  0.342514  0.999397  1
  Si  Si21  1  0.342453  0.171227  0.501049  1
  Si  Si22  1  0.171256  0.342514  0.500603  1
  Si  Si23  1  0.828773  0.657547  0.501049  1
