# generated using pymatgen
data_Er9ScCd3Ir
_symmetry_space_group_name_H-M   'P 1'
_cell_length_a   9.43207600
_cell_length_b   9.43207563
_cell_length_c   9.70674000
_cell_angle_alpha   90.00000000
_cell_angle_beta   90.00000000
_cell_angle_gamma   120.00000130
_symmetry_Int_Tables_number   1
_chemical_formula_structural   Er9ScCd3Ir
_chemical_formula_sum   'Er18 Sc2 Cd6 Ir2'
_cell_volume   747.85704463
_cell_formula_units_Z   2
loop_
 _symmetry_equiv_pos_site_id
 _symmetry_equiv_pos_as_xyz
  1  'x, y, z'
loop_
 _atom_site_type_symbol
 _atom_site_label
 _atom_site_symmetry_multiplicity
 _atom_site_fract_x
 _atom_site_fract_y
 _atom_site_fract_z
 _atom_site_occupancy
  Er  Er0  1  0.208286  0.791714  0.442041  1
  Er  Er1  1  0.208286  0.416572  0.442041  1
  Er  Er2  1  0.583428  0.791714  0.442041  1
  Er  Er3  1  0.791714  0.208286  0.557959  1
  Er  Er4  1  0.791714  0.583428  0.557959  1
  Er  Er5  1  0.416572  0.208286  0.557959  1
  Er  Er6  1  0.791714  0.208286  0.942041  1
  Er  Er7  1  0.791714  0.583428  0.942041  1
  Er  Er8  1  0.416572  0.208286  0.942041  1
  Er  Er9  1  0.208286  0.791714  0.057959  1
  Er  Er10  1  0.208286  0.416572  0.057959  1
  Er  Er11  1  0.583428  0.791714  0.057959  1
  Er  Er12  1  0.541056  0.458944  0.250000  1
  Er  Er13  1  0.541056  0.082111  0.250000  1
  Er  Er14  1  0.917889  0.458944  0.250000  1
  Er  Er15  1  0.458944  0.541056  0.750000  1
  Er  Er16  1  0.458944  0.917889  0.750000  1
  Er  Er17  1  0.082111  0.541056  0.750000  1
  Sc  Sc18  1  0.000000  0.000000  0.500000  1
  Sc  Sc19  1  0.000000  0.000000  0.000000  1
  Cd  Cd20  1  0.889496  0.110504  0.250000  1
  Cd  Cd21  1  0.889496  0.778993  0.250000  1
  Cd  Cd22  1  0.221007  0.110504  0.250000  1
  Cd  Cd23  1  0.110504  0.889496  0.750000  1
  Cd  Cd24  1  0.110504  0.221007  0.750000  1
  Cd  Cd25  1  0.778993  0.889496  0.750000  1
  Ir  Ir26  1  0.333333  0.666667  0.250000  1
  Ir  Ir27  1  0.666667  0.333333  0.750000  1
