# generated using pymatgen
data_Ta3Nb3V4(Ga3B)2
_symmetry_space_group_name_H-M   'P 1'
_cell_length_a   7.69179719
_cell_length_b   7.68792202
_cell_length_c   5.13160100
_cell_angle_alpha   90.00000000
_cell_angle_beta   90.00000000
_cell_angle_gamma   120.04198059
_symmetry_Int_Tables_number   1
_chemical_formula_structural   Ta3Nb3V4(Ga3B)2
_chemical_formula_sum   'Ta3 Nb3 V4 Ga6 B2'
_cell_volume   262.68570159
_cell_formula_units_Z   1
loop_
 _symmetry_equiv_pos_site_id
 _symmetry_equiv_pos_as_xyz
  1  'x, y, z'
loop_
 _atom_site_type_symbol
 _atom_site_label
 _atom_site_symmetry_multiplicity
 _atom_site_fract_x
 _atom_site_fract_y
 _atom_site_fract_z
 _atom_site_occupancy
  Ta  Ta0  1  0.999386  0.755233  0.750000  1
  Ta  Ta1  1  0.756029  0.755372  0.250000  1
  Ta  Ta2  1  0.244347  0.244280  0.750000  1
  Nb  Nb3  1  0.244757  0.999986  0.250000  1
  Nb  Nb4  1  0.754892  0.999359  0.750000  1
  Nb  Nb5  1  0.000593  0.244905  0.250000  1
  V  V6  1  0.333342  0.666453  0.999601  1
  V  V7  1  0.666658  0.334360  0.999592  1
  V  V8  1  0.666658  0.334360  0.500408  1
  V  V9  1  0.333342  0.666453  0.500399  1
  Ga  Ga10  1  0.593650  0.000244  0.250000  1
  Ga  Ga11  1  0.406647  0.999951  0.750000  1
  Ga  Ga12  1  0.000224  0.593305  0.250000  1
  Ga  Ga13  1  0.999782  0.406210  0.750000  1
  Ga  Ga14  1  0.406403  0.406421  0.250000  1
  Ga  Ga15  1  0.593279  0.593456  0.750000  1
  B  B16  1  0.000006  0.999826  0.000117  1
  B  B17  1  0.000006  0.999826  0.499883  1
