# generated using pymatgen
data_Ce2VFe(Re5C)3
_symmetry_space_group_name_H-M   'P 1'
_cell_length_a   6.98556132
_cell_length_b   6.99415068
_cell_length_c   7.01153739
_cell_angle_alpha   82.68451380
_cell_angle_beta   83.03020786
_cell_angle_gamma   82.57844920
_symmetry_Int_Tables_number   1
_chemical_formula_structural   Ce2VFe(Re5C)3
_chemical_formula_sum   'Ce2 V1 Fe1 Re15 C3'
_cell_volume   335.01342719
_cell_formula_units_Z   1
loop_
 _symmetry_equiv_pos_site_id
 _symmetry_equiv_pos_as_xyz
  1  'x, y, z'
loop_
 _atom_site_type_symbol
 _atom_site_label
 _atom_site_symmetry_multiplicity
 _atom_site_fract_x
 _atom_site_fract_y
 _atom_site_fract_z
 _atom_site_occupancy
  Ce  Ce0  1  0.647915  0.648981  0.649491  1
  Ce  Ce1  1  0.352085  0.351019  0.350509  1
  V  V2  1  0.000000  0.000000  0.500000  1
  Fe  Fe3  1  0.500000  0.000000  0.000000  1
  Re  Re4  1  0.000000  0.500000  0.000000  1
  Re  Re5  1  0.280692  0.725195  0.999290  1
  Re  Re6  1  0.719804  0.999670  0.276842  1
  Re  Re7  1  0.000627  0.276558  0.720164  1
  Re  Re8  1  0.280196  0.000330  0.723158  1
  Re  Re9  1  0.999373  0.723442  0.279836  1
  Re  Re10  1  0.719308  0.274805  0.000710  1
  Re  Re11  1  0.351661  0.344589  0.860689  1
  Re  Re12  1  0.346279  0.864029  0.344053  1
  Re  Re13  1  0.858338  0.345554  0.351249  1
  Re  Re14  1  0.648339  0.655411  0.139311  1
  Re  Re15  1  0.653721  0.135971  0.655947  1
  Re  Re16  1  0.141662  0.654446  0.648751  1
  Re  Re17  1  0.897602  0.902405  0.902839  1
  Re  Re18  1  0.102398  0.097595  0.097161  1
  C  C19  1  0.500000  0.500000  0.000000  1
  C  C20  1  0.500000  0.000000  0.500000  1
  C  C21  1  0.000000  0.500000  0.500000  1
