# generated using pymatgen
data_Sc5Mo2P12Ir12Ru5
_symmetry_space_group_name_H-M   'P 1'
_cell_length_a   12.61266158
_cell_length_b   12.60173961
_cell_length_c   3.92390500
_cell_angle_alpha   90.00000000
_cell_angle_beta   90.00000000
_cell_angle_gamma   120.71697538
_symmetry_Int_Tables_number   1
_chemical_formula_structural   Sc5Mo2P12Ir12Ru5
_chemical_formula_sum   'Sc5 Mo2 P12 Ir12 Ru5'
_cell_volume   536.17078550
_cell_formula_units_Z   1
loop_
 _symmetry_equiv_pos_site_id
 _symmetry_equiv_pos_as_xyz
  1  'x, y, z'
loop_
 _atom_site_type_symbol
 _atom_site_label
 _atom_site_symmetry_multiplicity
 _atom_site_fract_x
 _atom_site_fract_y
 _atom_site_fract_z
 _atom_site_occupancy
  Sc  Sc0  1  0.330934  0.666846  0.000000  1
  Sc  Sc1  1  0.667989  0.334020  0.000000  1
  Sc  Sc2  1  0.813432  0.998807  0.500000  1
  Sc  Sc3  1  0.000099  0.811610  0.500000  1
  Sc  Sc4  1  0.188740  0.189264  0.500000  1
  Mo  Mo5  1  0.453362  0.004928  0.000000  1
  Mo  Mo6  1  0.999159  0.449968  0.000000  1
  P  P7  1  0.174706  0.996243  0.000000  1
  P  P8  1  0.003904  0.177729  0.000000  1
  P  P9  1  0.818018  0.818398  0.000000  1
  P  P10  1  0.170841  0.481723  0.500000  1
  P  P11  1  0.517031  0.691571  0.500000  1
  P  P12  1  0.311430  0.832963  0.500000  1
  P  P13  1  0.692046  0.519072  0.500000  1
  P  P14  1  0.835387  0.316535  0.500000  1
  P  P15  1  0.484854  0.170830  0.500000  1
  P  P16  1  0.635273  0.993242  0.000000  1
  P  P17  1  0.999151  0.639219  0.000000  1
  P  P18  1  0.357264  0.362299  0.000000  1
  Ir  Ir19  1  0.361734  0.493401  0.500000  1
  Ir  Ir20  1  0.508058  0.871274  0.500000  1
  Ir  Ir21  1  0.135507  0.639781  0.500000  1
  Ir  Ir22  1  0.869682  0.509685  0.500000  1
  Ir  Ir23  1  0.643884  0.139681  0.500000  1
  Ir  Ir24  1  0.496257  0.359838  0.500000  1
  Ir  Ir25  1  0.818011  0.185603  0.000000  1
  Ir  Ir26  1  0.372991  0.184564  0.000000  1
  Ir  Ir27  1  0.281623  0.003907  0.500000  1
  Ir  Ir28  1  0.998842  0.278255  0.500000  1
  Ir  Ir29  1  0.714746  0.715124  0.500000  1
  Ir  Ir30  1  0.998289  0.997749  0.000000  1
  Ru  Ru31  1  0.546107  0.542836  0.000000  1
  Ru  Ru32  1  0.180803  0.376567  0.000000  1
  Ru  Ru33  1  0.621318  0.801005  0.000000  1
  Ru  Ru34  1  0.193958  0.820814  0.000000  1
  Ru  Ru35  1  0.804568  0.624651  0.000000  1
