# generated using pymatgen
data_Y7HoSc12Si15Bi
_symmetry_space_group_name_H-M   'P 1'
_cell_length_a   7.17609675
_cell_length_b   7.41975084
_cell_length_c   14.07496902
_cell_angle_alpha   90.06214387
_cell_angle_beta   88.69941463
_cell_angle_gamma   90.17019184
_symmetry_Int_Tables_number   1
_chemical_formula_structural   Y7HoSc12Si15Bi
_chemical_formula_sum   'Y7 Ho1 Sc12 Si15 Bi1'
_cell_volume   749.22285160
_cell_formula_units_Z   1
loop_
 _symmetry_equiv_pos_site_id
 _symmetry_equiv_pos_as_xyz
  1  'x, y, z'
loop_
 _atom_site_type_symbol
 _atom_site_label
 _atom_site_symmetry_multiplicity
 _atom_site_fract_x
 _atom_site_fract_y
 _atom_site_fract_z
 _atom_site_occupancy
  Y  Y0  1  0.011938  0.176615  0.096627  1
  Y  Y1  1  0.988402  0.824772  0.904103  1
  Y  Y2  1  0.489188  0.675694  0.904053  1
  Y  Y3  1  0.993541  0.831351  0.598392  1
  Y  Y4  1  0.511348  0.324408  0.097355  1
  Y  Y5  1  0.999275  0.170082  0.399007  1
  Y  Y6  1  0.511104  0.317264  0.397597  1
  Ho  Ho7  1  0.512015  0.686508  0.601271  1
  Sc  Sc8  1  0.164969  0.500754  0.756132  1
  Sc  Sc9  1  0.834444  0.499354  0.251416  1
  Sc  Sc10  1  0.334517  0.001341  0.250289  1
  Sc  Sc11  1  0.667338  0.998987  0.751187  1
  Sc  Sc12  1  0.349666  0.155810  0.631786  1
  Sc  Sc13  1  0.657919  0.827342  0.372532  1
  Sc  Sc14  1  0.153915  0.683015  0.368874  1
  Sc  Sc15  1  0.666999  0.822709  0.123907  1
  Sc  Sc16  1  0.826832  0.326479  0.625966  1
  Sc  Sc17  1  0.331070  0.175509  0.875400  1
  Sc  Sc18  1  0.831794  0.323597  0.875540  1
  Sc  Sc19  1  0.168042  0.676630  0.124980  1
  Si  Si20  1  0.037244  0.119650  0.751224  1
  Si  Si21  1  0.960117  0.884702  0.245950  1
  Si  Si22  1  0.460542  0.616759  0.247539  1
  Si  Si23  1  0.536314  0.384359  0.752830  1
  Si  Si24  1  0.289909  0.867336  0.752945  1
  Si  Si25  1  0.710524  0.126090  0.246362  1
  Si  Si26  1  0.209273  0.373629  0.248814  1
  Si  Si27  1  0.793574  0.628302  0.751721  1
  Si  Si28  1  0.812144  0.541601  0.456537  1
  Si  Si29  1  0.329448  0.962737  0.459823  1
  Si  Si30  1  0.843731  0.534427  0.039867  1
  Si  Si31  1  0.671858  0.038817  0.538701  1
  Si  Si32  1  0.155507  0.465241  0.961405  1
  Si  Si33  1  0.655373  0.034827  0.960324  1
  Si  Si34  1  0.343335  0.965958  0.040174  1
  Bi  Bi35  1  0.186791  0.457340  0.539370  1
