# generated using pymatgen
data_Hg3Sb(OF3)2
_symmetry_space_group_name_H-M   'P 1'
_cell_length_a   7.25577800
_cell_length_b   7.25577794
_cell_length_c   5.69211600
_cell_angle_alpha   90.00000000
_cell_angle_beta   90.00000000
_cell_angle_gamma   120.00000029
_symmetry_Int_Tables_number   1
_chemical_formula_structural   Hg3Sb(OF3)2
_chemical_formula_sum   'Hg3 Sb1 O2 F6'
_cell_volume   259.52090178
_cell_formula_units_Z   1
loop_
 _symmetry_equiv_pos_site_id
 _symmetry_equiv_pos_as_xyz
  1  'x, y, z'
loop_
 _atom_site_type_symbol
 _atom_site_label
 _atom_site_symmetry_multiplicity
 _atom_site_fract_x
 _atom_site_fract_y
 _atom_site_fract_z
 _atom_site_occupancy
  Hg  Hg0  1  0.500000  0.000000  0.000000  1
  Hg  Hg1  1  0.000000  0.500000  0.000000  1
  Hg  Hg2  1  0.500000  0.500000  0.000000  1
  Sb  Sb3  1  0.000000  0.000000  0.500000  1
  O  O4  1  0.666666  0.333333  0.058571  1
  O  O5  1  0.333333  0.666667  0.941430  1
  F  F6  1  0.125332  0.250664  0.302420  1
  F  F7  1  0.125332  0.874669  0.302420  1
  F  F8  1  0.749337  0.874669  0.302420  1
  F  F9  1  0.250664  0.125331  0.697580  1
  F  F10  1  0.874668  0.125331  0.697580  1
  F  F11  1  0.874667  0.749336  0.697580  1
