# generated using pymatgen
data_Y14Er2MgHg3Ir4
_symmetry_space_group_name_H-M   'P 1'
_cell_length_a   9.66474616
_cell_length_b   9.64178236
_cell_length_c   9.66556600
_cell_angle_alpha   59.91836773
_cell_angle_beta   59.99719387
_cell_angle_gamma   59.90986499
_symmetry_Int_Tables_number   1
_chemical_formula_structural   Y14Er2MgHg3Ir4
_chemical_formula_sum   'Y14 Er2 Mg1 Hg3 Ir4'
_cell_volume   636.04213155
_cell_formula_units_Z   1
loop_
 _symmetry_equiv_pos_site_id
 _symmetry_equiv_pos_as_xyz
  1  'x, y, z'
loop_
 _atom_site_type_symbol
 _atom_site_label
 _atom_site_symmetry_multiplicity
 _atom_site_fract_x
 _atom_site_fract_y
 _atom_site_fract_z
 _atom_site_occupancy
  Y  Y0  1  0.601072  0.203355  0.597786  1
  Y  Y1  1  0.192111  0.603163  0.602363  1
  Y  Y2  1  0.056880  0.441195  0.442861  1
  Y  Y3  1  0.437428  0.060327  0.061796  1
  Y  Y4  1  0.437428  0.060327  0.440449  1
  Y  Y5  1  0.056880  0.441195  0.059064  1
  Y  Y6  1  0.438892  0.439927  0.060590  1
  Y  Y7  1  0.057930  0.059009  0.441530  1
  Y  Y8  1  0.188165  0.810893  0.811505  1
  Y  Y9  1  0.810385  0.189500  0.187634  1
  Y  Y10  1  0.810385  0.189500  0.812482  1
  Y  Y11  1  0.188165  0.810893  0.189438  1
  Y  Y12  1  0.809853  0.811534  0.189307  1
  Y  Y13  1  0.186565  0.189507  0.811965  1
  Er  Er14  1  0.599098  0.597395  0.596186  1
  Er  Er15  1  0.599098  0.597395  0.207320  1
  Mg  Mg16  1  0.535069  0.820309  0.822311  1
  Hg  Hg17  1  0.831865  0.836435  0.837026  1
  Hg  Hg18  1  0.831865  0.836435  0.494675  1
  Hg  Hg19  1  0.831943  0.493885  0.837086  1
  Ir  Ir20  1  0.391071  0.395036  0.390202  1
  Ir  Ir21  1  0.391071  0.395036  0.823690  1
  Ir  Ir22  1  0.393139  0.822526  0.392167  1
  Ir  Ir23  1  0.823644  0.395222  0.390567  1
