# generated using pymatgen
data_Y8Tm2Ir3Rh
_symmetry_space_group_name_H-M   'P 1'
_cell_length_a   6.49871819
_cell_length_b   7.21813053
_cell_length_c   8.56258413
_cell_angle_alpha   96.62319427
_cell_angle_beta   112.25021525
_cell_angle_gamma   90.08780701
_symmetry_Int_Tables_number   1
_chemical_formula_structural   Y8Tm2Ir3Rh
_chemical_formula_sum   'Y8 Tm2 Ir3 Rh1'
_cell_volume   368.82323197
_cell_formula_units_Z   1
loop_
 _symmetry_equiv_pos_site_id
 _symmetry_equiv_pos_as_xyz
  1  'x, y, z'
loop_
 _atom_site_type_symbol
 _atom_site_label
 _atom_site_symmetry_multiplicity
 _atom_site_fract_x
 _atom_site_fract_y
 _atom_site_fract_z
 _atom_site_occupancy
  Y  Y0  1  0.971395  0.918088  0.181866  1
  Y  Y1  1  0.788485  0.581222  0.815570  1
  Y  Y2  1  0.028893  0.081706  0.817945  1
  Y  Y3  1  0.212470  0.418464  0.182628  1
  Y  Y4  1  0.649892  0.818238  0.441236  1
  Y  Y5  1  0.213737  0.684459  0.561828  1
  Y  Y6  1  0.348746  0.184031  0.559854  1
  Y  Y7  1  0.789875  0.316157  0.440677  1
  Tm  Tm8  1  0.428376  0.750313  0.999433  1
  Tm  Tm9  1  0.569763  0.248576  0.999461  1
  Ir  Ir10  1  0.604200  0.927630  0.785259  1
  Ir  Ir11  1  0.180727  0.427850  0.784032  1
  Ir  Ir12  1  0.396406  0.072542  0.215994  1
  Rh  Rh13  1  0.817035  0.570724  0.214216  1
