# generated using pymatgen
data_Ba5Sr7(BN2)8
_symmetry_space_group_name_H-M   'P 1'
_cell_length_a   4.13753422
_cell_length_b   11.04001445
_cell_length_c   14.22237899
_cell_angle_alpha   90.09684896
_cell_angle_beta   89.80207795
_cell_angle_gamma   90.33019898
_symmetry_Int_Tables_number   1
_chemical_formula_structural   Ba5Sr7(BN2)8
_chemical_formula_sum   'Ba5 Sr7 B8 N16'
_cell_volume   649.64048048
_cell_formula_units_Z   1
loop_
 _symmetry_equiv_pos_site_id
 _symmetry_equiv_pos_as_xyz
  1  'x, y, z'
loop_
 _atom_site_type_symbol
 _atom_site_label
 _atom_site_symmetry_multiplicity
 _atom_site_fract_x
 _atom_site_fract_y
 _atom_site_fract_z
 _atom_site_occupancy
  Ba  Ba0  1  0.797185  0.157281  0.095346  1
  Ba  Ba1  1  0.597209  0.687844  0.880914  1
  Ba  Ba2  1  0.105683  0.810856  0.120110  1
  Ba  Ba3  1  0.402021  0.187686  0.617671  1
  Ba  Ba4  1  0.892466  0.316014  0.383336  1
  Sr  Sr5  1  0.869209  0.042942  0.830256  1
  Sr  Sr6  1  0.375443  0.461333  0.164819  1
  Sr  Sr7  1  0.118671  0.540370  0.664699  1
  Sr  Sr8  1  0.639249  0.955058  0.339128  1
  Sr  Sr9  1  0.704593  0.835391  0.594345  1
  Sr  Sr10  1  0.204381  0.663771  0.407212  1
  Sr  Sr11  1  0.292557  0.336336  0.903763  1
  B  B12  1  0.568636  0.507319  0.517619  1
  B  B13  1  0.079705  0.993158  0.484781  1
  B  B14  1  0.926599  0.497946  0.015428  1
  B  B15  1  0.423301  0.001773  0.976516  1
  B  B16  1  0.236435  0.858605  0.735626  1
  B  B17  1  0.742316  0.639913  0.264190  1
  B  B18  1  0.755949  0.360344  0.761874  1
  B  B19  1  0.267632  0.141651  0.245268  1
  N  N20  1  0.378182  0.967957  0.726444  1
  N  N21  1  0.885655  0.531252  0.270576  1
  N  N22  1  0.610241  0.468566  0.770003  1
  N  N23  1  0.150005  0.028282  0.236338  1
  N  N24  1  0.911171  0.095649  0.496967  1
  N  N25  1  0.395865  0.405139  0.505610  1
  N  N26  1  0.096006  0.601150  0.005050  1
  N  N27  1  0.591598  0.901666  0.997534  1
  N  N28  1  0.793024  0.386429  0.026341  1
  N  N29  1  0.304856  0.113151  0.957186  1
  N  N30  1  0.700719  0.618842  0.529657  1
  N  N31  1  0.203819  0.880943  0.471100  1
  N  N32  1  0.598316  0.748882  0.261873  1
  N  N33  1  0.093948  0.748727  0.739243  1
  N  N34  1  0.384034  0.255671  0.245085  1
  N  N35  1  0.903319  0.252103  0.758091  1
