# generated using pymatgen
data_SrNp2O8
_symmetry_space_group_name_H-M   'P 1'
_cell_length_a   5.67184085
_cell_length_b   5.68138250
_cell_length_c   6.88498500
_cell_angle_alpha   65.82946817
_cell_angle_beta   66.05289523
_cell_angle_gamma   90.02982345
_symmetry_Int_Tables_number   1
_chemical_formula_structural   SrNp2O8
_chemical_formula_sum   'Sr1 Np2 O8'
_cell_volume   181.25179461
_cell_formula_units_Z   1
loop_
 _symmetry_equiv_pos_site_id
 _symmetry_equiv_pos_as_xyz
  1  'x, y, z'
loop_
 _atom_site_type_symbol
 _atom_site_label
 _atom_site_symmetry_multiplicity
 _atom_site_fract_x
 _atom_site_fract_y
 _atom_site_fract_z
 _atom_site_occupancy
  Sr  Sr0  1  0.748556  0.712003  0.497327  1
  Np  Np1  1  0.496604  0.001458  0.002605  1
  Np  Np2  1  0.999450  0.506011  0.992685  1
  O  O3  1  0.160490  0.744315  0.145589  1
  O  O4  1  0.686644  0.640916  0.146272  1
  O  O5  1  0.925215  0.208707  0.269076  1
  O  O6  1  0.437509  0.998329  0.284609  1
  O  O7  1  0.569263  0.978655  0.726571  1
  O  O8  1  0.056782  0.780903  0.710061  1
  O  O9  1  0.336942  0.392846  0.850574  1
  O  O10  1  0.810558  0.286794  0.849249  1
