# generated using pymatgen
data_YbEuSi5Pd3
_symmetry_space_group_name_H-M   'P 1'
_cell_length_a   8.32726583
_cell_length_b   8.33123932
_cell_length_c   8.33123923
_cell_angle_alpha   138.88897403
_cell_angle_beta   105.42407799
_cell_angle_gamma   88.89524013
_symmetry_Int_Tables_number   1
_chemical_formula_structural   YbEuSi5Pd3
_chemical_formula_sum   'Yb2 Eu2 Si10 Pd6'
_cell_volume   351.08077714
_cell_formula_units_Z   2
loop_
 _symmetry_equiv_pos_site_id
 _symmetry_equiv_pos_as_xyz
  1  'x, y, z'
loop_
 _atom_site_type_symbol
 _atom_site_label
 _atom_site_symmetry_multiplicity
 _atom_site_fract_x
 _atom_site_fract_y
 _atom_site_fract_z
 _atom_site_occupancy
  Yb  Yb0  1  0.636711  0.871076  0.765635  1
  Yb  Yb1  1  0.363289  0.128924  0.234365  1
  Eu  Eu2  1  0.105785  0.371498  0.734287  1
  Eu  Eu3  1  0.894215  0.628502  0.265713  1
  Si  Si4  1  0.276326  0.025747  0.750294  1
  Si  Si5  1  0.723674  0.974253  0.249706  1
  Si  Si6  1  0.723674  0.473969  0.749422  1
  Si  Si7  1  0.276326  0.526031  0.250578  1
  Si  Si8  1  0.461873  0.613106  0.848767  1
  Si  Si9  1  0.538127  0.386894  0.151233  1
  Si  Si10  1  0.763662  0.112498  0.651163  1
  Si  Si11  1  0.236338  0.887502  0.348837  1
  Si  Si12  1  0.000000  0.749891  0.749891  1
  Si  Si13  1  0.000000  0.250109  0.250109  1
  Pd  Pd14  1  0.249508  0.638306  0.611203  1
  Pd  Pd15  1  0.750492  0.361694  0.388797  1
  Pd  Pd16  1  0.027129  0.137077  0.890052  1
  Pd  Pd17  1  0.972871  0.862923  0.109948  1
  Pd  Pd18  1  0.500000  0.750436  0.250436  1
  Pd  Pd19  1  0.500000  0.249564  0.749564  1
