# generated using pymatgen
data_TmPa3(HgPt2)2
_symmetry_space_group_name_H-M   'P 1'
_cell_length_a   7.85247777
_cell_length_b   7.85247777
_cell_length_c   3.61503500
_cell_angle_alpha   90.00000000
_cell_angle_beta   90.00000000
_cell_angle_gamma   90.92669762
_symmetry_Int_Tables_number   1
_chemical_formula_structural   TmPa3(HgPt2)2
_chemical_formula_sum   'Tm1 Pa3 Hg2 Pt4'
_cell_volume   222.87898966
_cell_formula_units_Z   1
loop_
 _symmetry_equiv_pos_site_id
 _symmetry_equiv_pos_as_xyz
  1  'x, y, z'
loop_
 _atom_site_type_symbol
 _atom_site_label
 _atom_site_symmetry_multiplicity
 _atom_site_fract_x
 _atom_site_fract_y
 _atom_site_fract_z
 _atom_site_occupancy
  Tm  Tm0  1  0.327429  0.172571  0.500000  1
  Pa  Pa1  1  0.828811  0.327111  0.500000  1
  Pa  Pa2  1  0.172889  0.671189  0.500000  1
  Pa  Pa3  1  0.668028  0.831972  0.500000  1
  Hg  Hg4  1  0.008970  0.003156  0.000000  1
  Hg  Hg5  1  0.496844  0.491030  0.000000  1
  Pt  Pt6  1  0.637276  0.125733  0.000000  1
  Pt  Pt7  1  0.120177  0.379823  0.000000  1
  Pt  Pt8  1  0.865309  0.634691  0.000000  1
  Pt  Pt9  1  0.374267  0.862724  0.000000  1
