# generated using pymatgen
data_Tb6EuRuBr12
_symmetry_space_group_name_H-M   'P 1'
_cell_length_a   9.29754938
_cell_length_b   9.29754891
_cell_length_c   9.29755153
_cell_angle_alpha   106.45016357
_cell_angle_beta   106.45015499
_cell_angle_gamma   106.45016446
_symmetry_Int_Tables_number   1
_chemical_formula_structural   Tb6EuRuBr12
_chemical_formula_sum   'Tb6 Eu1 Ru1 Br12'
_cell_volume   679.13640458
_cell_formula_units_Z   1
loop_
 _symmetry_equiv_pos_site_id
 _symmetry_equiv_pos_as_xyz
  1  'x, y, z'
loop_
 _atom_site_type_symbol
 _atom_site_label
 _atom_site_symmetry_multiplicity
 _atom_site_fract_x
 _atom_site_fract_y
 _atom_site_fract_z
 _atom_site_occupancy
  Tb  Tb0  1  0.099577  0.021724  0.309168  1
  Tb  Tb1  1  0.309168  0.099577  0.021724  1
  Tb  Tb2  1  0.021724  0.309168  0.099577  1
  Tb  Tb3  1  0.900423  0.978276  0.690832  1
  Tb  Tb4  1  0.690832  0.900423  0.978276  1
  Tb  Tb5  1  0.978276  0.690832  0.900423  1
  Eu  Eu6  1  0.500000  0.500000  0.500000  1
  Ru  Ru7  1  0.000000  0.000000  0.000000  1
  Br  Br8  1  0.073410  0.679240  0.220341  1
  Br  Br9  1  0.220341  0.073410  0.679240  1
  Br  Br10  1  0.679240  0.220341  0.073410  1
  Br  Br11  1  0.926590  0.320760  0.779659  1
  Br  Br12  1  0.779659  0.926590  0.320760  1
  Br  Br13  1  0.320760  0.779659  0.926590  1
  Br  Br14  1  0.448914  0.145609  0.369862  1
  Br  Br15  1  0.369862  0.448914  0.145609  1
  Br  Br16  1  0.145609  0.369862  0.448914  1
  Br  Br17  1  0.551086  0.854391  0.630138  1
  Br  Br18  1  0.630138  0.551086  0.854391  1
  Br  Br19  1  0.854391  0.630138  0.551086  1
