# generated using pymatgen
data_La4Nd2IrI10
_symmetry_space_group_name_H-M   'P 1'
_cell_length_a   8.09629051
_cell_length_b   10.07092407
_cell_length_c   10.18237883
_cell_angle_alpha   107.59462074
_cell_angle_beta   96.13167165
_cell_angle_gamma   104.71730710
_symmetry_Int_Tables_number   1
_chemical_formula_structural   La4Nd2IrI10
_chemical_formula_sum   'La4 Nd2 Ir1 I10'
_cell_volume   750.10441258
_cell_formula_units_Z   1
loop_
 _symmetry_equiv_pos_site_id
 _symmetry_equiv_pos_as_xyz
  1  'x, y, z'
loop_
 _atom_site_type_symbol
 _atom_site_label
 _atom_site_symmetry_multiplicity
 _atom_site_fract_x
 _atom_site_fract_y
 _atom_site_fract_z
 _atom_site_occupancy
  La  La0  1  0.121645  0.044235  0.753851  1
  La  La1  1  0.878355  0.955765  0.246149  1
  La  La2  1  0.967343  0.280835  0.085925  1
  La  La3  1  0.032657  0.719165  0.914075  1
  Nd  Nd4  1  0.352527  0.125730  0.167426  1
  Nd  Nd5  1  0.647473  0.874270  0.832574  1
  Ir  Ir6  1  0.000000  0.000000  0.000000  1
  I  I7  1  0.352317  0.448786  0.270331  1
  I  I8  1  0.647683  0.551214  0.729669  1
  I  I9  1  0.258885  0.085274  0.454966  1
  I  I10  1  0.741115  0.914726  0.545034  1
  I  I11  1  0.085457  0.371987  0.820551  1
  I  I12  1  0.914543  0.628013  0.179449  1
  I  I13  1  0.453073  0.817283  0.087778  1
  I  I14  1  0.546927  0.182717  0.912222  1
  I  I15  1  0.770464  0.255229  0.346142  1
  I  I16  1  0.229536  0.744771  0.653858  1
