# generated using pymatgen
data_La5ThBiO12
_symmetry_space_group_name_H-M   'P 1'
_cell_length_a   6.89600242
_cell_length_b   6.91551856
_cell_length_c   6.90266841
_cell_angle_alpha   99.07140449
_cell_angle_beta   98.75712958
_cell_angle_gamma   98.55184720
_symmetry_Int_Tables_number   1
_chemical_formula_structural   La5ThBiO12
_chemical_formula_sum   'La5 Th1 Bi1 O12'
_cell_volume   316.20734891
_cell_formula_units_Z   1
loop_
 _symmetry_equiv_pos_site_id
 _symmetry_equiv_pos_as_xyz
  1  'x, y, z'
loop_
 _atom_site_type_symbol
 _atom_site_label
 _atom_site_symmetry_multiplicity
 _atom_site_fract_x
 _atom_site_fract_y
 _atom_site_fract_z
 _atom_site_occupancy
  La  La0  1  0.605063  0.144004  0.305940  1
  La  La1  1  0.396161  0.861713  0.694563  1
  La  La2  1  0.695558  0.394856  0.857109  1
  La  La3  1  0.857249  0.695167  0.396885  1
  La  La4  1  0.141071  0.302822  0.603603  1
  Th  Th5  1  0.304640  0.605029  0.140383  1
  Bi  Bi6  1  0.000706  0.998910  0.001731  1
  O  O7  1  0.438646  0.179011  0.593162  1
  O  O8  1  0.938392  0.692166  0.048920  1
  O  O9  1  0.181721  0.588365  0.426010  1
  O  O10  1  0.823819  0.411696  0.563158  1
  O  O11  1  0.554590  0.818042  0.396259  1
  O  O12  1  0.576822  0.438964  0.176673  1
  O  O13  1  0.403640  0.568334  0.831886  1
  O  O14  1  0.954816  0.068670  0.305081  1
  O  O15  1  0.045512  0.931875  0.696316  1
  O  O16  1  0.697855  0.047193  0.928647  1
  O  O17  1  0.078986  0.308282  0.963496  1
  O  O18  1  0.304751  0.944905  0.070177  1
