# generated using pymatgen
data_SmDy2CI3
_symmetry_space_group_name_H-M   'P 1'
_cell_length_a   3.93682900
_cell_length_b   8.78506019
_cell_length_c   11.99643096
_cell_angle_alpha   92.10674840
_cell_angle_beta   90.00000000
_cell_angle_gamma   90.00000000
_symmetry_Int_Tables_number   1
_chemical_formula_structural   SmDy2CI3
_chemical_formula_sum   'Sm2 Dy4 C2 I6'
_cell_volume   414.61947760
_cell_formula_units_Z   2
loop_
 _symmetry_equiv_pos_site_id
 _symmetry_equiv_pos_as_xyz
  1  'x, y, z'
loop_
 _atom_site_type_symbol
 _atom_site_label
 _atom_site_symmetry_multiplicity
 _atom_site_fract_x
 _atom_site_fract_y
 _atom_site_fract_z
 _atom_site_occupancy
  Sm  Sm0  1  0.250000  0.914606  0.600526  1
  Sm  Sm1  1  0.750000  0.085394  0.399474  1
  Dy  Dy2  1  0.250000  0.886551  0.187229  1
  Dy  Dy3  1  0.750000  0.113449  0.812771  1
  Dy  Dy4  1  0.250000  0.292672  0.615001  1
  Dy  Dy5  1  0.750000  0.707328  0.384999  1
  C  C6  1  0.250000  0.876434  0.383478  1
  C  C7  1  0.750000  0.123566  0.616522  1
  I  I8  1  0.250000  0.861313  0.874352  1
  I  I9  1  0.750000  0.138687  0.125648  1
  I  I10  1  0.250000  0.373229  0.869970  1
  I  I11  1  0.750000  0.626771  0.130030  1
  I  I12  1  0.250000  0.386877  0.368163  1
  I  I13  1  0.750000  0.613123  0.631837  1
