# generated using pymatgen
data_Hf18Fe2Re7Mo
_symmetry_space_group_name_H-M   'P 1'
_cell_length_a   8.59418700
_cell_length_b   8.59418738
_cell_length_c   8.47592400
_cell_angle_alpha   90.00000000
_cell_angle_beta   90.00000000
_cell_angle_gamma   119.99999467
_symmetry_Int_Tables_number   1
_chemical_formula_structural   Hf18Fe2Re7Mo
_chemical_formula_sum   'Hf18 Fe2 Re7 Mo1'
_cell_volume   542.15981799
_cell_formula_units_Z   1
loop_
 _symmetry_equiv_pos_site_id
 _symmetry_equiv_pos_as_xyz
  1  'x, y, z'
loop_
 _atom_site_type_symbol
 _atom_site_label
 _atom_site_symmetry_multiplicity
 _atom_site_fract_x
 _atom_site_fract_y
 _atom_site_fract_z
 _atom_site_occupancy
  Hf  Hf0  1  0.201022  0.798978  0.441287  1
  Hf  Hf1  1  0.201022  0.402046  0.441287  1
  Hf  Hf2  1  0.597954  0.798978  0.441287  1
  Hf  Hf3  1  0.798978  0.201022  0.558713  1
  Hf  Hf4  1  0.798978  0.597954  0.558713  1
  Hf  Hf5  1  0.402046  0.201022  0.558713  1
  Hf  Hf6  1  0.800216  0.199784  0.940823  1
  Hf  Hf7  1  0.800216  0.600430  0.940823  1
  Hf  Hf8  1  0.399570  0.199784  0.940823  1
  Hf  Hf9  1  0.199784  0.800216  0.059177  1
  Hf  Hf10  1  0.199784  0.399570  0.059177  1
  Hf  Hf11  1  0.600430  0.800216  0.059177  1
  Hf  Hf12  1  0.540682  0.459318  0.249127  1
  Hf  Hf13  1  0.540682  0.081365  0.249127  1
  Hf  Hf14  1  0.918635  0.459318  0.249127  1
  Hf  Hf15  1  0.459318  0.540682  0.750873  1
  Hf  Hf16  1  0.459318  0.918635  0.750873  1
  Hf  Hf17  1  0.081365  0.540682  0.750873  1
  Fe  Fe18  1  0.333333  0.666667  0.249460  1
  Fe  Fe19  1  0.666667  0.333333  0.750540  1
  Re  Re20  1  0.888623  0.111377  0.250726  1
  Re  Re21  1  0.888623  0.777245  0.250726  1
  Re  Re22  1  0.222755  0.111377  0.250726  1
  Re  Re23  1  0.111377  0.888623  0.749274  1
  Re  Re24  1  0.111377  0.222755  0.749274  1
  Re  Re25  1  0.777245  0.888623  0.749274  1
  Re  Re26  1  0.000000  0.000000  0.000000  1
  Mo  Mo27  1  0.000000  0.000000  0.500000  1
