# generated using pymatgen
data_Ce4Co16As9P3Ru4
_symmetry_space_group_name_H-M   'P 1'
_cell_length_a   3.82412300
_cell_length_b   10.83359781
_cell_length_c   12.17445181
_cell_angle_alpha   90.21270531
_cell_angle_beta   90.00000000
_cell_angle_gamma   90.00000000
_symmetry_Int_Tables_number   1
_chemical_formula_structural   Ce4Co16As9P3Ru4
_chemical_formula_sum   'Ce4 Co16 As9 P3 Ru4'
_cell_volume   504.37201691
_cell_formula_units_Z   1
loop_
 _symmetry_equiv_pos_site_id
 _symmetry_equiv_pos_as_xyz
  1  'x, y, z'
loop_
 _atom_site_type_symbol
 _atom_site_label
 _atom_site_symmetry_multiplicity
 _atom_site_fract_x
 _atom_site_fract_y
 _atom_site_fract_z
 _atom_site_occupancy
  Ce  Ce0  1  0.250000  0.580815  0.700893  1
  Ce  Ce1  1  0.250000  0.919833  0.199523  1
  Ce  Ce2  1  0.750000  0.413945  0.295837  1
  Ce  Ce3  1  0.750000  0.080361  0.800582  1
  Co  Co4  1  0.250000  0.407931  0.493383  1
  Co  Co5  1  0.250000  0.085679  0.989483  1
  Co  Co6  1  0.750000  0.585708  0.517925  1
  Co  Co7  1  0.750000  0.914555  0.010855  1
  Co  Co8  1  0.250000  0.206357  0.169407  1
  Co  Co9  1  0.250000  0.291486  0.671496  1
  Co  Co10  1  0.750000  0.793810  0.830581  1
  Co  Co11  1  0.750000  0.712277  0.326778  1
  Co  Co12  1  0.250000  0.891739  0.708253  1
  Co  Co13  1  0.250000  0.611163  0.199403  1
  Co  Co14  1  0.750000  0.109474  0.292506  1
  Co  Co15  1  0.750000  0.389869  0.793557  1
  Co  Co16  1  0.250000  0.469411  0.927820  1
  Co  Co17  1  0.250000  0.031604  0.429697  1
  Co  Co18  1  0.750000  0.530572  0.068932  1
  Co  Co19  1  0.750000  0.969375  0.571274  1
  As  As20  1  0.250000  0.411965  0.109717  1
  As  As21  1  0.250000  0.087027  0.612777  1
  As  As22  1  0.750000  0.588123  0.887418  1
  As  As23  1  0.750000  0.914143  0.388106  1
  As  As24  1  0.250000  0.273380  0.865025  1
  As  As25  1  0.250000  0.225402  0.364726  1
  As  As26  1  0.750000  0.726793  0.133664  1
  As  As27  1  0.750000  0.774644  0.636725  1
  As  As28  1  0.250000  0.597020  0.392539  1
  P  P29  1  0.250000  0.902083  0.893829  1
  P  P30  1  0.750000  0.399725  0.608337  1
  P  P31  1  0.750000  0.098438  0.106499  1
  Ru  Ru32  1  0.250000  0.720837  0.990689  1
  Ru  Ru33  1  0.250000  0.786894  0.496669  1
  Ru  Ru34  1  0.750000  0.277956  0.006942  1
  Ru  Ru35  1  0.750000  0.219609  0.508154  1
