# generated using pymatgen
data_Hf4Zr6CuGeSb6
_symmetry_space_group_name_H-M   'P 1'
_cell_length_a   8.64721200
_cell_length_b   8.64721214
_cell_length_c   5.82871800
_cell_angle_alpha   90.00000000
_cell_angle_beta   90.00000000
_cell_angle_gamma   119.99999182
_symmetry_Int_Tables_number   1
_chemical_formula_structural   Hf4Zr6CuGeSb6
_chemical_formula_sum   'Hf4 Zr6 Cu1 Ge1 Sb6'
_cell_volume   377.44695976
_cell_formula_units_Z   1
loop_
 _symmetry_equiv_pos_site_id
 _symmetry_equiv_pos_as_xyz
  1  'x, y, z'
loop_
 _atom_site_type_symbol
 _atom_site_label
 _atom_site_symmetry_multiplicity
 _atom_site_fract_x
 _atom_site_fract_y
 _atom_site_fract_z
 _atom_site_occupancy
  Hf  Hf0  1  0.666667  0.333333  0.000000  1
  Hf  Hf1  1  0.333333  0.666667  0.000000  1
  Hf  Hf2  1  0.333333  0.666667  0.500000  1
  Hf  Hf3  1  0.666667  0.333333  0.500000  1
  Zr  Zr4  1  0.734266  0.734266  0.751022  1
  Zr  Zr5  1  0.265734  0.000000  0.751022  1
  Zr  Zr6  1  0.000000  0.265734  0.751022  1
  Zr  Zr7  1  0.265734  0.265734  0.248978  1
  Zr  Zr8  1  0.734266  0.000000  0.248978  1
  Zr  Zr9  1  0.000000  0.734266  0.248978  1
  Cu  Cu10  1  0.000000  0.000000  0.000000  1
  Ge  Ge11  1  0.000000  0.000000  0.500000  1
  Sb  Sb12  1  0.389355  0.389355  0.752260  1
  Sb  Sb13  1  0.610645  0.000000  0.752260  1
  Sb  Sb14  1  0.000000  0.610645  0.752260  1
  Sb  Sb15  1  0.610645  0.610645  0.247740  1
  Sb  Sb16  1  0.389355  0.000000  0.247740  1
  Sb  Sb17  1  0.000000  0.389355  0.247740  1
