# generated using pymatgen
data_Ca7MnNbAlN9
_symmetry_space_group_name_H-M   'P 1'
_cell_length_a   10.08259300
_cell_length_b   6.09428850
_cell_length_c   9.08098209
_cell_angle_alpha   87.49159920
_cell_angle_beta   90.00000000
_cell_angle_gamma   90.00000000
_symmetry_Int_Tables_number   1
_chemical_formula_structural   Ca7MnNbAlN9
_chemical_formula_sum   'Ca14 Mn2 Nb2 Al2 N18'
_cell_volume   557.45745963
_cell_formula_units_Z   2
loop_
 _symmetry_equiv_pos_site_id
 _symmetry_equiv_pos_as_xyz
  1  'x, y, z'
loop_
 _atom_site_type_symbol
 _atom_site_label
 _atom_site_symmetry_multiplicity
 _atom_site_fract_x
 _atom_site_fract_y
 _atom_site_fract_z
 _atom_site_occupancy
  Ca  Ca0  1  0.935896  0.421184  0.159403  1
  Ca  Ca1  1  0.077535  0.244506  0.493312  1
  Ca  Ca2  1  0.250000  0.087467  0.804787  1
  Ca  Ca3  1  0.445881  0.558755  0.827405  1
  Ca  Ca4  1  0.578290  0.748552  0.505636  1
  Ca  Ca5  1  0.576847  0.068383  0.825314  1
  Ca  Ca6  1  0.923153  0.068383  0.825314  1
  Ca  Ca7  1  0.421827  0.935198  0.166525  1
  Ca  Ca8  1  0.422465  0.244506  0.493312  1
  Ca  Ca9  1  0.078173  0.935198  0.166525  1
  Ca  Ca10  1  0.921710  0.748552  0.505636  1
  Ca  Ca11  1  0.054119  0.558755  0.827405  1
  Ca  Ca12  1  0.750000  0.911771  0.203578  1
  Ca  Ca13  1  0.564104  0.421184  0.159403  1
  Mn  Mn14  1  0.750000  0.678270  0.938425  1
  Mn  Mn15  1  0.250000  0.544178  0.279640  1
  Nb  Nb16  1  0.750000  0.280730  0.441271  1
  Nb  Nb17  1  0.250000  0.720609  0.565035  1
  Al  Al18  1  0.250000  0.327676  0.059048  1
  Al  Al19  1  0.750000  0.458384  0.722160  1
  N  N20  1  0.409486  0.229233  0.977698  1
  N  N21  1  0.250000  0.244854  0.271552  1
  N  N22  1  0.900421  0.113374  0.341059  1
  N  N23  1  0.602850  0.363626  0.625314  1
  N  N24  1  0.750000  0.558851  0.334553  1
  N  N25  1  0.250000  0.645080  0.088437  1
  N  N26  1  0.897150  0.363626  0.625314  1
  N  N27  1  0.391073  0.638189  0.372908  1
  N  N28  1  0.750000  0.379122  0.932616  1
  N  N29  1  0.098500  0.881988  0.657618  1
  N  N30  1  0.750000  0.774288  0.743673  1
  N  N31  1  0.108927  0.638189  0.372908  1
  N  N32  1  0.600310  0.769722  0.020003  1
  N  N33  1  0.250000  0.443301  0.670836  1
  N  N34  1  0.401500  0.881988  0.657618  1
  N  N35  1  0.599579  0.113374  0.341059  1
  N  N36  1  0.090514  0.229233  0.977698  1
  N  N37  1  0.899690  0.769722  0.020003  1
