# generated using pymatgen
data_TbPaPt2Pb
_symmetry_space_group_name_H-M   'P 1'
_cell_length_a   7.96569800
_cell_length_b   7.94611500
_cell_length_c   3.63730200
_cell_angle_alpha   90.00000000
_cell_angle_beta   90.00000000
_cell_angle_gamma   90.00000000
_symmetry_Int_Tables_number   1
_chemical_formula_structural   TbPaPt2Pb
_chemical_formula_sum   'Tb2 Pa2 Pt4 Pb2'
_cell_volume   230.22794904
_cell_formula_units_Z   2
loop_
 _symmetry_equiv_pos_site_id
 _symmetry_equiv_pos_as_xyz
  1  'x, y, z'
loop_
 _atom_site_type_symbol
 _atom_site_label
 _atom_site_symmetry_multiplicity
 _atom_site_fract_x
 _atom_site_fract_y
 _atom_site_fract_z
 _atom_site_occupancy
  Tb  Tb0  1  0.826819  0.672237  0.500000  1
  Tb  Tb1  1  0.326819  0.827763  0.500000  1
  Pa  Pa2  1  0.669125  0.168902  0.500000  1
  Pa  Pa3  1  0.169125  0.331098  0.500000  1
  Pt  Pt4  1  0.371709  0.141470  0.000000  1
  Pt  Pt5  1  0.128386  0.610082  0.000000  1
  Pt  Pt6  1  0.628386  0.889918  0.000000  1
  Pt  Pt7  1  0.871709  0.358530  0.000000  1
  Pb  Pb8  1  0.003962  0.988694  0.000000  1
  Pb  Pb9  1  0.503962  0.511306  0.000000  1
