# generated using pymatgen
data_Pr5GeMoO12
_symmetry_space_group_name_H-M   'P 1'
_cell_length_a   7.09109178
_cell_length_b   7.09109195
_cell_length_c   7.67117078
_cell_angle_alpha   74.42545150
_cell_angle_beta   74.42544393
_cell_angle_gamma   51.06906328
_symmetry_Int_Tables_number   1
_chemical_formula_structural   Pr5GeMoO12
_chemical_formula_sum   'Pr5 Ge1 Mo1 O12'
_cell_volume   286.47243087
_cell_formula_units_Z   1
loop_
 _symmetry_equiv_pos_site_id
 _symmetry_equiv_pos_as_xyz
  1  'x, y, z'
loop_
 _atom_site_type_symbol
 _atom_site_label
 _atom_site_symmetry_multiplicity
 _atom_site_fract_x
 _atom_site_fract_y
 _atom_site_fract_z
 _atom_site_occupancy
  Pr  Pr0  1  0.316527  0.296122  0.358767  1
  Pr  Pr1  1  0.703878  0.683473  0.641233  1
  Pr  Pr2  1  0.308901  0.303397  0.833195  1
  Pr  Pr3  1  0.696603  0.691099  0.166805  1
  Pr  Pr4  1  0.999623  0.000377  0.500000  1
  Ge  Ge5  1  0.748439  0.251561  0.000000  1
  Mo  Mo6  1  0.232435  0.767565  0.000000  1
  O  O7  1  0.895097  0.416060  0.923598  1
  O  O8  1  0.418103  0.895491  0.922877  1
  O  O9  1  0.104509  0.581897  0.077123  1
  O  O10  1  0.583940  0.104903  0.076402  1
  O  O11  1  0.100816  0.593992  0.577381  1
  O  O12  1  0.597676  0.089225  0.579881  1
  O  O13  1  0.910775  0.402324  0.420119  1
  O  O14  1  0.406008  0.899184  0.422619  1
  O  O15  1  0.987004  0.014992  0.826820  1
  O  O16  1  0.985008  0.012996  0.173180  1
  O  O17  1  0.501423  0.496767  0.827630  1
  O  O18  1  0.503233  0.498577  0.172370  1
