# generated using pymatgen
data_La12Al2I17
_symmetry_space_group_name_H-M   'P 1'
_cell_length_a   10.19439526
_cell_length_b   12.21251707
_cell_length_c   12.02759258
_cell_angle_alpha   94.25693741
_cell_angle_beta   104.53933342
_cell_angle_gamma   115.02807330
_symmetry_Int_Tables_number   1
_chemical_formula_structural   La12Al2I17
_chemical_formula_sum   'La12 Al2 I17'
_cell_volume   1285.27443256
_cell_formula_units_Z   1
loop_
 _symmetry_equiv_pos_site_id
 _symmetry_equiv_pos_as_xyz
  1  'x, y, z'
loop_
 _atom_site_type_symbol
 _atom_site_label
 _atom_site_symmetry_multiplicity
 _atom_site_fract_x
 _atom_site_fract_y
 _atom_site_fract_z
 _atom_site_occupancy
  La  La0  1  0.067833  0.530830  0.333271  1
  La  La1  1  0.985026  0.812382  0.568842  1
  La  La2  1  0.624554  0.237558  0.285517  1
  La  La3  1  0.014974  0.187618  0.431158  1
  La  La4  1  0.227332  0.663219  0.008145  1
  La  La5  1  0.281413  0.005110  0.909658  1
  La  La6  1  0.375446  0.762442  0.714483  1
  La  La7  1  0.932167  0.469170  0.666729  1
  La  La8  1  0.718587  0.994890  0.090342  1
  La  La9  1  0.165158  0.289500  0.141987  1
  La  La10  1  0.772668  0.336781  0.991855  1
  La  La11  1  0.834842  0.710500  0.858013  1
  Al  Al12  1  0.105642  0.737268  0.786590  1
  Al  Al13  1  0.894358  0.262732  0.213410  1
  I  I14  1  0.777408  0.527590  0.416060  1
  I  I15  1  0.628919  0.416863  0.744118  1
  I  I16  1  0.840242  0.893826  0.320049  1
  I  I17  1  0.322347  0.212061  0.370941  1
  I  I18  1  0.159758  0.106174  0.679951  1
  I  I19  1  0.588495  0.055939  0.833085  1
  I  I20  1  0.741172  0.167676  0.535950  1
  I  I21  1  0.537129  0.688536  0.952692  1
  I  I22  1  0.371081  0.583137  0.255882  1
  I  I23  1  0.222592  0.472410  0.583940  1
  I  I24  1  0.057315  0.364169  0.890943  1
  I  I25  1  0.462871  0.311464  0.047308  1
  I  I26  1  0.000000  0.000000  0.000000  1
  I  I27  1  0.258828  0.832324  0.464050  1
  I  I28  1  0.411505  0.944061  0.166915  1
  I  I29  1  0.677653  0.787939  0.629059  1
  I  I30  1  0.942685  0.635831  0.109057  1
