# generated using pymatgen
data_CeEr2Cd3Pt2Au
_symmetry_space_group_name_H-M   'P 1'
_cell_length_a   7.77923675
_cell_length_b   7.83414747
_cell_length_c   3.82068200
_cell_angle_alpha   90.00000000
_cell_angle_beta   90.00000000
_cell_angle_gamma   120.23378336
_symmetry_Int_Tables_number   1
_chemical_formula_structural   CeEr2Cd3Pt2Au
_chemical_formula_sum   'Ce1 Er2 Cd3 Pt2 Au1'
_cell_volume   201.17422447
_cell_formula_units_Z   1
loop_
 _symmetry_equiv_pos_site_id
 _symmetry_equiv_pos_as_xyz
  1  'x, y, z'
loop_
 _atom_site_type_symbol
 _atom_site_label
 _atom_site_symmetry_multiplicity
 _atom_site_fract_x
 _atom_site_fract_y
 _atom_site_fract_z
 _atom_site_occupancy
  Ce  Ce0  1  0.000000  0.411673  0.000000  1
  Er  Er1  1  0.593076  0.590701  0.000000  1
  Er  Er2  1  0.406924  0.997625  0.000000  1
  Cd  Cd3  1  0.000000  0.739714  0.500000  1
  Cd  Cd4  1  0.268528  0.265104  0.500000  1
  Cd  Cd5  1  0.731472  0.996577  0.500000  1
  Pt  Pt6  1  0.330899  0.665024  0.500000  1
  Pt  Pt7  1  0.669101  0.334124  0.500000  1
  Au  Au8  1  0.000000  0.999458  0.000000  1
