# generated using pymatgen
data_Ho7Lu(AlRu)8
_symmetry_space_group_name_H-M   'P 1'
_cell_length_a   4.06962300
_cell_length_b   6.96475081
_cell_length_c   15.91651901
_cell_angle_alpha   90.21478131
_cell_angle_beta   90.00000000
_cell_angle_gamma   90.00000000
_symmetry_Int_Tables_number   1
_chemical_formula_structural   Ho7Lu(AlRu)8
_chemical_formula_sum   'Ho7 Lu1 Al8 Ru8'
_cell_volume   451.13321383
_cell_formula_units_Z   1
loop_
 _symmetry_equiv_pos_site_id
 _symmetry_equiv_pos_as_xyz
  1  'x, y, z'
loop_
 _atom_site_type_symbol
 _atom_site_label
 _atom_site_symmetry_multiplicity
 _atom_site_fract_x
 _atom_site_fract_y
 _atom_site_fract_z
 _atom_site_occupancy
  Ho  Ho0  1  0.750000  0.963978  0.219549  1
  Ho  Ho1  1  0.250000  0.161514  0.563584  1
  Ho  Ho2  1  0.750000  0.842894  0.436936  1
  Ho  Ho3  1  0.750000  0.463918  0.280866  1
  Ho  Ho4  1  0.750000  0.339942  0.063007  1
  Ho  Ho5  1  0.250000  0.656315  0.935974  1
  Ho  Ho6  1  0.250000  0.036460  0.780125  1
  Lu  Lu7  1  0.250000  0.538140  0.717902  1
  Al  Al8  1  0.750000  0.503972  0.566346  1
  Al  Al9  1  0.750000  0.364362  0.848518  1
  Al  Al10  1  0.750000  0.996888  0.933595  1
  Al  Al11  1  0.750000  0.868222  0.651536  1
  Al  Al12  1  0.250000  0.500752  0.434413  1
  Al  Al13  1  0.250000  0.996826  0.065945  1
  Al  Al14  1  0.250000  0.633311  0.151191  1
  Al  Al15  1  0.250000  0.134981  0.348895  1
  Ru  Ru16  1  0.750000  0.739911  0.811362  1
  Ru  Ru17  1  0.250000  0.232104  0.937253  1
  Ru  Ru18  1  0.750000  0.265506  0.437010  1
  Ru  Ru19  1  0.250000  0.753220  0.312167  1
  Ru  Ru20  1  0.750000  0.762580  0.063491  1
  Ru  Ru21  1  0.750000  0.253314  0.688659  1
  Ru  Ru22  1  0.250000  0.253049  0.187671  1
  Ru  Ru23  1  0.250000  0.737841  0.564005  1
