# generated using pymatgen
data_Sm2SiP(Ru2C)2
_symmetry_space_group_name_H-M   'P 1'
_cell_length_a   5.86682716
_cell_length_b   5.86682787
_cell_length_c   7.16639800
_cell_angle_alpha   90.00000000
_cell_angle_beta   90.00000000
_cell_angle_gamma   141.44956918
_symmetry_Int_Tables_number   1
_chemical_formula_structural   Sm2SiP(Ru2C)2
_chemical_formula_sum   'Sm2 Si1 P1 Ru4 C2'
_cell_volume   153.72243766
_cell_formula_units_Z   1
loop_
 _symmetry_equiv_pos_site_id
 _symmetry_equiv_pos_as_xyz
  1  'x, y, z'
loop_
 _atom_site_type_symbol
 _atom_site_label
 _atom_site_symmetry_multiplicity
 _atom_site_fract_x
 _atom_site_fract_y
 _atom_site_fract_z
 _atom_site_occupancy
  Sm  Sm0  1  0.547895  0.452105  0.250000  1
  Sm  Sm1  1  0.451861  0.548139  0.750000  1
  Si  Si2  1  0.729931  0.270069  0.750000  1
  P  P3  1  0.269304  0.730696  0.250000  1
  Ru  Ru4  1  0.834882  0.165118  0.059896  1
  Ru  Ru5  1  0.166039  0.833961  0.947297  1
  Ru  Ru6  1  0.166039  0.833961  0.552703  1
  Ru  Ru7  1  0.834882  0.165118  0.440104  1
  C  C8  1  0.999583  0.000417  0.998348  1
  C  C9  1  0.999583  0.000417  0.501652  1
