# generated using pymatgen
data_Pr11SmFePI17
_symmetry_space_group_name_H-M   'P 1'
_cell_length_a   10.02541130
_cell_length_b   12.00925664
_cell_length_c   12.00537167
_cell_angle_alpha   93.61172550
_cell_angle_beta   104.72374372
_cell_angle_gamma   114.55447716
_symmetry_Int_Tables_number   1
_chemical_formula_structural   Pr11SmFePI17
_chemical_formula_sum   'Pr11 Sm1 Fe1 P1 I17'
_cell_volume   1247.95855235
_cell_formula_units_Z   1
loop_
 _symmetry_equiv_pos_site_id
 _symmetry_equiv_pos_as_xyz
  1  'x, y, z'
loop_
 _atom_site_type_symbol
 _atom_site_label
 _atom_site_symmetry_multiplicity
 _atom_site_fract_x
 _atom_site_fract_y
 _atom_site_fract_z
 _atom_site_occupancy
  Pr  Pr0  1  0.988083  0.810574  0.580342  1
  Pr  Pr1  1  0.648398  0.242135  0.284384  1
  Pr  Pr2  1  0.010892  0.192335  0.415992  1
  Pr  Pr3  1  0.222224  0.669131  0.991101  1
  Pr  Pr4  1  0.263629  0.987849  0.896339  1
  Pr  Pr5  1  0.358913  0.759751  0.717242  1
  Pr  Pr6  1  0.941936  0.486544  0.674999  1
  Pr  Pr7  1  0.741772  0.016689  0.108396  1
  Pr  Pr8  1  0.149174  0.288072  0.150801  1
  Pr  Pr9  1  0.778504  0.330297  0.012618  1
  Pr  Pr10  1  0.848634  0.712804  0.852261  1
  Sm  Sm11  1  0.051713  0.503143  0.319292  1
  Fe  Fe12  1  0.896336  0.262583  0.214261  1
  P  P13  1  0.103817  0.738026  0.784418  1
  I  I14  1  0.788140  0.531968  0.420353  1
  I  I15  1  0.642686  0.421516  0.755213  1
  I  I16  1  0.842483  0.893024  0.325425  1
  I  I17  1  0.326842  0.212990  0.370540  1
  I  I18  1  0.158023  0.102564  0.678220  1
  I  I19  1  0.582102  0.049832  0.838138  1
  I  I20  1  0.753385  0.181224  0.540714  1
  I  I21  1  0.543056  0.701724  0.952261  1
  I  I22  1  0.358216  0.584066  0.244441  1
  I  I23  1  0.216142  0.475452  0.583312  1
  I  I24  1  0.057674  0.370580  0.893030  1
  I  I25  1  0.450146  0.293590  0.044674  1
  I  I26  1  0.998952  0.997604  0.996166  1
  I  I27  1  0.244945  0.816379  0.463769  1
  I  I28  1  0.408228  0.943828  0.155514  1
  I  I29  1  0.676254  0.787380  0.630922  1
  I  I30  1  0.948703  0.636347  0.104866  1
