# generated using pymatgen
data_Cu5PdF18
_symmetry_space_group_name_H-M   'P 1'
_cell_length_a   7.22009697
_cell_length_b   7.27596849
_cell_length_c   7.39834900
_cell_angle_alpha   90.00497679
_cell_angle_beta   89.73372009
_cell_angle_gamma   119.58512733
_symmetry_Int_Tables_number   1
_chemical_formula_structural   Cu5PdF18
_chemical_formula_sum   'Cu5 Pd1 F18'
_cell_volume   337.98205350
_cell_formula_units_Z   1
loop_
 _symmetry_equiv_pos_site_id
 _symmetry_equiv_pos_as_xyz
  1  'x, y, z'
loop_
 _atom_site_type_symbol
 _atom_site_label
 _atom_site_symmetry_multiplicity
 _atom_site_fract_x
 _atom_site_fract_y
 _atom_site_fract_z
 _atom_site_occupancy
  Cu  Cu0  1  0.000000  0.500000  0.500000  1
  Cu  Cu1  1  0.000000  0.500000  0.000000  1
  Cu  Cu2  1  0.500000  0.000000  0.500000  1
  Cu  Cu3  1  0.500000  0.500000  0.500000  1
  Cu  Cu4  1  0.500000  0.500000  0.000000  1
  Pd  Pd5  1  0.500000  0.000000  0.000000  1
  F  F6  1  0.784032  0.575937  0.045273  1
  F  F7  1  0.215968  0.424063  0.954727  1
  F  F8  1  0.201577  0.404696  0.545148  1
  F  F9  1  0.798423  0.595304  0.454852  1
  F  F10  1  0.596839  0.799923  0.937874  1
  F  F11  1  0.403161  0.200077  0.062126  1
  F  F12  1  0.422328  0.211442  0.449641  1
  F  F13  1  0.577672  0.788558  0.550359  1
  F  F14  1  0.782623  0.216059  0.553671  1
  F  F15  1  0.217377  0.783941  0.446329  1
  F  F16  1  0.208397  0.788799  0.067427  1
  F  F17  1  0.791603  0.211201  0.932573  1
  F  F18  1  0.987426  0.423156  0.247884  1
  F  F19  1  0.012574  0.576844  0.752116  1
  F  F20  1  0.402313  0.993135  0.751632  1
  F  F21  1  0.597687  0.006865  0.248368  1
  F  F22  1  0.536244  0.454102  0.751556  1
  F  F23  1  0.463756  0.545898  0.248444  1
