# generated using pymatgen
data_PrNd3(Ga3Rh)6
_symmetry_space_group_name_H-M   'P 1'
_cell_length_a   7.64017769
_cell_length_b   7.64331923
_cell_length_c   9.67944800
_cell_angle_alpha   90.00000000
_cell_angle_beta   90.00000000
_cell_angle_gamma   119.50325284
_symmetry_Int_Tables_number   1
_chemical_formula_structural   PrNd3(Ga3Rh)6
_chemical_formula_sum   'Pr1 Nd3 Ga18 Rh6'
_cell_volume   491.94763192
_cell_formula_units_Z   1
loop_
 _symmetry_equiv_pos_site_id
 _symmetry_equiv_pos_as_xyz
  1  'x, y, z'
loop_
 _atom_site_type_symbol
 _atom_site_label
 _atom_site_symmetry_multiplicity
 _atom_site_fract_x
 _atom_site_fract_y
 _atom_site_fract_z
 _atom_site_occupancy
  Pr  Pr0  1  0.997660  0.669325  0.250000  1
  Nd  Nd1  1  0.002234  0.330629  0.750000  1
  Nd  Nd2  1  0.669377  0.997642  0.250000  1
  Nd  Nd3  1  0.330589  0.002287  0.750000  1
  Ga  Ga4  1  0.128693  0.129020  0.250000  1
  Ga  Ga5  1  0.871687  0.871677  0.750000  1
  Ga  Ga6  1  0.003468  0.334667  0.076810  1
  Ga  Ga7  1  0.996529  0.664724  0.922133  1
  Ga  Ga8  1  0.996529  0.664724  0.577867  1
  Ga  Ga9  1  0.335900  0.004007  0.423245  1
  Ga  Ga10  1  0.003468  0.334667  0.423190  1
  Ga  Ga11  1  0.664682  0.996644  0.577355  1
  Ga  Ga12  1  0.664682  0.996644  0.922645  1
  Ga  Ga13  1  0.335900  0.004007  0.076755  1
  Ga  Ga14  1  0.333986  0.333978  0.559006  1
  Ga  Ga15  1  0.665471  0.665915  0.441953  1
  Ga  Ga16  1  0.665471  0.665915  0.058047  1
  Ga  Ga17  1  0.333986  0.333978  0.940994  1
  Ga  Ga18  1  0.339826  0.546115  0.250000  1
  Ga  Ga19  1  0.660713  0.453875  0.750000  1
  Ga  Ga20  1  0.545428  0.338409  0.250000  1
  Ga  Ga21  1  0.454066  0.660977  0.750000  1
  Rh  Rh22  1  0.671183  0.329000  0.999726  1
  Rh  Rh23  1  0.328663  0.670988  0.999758  1
  Rh  Rh24  1  0.328663  0.670988  0.500242  1
  Rh  Rh25  1  0.671183  0.329000  0.500274  1
  Rh  Rh26  1  0.999982  0.000099  0.999845  1
  Rh  Rh27  1  0.999982  0.000099  0.500155  1
