# generated using pymatgen
data_Tb3Y4Th(CdNi)2
_symmetry_space_group_name_H-M   'P 1'
_cell_length_a   9.63087201
_cell_length_b   9.63087288
_cell_length_c   9.65121100
_cell_angle_alpha   59.93011538
_cell_angle_beta   59.93011238
_cell_angle_gamma   59.97988717
_symmetry_Int_Tables_number   1
_chemical_formula_structural   Tb3Y4Th(CdNi)2
_chemical_formula_sum   'Tb6 Y8 Th2 Cd4 Ni4'
_cell_volume   632.22634721
_cell_formula_units_Z   2
loop_
 _symmetry_equiv_pos_site_id
 _symmetry_equiv_pos_as_xyz
  1  'x, y, z'
loop_
 _atom_site_type_symbol
 _atom_site_label
 _atom_site_symmetry_multiplicity
 _atom_site_fract_x
 _atom_site_fract_y
 _atom_site_fract_z
 _atom_site_occupancy
  Tb  Tb0  1  0.598902  0.200671  0.600213  1
  Tb  Tb1  1  0.200671  0.598902  0.600213  1
  Tb  Tb2  1  0.061698  0.439742  0.437983  1
  Tb  Tb3  1  0.439742  0.061698  0.060577  1
  Tb  Tb4  1  0.439742  0.061698  0.437983  1
  Tb  Tb5  1  0.061698  0.439742  0.060577  1
  Y  Y6  1  0.439489  0.439489  0.060511  1
  Y  Y7  1  0.061220  0.061220  0.438780  1
  Y  Y8  1  0.186914  0.814305  0.815584  1
  Y  Y9  1  0.814305  0.186914  0.183196  1
  Y  Y10  1  0.814305  0.186914  0.815584  1
  Y  Y11  1  0.186914  0.814305  0.183196  1
  Y  Y12  1  0.813737  0.813737  0.186263  1
  Y  Y13  1  0.185962  0.185962  0.814038  1
  Th  Th14  1  0.593856  0.593856  0.600329  1
  Th  Th15  1  0.593856  0.593856  0.211958  1
  Cd  Cd16  1  0.832490  0.832490  0.830176  1
  Cd  Cd17  1  0.832490  0.832490  0.504841  1
  Cd  Cd18  1  0.832622  0.504967  0.831205  1
  Cd  Cd19  1  0.504967  0.832622  0.831205  1
  Ni  Ni20  1  0.393743  0.393743  0.391563  1
  Ni  Ni21  1  0.393743  0.393743  0.820953  1
  Ni  Ni22  1  0.398472  0.818458  0.391536  1
  Ni  Ni23  1  0.818458  0.398472  0.391536  1
