# generated using pymatgen
data_Rb8Li4Dy3HoSb8
_symmetry_space_group_name_H-M   'P 1'
_cell_length_a   11.18803752
_cell_length_b   11.18803917
_cell_length_c   7.25851432
_cell_angle_alpha   89.99568475
_cell_angle_beta   90.00432554
_cell_angle_gamma   98.99084133
_symmetry_Int_Tables_number   1
_chemical_formula_structural   Rb8Li4Dy3HoSb8
_chemical_formula_sum   'Rb8 Li4 Dy3 Ho1 Sb8'
_cell_volume   897.40099065
_cell_formula_units_Z   1
loop_
 _symmetry_equiv_pos_site_id
 _symmetry_equiv_pos_as_xyz
  1  'x, y, z'
loop_
 _atom_site_type_symbol
 _atom_site_label
 _atom_site_symmetry_multiplicity
 _atom_site_fract_x
 _atom_site_fract_y
 _atom_site_fract_z
 _atom_site_occupancy
  Rb  Rb0  1  0.570682  0.928572  0.751317  1
  Rb  Rb1  1  0.928572  0.570682  0.248683  1
  Rb  Rb2  1  0.428804  0.070448  0.248802  1
  Rb  Rb3  1  0.070448  0.428804  0.751198  1
  Rb  Rb4  1  0.676611  0.324328  0.779676  1
  Rb  Rb5  1  0.825779  0.174489  0.279722  1
  Rb  Rb6  1  0.324328  0.676611  0.220324  1
  Rb  Rb7  1  0.174489  0.825779  0.720278  1
  Li  Li8  1  0.620968  0.620968  0.000000  1
  Li  Li9  1  0.878097  0.878097  0.500000  1
  Li  Li10  1  0.378566  0.378566  0.000000  1
  Li  Li11  1  0.122356  0.122356  0.500000  1
  Dy  Dy12  1  0.869240  0.869240  0.000000  1
  Dy  Dy13  1  0.630294  0.630294  0.500000  1
  Dy  Dy14  1  0.130820  0.130820  0.000000  1
  Ho  Ho15  1  0.370094  0.370094  0.500000  1
  Sb  Sb16  1  0.347228  0.153848  0.749376  1
  Sb  Sb17  1  0.153848  0.347228  0.250624  1
  Sb  Sb18  1  0.652624  0.847165  0.249839  1
  Sb  Sb19  1  0.847165  0.652624  0.750161  1
  Sb  Sb20  1  0.905836  0.093853  0.759299  1
  Sb  Sb21  1  0.593650  0.405647  0.260229  1
  Sb  Sb22  1  0.093853  0.905836  0.240701  1
  Sb  Sb23  1  0.405647  0.593650  0.739771  1
