# generated using pymatgen
data_Sr2(CuAu2)3
_symmetry_space_group_name_H-M   'P 1'
_cell_length_a   8.79225154
_cell_length_b   8.79225137
_cell_length_c   8.79225052
_cell_angle_alpha   57.12269529
_cell_angle_beta   57.12269810
_cell_angle_gamma   57.12269526
_symmetry_Int_Tables_number   1
_chemical_formula_structural   Sr2(CuAu2)3
_chemical_formula_sum   'Sr4 Cu6 Au12'
_cell_volume   448.73606089
_cell_formula_units_Z   2
loop_
 _symmetry_equiv_pos_site_id
 _symmetry_equiv_pos_as_xyz
  1  'x, y, z'
loop_
 _atom_site_type_symbol
 _atom_site_label
 _atom_site_symmetry_multiplicity
 _atom_site_fract_x
 _atom_site_fract_y
 _atom_site_fract_z
 _atom_site_occupancy
  Sr  Sr0  1  0.908306  0.908306  0.908306  1
  Sr  Sr1  1  0.408306  0.408306  0.408306  1
  Sr  Sr2  1  0.091694  0.091694  0.091694  1
  Sr  Sr3  1  0.591694  0.591694  0.591694  1
  Cu  Cu4  1  0.571918  0.750000  0.928082  1
  Cu  Cu5  1  0.928082  0.571918  0.750000  1
  Cu  Cu6  1  0.750000  0.928082  0.571918  1
  Cu  Cu7  1  0.428082  0.250000  0.071918  1
  Cu  Cu8  1  0.071918  0.428082  0.250000  1
  Cu  Cu9  1  0.250000  0.071918  0.428082  1
  Au  Au10  1  0.475343  0.865037  0.204262  1
  Au  Au11  1  0.204262  0.475343  0.865037  1
  Au  Au12  1  0.865037  0.204262  0.475343  1
  Au  Au13  1  0.704262  0.365037  0.975343  1
  Au  Au14  1  0.975343  0.704262  0.365037  1
  Au  Au15  1  0.365037  0.975343  0.704262  1
  Au  Au16  1  0.524657  0.134963  0.795738  1
  Au  Au17  1  0.795738  0.524657  0.134963  1
  Au  Au18  1  0.134963  0.795738  0.524657  1
  Au  Au19  1  0.295738  0.634963  0.024657  1
  Au  Au20  1  0.024657  0.295738  0.634963  1
  Au  Au21  1  0.634963  0.024657  0.295738  1
