# generated using pymatgen
data_BaCd3Hg
_symmetry_space_group_name_H-M   'P 1'
_cell_length_a   7.36280101
_cell_length_b   7.36280137
_cell_length_c   7.36280104
_cell_angle_alpha   142.26257063
_cell_angle_beta   142.26257350
_cell_angle_gamma   54.43348138
_symmetry_Int_Tables_number   1
_chemical_formula_structural   BaCd3Hg
_chemical_formula_sum   'Ba1 Cd3 Hg1'
_cell_volume   148.49477557
_cell_formula_units_Z   1
loop_
 _symmetry_equiv_pos_site_id
 _symmetry_equiv_pos_as_xyz
  1  'x, y, z'
loop_
 _atom_site_type_symbol
 _atom_site_label
 _atom_site_symmetry_multiplicity
 _atom_site_fract_x
 _atom_site_fract_y
 _atom_site_fract_z
 _atom_site_occupancy
  Ba  Ba0  1  0.004176  0.004176  0.000000  1
  Cd  Cd1  1  0.751372  0.251372  0.500000  1
  Cd  Cd2  1  0.251372  0.751372  0.500000  1
  Cd  Cd3  1  0.383949  0.383949  0.000000  1
  Hg  Hg4  1  0.609129  0.609129  0.000000  1
