# generated using pymatgen
data_Be2Nb10Ga5Sb
_symmetry_space_group_name_H-M   'P 1'
_cell_length_a   7.92312295
_cell_length_b   7.92312304
_cell_length_c   5.43529300
_cell_angle_alpha   90.00000000
_cell_angle_beta   90.00000000
_cell_angle_gamma   119.87188074
_symmetry_Int_Tables_number   1
_chemical_formula_structural   Be2Nb10Ga5Sb
_chemical_formula_sum   'Be2 Nb10 Ga5 Sb1'
_cell_volume   295.87319538
_cell_formula_units_Z   1
loop_
 _symmetry_equiv_pos_site_id
 _symmetry_equiv_pos_as_xyz
  1  'x, y, z'
loop_
 _atom_site_type_symbol
 _atom_site_label
 _atom_site_symmetry_multiplicity
 _atom_site_fract_x
 _atom_site_fract_y
 _atom_site_fract_z
 _atom_site_occupancy
  Be  Be0  1  0.000268  0.000268  0.005447  1
  Be  Be1  1  0.000268  0.000268  0.494553  1
  Nb  Nb2  1  0.672780  0.331871  0.002879  1
  Nb  Nb3  1  0.331871  0.672780  0.002879  1
  Nb  Nb4  1  0.331871  0.672780  0.497121  1
  Nb  Nb5  1  0.672780  0.331871  0.497121  1
  Nb  Nb6  1  0.750666  0.750666  0.750000  1
  Nb  Nb7  1  0.252067  0.987826  0.750000  1
  Nb  Nb8  1  0.987826  0.252067  0.750000  1
  Nb  Nb9  1  0.257969  0.257969  0.250000  1
  Nb  Nb10  1  0.740527  0.000530  0.250000  1
  Nb  Nb11  1  0.000530  0.740527  0.250000  1
  Ga  Ga12  1  0.606443  0.997747  0.750000  1
  Ga  Ga13  1  0.997747  0.606443  0.750000  1
  Ga  Ga14  1  0.611786  0.611786  0.250000  1
  Ga  Ga15  1  0.390244  0.002352  0.250000  1
  Ga  Ga16  1  0.002352  0.390244  0.250000  1
  Sb  Sb17  1  0.392003  0.392003  0.750000  1
