# generated using pymatgen
data_Lu3In2GaRuPt2
_symmetry_space_group_name_H-M   'P 1'
_cell_length_a   7.65956879
_cell_length_b   7.72336003
_cell_length_c   3.55285800
_cell_angle_alpha   90.00000000
_cell_angle_beta   90.00000000
_cell_angle_gamma   120.27588142
_symmetry_Int_Tables_number   1
_chemical_formula_structural   Lu3In2GaRuPt2
_chemical_formula_sum   'Lu3 In2 Ga1 Ru1 Pt2'
_cell_volume   181.51187160
_cell_formula_units_Z   1
loop_
 _symmetry_equiv_pos_site_id
 _symmetry_equiv_pos_as_xyz
  1  'x, y, z'
loop_
 _atom_site_type_symbol
 _atom_site_label
 _atom_site_symmetry_multiplicity
 _atom_site_fract_x
 _atom_site_fract_y
 _atom_site_fract_z
 _atom_site_occupancy
  Lu  Lu0  1  0.000000  0.583156  0.500000  1
  Lu  Lu1  1  0.615713  0.008185  0.500000  1
  Lu  Lu2  1  0.384287  0.392472  0.500000  1
  In  In3  1  0.259994  0.992132  0.000000  1
  In  In4  1  0.740006  0.732138  0.000000  1
  Ga  Ga5  1  0.000000  0.272032  0.000000  1
  Ru  Ru6  1  0.000000  0.029627  0.500000  1
  Pt  Pt7  1  0.667895  0.329076  0.000000  1
  Pt  Pt8  1  0.332105  0.661183  0.000000  1
