# generated using pymatgen
data_Tb4ErIn4CoPd
_symmetry_space_group_name_H-M   'P 1'
_cell_length_a   3.59211900
_cell_length_b   8.12366034
_cell_length_c   18.20427526
_cell_angle_alpha   90.12168488
_cell_angle_beta   90.00000000
_cell_angle_gamma   90.00000000
_symmetry_Int_Tables_number   1
_chemical_formula_structural   Tb4ErIn4CoPd
_chemical_formula_sum   'Tb8 Er2 In8 Co2 Pd2'
_cell_volume   531.22057345
_cell_formula_units_Z   2
loop_
 _symmetry_equiv_pos_site_id
 _symmetry_equiv_pos_as_xyz
  1  'x, y, z'
loop_
 _atom_site_type_symbol
 _atom_site_label
 _atom_site_symmetry_multiplicity
 _atom_site_fract_x
 _atom_site_fract_y
 _atom_site_fract_z
 _atom_site_occupancy
  Tb  Tb0  1  0.000000  0.500000  0.500000  1
  Tb  Tb1  1  0.000000  0.000000  0.000000  1
  Tb  Tb2  1  0.000000  0.725922  0.276214  1
  Tb  Tb3  1  0.000000  0.274078  0.723786  1
  Tb  Tb4  1  0.000000  0.741901  0.780976  1
  Tb  Tb5  1  0.000000  0.258099  0.219024  1
  Tb  Tb6  1  0.000000  0.612253  0.089143  1
  Tb  Tb7  1  0.000000  0.387747  0.910857  1
  Er  Er8  1  0.000000  0.883263  0.585324  1
  Er  Er9  1  0.000000  0.116737  0.414676  1
  In  In10  1  0.500000  0.707084  0.930826  1
  In  In11  1  0.500000  0.292916  0.069174  1
  In  In12  1  0.500000  0.793626  0.431603  1
  In  In13  1  0.500000  0.206374  0.568397  1
  In  In14  1  0.500000  0.577554  0.651181  1
  In  In15  1  0.500000  0.422446  0.348819  1
  In  In16  1  0.500000  0.923450  0.150324  1
  In  In17  1  0.500000  0.076550  0.849676  1
  Co  Co18  1  0.500000  0.516422  0.194340  1
  Co  Co19  1  0.500000  0.483578  0.805660  1
  Pd  Pd20  1  0.500000  0.979609  0.695958  1
  Pd  Pd21  1  0.500000  0.020391  0.304042  1
