# generated using pymatgen
data_Ho2Tm10Os3Ru
_symmetry_space_group_name_H-M   'P 1'
_cell_length_a   7.34102628
_cell_length_b   8.92659500
_cell_length_c   6.24664204
_cell_angle_alpha   90.00000000
_cell_angle_beta   89.92556457
_cell_angle_gamma   90.00000000
_symmetry_Int_Tables_number   1
_chemical_formula_structural   Ho2Tm10Os3Ru
_chemical_formula_sum   'Ho2 Tm10 Os3 Ru1'
_cell_volume   409.34440876
_cell_formula_units_Z   1
loop_
 _symmetry_equiv_pos_site_id
 _symmetry_equiv_pos_as_xyz
  1  'x, y, z'
loop_
 _atom_site_type_symbol
 _atom_site_label
 _atom_site_symmetry_multiplicity
 _atom_site_fract_x
 _atom_site_fract_y
 _atom_site_fract_z
 _atom_site_occupancy
  Ho  Ho0  1  0.041044  0.250000  0.629305  1
  Ho  Ho1  1  0.539874  0.250000  0.868691  1
  Tm  Tm2  1  0.960043  0.750000  0.369995  1
  Tm  Tm3  1  0.460174  0.750000  0.130269  1
  Tm  Tm4  1  0.174084  0.061898  0.165903  1
  Tm  Tm5  1  0.825278  0.936854  0.832808  1
  Tm  Tm6  1  0.324796  0.935656  0.668126  1
  Tm  Tm7  1  0.825278  0.563146  0.832808  1
  Tm  Tm8  1  0.675004  0.062328  0.333517  1
  Tm  Tm9  1  0.174084  0.438102  0.165903  1
  Tm  Tm10  1  0.675004  0.437672  0.333517  1
  Tm  Tm11  1  0.324796  0.564344  0.668126  1
  Os  Os12  1  0.616900  0.750000  0.538543  1
  Os  Os13  1  0.117329  0.750000  0.961266  1
  Os  Os14  1  0.882970  0.250000  0.040449  1
  Ru  Ru15  1  0.383340  0.250000  0.460777  1
