# generated using pymatgen
data_LaCe9(Si3H)2
_symmetry_space_group_name_H-M   'P 1'
_cell_length_a   8.66305462
_cell_length_b   8.61294954
_cell_length_c   8.62904712
_cell_angle_alpha   126.16056268
_cell_angle_beta   126.32943412
_cell_angle_gamma   79.55734142
_symmetry_Int_Tables_number   1
_chemical_formula_structural   LaCe9(Si3H)2
_chemical_formula_sum   'La1 Ce9 Si6 H2'
_cell_volume   404.51922849
_cell_formula_units_Z   1
loop_
 _symmetry_equiv_pos_site_id
 _symmetry_equiv_pos_as_xyz
  1  'x, y, z'
loop_
 _atom_site_type_symbol
 _atom_site_label
 _atom_site_symmetry_multiplicity
 _atom_site_fract_x
 _atom_site_fract_y
 _atom_site_fract_z
 _atom_site_occupancy
  La  La0  1  0.329285  0.475118  0.500000  1
  Ce  Ce1  1  0.501129  0.500588  0.003380  1
  Ce  Ce2  1  0.997749  0.997207  0.996620  1
  Ce  Ce3  1  0.526995  0.027524  0.859697  1
  Ce  Ce4  1  0.167299  0.667828  0.140303  1
  Ce  Ce5  1  0.025421  0.167351  0.500000  1
  Ce  Ce6  1  0.677659  0.525705  0.500000  1
  Ce  Ce7  1  0.474762  0.974168  0.144728  1
  Ce  Ce8  1  0.830033  0.329440  0.855272  1
  Ce  Ce9  1  0.972210  0.832565  0.500000  1
  Si  Si10  1  0.250175  0.248386  0.995430  1
  Si  Si11  1  0.754745  0.752956  0.004570  1
  Si  Si12  1  0.883915  0.385892  0.272009  1
  Si  Si13  1  0.111906  0.613883  0.727991  1
  Si  Si14  1  0.386998  0.109047  0.500000  1
  Si  Si15  1  0.612568  0.885457  0.500000  1
  H  H16  1  0.246279  0.757601  0.500000  1
  H  H17  1  0.750870  0.249284  0.500000  1
