# generated using pymatgen
data_K9FeSe7
_symmetry_space_group_name_H-M   'P 1'
_cell_length_a   8.35533800
_cell_length_b   11.34134875
_cell_length_c   25.16272600
_cell_angle_alpha   77.06204608
_cell_angle_beta   90.00000000
_cell_angle_gamma   90.00000000
_symmetry_Int_Tables_number   1
_chemical_formula_structural   K9FeSe7
_chemical_formula_sum   'K36 Fe4 Se28'
_cell_volume   2323.90654512
_cell_formula_units_Z   4
loop_
 _symmetry_equiv_pos_site_id
 _symmetry_equiv_pos_as_xyz
  1  'x, y, z'
loop_
 _atom_site_type_symbol
 _atom_site_label
 _atom_site_symmetry_multiplicity
 _atom_site_fract_x
 _atom_site_fract_y
 _atom_site_fract_z
 _atom_site_occupancy
  K  K0  1  0.093266  0.989569  0.272190  1
  K  K1  1  0.593266  0.010431  0.227810  1
  K  K2  1  0.906734  0.010431  0.727810  1
  K  K3  1  0.406734  0.989569  0.772190  1
  K  K4  1  0.038461  0.841151  0.064299  1
  K  K5  1  0.538461  0.158849  0.435701  1
  K  K6  1  0.961539  0.158849  0.935701  1
  K  K7  1  0.461539  0.841151  0.564299  1
  K  K8  1  0.257490  0.545244  0.165189  1
  K  K9  1  0.757490  0.454756  0.334811  1
  K  K10  1  0.742510  0.454756  0.834811  1
  K  K11  1  0.242510  0.545244  0.665189  1
  K  K12  1  0.550367  0.766765  0.088403  1
  K  K13  1  0.050367  0.233235  0.411597  1
  K  K14  1  0.449633  0.233235  0.911597  1
  K  K15  1  0.949633  0.766765  0.588403  1
  K  K16  1  0.059694  0.573563  0.421006  1
  K  K17  1  0.559694  0.426437  0.078994  1
  K  K18  1  0.940306  0.426437  0.578994  1
  K  K19  1  0.440306  0.573563  0.921006  1
  K  K20  1  0.140240  0.886144  0.448249  1
  K  K21  1  0.640240  0.113856  0.051751  1
  K  K22  1  0.859760  0.113856  0.551751  1
  K  K23  1  0.359760  0.886144  0.948249  1
  K  K24  1  0.435547  0.261661  0.282399  1
  K  K25  1  0.935547  0.738339  0.217601  1
  K  K26  1  0.564453  0.738339  0.717601  1
  K  K27  1  0.064453  0.261661  0.782399  1
  K  K28  1  0.432769  0.707591  0.295064  1
  K  K29  1  0.932769  0.292409  0.204936  1
  K  K30  1  0.567231  0.292409  0.704936  1
  K  K31  1  0.067231  0.707591  0.795064  1
  K  K32  1  0.081479  0.348185  0.046546  1
  K  K33  1  0.581479  0.651815  0.453454  1
  K  K34  1  0.918521  0.651815  0.953454  1
  K  K35  1  0.418521  0.348185  0.546546  1
  Fe  Fe36  1  0.700813  0.945656  0.371719  1
  Fe  Fe37  1  0.200813  0.054344  0.128281  1
  Fe  Fe38  1  0.299187  0.054344  0.628281  1
  Fe  Fe39  1  0.799187  0.945656  0.871719  1
  Se  Se40  1  0.309970  0.219863  0.164361  1
  Se  Se41  1  0.809970  0.780137  0.335639  1
  Se  Se42  1  0.690030  0.780137  0.835639  1
  Se  Se43  1  0.190030  0.219863  0.664361  1
  Se  Se44  1  0.303297  0.857579  0.176271  1
  Se  Se45  1  0.803297  0.142421  0.323729  1
  Se  Se46  1  0.696703  0.142421  0.823729  1
  Se  Se47  1  0.196703  0.857579  0.676271  1
  Se  Se48  1  0.411893  0.955964  0.354087  1
  Se  Se49  1  0.911893  0.044036  0.145913  1
  Se  Se50  1  0.588107  0.044036  0.645913  1
  Se  Se51  1  0.088107  0.955964  0.854087  1
  Se  Se52  1  0.758085  0.912598  0.469683  1
  Se  Se53  1  0.258085  0.087402  0.030317  1
  Se  Se54  1  0.241915  0.087402  0.530317  1
  Se  Se55  1  0.741915  0.912598  0.969683  1
  Se  Se56  1  0.156786  0.469753  0.301641  1
  Se  Se57  1  0.656786  0.530247  0.198359  1
  Se  Se58  1  0.843214  0.530247  0.698359  1
  Se  Se59  1  0.343214  0.469753  0.801641  1
  Se  Se60  1  0.367363  0.433453  0.372239  1
  Se  Se61  1  0.867363  0.566547  0.127761  1
  Se  Se62  1  0.632637  0.566547  0.627761  1
  Se  Se63  1  0.132637  0.433453  0.872239  1
  Se  Se64  1  0.264713  0.624124  0.030766  1
  Se  Se65  1  0.764713  0.375876  0.469234  1
  Se  Se66  1  0.735287  0.375876  0.969234  1
  Se  Se67  1  0.235287  0.624124  0.530766  1
