# generated using pymatgen
data_Lu2PaFe2Co7P6
_symmetry_space_group_name_H-M   'P 1'
_cell_length_a   3.68888500
_cell_length_b   10.51810600
_cell_length_c   12.02587900
_cell_angle_alpha   90.00000000
_cell_angle_beta   90.00000000
_cell_angle_gamma   90.00000000
_symmetry_Int_Tables_number   1
_chemical_formula_structural   Lu2PaFe2Co7P6
_chemical_formula_sum   'Lu4 Pa2 Fe4 Co14 P12'
_cell_volume   466.60510878
_cell_formula_units_Z   2
loop_
 _symmetry_equiv_pos_site_id
 _symmetry_equiv_pos_as_xyz
  1  'x, y, z'
loop_
 _atom_site_type_symbol
 _atom_site_label
 _atom_site_symmetry_multiplicity
 _atom_site_fract_x
 _atom_site_fract_y
 _atom_site_fract_z
 _atom_site_occupancy
  Lu  Lu0  1  0.500000  0.817098  0.203492  1
  Lu  Lu1  1  0.500000  0.182902  0.203492  1
  Lu  Lu2  1  0.000000  0.682902  0.796508  1
  Lu  Lu3  1  0.000000  0.317098  0.796508  1
  Pa  Pa4  1  0.000000  0.500000  0.528973  1
  Pa  Pa5  1  0.500000  0.000000  0.471027  1
  Fe  Fe6  1  0.500000  0.500000  0.153957  1
  Fe  Fe7  1  0.000000  0.000000  0.846043  1
  Fe  Fe8  1  0.000000  0.500000  0.987152  1
  Fe  Fe9  1  0.500000  0.000000  0.012848  1
  Co  Co10  1  0.500000  0.500000  0.697662  1
  Co  Co11  1  0.000000  0.000000  0.302338  1
  Co  Co12  1  0.500000  0.331851  0.993741  1
  Co  Co13  1  0.500000  0.668149  0.993741  1
  Co  Co14  1  0.000000  0.168149  0.006259  1
  Co  Co15  1  0.000000  0.831851  0.006259  1
  Co  Co16  1  0.500000  0.301132  0.431556  1
  Co  Co17  1  0.500000  0.698868  0.431556  1
  Co  Co18  1  0.000000  0.198868  0.568444  1
  Co  Co19  1  0.000000  0.801132  0.568444  1
  Co  Co20  1  0.500000  0.878924  0.710669  1
  Co  Co21  1  0.500000  0.121076  0.710669  1
  Co  Co22  1  0.000000  0.621076  0.289331  1
  Co  Co23  1  0.000000  0.378924  0.289331  1
  P  P24  1  0.500000  0.500000  0.881801  1
  P  P25  1  0.000000  0.000000  0.118199  1
  P  P26  1  0.500000  0.500000  0.341294  1
  P  P27  1  0.000000  0.000000  0.658706  1
  P  P28  1  0.500000  0.306479  0.618903  1
  P  P29  1  0.500000  0.693521  0.618903  1
  P  P30  1  0.000000  0.193521  0.381097  1
  P  P31  1  0.000000  0.806479  0.381097  1
  P  P32  1  0.500000  0.846635  0.893603  1
  P  P33  1  0.500000  0.153365  0.893603  1
  P  P34  1  0.000000  0.653365  0.106397  1
  P  P35  1  0.000000  0.346635  0.106397  1
