# generated using pymatgen
data_Dy3Y5(Hf3Si4)4
_symmetry_space_group_name_H-M   'P 1'
_cell_length_a   7.28943801
_cell_length_b   7.28937001
_cell_length_c   13.39115302
_cell_angle_alpha   89.99476400
_cell_angle_beta   89.99649290
_cell_angle_gamma   89.99726459
_symmetry_Int_Tables_number   1
_chemical_formula_structural   Dy3Y5(Hf3Si4)4
_chemical_formula_sum   'Dy3 Y5 Hf12 Si16'
_cell_volume   711.54441150
_cell_formula_units_Z   1
loop_
 _symmetry_equiv_pos_site_id
 _symmetry_equiv_pos_as_xyz
  1  'x, y, z'
loop_
 _atom_site_type_symbol
 _atom_site_label
 _atom_site_symmetry_multiplicity
 _atom_site_fract_x
 _atom_site_fract_y
 _atom_site_fract_z
 _atom_site_occupancy
  Dy  Dy0  1  0.153753  0.495585  0.464904  1
  Dy  Dy1  1  0.004429  0.653791  0.714886  1
  Dy  Dy2  1  0.995598  0.346223  0.214964  1
  Y  Y3  1  0.495385  0.154022  0.534984  1
  Y  Y4  1  0.504556  0.846093  0.034985  1
  Y  Y5  1  0.654045  0.004670  0.284962  1
  Y  Y6  1  0.345998  0.995369  0.784969  1
  Y  Y7  1  0.846082  0.504587  0.965025  1
  Hf  Hf8  1  0.676051  0.324190  0.749990  1
  Hf  Hf9  1  0.323816  0.675674  0.250103  1
  Hf  Hf10  1  0.824301  0.823792  0.500127  1
  Hf  Hf11  1  0.175902  0.176003  0.000162  1
  Hf  Hf12  1  0.496059  0.352477  0.124853  1
  Hf  Hf13  1  0.503823  0.647445  0.624827  1
  Hf  Hf14  1  0.852532  0.003848  0.874784  1
  Hf  Hf15  1  0.147433  0.996166  0.374776  1
  Hf  Hf16  1  0.647644  0.503937  0.375000  1
  Hf  Hf17  1  0.352414  0.496035  0.874993  1
  Hf  Hf18  1  0.003987  0.852524  0.125089  1
  Hf  Hf19  1  0.995971  0.147676  0.625071  1
  Si  Si20  1  0.795769  0.139822  0.067492  1
  Si  Si21  1  0.204200  0.859903  0.567433  1
  Si  Si22  1  0.639853  0.704316  0.817319  1
  Si  Si23  1  0.359933  0.295879  0.317434  1
  Si  Si24  1  0.860675  0.204621  0.432586  1
  Si  Si25  1  0.139528  0.795578  0.932574  1
  Si  Si26  1  0.704552  0.639415  0.182662  1
  Si  Si27  1  0.295433  0.360690  0.682585  1
  Si  Si28  1  0.550796  0.206122  0.935968  1
  Si  Si29  1  0.449046  0.793708  0.435993  1
  Si  Si30  1  0.706318  0.949065  0.685991  1
  Si  Si31  1  0.293673  0.050949  0.185987  1
  Si  Si32  1  0.794326  0.449400  0.564161  1
  Si  Si33  1  0.205927  0.550622  0.064216  1
  Si  Si34  1  0.949424  0.705704  0.314149  1
  Si  Si35  1  0.050767  0.294100  0.813998  1
