# generated using pymatgen
data_Tm5Cr3(P3Ir4)4
_symmetry_space_group_name_H-M   'P 1'
_cell_length_a   12.60040200
_cell_length_b   12.60040267
_cell_length_c   3.93958800
_cell_angle_alpha   90.00000000
_cell_angle_beta   90.00000000
_cell_angle_gamma   119.99999825
_symmetry_Int_Tables_number   1
_chemical_formula_structural   Tm5Cr3(P3Ir4)4
_chemical_formula_sum   'Tm5 Cr3 P12 Ir16'
_cell_volume   541.68931638
_cell_formula_units_Z   1
loop_
 _symmetry_equiv_pos_site_id
 _symmetry_equiv_pos_as_xyz
  1  'x, y, z'
loop_
 _atom_site_type_symbol
 _atom_site_label
 _atom_site_symmetry_multiplicity
 _atom_site_fract_x
 _atom_site_fract_y
 _atom_site_fract_z
 _atom_site_occupancy
  Tm  Tm0  1  0.333333  0.666667  0.500000  1
  Tm  Tm1  1  0.666667  0.333333  0.500000  1
  Tm  Tm2  1  0.000000  0.810711  0.000000  1
  Tm  Tm3  1  0.189289  0.189289  0.000000  1
  Tm  Tm4  1  0.810711  0.000000  0.000000  1
  Cr  Cr5  1  0.000000  0.453417  0.500000  1
  Cr  Cr6  1  0.546583  0.546583  0.500000  1
  Cr  Cr7  1  0.453417  0.000000  0.500000  1
  P  P8  1  0.000000  0.633127  0.500000  1
  P  P9  1  0.366873  0.366873  0.500000  1
  P  P10  1  0.633127  0.000000  0.500000  1
  P  P11  1  0.515877  0.684124  0.000000  1
  P  P12  1  0.315876  0.831753  0.000000  1
  P  P13  1  0.168247  0.484123  0.000000  1
  P  P14  1  0.484123  0.168247  0.000000  1
  P  P15  1  0.684124  0.515877  0.000000  1
  P  P16  1  0.831753  0.315876  0.000000  1
  P  P17  1  0.000000  0.177107  0.500000  1
  P  P18  1  0.822893  0.822893  0.500000  1
  P  P19  1  0.177107  0.000000  0.500000  1
  Ir  Ir20  1  0.508782  0.867733  0.000000  1
  Ir  Ir21  1  0.132267  0.641050  0.000000  1
  Ir  Ir22  1  0.358950  0.491218  0.000000  1
  Ir  Ir23  1  0.491218  0.358950  0.000000  1
  Ir  Ir24  1  0.867733  0.508782  0.000000  1
  Ir  Ir25  1  0.641050  0.132267  0.000000  1
  Ir  Ir26  1  0.000000  0.286754  0.000000  1
  Ir  Ir27  1  0.713246  0.713246  0.000000  1
  Ir  Ir28  1  0.286754  0.000000  0.000000  1
  Ir  Ir29  1  0.624746  0.804018  0.500000  1
  Ir  Ir30  1  0.195982  0.820727  0.500000  1
  Ir  Ir31  1  0.179273  0.375254  0.500000  1
  Ir  Ir32  1  0.375254  0.179273  0.500000  1
  Ir  Ir33  1  0.804018  0.624746  0.500000  1
  Ir  Ir34  1  0.820727  0.195982  0.500000  1
  Ir  Ir35  1  0.000000  0.000000  0.500000  1
