# generated using pymatgen
data_Nd4Dy3Ho(B6Os)4
_symmetry_space_group_name_H-M   'P 1'
_cell_length_a   3.70734100
_cell_length_b   9.23805201
_cell_length_c   11.66341201
_cell_angle_alpha   90.00541089
_cell_angle_beta   90.00000000
_cell_angle_gamma   90.00000000
_symmetry_Int_Tables_number   1
_chemical_formula_structural   Nd4Dy3Ho(B6Os)4
_chemical_formula_sum   'Nd4 Dy3 Ho1 B24 Os4'
_cell_volume   399.45563560
_cell_formula_units_Z   1
loop_
 _symmetry_equiv_pos_site_id
 _symmetry_equiv_pos_as_xyz
  1  'x, y, z'
loop_
 _atom_site_type_symbol
 _atom_site_label
 _atom_site_symmetry_multiplicity
 _atom_site_fract_x
 _atom_site_fract_y
 _atom_site_fract_z
 _atom_site_occupancy
  Nd  Nd0  1  0.000000  0.322565  0.414309  1
  Nd  Nd1  1  0.000000  0.677428  0.585747  1
  Nd  Nd2  1  0.000000  0.822505  0.085655  1
  Nd  Nd3  1  0.000000  0.177508  0.914283  1
  Dy  Dy4  1  0.000000  0.944200  0.372295  1
  Dy  Dy5  1  0.000000  0.055797  0.627727  1
  Dy  Dy6  1  0.000000  0.444246  0.127594  1
  Ho  Ho7  1  0.000000  0.555801  0.872292  1
  B  B8  1  0.500000  0.556114  0.430405  1
  B  B9  1  0.500000  0.443897  0.569620  1
  B  B10  1  0.500000  0.056107  0.069589  1
  B  B11  1  0.500000  0.943848  0.930400  1
  B  B12  1  0.500000  0.749274  0.417343  1
  B  B13  1  0.500000  0.250740  0.582661  1
  B  B14  1  0.500000  0.249280  0.082657  1
  B  B15  1  0.500000  0.750496  0.917345  1
  B  B16  1  0.500000  0.790290  0.266984  1
  B  B17  1  0.500000  0.209757  0.733035  1
  B  B18  1  0.500000  0.290296  0.233012  1
  B  B19  1  0.500000  0.709486  0.767040  1
  B  B20  1  0.500000  0.631017  0.185518  1
  B  B21  1  0.500000  0.369160  0.814586  1
  B  B22  1  0.500000  0.131028  0.314478  1
  B  B23  1  0.500000  0.868946  0.685539  1
  B  B24  1  0.500000  0.985918  0.213907  1
  B  B25  1  0.500000  0.014068  0.786097  1
  B  B26  1  0.500000  0.485912  0.286090  1
  B  B27  1  0.500000  0.514219  0.714066  1
  B  B28  1  0.500000  0.603522  0.028112  1
  B  B29  1  0.500000  0.396661  0.971485  1
  B  B30  1  0.500000  0.103594  0.471645  1
  B  B31  1  0.500000  0.896400  0.528357  1
  Os  Os32  1  0.000000  0.639094  0.319722  1
  Os  Os33  1  0.000000  0.361065  0.680398  1
  Os  Os34  1  0.000000  0.139117  0.180238  1
  Os  Os35  1  0.000000  0.860644  0.819769  1
