# generated using pymatgen
data_Tb16Cd4Pd3Rh
_symmetry_space_group_name_H-M   'P 1'
_cell_length_a   9.74821969
_cell_length_b   9.73624924
_cell_length_c   9.73625000
_cell_angle_alpha   59.99999741
_cell_angle_beta   60.04060978
_cell_angle_gamma   60.04060825
_symmetry_Int_Tables_number   1
_chemical_formula_structural   Tb16Cd4Pd3Rh
_chemical_formula_sum   'Tb16 Cd4 Pd3 Rh1'
_cell_volume   653.82270913
_cell_formula_units_Z   1
loop_
 _symmetry_equiv_pos_site_id
 _symmetry_equiv_pos_as_xyz
  1  'x, y, z'
loop_
 _atom_site_type_symbol
 _atom_site_label
 _atom_site_symmetry_multiplicity
 _atom_site_fract_x
 _atom_site_fract_y
 _atom_site_fract_z
 _atom_site_occupancy
  Tb  Tb0  1  0.306952  0.897683  0.897683  1
  Tb  Tb1  1  0.682868  0.315821  0.685491  1
  Tb  Tb2  1  0.316117  0.683725  0.316432  1
  Tb  Tb3  1  0.060105  0.439757  0.439757  1
  Tb  Tb4  1  0.682868  0.315821  0.315821  1
  Tb  Tb5  1  0.443071  0.061055  0.434819  1
  Tb  Tb6  1  0.443071  0.061055  0.061055  1
  Tb  Tb7  1  0.895648  0.900930  0.900930  1
  Tb  Tb8  1  0.060105  0.439757  0.060381  1
  Tb  Tb9  1  0.895648  0.302493  0.900930  1
  Tb  Tb10  1  0.316117  0.683725  0.683725  1
  Tb  Tb11  1  0.895648  0.900930  0.302493  1
  Tb  Tb12  1  0.443071  0.434819  0.061055  1
  Tb  Tb13  1  0.316117  0.316432  0.683725  1
  Tb  Tb14  1  0.682868  0.685491  0.315821  1
  Tb  Tb15  1  0.060105  0.060381  0.439757  1
  Cd  Cd16  1  0.994060  0.668647  0.668647  1
  Cd  Cd17  1  0.668378  0.994579  0.668522  1
  Cd  Cd18  1  0.668378  0.668522  0.994579  1
  Cd  Cd19  1  0.668378  0.668522  0.668522  1
  Pd  Pd20  1  0.107280  0.106439  0.679843  1
  Pd  Pd21  1  0.107280  0.679843  0.106439  1
  Pd  Pd22  1  0.107280  0.106439  0.106439  1
  Rh  Rh23  1  0.678587  0.107138  0.107138  1
