# generated using pymatgen
data_GdSb5O13
_symmetry_space_group_name_H-M   'P 1'
_cell_length_a   7.44078900
_cell_length_b   7.37699847
_cell_length_c   10.32217608
_cell_angle_alpha   88.94296372
_cell_angle_beta   90.00000000
_cell_angle_gamma   90.00000000
_symmetry_Int_Tables_number   1
_chemical_formula_structural   GdSb5O13
_chemical_formula_sum   'Gd2 Sb10 O26'
_cell_volume   566.49493910
_cell_formula_units_Z   2
loop_
 _symmetry_equiv_pos_site_id
 _symmetry_equiv_pos_as_xyz
  1  'x, y, z'
loop_
 _atom_site_type_symbol
 _atom_site_label
 _atom_site_symmetry_multiplicity
 _atom_site_fract_x
 _atom_site_fract_y
 _atom_site_fract_z
 _atom_site_occupancy
  Gd  Gd0  1  0.500000  0.500000  0.000000  1
  Gd  Gd1  1  0.000000  0.500000  0.000000  1
  Sb  Sb2  1  0.250000  0.729851  0.728325  1
  Sb  Sb3  1  0.750000  0.270149  0.271675  1
  Sb  Sb4  1  0.500000  0.000000  0.000000  1
  Sb  Sb5  1  0.750000  0.758040  0.748178  1
  Sb  Sb6  1  0.250000  0.749604  0.253293  1
  Sb  Sb7  1  0.500000  0.500000  0.500000  1
  Sb  Sb8  1  0.000000  0.500000  0.500000  1
  Sb  Sb9  1  0.750000  0.250396  0.746707  1
  Sb  Sb10  1  0.250000  0.241960  0.251822  1
  Sb  Sb11  1  0.000000  0.000000  0.000000  1
  O  O12  1  0.447779  0.690520  0.372989  1
  O  O13  1  0.750000  0.454939  0.131158  1
  O  O14  1  0.250000  0.494113  0.163442  1
  O  O15  1  0.454553  0.309166  0.366234  1
  O  O16  1  0.557714  0.213375  0.883770  1
  O  O17  1  0.942286  0.213375  0.883770  1
  O  O18  1  0.447882  0.205538  0.121581  1
  O  O19  1  0.750000  0.000493  0.072338  1
  O  O20  1  0.250000  0.999507  0.927662  1
  O  O21  1  0.750000  0.003337  0.682186  1
  O  O22  1  0.552118  0.794462  0.878419  1
  O  O23  1  0.947882  0.794462  0.878419  1
  O  O24  1  0.442286  0.786625  0.116230  1
  O  O25  1  0.052221  0.690520  0.372989  1
  O  O26  1  0.545447  0.690834  0.633766  1
  O  O27  1  0.954553  0.690834  0.633766  1
  O  O28  1  0.250000  0.518200  0.580613  1
  O  O29  1  0.750000  0.505887  0.836558  1
  O  O30  1  0.750000  0.481800  0.419387  1
  O  O31  1  0.045447  0.309166  0.366234  1
  O  O32  1  0.552221  0.309480  0.627011  1
  O  O33  1  0.947779  0.309480  0.627011  1
  O  O34  1  0.052118  0.205538  0.121581  1
  O  O35  1  0.250000  0.996663  0.317814  1
  O  O36  1  0.057714  0.786625  0.116230  1
  O  O37  1  0.250000  0.545061  0.868842  1
