# generated using pymatgen
data_Cs2LuF5
_symmetry_space_group_name_H-M   'P 1'
_cell_length_a   6.34572600
_cell_length_b   8.31225400
_cell_length_c   13.12465100
_cell_angle_alpha   90.00000000
_cell_angle_beta   90.00000000
_cell_angle_gamma   90.00000000
_symmetry_Int_Tables_number   1
_chemical_formula_structural   Cs2LuF5
_chemical_formula_sum   'Cs8 Lu4 F20'
_cell_volume   692.28972423
_cell_formula_units_Z   4
loop_
 _symmetry_equiv_pos_site_id
 _symmetry_equiv_pos_as_xyz
  1  'x, y, z'
loop_
 _atom_site_type_symbol
 _atom_site_label
 _atom_site_symmetry_multiplicity
 _atom_site_fract_x
 _atom_site_fract_y
 _atom_site_fract_z
 _atom_site_occupancy
  Cs  Cs0  1  0.250000  0.494981  0.270185  1
  Cs  Cs1  1  0.750000  0.505019  0.729815  1
  Cs  Cs2  1  0.250000  0.994981  0.229815  1
  Cs  Cs3  1  0.750000  0.005019  0.770185  1
  Cs  Cs4  1  0.250000  0.146580  0.584306  1
  Cs  Cs5  1  0.750000  0.853420  0.415694  1
  Cs  Cs6  1  0.250000  0.646580  0.915694  1
  Cs  Cs7  1  0.750000  0.353420  0.084306  1
  Lu  Lu8  1  0.250000  0.658705  0.562959  1
  Lu  Lu9  1  0.750000  0.341295  0.437041  1
  Lu  Lu10  1  0.250000  0.158705  0.937041  1
  Lu  Lu11  1  0.750000  0.841295  0.062959  1
  F  F12  1  0.509695  0.192734  0.384170  1
  F  F13  1  0.009695  0.807266  0.615830  1
  F  F14  1  0.990305  0.692734  0.115830  1
  F  F15  1  0.490305  0.307266  0.884170  1
  F  F16  1  0.490305  0.807266  0.615830  1
  F  F17  1  0.990305  0.192734  0.384170  1
  F  F18  1  0.009695  0.307266  0.884170  1
  F  F19  1  0.509695  0.692734  0.115830  1
  F  F20  1  0.250000  0.778728  0.418737  1
  F  F21  1  0.750000  0.221272  0.581263  1
  F  F22  1  0.250000  0.278728  0.081263  1
  F  F23  1  0.750000  0.721272  0.918737  1
  F  F24  1  0.500000  0.500000  0.500000  1
  F  F25  1  0.000000  0.500000  0.500000  1
  F  F26  1  0.000000  0.000000  0.000000  1
  F  F27  1  0.500000  0.000000  0.000000  1
  F  F28  1  0.750000  0.989158  0.191966  1
  F  F29  1  0.250000  0.010842  0.808034  1
  F  F30  1  0.750000  0.489158  0.308034  1
  F  F31  1  0.250000  0.510842  0.691966  1
