# generated using pymatgen
data_Rb2Pu(O2F)2
_symmetry_space_group_name_H-M   'P 1'
_cell_length_a   5.18509108
_cell_length_b   6.32952758
_cell_length_c   6.32952742
_cell_angle_alpha   56.57389904
_cell_angle_beta   90.39143734
_cell_angle_gamma   90.39143891
_symmetry_Int_Tables_number   1
_chemical_formula_structural   Rb2Pu(O2F)2
_chemical_formula_sum   'Rb2 Pu1 O4 F2'
_cell_volume   173.36551895
_cell_formula_units_Z   1
loop_
 _symmetry_equiv_pos_site_id
 _symmetry_equiv_pos_as_xyz
  1  'x, y, z'
loop_
 _atom_site_type_symbol
 _atom_site_label
 _atom_site_symmetry_multiplicity
 _atom_site_fract_x
 _atom_site_fract_y
 _atom_site_fract_z
 _atom_site_occupancy
  Rb  Rb0  1  0.681248  0.330149  0.330149  1
  Rb  Rb1  1  0.318752  0.669851  0.669851  1
  Pu  Pu2  1  0.000000  0.000000  0.000000  1
  O  O3  1  0.179023  0.698749  0.139959  1
  O  O4  1  0.820977  0.860041  0.301251  1
  O  O5  1  0.179023  0.139959  0.698749  1
  O  O6  1  0.820977  0.301251  0.860041  1
  F  F7  1  0.283999  0.154098  0.154098  1
  F  F8  1  0.715999  0.845901  0.845901  1
