# generated using pymatgen
data_DyYLu4(SiIr2)6
_symmetry_space_group_name_H-M   'P 1'
_cell_length_a   5.54876200
_cell_length_b   5.54876263
_cell_length_c   15.06070000
_cell_angle_alpha   90.00000000
_cell_angle_beta   90.00000000
_cell_angle_gamma   120.00000818
_symmetry_Int_Tables_number   1
_chemical_formula_structural   DyYLu4(SiIr2)6
_chemical_formula_sum   'Dy1 Y1 Lu4 Si6 Ir12'
_cell_volume   401.57622918
_cell_formula_units_Z   1
loop_
 _symmetry_equiv_pos_site_id
 _symmetry_equiv_pos_as_xyz
  1  'x, y, z'
loop_
 _atom_site_type_symbol
 _atom_site_label
 _atom_site_symmetry_multiplicity
 _atom_site_fract_x
 _atom_site_fract_y
 _atom_site_fract_z
 _atom_site_occupancy
  Dy  Dy0  1  0.333333  0.666667  0.750000  1
  Y  Y1  1  0.666667  0.333333  0.250000  1
  Lu  Lu2  1  0.333333  0.666667  0.538652  1
  Lu  Lu3  1  0.666667  0.333333  0.461351  1
  Lu  Lu4  1  0.666667  0.333333  0.038649  1
  Lu  Lu5  1  0.333333  0.666667  0.961348  1
  Si  Si6  1  0.000000  0.000000  0.250000  1
  Si  Si7  1  0.000000  0.000000  0.750000  1
  Si  Si8  1  0.333333  0.666667  0.250000  1
  Si  Si9  1  0.666667  0.333333  0.750000  1
  Si  Si10  1  0.000000  0.000000  0.000011  1
  Si  Si11  1  0.000000  0.000000  0.499989  1
  Ir  Ir12  1  0.167810  0.335620  0.128724  1
  Ir  Ir13  1  0.832188  0.664376  0.871254  1
  Ir  Ir14  1  0.664380  0.832190  0.128724  1
  Ir  Ir15  1  0.832188  0.664376  0.628746  1
  Ir  Ir16  1  0.335624  0.167812  0.871254  1
  Ir  Ir17  1  0.167810  0.335620  0.371276  1
  Ir  Ir18  1  0.167810  0.832190  0.128724  1
  Ir  Ir19  1  0.335624  0.167812  0.628746  1
  Ir  Ir20  1  0.832188  0.167812  0.871254  1
  Ir  Ir21  1  0.664380  0.832190  0.371276  1
  Ir  Ir22  1  0.832188  0.167812  0.628746  1
  Ir  Ir23  1  0.167810  0.832190  0.371276  1
