# generated using pymatgen
data_Tm4CoNi3(SnH)4
_symmetry_space_group_name_H-M   'P 1'
_cell_length_a   4.21642900
_cell_length_b   7.01684321
_cell_length_c   8.18197355
_cell_angle_alpha   90.21494331
_cell_angle_beta   90.00000000
_cell_angle_gamma   90.00000000
_symmetry_Int_Tables_number   1
_chemical_formula_structural   Tm4CoNi3(SnH)4
_chemical_formula_sum   'Tm4 Co1 Ni3 Sn4 H4'
_cell_volume   242.07033952
_cell_formula_units_Z   1
loop_
 _symmetry_equiv_pos_site_id
 _symmetry_equiv_pos_as_xyz
  1  'x, y, z'
loop_
 _atom_site_type_symbol
 _atom_site_label
 _atom_site_symmetry_multiplicity
 _atom_site_fract_x
 _atom_site_fract_y
 _atom_site_fract_z
 _atom_site_occupancy
  Tm  Tm0  1  0.750000  0.515481  0.812633  1
  Tm  Tm1  1  0.250000  0.482128  0.188656  1
  Tm  Tm2  1  0.250000  0.987733  0.316048  1
  Tm  Tm3  1  0.750000  0.019725  0.682875  1
  Co  Co4  1  0.750000  0.264951  0.390064  1
  Ni  Ni5  1  0.250000  0.730641  0.611650  1
  Ni  Ni6  1  0.250000  0.232008  0.889733  1
  Ni  Ni7  1  0.750000  0.770043  0.108992  1
  Sn  Sn8  1  0.750000  0.157694  0.072279  1
  Sn  Sn9  1  0.250000  0.846470  0.930774  1
  Sn  Sn10  1  0.250000  0.341907  0.568914  1
  Sn  Sn11  1  0.750000  0.652315  0.429525  1
  H  H12  1  0.250000  0.953890  0.579221  1
  H  H13  1  0.750000  0.043311  0.418861  1
  H  H14  1  0.750000  0.547351  0.076981  1
  H  H15  1  0.250000  0.454353  0.922794  1
