# generated using pymatgen
data_Ti2SiH
_symmetry_space_group_name_H-M   'P 1'
_cell_length_a   5.05349792
_cell_length_b   5.05349788
_cell_length_c   5.05349846
_cell_angle_alpha   104.69117634
_cell_angle_beta   104.69117565
_cell_angle_gamma   119.52360413
_symmetry_Int_Tables_number   1
_chemical_formula_structural   Ti2SiH
_chemical_formula_sum   'Ti4 Si2 H2'
_cell_volume   97.01860327
_cell_formula_units_Z   2
loop_
 _symmetry_equiv_pos_site_id
 _symmetry_equiv_pos_as_xyz
  1  'x, y, z'
loop_
 _atom_site_type_symbol
 _atom_site_label
 _atom_site_symmetry_multiplicity
 _atom_site_fract_x
 _atom_site_fract_y
 _atom_site_fract_z
 _atom_site_occupancy
  Ti  Ti0  1  0.161500  0.661500  0.823002  1
  Ti  Ti1  1  0.838500  0.338500  0.176998  1
  Ti  Ti2  1  0.338500  0.161500  0.500000  1
  Ti  Ti3  1  0.661500  0.838500  0.500000  1
  Si  Si4  1  0.250000  0.250000  0.000000  1
  Si  Si5  1  0.750000  0.750000  0.000000  1
  H  H6  1  0.750000  0.250000  0.500000  1
  H  H7  1  0.250000  0.750000  0.500000  1
