# generated using pymatgen
data_Y3GaGeIr2
_symmetry_space_group_name_H-M   'P 1'
_cell_length_a   5.62004400
_cell_length_b   7.76637200
_cell_length_c   13.67657400
_cell_angle_alpha   90.00000000
_cell_angle_beta   90.00000000
_cell_angle_gamma   90.00000000
_symmetry_Int_Tables_number   1
_chemical_formula_structural   Y3GaGeIr2
_chemical_formula_sum   'Y12 Ga4 Ge4 Ir8'
_cell_volume   596.94624446
_cell_formula_units_Z   4
loop_
 _symmetry_equiv_pos_site_id
 _symmetry_equiv_pos_as_xyz
  1  'x, y, z'
loop_
 _atom_site_type_symbol
 _atom_site_label
 _atom_site_symmetry_multiplicity
 _atom_site_fract_x
 _atom_site_fract_y
 _atom_site_fract_z
 _atom_site_occupancy
  Y  Y0  1  0.149643  0.901354  0.601014  1
  Y  Y1  1  0.850357  0.098646  0.101014  1
  Y  Y2  1  0.149643  0.598646  0.398986  1
  Y  Y3  1  0.850357  0.401354  0.898986  1
  Y  Y4  1  0.850357  0.098646  0.398986  1
  Y  Y5  1  0.149643  0.901354  0.898986  1
  Y  Y6  1  0.850357  0.401354  0.601014  1
  Y  Y7  1  0.149643  0.598646  0.101014  1
  Y  Y8  1  0.375724  0.263784  0.750000  1
  Y  Y9  1  0.624276  0.736216  0.250000  1
  Y  Y10  1  0.375724  0.236216  0.250000  1
  Y  Y11  1  0.624276  0.763784  0.750000  1
  Ga  Ga12  1  0.367166  0.250000  0.500000  1
  Ga  Ga13  1  0.632834  0.750000  0.000000  1
  Ga  Ga14  1  0.632834  0.750000  0.500000  1
  Ga  Ga15  1  0.367166  0.250000  0.000000  1
  Ge  Ge16  1  0.875139  0.118216  0.750000  1
  Ge  Ge17  1  0.124861  0.881784  0.250000  1
  Ge  Ge18  1  0.875139  0.381784  0.250000  1
  Ge  Ge19  1  0.124861  0.618216  0.750000  1
  Ir  Ir20  1  0.647099  0.033149  0.593630  1
  Ir  Ir21  1  0.352901  0.966851  0.093630  1
  Ir  Ir22  1  0.647099  0.466851  0.406370  1
  Ir  Ir23  1  0.352901  0.533149  0.906370  1
  Ir  Ir24  1  0.352901  0.966851  0.406370  1
  Ir  Ir25  1  0.647099  0.033149  0.906370  1
  Ir  Ir26  1  0.352901  0.533149  0.593630  1
  Ir  Ir27  1  0.647099  0.466851  0.093630  1
