# generated using pymatgen
data_Nb14Si3As5
_symmetry_space_group_name_H-M   'P 1'
_cell_length_a   3.54871300
_cell_length_b   7.93103961
_cell_length_c   14.14703191
_cell_angle_alpha   103.88622541
_cell_angle_beta   90.00000000
_cell_angle_gamma   102.92780494
_symmetry_Int_Tables_number   1
_chemical_formula_structural   Nb14Si3As5
_chemical_formula_sum   'Nb14 Si3 As5'
_cell_volume   376.12661919
_cell_formula_units_Z   1
loop_
 _symmetry_equiv_pos_site_id
 _symmetry_equiv_pos_as_xyz
  1  'x, y, z'
loop_
 _atom_site_type_symbol
 _atom_site_label
 _atom_site_symmetry_multiplicity
 _atom_site_fract_x
 _atom_site_fract_y
 _atom_site_fract_z
 _atom_site_occupancy
  Nb  Nb0  1  0.000297  0.000595  0.999854  1
  Nb  Nb1  1  0.498397  0.996793  0.500836  1
  Nb  Nb2  1  0.428108  0.856218  0.824312  1
  Nb  Nb3  1  0.571155  0.142309  0.170863  1
  Nb  Nb4  1  0.196095  0.392190  0.307144  1
  Nb  Nb5  1  0.803408  0.606816  0.691918  1
  Nb  Nb6  1  0.212744  0.425487  0.798890  1
  Nb  Nb7  1  0.787229  0.574457  0.200414  1
  Nb  Nb8  1  0.332363  0.664725  0.028756  1
  Nb  Nb9  1  0.667599  0.335198  0.970521  1
  Nb  Nb10  1  0.997695  0.995390  0.660972  1
  Nb  Nb11  1  0.000466  0.000933  0.338512  1
  Nb  Nb12  1  0.183131  0.366262  0.545751  1
  Nb  Nb13  1  0.821669  0.643339  0.459377  1
  Si  Si14  1  0.173823  0.347644  0.107965  1
  Si  Si15  1  0.826712  0.653426  0.891452  1
  Si  Si16  1  0.370819  0.741639  0.600681  1
  As  As17  1  0.629519  0.259036  0.401972  1
  As  As18  1  0.371637  0.743272  0.333753  1
  As  As19  1  0.627208  0.254417  0.666621  1
  As  As20  1  0.063009  0.126018  0.847677  1
  As  As21  1  0.936918  0.873835  0.151759  1
