# generated using pymatgen
data_La2Tb18Si15Pd
_symmetry_space_group_name_H-M   'P 1'
_cell_length_a   7.46725045
_cell_length_b   7.81071953
_cell_length_c   14.78084528
_cell_angle_alpha   89.63912270
_cell_angle_beta   89.98409864
_cell_angle_gamma   89.85617294
_symmetry_Int_Tables_number   1
_chemical_formula_structural   La2Tb18Si15Pd
_chemical_formula_sum   'La2 Tb18 Si15 Pd1'
_cell_volume   862.06702726
_cell_formula_units_Z   1
loop_
 _symmetry_equiv_pos_site_id
 _symmetry_equiv_pos_as_xyz
  1  'x, y, z'
loop_
 _atom_site_type_symbol
 _atom_site_label
 _atom_site_symmetry_multiplicity
 _atom_site_fract_x
 _atom_site_fract_y
 _atom_site_fract_z
 _atom_site_occupancy
  La  La0  1  0.523068  0.570493  0.342162  1
  La  La1  1  0.023133  0.429392  0.656980  1
  Tb  Tb2  1  0.811468  0.576154  0.874864  1
  Tb  Tb3  1  0.315382  0.423385  0.125896  1
  Tb  Tb4  1  0.182310  0.928372  0.373227  1
  Tb  Tb5  1  0.682330  0.069788  0.626973  1
  Tb  Tb6  1  0.182869  0.928094  0.628482  1
  Tb  Tb7  1  0.682939  0.070786  0.371298  1
  Tb  Tb8  1  0.816055  0.572022  0.126396  1
  Tb  Tb9  1  0.318607  0.427609  0.872901  1
  Tb  Tb10  1  0.644176  0.231518  0.999393  1
  Tb  Tb11  1  0.155878  0.759127  0.000750  1
  Tb  Tb12  1  0.351329  0.263817  0.499979  1
  Tb  Tb13  1  0.850390  0.735277  0.499906  1
  Tb  Tb14  1  0.474782  0.934229  0.845661  1
  Tb  Tb15  1  0.973300  0.066110  0.152435  1
  Tb  Tb16  1  0.472799  0.935208  0.153213  1
  Tb  Tb17  1  0.971689  0.066464  0.848853  1
  Tb  Tb18  1  0.527459  0.565770  0.652229  1
  Tb  Tb19  1  0.027837  0.434674  0.347798  1
  Si  Si20  1  0.019293  0.351625  0.999886  1
  Si  Si21  1  0.476244  0.858289  0.501138  1
  Si  Si22  1  0.977032  0.141302  0.498990  1
  Si  Si23  1  0.649331  0.277331  0.790458  1
  Si  Si24  1  0.151057  0.721791  0.209353  1
  Si  Si25  1  0.352018  0.216243  0.288060  1
  Si  Si26  1  0.851834  0.783524  0.712777  1
  Si  Si27  1  0.361744  0.220177  0.710365  1
  Si  Si28  1  0.861008  0.780126  0.288816  1
  Si  Si29  1  0.645059  0.270341  0.206387  1
  Si  Si30  1  0.146517  0.727835  0.793242  1
  Si  Si31  1  0.772553  0.880661  0.000817  1
  Si  Si32  1  0.259031  0.124845  0.999582  1
  Si  Si33  1  0.235161  0.627931  0.501766  1
  Si  Si34  1  0.734238  0.372793  0.498484  1
  Pd  Pd35  1  0.520077  0.656900  0.000483  1
