# generated using pymatgen
data_Zr13Ti3Co5Ir3N4
_symmetry_space_group_name_H-M   'P 1'
_cell_length_a   8.59322535
_cell_length_b   8.56424017
_cell_length_c   8.61278700
_cell_angle_alpha   59.81088797
_cell_angle_beta   59.92432480
_cell_angle_gamma   59.71688975
_symmetry_Int_Tables_number   1
_chemical_formula_structural   Zr13Ti3Co5Ir3N4
_chemical_formula_sum   'Zr13 Ti3 Co5 Ir3 N4'
_cell_volume   446.34099901
_cell_formula_units_Z   1
loop_
 _symmetry_equiv_pos_site_id
 _symmetry_equiv_pos_as_xyz
  1  'x, y, z'
loop_
 _atom_site_type_symbol
 _atom_site_label
 _atom_site_symmetry_multiplicity
 _atom_site_fract_x
 _atom_site_fract_y
 _atom_site_fract_z
 _atom_site_occupancy
  Zr  Zr0  1  0.605620  0.170364  0.611975  1
  Zr  Zr1  1  0.813591  0.806681  0.189856  1
  Zr  Zr2  1  0.186608  0.179760  0.816809  1
  Zr  Zr3  1  0.815755  0.183676  0.815508  1
  Zr  Zr4  1  0.191628  0.806538  0.188808  1
  Zr  Zr5  1  0.191622  0.806531  0.813024  1
  Zr  Zr6  1  0.815754  0.183677  0.185050  1
  Zr  Zr7  1  0.441041  0.436405  0.061295  1
  Zr  Zr8  1  0.062844  0.055266  0.440943  1
  Zr  Zr9  1  0.440534  0.056091  0.439045  1
  Zr  Zr10  1  0.061786  0.436630  0.061377  1
  Zr  Zr11  1  0.061803  0.436636  0.440199  1
  Zr  Zr12  1  0.440539  0.056076  0.064334  1
  Ti  Ti13  1  0.148508  0.612578  0.619418  1
  Ti  Ti14  1  0.618998  0.617385  0.142079  1
  Ti  Ti15  1  0.619051  0.617429  0.621526  1
  Co  Co16  1  0.764819  0.435544  0.399840  1
  Co  Co17  1  0.419200  0.742521  0.419145  1
  Co  Co18  1  0.399167  0.434999  0.770360  1
  Co  Co19  1  0.399175  0.434959  0.395521  1
  Co  Co20  1  0.508597  0.831636  0.829886  1
  Ir  Ir21  1  0.830086  0.504182  0.832866  1
  Ir  Ir22  1  0.828571  0.833239  0.506479  1
  Ir  Ir23  1  0.828554  0.833238  0.831713  1
  N  N24  1  0.626339  0.121397  0.126131  1
  N  N25  1  0.125708  0.624523  0.124885  1
  N  N26  1  0.127052  0.121016  0.625270  1
  N  N27  1  0.127050  0.121021  0.126656  1
