# generated using pymatgen
data_Ba11Te4O23
_symmetry_space_group_name_H-M   'P 1'
_cell_length_a   12.53655594
_cell_length_b   12.68726510
_cell_length_c   12.58846000
_cell_angle_alpha   60.58159693
_cell_angle_beta   58.53443535
_cell_angle_gamma   59.19497934
_symmetry_Int_Tables_number   1
_chemical_formula_structural   Ba11Te4O23
_chemical_formula_sum   'Ba22 Te8 O46'
_cell_volume   1396.71897854
_cell_formula_units_Z   2
loop_
 _symmetry_equiv_pos_site_id
 _symmetry_equiv_pos_as_xyz
  1  'x, y, z'
loop_
 _atom_site_type_symbol
 _atom_site_label
 _atom_site_symmetry_multiplicity
 _atom_site_fract_x
 _atom_site_fract_y
 _atom_site_fract_z
 _atom_site_occupancy
  Ba  Ba0  1  0.272309  0.222970  0.215808  1
  Ba  Ba1  1  0.135256  0.152034  0.602492  1
  Ba  Ba2  1  0.111576  0.599558  0.140553  1
  Ba  Ba3  1  0.624023  0.166592  0.144458  1
  Ba  Ba4  1  0.347461  0.382191  0.391547  1
  Ba  Ba5  1  0.111573  0.609610  0.624800  1
  Ba  Ba6  1  0.259636  0.769979  0.234515  1
  Ba  Ba7  1  0.274445  0.208305  0.790439  1
  Ba  Ba8  1  0.942445  0.842332  0.836900  1
  Ba  Ba9  1  0.640693  0.153475  0.542388  1
  Ba  Ba10  1  0.630956  0.556294  0.158910  1
  Ba  Ba11  1  0.336833  0.447922  0.850403  1
  Ba  Ba12  1  0.342054  0.843858  0.464669  1
  Ba  Ba13  1  0.043637  0.164407  0.159782  1
  Ba  Ba14  1  0.695641  0.793220  0.220224  1
  Ba  Ba15  1  0.864209  0.389242  0.383685  1
  Ba  Ba16  1  0.725357  0.228797  0.772354  1
  Ba  Ba17  1  0.630435  0.619210  0.614099  1
  Ba  Ba18  1  0.349676  0.843420  0.850820  1
  Ba  Ba19  1  0.850519  0.861453  0.388990  1
  Ba  Ba20  1  0.856600  0.412911  0.850768  1
  Ba  Ba21  1  0.705206  0.792408  0.778575  1
  Te  Te22  1  0.993374  0.992805  0.005004  1
  Te  Te23  1  0.491543  0.996895  0.004225  1
  Te  Te24  1  0.489771  0.005593  0.498075  1
  Te  Te25  1  0.483336  0.508398  0.998621  1
  Te  Te26  1  0.488369  0.497787  0.507302  1
  Te  Te27  1  0.983106  0.503309  0.999549  1
  Te  Te28  1  0.988845  0.504634  0.498963  1
  Te  Te29  1  0.991714  0.008052  0.496997  1
  O  O30  1  0.118819  0.389948  0.387671  1
  O  O31  1  0.535296  0.054618  0.088850  1
  O  O32  1  0.089880  0.399910  0.618769  1
  O  O33  1  0.097653  0.618448  0.397084  1
  O  O34  1  0.364445  0.409901  0.076886  1
  O  O35  1  0.392500  0.110861  0.376418  1
  O  O36  1  0.334938  0.637309  0.086977  1
  O  O37  1  0.381403  0.143209  0.581110  1
  O  O38  1  0.541142  0.408042  0.149502  1
  O  O39  1  0.625108  0.088219  0.379533  1
  O  O40  1  0.401476  0.367802  0.605691  1
  O  O41  1  0.394999  0.579799  0.383441  1
  O  O42  1  0.337282  0.609545  0.613874  1
  O  O43  1  0.637756  0.390091  0.396270  1
  O  O44  1  0.083828  0.851040  0.941571  1
  O  O45  1  0.488685  0.840356  0.145409  1
  O  O46  1  0.578548  0.413334  0.634737  1
  O  O47  1  0.578531  0.624871  0.413353  1
  O  O48  1  0.353374  0.924947  0.615494  1
  O  O49  1  0.425802  0.605937  0.847935  1
  O  O50  1  0.877623  0.391906  0.076330  1
  O  O51  1  0.892882  0.055994  0.390292  1
  O  O52  1  0.661298  0.989370  0.865737  1
  O  O53  1  0.841232  0.133780  0.586558  1
  O  O54  1  0.847002  0.605635  0.120263  1
  O  O55  1  0.085801  0.961175  0.608501  1
  O  O56  1  0.071888  0.389983  0.128172  1
  O  O57  1  0.065291  0.148138  0.369419  1
  O  O58  1  0.092150  0.610394  0.920457  1
  O  O59  1  0.629142  0.380725  0.908888  1
  O  O60  1  0.595354  0.865917  0.418806  1
  O  O61  1  0.332633  0.147289  0.008636  1
  O  O62  1  0.602317  0.606795  0.920692  1
  O  O63  1  0.586069  0.903442  0.619766  1
  O  O64  1  0.887943  0.607269  0.380053  1
  O  O65  1  0.878832  0.390378  0.604648  1
  O  O66  1  0.867505  0.139984  0.929737  1
  O  O67  1  0.848110  0.930441  0.140465  1
  O  O68  1  0.443582  0.951327  0.912839  1
  O  O69  1  0.858650  0.617228  0.612989  1
  O  O70  1  0.050326  0.955965  0.137584  1
  O  O71  1  0.125075  0.074563  0.873978  1
  O  O72  1  0.893693  0.621838  0.871815  1
  O  O73  1  0.921673  0.865279  0.621724  1
  O  O74  1  0.116863  0.404408  0.875786  1
  O  O75  1  0.146602  0.890938  0.399177  1
