# generated using pymatgen
data_Pr20GeIr4Pb7
_symmetry_space_group_name_H-M   'P 1'
_cell_length_a   8.29312688
_cell_length_b   9.28890921
_cell_length_c   12.89444300
_cell_angle_alpha   90.10068346
_cell_angle_beta   90.37631961
_cell_angle_gamma   90.12921348
_symmetry_Int_Tables_number   1
_chemical_formula_structural   Pr20GeIr4Pb7
_chemical_formula_sum   'Pr20 Ge1 Ir4 Pb7'
_cell_volume   993.28633443
_cell_formula_units_Z   1
loop_
 _symmetry_equiv_pos_site_id
 _symmetry_equiv_pos_as_xyz
  1  'x, y, z'
loop_
 _atom_site_type_symbol
 _atom_site_label
 _atom_site_symmetry_multiplicity
 _atom_site_fract_x
 _atom_site_fract_y
 _atom_site_fract_z
 _atom_site_occupancy
  Pr  Pr0  1  0.678069  0.466513  0.071340  1
  Pr  Pr1  1  0.176802  0.536949  0.424191  1
  Pr  Pr2  1  0.326751  0.959675  0.929666  1
  Pr  Pr3  1  0.824731  0.038032  0.571918  1
  Pr  Pr4  1  0.320964  0.536385  0.932056  1
  Pr  Pr5  1  0.826266  0.459393  0.572748  1
  Pr  Pr6  1  0.683025  0.038893  0.072330  1
  Pr  Pr7  1  0.173259  0.961683  0.417268  1
  Pr  Pr8  1  0.956505  0.759824  0.006018  1
  Pr  Pr9  1  0.443622  0.250361  0.498654  1
  Pr  Pr10  1  0.053703  0.238920  0.004374  1
  Pr  Pr11  1  0.558797  0.748809  0.501250  1
  Pr  Pr12  1  0.363279  0.759341  0.193712  1
  Pr  Pr13  1  0.878025  0.244543  0.303547  1
  Pr  Pr14  1  0.624575  0.251251  0.806873  1
  Pr  Pr15  1  0.123095  0.748941  0.691251  1
  Pr  Pr16  1  0.842389  0.755958  0.282022  1
  Pr  Pr17  1  0.334515  0.240557  0.211408  1
  Pr  Pr18  1  0.160008  0.250609  0.715029  1
  Pr  Pr19  1  0.661380  0.748569  0.790777  1
  Ge  Ge20  1  0.058433  0.998139  0.173408  1
  Ir  Ir21  1  0.579059  0.752804  0.011438  1
  Ir  Ir22  1  0.080115  0.247597  0.491373  1
  Ir  Ir23  1  0.422884  0.248277  0.992914  1
  Ir  Ir24  1  0.921163  0.748720  0.503778  1
  Pb  Pb25  1  0.568916  0.493536  0.326727  1
  Pb  Pb26  1  0.068895  0.505519  0.170525  1
  Pb  Pb27  1  0.428917  0.993281  0.670458  1
  Pb  Pb28  1  0.931389  0.006398  0.827899  1
  Pb  Pb29  1  0.427379  0.508209  0.671742  1
  Pb  Pb30  1  0.932397  0.494284  0.832758  1
  Pb  Pb31  1  0.570692  0.008031  0.330548  1
