# generated using pymatgen
data_TbSm3(B4Ru)4
_symmetry_space_group_name_H-M   'P 1'
_cell_length_a   3.59916600
_cell_length_b   6.01264062
_cell_length_c   11.63145019
_cell_angle_alpha   90.05186867
_cell_angle_beta   90.00000000
_cell_angle_gamma   90.00000000
_symmetry_Int_Tables_number   1
_chemical_formula_structural   TbSm3(B4Ru)4
_chemical_formula_sum   'Tb1 Sm3 B16 Ru4'
_cell_volume   251.71019790
_cell_formula_units_Z   1
loop_
 _symmetry_equiv_pos_site_id
 _symmetry_equiv_pos_as_xyz
  1  'x, y, z'
loop_
 _atom_site_type_symbol
 _atom_site_label
 _atom_site_symmetry_multiplicity
 _atom_site_fract_x
 _atom_site_fract_y
 _atom_site_fract_z
 _atom_site_occupancy
  Tb  Tb0  1  0.500000  0.371917  0.650123  1
  Sm  Sm1  1  0.500000  0.128058  0.150252  1
  Sm  Sm2  1  0.500000  0.871993  0.849439  1
  Sm  Sm3  1  0.500000  0.627918  0.350029  1
  B  B4  1  0.000000  0.476106  0.190419  1
  B  B5  1  0.000000  0.523224  0.808398  1
  B  B6  1  0.000000  0.976170  0.309923  1
  B  B7  1  0.000000  0.025328  0.690462  1
  B  B8  1  0.000000  0.286146  0.315765  1
  B  B9  1  0.000000  0.711583  0.684383  1
  B  B10  1  0.000000  0.786307  0.184570  1
  B  B11  1  0.000000  0.213960  0.814417  1
  B  B12  1  0.000000  0.362568  0.470256  1
  B  B13  1  0.000000  0.637125  0.531382  1
  B  B14  1  0.000000  0.861995  0.030599  1
  B  B15  1  0.000000  0.138186  0.968882  1
  B  B16  1  0.000000  0.388965  0.045709  1
  B  B17  1  0.000000  0.610758  0.953574  1
  B  B18  1  0.000000  0.889280  0.454625  1
  B  B19  1  0.000000  0.112437  0.546770  1
  Ru  Ru20  1  0.500000  0.139141  0.409184  1
  Ru  Ru21  1  0.500000  0.860978  0.592050  1
  Ru  Ru22  1  0.500000  0.638280  0.091460  1
  Ru  Ru23  1  0.500000  0.361578  0.907327  1
