# generated using pymatgen
data_SmNp9O20
_symmetry_space_group_name_H-M   'P 1'
_cell_length_a   6.61615501
_cell_length_b   7.64127938
_cell_length_c   8.54296380
_cell_angle_alpha   102.96728213
_cell_angle_beta   97.43583448
_cell_angle_gamma   106.75572554
_symmetry_Int_Tables_number   1
_chemical_formula_structural   SmNp9O20
_chemical_formula_sum   'Sm1 Np9 O20'
_cell_volume   394.19746552
_cell_formula_units_Z   1
loop_
 _symmetry_equiv_pos_site_id
 _symmetry_equiv_pos_as_xyz
  1  'x, y, z'
loop_
 _atom_site_type_symbol
 _atom_site_label
 _atom_site_symmetry_multiplicity
 _atom_site_fract_x
 _atom_site_fract_y
 _atom_site_fract_z
 _atom_site_occupancy
  Sm  Sm0  1  0.000000  0.000000  0.000000  1
  Np  Np1  1  0.800090  0.600378  0.600343  1
  Np  Np2  1  0.599752  0.199682  0.199204  1
  Np  Np3  1  0.000000  0.500000  0.000000  1
  Np  Np4  1  0.799546  0.099856  0.600311  1
  Np  Np5  1  0.400248  0.800318  0.800796  1
  Np  Np6  1  0.199910  0.399622  0.399657  1
  Np  Np7  1  0.601026  0.700339  0.199831  1
  Np  Np8  1  0.398974  0.299661  0.800169  1
  Np  Np9  1  0.200454  0.900144  0.399689  1
  O  O10  1  0.849468  0.325022  0.452041  1
  O  O11  1  0.640237  0.922137  0.052445  1
  O  O12  1  0.949512  0.767817  0.154544  1
  O  O13  1  0.447482  0.522913  0.649535  1
  O  O14  1  0.851442  0.825903  0.450485  1
  O  O15  1  0.648260  0.425613  0.049211  1
  O  O16  1  0.746002  0.373900  0.749880  1
  O  O17  1  0.258412  0.128950  0.257514  1
  O  O18  1  0.948348  0.283840  0.154674  1
  O  O19  1  0.447890  0.025337  0.648079  1
  O  O20  1  0.552110  0.974663  0.351921  1
  O  O21  1  0.051652  0.716160  0.845326  1
  O  O22  1  0.741588  0.871050  0.742486  1
  O  O23  1  0.351740  0.574387  0.950789  1
  O  O24  1  0.253998  0.626100  0.250120  1
  O  O25  1  0.552518  0.477087  0.350465  1
  O  O26  1  0.148558  0.174097  0.549515  1
  O  O27  1  0.050488  0.232183  0.845456  1
  O  O28  1  0.359763  0.077863  0.947555  1
  O  O29  1  0.150532  0.674978  0.547959  1
