# generated using pymatgen
data_SrCaCuReN4
_symmetry_space_group_name_H-M   'P 1'
_cell_length_a   5.83090600
_cell_length_b   6.08555766
_cell_length_c   6.70193816
_cell_angle_alpha   73.62517757
_cell_angle_beta   90.00000000
_cell_angle_gamma   90.00000000
_symmetry_Int_Tables_number   1
_chemical_formula_structural   SrCaCuReN4
_chemical_formula_sum   'Sr2 Ca2 Cu2 Re2 N8'
_cell_volume   228.16747237
_cell_formula_units_Z   2
loop_
 _symmetry_equiv_pos_site_id
 _symmetry_equiv_pos_as_xyz
  1  'x, y, z'
loop_
 _atom_site_type_symbol
 _atom_site_label
 _atom_site_symmetry_multiplicity
 _atom_site_fract_x
 _atom_site_fract_y
 _atom_site_fract_z
 _atom_site_occupancy
  Sr  Sr0  1  0.750000  0.780637  0.434428  1
  Sr  Sr1  1  0.250000  0.219363  0.565572  1
  Ca  Ca2  1  0.250000  0.259302  0.056888  1
  Ca  Ca3  1  0.750000  0.740698  0.943112  1
  Cu  Cu4  1  0.750000  0.295411  0.311924  1
  Cu  Cu5  1  0.250000  0.704589  0.688076  1
  Re  Re6  1  0.250000  0.720291  0.190214  1
  Re  Re7  1  0.750000  0.279709  0.809786  1
  N  N8  1  0.502695  0.472258  0.763319  1
  N  N9  1  0.002695  0.527742  0.236681  1
  N  N10  1  0.497305  0.527742  0.236681  1
  N  N11  1  0.997305  0.472258  0.763319  1
  N  N12  1  0.750000  0.098362  0.627131  1
  N  N13  1  0.250000  0.901638  0.372869  1
  N  N14  1  0.750000  0.102345  0.081919  1
  N  N15  1  0.250000  0.897655  0.918081  1
