# generated using pymatgen
data_Nd6Dy10Cd4Ni3Ru
_symmetry_space_group_name_H-M   'P 1'
_cell_length_a   9.69085201
_cell_length_b   9.69085175
_cell_length_c   9.69085105
_cell_angle_alpha   59.65921150
_cell_angle_beta   59.65921039
_cell_angle_gamma   59.65921283
_symmetry_Int_Tables_number   1
_chemical_formula_structural   Nd6Dy10Cd4Ni3Ru
_chemical_formula_sum   'Nd6 Dy10 Cd4 Ni3 Ru1'
_cell_volume   638.55019228
_cell_formula_units_Z   1
loop_
 _symmetry_equiv_pos_site_id
 _symmetry_equiv_pos_as_xyz
  1  'x, y, z'
loop_
 _atom_site_type_symbol
 _atom_site_label
 _atom_site_symmetry_multiplicity
 _atom_site_fract_x
 _atom_site_fract_y
 _atom_site_fract_z
 _atom_site_occupancy
  Nd  Nd0  1  0.188370  0.812841  0.812841  1
  Nd  Nd1  1  0.805845  0.190465  0.190465  1
  Nd  Nd2  1  0.812841  0.188370  0.812841  1
  Nd  Nd3  1  0.190465  0.805845  0.190465  1
  Nd  Nd4  1  0.812841  0.812841  0.188370  1
  Nd  Nd5  1  0.190465  0.190465  0.805845  1
  Dy  Dy6  1  0.597927  0.597927  0.597927  1
  Dy  Dy7  1  0.598675  0.598675  0.208943  1
  Dy  Dy8  1  0.598675  0.208943  0.598675  1
  Dy  Dy9  1  0.208943  0.598675  0.598675  1
  Dy  Dy10  1  0.062668  0.436365  0.436365  1
  Dy  Dy11  1  0.434426  0.062185  0.062185  1
  Dy  Dy12  1  0.436365  0.062668  0.436365  1
  Dy  Dy13  1  0.062185  0.434426  0.062185  1
  Dy  Dy14  1  0.436365  0.436365  0.062668  1
  Dy  Dy15  1  0.062185  0.062185  0.434426  1
  Cd  Cd16  1  0.829147  0.829147  0.829147  1
  Cd  Cd17  1  0.829054  0.829054  0.510789  1
  Cd  Cd18  1  0.829054  0.510789  0.829054  1
  Cd  Cd19  1  0.510789  0.829054  0.829054  1
  Ni  Ni20  1  0.392717  0.392717  0.825179  1
  Ni  Ni21  1  0.392717  0.825179  0.392717  1
  Ni  Ni22  1  0.825179  0.392717  0.392717  1
  Ru  Ru23  1  0.392106  0.392106  0.392106  1
