# generated using pymatgen
data_Ho2Al9PdRh2
_symmetry_space_group_name_H-M   'P 1'
_cell_length_a   7.58897206
_cell_length_b   7.58899527
_cell_length_c   9.44455504
_cell_angle_alpha   90.02729723
_cell_angle_beta   90.02715675
_cell_angle_gamma   119.60990284
_symmetry_Int_Tables_number   1
_chemical_formula_structural   Ho2Al9PdRh2
_chemical_formula_sum   'Ho4 Al18 Pd2 Rh4'
_cell_volume   472.90395710
_cell_formula_units_Z   2
loop_
 _symmetry_equiv_pos_site_id
 _symmetry_equiv_pos_as_xyz
  1  'x, y, z'
loop_
 _atom_site_type_symbol
 _atom_site_label
 _atom_site_symmetry_multiplicity
 _atom_site_fract_x
 _atom_site_fract_y
 _atom_site_fract_z
 _atom_site_occupancy
  Ho  Ho0  1  0.995333  0.669756  0.249330  1
  Ho  Ho1  1  0.004667  0.330243  0.750672  1
  Ho  Ho2  1  0.669755  0.995330  0.249332  1
  Ho  Ho3  1  0.330245  0.004670  0.750674  1
  Al  Al4  1  0.125927  0.125926  0.248614  1
  Al  Al5  1  0.874073  0.874074  0.751386  1
  Al  Al6  1  0.999275  0.334538  0.074418  1
  Al  Al7  1  0.000724  0.665461  0.925582  1
  Al  Al8  1  0.998816  0.668520  0.577766  1
  Al  Al9  1  0.331478  0.001183  0.422233  1
  Al  Al10  1  0.001183  0.331479  0.422233  1
  Al  Al11  1  0.668521  0.998816  0.577767  1
  Al  Al12  1  0.665462  0.000723  0.925584  1
  Al  Al13  1  0.334539  0.999277  0.074418  1
  Al  Al14  1  0.331076  0.331075  0.557421  1
  Al  Al15  1  0.668925  0.668923  0.442578  1
  Al  Al16  1  0.668292  0.668291  0.049911  1
  Al  Al17  1  0.331708  0.331708  0.950090  1
  Al  Al18  1  0.340269  0.547653  0.246144  1
  Al  Al19  1  0.659731  0.452346  0.753856  1
  Al  Al20  1  0.547655  0.340269  0.246144  1
  Al  Al21  1  0.452347  0.659731  0.753857  1
  Pd  Pd22  1  0.327988  0.672033  0.499997  1
  Pd  Pd23  1  0.672026  0.327986  0.499999  1
  Rh  Rh24  1  0.672283  0.327708  0.999999  1
  Rh  Rh25  1  0.327705  0.672287  0.000000  1
  Rh  Rh26  1  0.999999  0.000001  0.999995  1
  Rh  Rh27  1  0.999999  0.999992  0.499999  1
