# generated using pymatgen
data_Dy2TmLu5(WO6)4
_symmetry_space_group_name_H-M   'P 1'
_cell_length_a   5.33151500
_cell_length_b   7.61005777
_cell_length_c   11.34066185
_cell_angle_alpha   75.27106089
_cell_angle_beta   90.00000000
_cell_angle_gamma   90.00000000
_symmetry_Int_Tables_number   1
_chemical_formula_structural   Dy2TmLu5(WO6)4
_chemical_formula_sum   'Dy2 Tm1 Lu5 W4 O24'
_cell_volume   445.00623217
_cell_formula_units_Z   1
loop_
 _symmetry_equiv_pos_site_id
 _symmetry_equiv_pos_as_xyz
  1  'x, y, z'
loop_
 _atom_site_type_symbol
 _atom_site_label
 _atom_site_symmetry_multiplicity
 _atom_site_fract_x
 _atom_site_fract_y
 _atom_site_fract_z
 _atom_site_occupancy
  Dy  Dy0  1  0.685037  0.500000  0.750000  1
  Dy  Dy1  1  0.314794  0.500000  0.250000  1
  Tm  Tm2  1  0.740391  0.000000  0.750000  1
  Lu  Lu3  1  0.260027  0.000000  0.250000  1
  Lu  Lu4  1  0.186244  0.797005  0.578406  1
  Lu  Lu5  1  0.813884  0.797114  0.078650  1
  Lu  Lu6  1  0.186244  0.202995  0.921594  1
  Lu  Lu7  1  0.813884  0.202886  0.421350  1
  W  W8  1  0.254640  0.724034  0.886048  1
  W  W9  1  0.745327  0.724463  0.385871  1
  W  W10  1  0.254640  0.275966  0.613952  1
  W  W11  1  0.745327  0.275537  0.114129  1
  O  O12  1  0.039917  0.942507  0.895925  1
  O  O13  1  0.535918  0.849082  0.931559  1
  O  O14  1  0.961395  0.942736  0.395246  1
  O  O15  1  0.459858  0.792557  0.725588  1
  O  O16  1  0.463752  0.849543  0.431068  1
  O  O17  1  0.982551  0.713611  0.769198  1
  O  O18  1  0.538953  0.793494  0.225631  1
  O  O19  1  0.856409  0.636455  0.549618  1
  O  O20  1  0.358873  0.487000  0.887761  1
  O  O21  1  0.017490  0.713947  0.269158  1
  O  O22  1  0.358873  0.513000  0.612239  1
  O  O23  1  0.856409  0.363545  0.950382  1
  O  O24  1  0.143441  0.636251  0.049664  1
  O  O25  1  0.641224  0.487092  0.387655  1
  O  O26  1  0.982551  0.286389  0.730802  1
  O  O27  1  0.641224  0.512908  0.112345  1
  O  O28  1  0.143441  0.363749  0.450336  1
  O  O29  1  0.459858  0.207443  0.774412  1
  O  O30  1  0.017490  0.286053  0.230842  1
  O  O31  1  0.535918  0.150918  0.568441  1
  O  O32  1  0.538953  0.206506  0.274369  1
  O  O33  1  0.039917  0.057493  0.604075  1
  O  O34  1  0.463752  0.150457  0.068932  1
  O  O35  1  0.961395  0.057264  0.104754  1
