# generated using pymatgen
data_Ho4TlPbAu4
_symmetry_space_group_name_H-M   'P 1'
_cell_length_a   8.05634000
_cell_length_b   8.05634000
_cell_length_c   7.31279800
_cell_angle_alpha   90.00000000
_cell_angle_beta   90.00000000
_cell_angle_gamma   90.00000000
_symmetry_Int_Tables_number   1
_chemical_formula_structural   Ho4TlPbAu4
_chemical_formula_sum   'Ho8 Tl2 Pb2 Au8'
_cell_volume   474.63433288
_cell_formula_units_Z   2
loop_
 _symmetry_equiv_pos_site_id
 _symmetry_equiv_pos_as_xyz
  1  'x, y, z'
loop_
 _atom_site_type_symbol
 _atom_site_label
 _atom_site_symmetry_multiplicity
 _atom_site_fract_x
 _atom_site_fract_y
 _atom_site_fract_z
 _atom_site_occupancy
  Ho  Ho0  1  0.842517  0.157483  0.500000  1
  Ho  Ho1  1  0.157483  0.842517  0.500000  1
  Ho  Ho2  1  0.342517  0.342517  0.000000  1
  Ho  Ho3  1  0.657483  0.657483  0.000000  1
  Ho  Ho4  1  0.681431  0.681431  0.500000  1
  Ho  Ho5  1  0.318569  0.318569  0.500000  1
  Ho  Ho6  1  0.181431  0.818569  0.000000  1
  Ho  Ho7  1  0.818569  0.181431  0.000000  1
  Tl  Tl8  1  0.500000  0.000000  0.250000  1
  Tl  Tl9  1  0.000000  0.500000  0.750000  1
  Pb  Pb10  1  0.500000  0.000000  0.750000  1
  Pb  Pb11  1  0.000000  0.500000  0.250000  1
  Au  Au12  1  0.623625  0.370172  0.274669  1
  Au  Au13  1  0.376375  0.629828  0.274669  1
  Au  Au14  1  0.123625  0.129828  0.774669  1
  Au  Au15  1  0.876375  0.870172  0.774669  1
  Au  Au16  1  0.370172  0.623625  0.725331  1
  Au  Au17  1  0.629828  0.376375  0.725331  1
  Au  Au18  1  0.870172  0.876375  0.225331  1
  Au  Au19  1  0.129828  0.123625  0.225331  1
