# generated using pymatgen
data_NpIn2I5
_symmetry_space_group_name_H-M   'P 1'
_cell_length_a   9.18639400
_cell_length_b   9.76264300
_cell_length_c   14.43306100
_cell_angle_alpha   90.00000000
_cell_angle_beta   90.00000000
_cell_angle_gamma   90.00000000
_symmetry_Int_Tables_number   1
_chemical_formula_structural   NpIn2I5
_chemical_formula_sum   'Np4 In8 I20'
_cell_volume   1294.40721084
_cell_formula_units_Z   4
loop_
 _symmetry_equiv_pos_site_id
 _symmetry_equiv_pos_as_xyz
  1  'x, y, z'
loop_
 _atom_site_type_symbol
 _atom_site_label
 _atom_site_symmetry_multiplicity
 _atom_site_fract_x
 _atom_site_fract_y
 _atom_site_fract_z
 _atom_site_occupancy
  Np  Np0  1  0.926538  0.750000  0.502881  1
  Np  Np1  1  0.073462  0.250000  0.497119  1
  Np  Np2  1  0.426538  0.250000  0.997119  1
  Np  Np3  1  0.573462  0.750000  0.002881  1
  In  In4  1  0.949840  0.001475  0.827159  1
  In  In5  1  0.050160  0.998525  0.172841  1
  In  In6  1  0.449840  0.998525  0.672841  1
  In  In7  1  0.050160  0.501475  0.172841  1
  In  In8  1  0.550160  0.001475  0.327159  1
  In  In9  1  0.949840  0.498525  0.827159  1
  In  In10  1  0.550160  0.498525  0.327159  1
  In  In11  1  0.449840  0.501475  0.672841  1
  I  I12  1  0.128465  0.750000  0.684153  1
  I  I13  1  0.871535  0.250000  0.315847  1
  I  I14  1  0.628465  0.250000  0.815847  1
  I  I15  1  0.371535  0.750000  0.184153  1
  I  I16  1  0.831787  0.042336  0.579722  1
  I  I17  1  0.168213  0.957664  0.420278  1
  I  I18  1  0.331787  0.957664  0.920278  1
  I  I19  1  0.168213  0.542336  0.420278  1
  I  I20  1  0.668213  0.042336  0.079722  1
  I  I21  1  0.831787  0.457664  0.579722  1
  I  I22  1  0.668213  0.457664  0.079722  1
  I  I23  1  0.331787  0.542336  0.920278  1
  I  I24  1  0.570519  0.750000  0.503803  1
  I  I25  1  0.429481  0.250000  0.496197  1
  I  I26  1  0.070519  0.250000  0.996197  1
  I  I27  1  0.929481  0.750000  0.003803  1
  I  I28  1  0.663904  0.750000  0.791280  1
  I  I29  1  0.336096  0.250000  0.208720  1
  I  I30  1  0.163904  0.250000  0.708720  1
  I  I31  1  0.836096  0.750000  0.291280  1
