# generated using pymatgen
data_Mo(S4Cl3)2
_symmetry_space_group_name_H-M   'P 1'
_cell_length_a   8.43935711
_cell_length_b   8.44512696
_cell_length_c   14.32345012
_cell_angle_alpha   95.87983628
_cell_angle_beta   99.54249761
_cell_angle_gamma   90.12028090
_symmetry_Int_Tables_number   1
_chemical_formula_structural   Mo(S4Cl3)2
_chemical_formula_sum   'Mo2 S16 Cl12'
_cell_volume   1001.24136925
_cell_formula_units_Z   2
loop_
 _symmetry_equiv_pos_site_id
 _symmetry_equiv_pos_as_xyz
  1  'x, y, z'
loop_
 _atom_site_type_symbol
 _atom_site_label
 _atom_site_symmetry_multiplicity
 _atom_site_fract_x
 _atom_site_fract_y
 _atom_site_fract_z
 _atom_site_occupancy
  Mo  Mo0  1  0.712693  0.223530  0.892871  1
  Mo  Mo1  1  0.287307  0.776470  0.107129  1
  S  S2  1  0.429342  0.751540  0.657273  1
  S  S3  1  0.570658  0.248460  0.342727  1
  S  S4  1  0.268781  0.899348  0.585743  1
  S  S5  1  0.731219  0.100652  0.414257  1
  S  S6  1  0.092565  0.959878  0.666106  1
  S  S7  1  0.907435  0.040122  0.333894  1
  S  S8  1  0.894221  0.812858  0.617800  1
  S  S9  1  0.105779  0.187142  0.382200  1
  S  S10  1  0.899591  0.628913  0.702514  1
  S  S11  1  0.100409  0.371087  0.297486  1
  S  S12  1  0.995713  0.432234  0.636456  1
  S  S13  1  0.004287  0.567766  0.363544  1
  S  S14  1  0.235928  0.420705  0.693237  1
  S  S15  1  0.764072  0.579295  0.306763  1
  S  S16  1  0.629925  0.481260  0.395142  1
  S  S17  1  0.370075  0.518740  0.604858  1
  Cl  Cl18  1  0.753030  0.250486  0.057122  1
  Cl  Cl19  1  0.246970  0.749514  0.942878  1
  Cl  Cl20  1  0.672052  0.195771  0.727746  1
  Cl  Cl21  1  0.327948  0.804229  0.272254  1
  Cl  Cl22  1  0.447716  0.146361  0.889093  1
  Cl  Cl23  1  0.552284  0.853639  0.110907  1
  Cl  Cl24  1  0.635947  0.486993  0.892083  1
  Cl  Cl25  1  0.364053  0.513007  0.107917  1
  Cl  Cl26  1  0.977263  0.301491  0.895811  1
  Cl  Cl27  1  0.022737  0.698509  0.104189  1
  Cl  Cl28  1  0.789155  0.959920  0.892741  1
  Cl  Cl29  1  0.210845  0.040080  0.107259  1
