# generated using pymatgen
data_Pr2Co3Si7Ir9
_symmetry_space_group_name_H-M   'P 1'
_cell_length_a   9.53635600
_cell_length_b   9.53635552
_cell_length_c   3.86085600
_cell_angle_alpha   90.00000000
_cell_angle_beta   90.00000000
_cell_angle_gamma   120.00000167
_symmetry_Int_Tables_number   1
_chemical_formula_structural   Pr2Co3Si7Ir9
_chemical_formula_sum   'Pr2 Co3 Si7 Ir9'
_cell_volume   304.07388077
_cell_formula_units_Z   1
loop_
 _symmetry_equiv_pos_site_id
 _symmetry_equiv_pos_as_xyz
  1  'x, y, z'
loop_
 _atom_site_type_symbol
 _atom_site_label
 _atom_site_symmetry_multiplicity
 _atom_site_fract_x
 _atom_site_fract_y
 _atom_site_fract_z
 _atom_site_occupancy
  Pr  Pr0  1  0.333333  0.666667  0.500000  1
  Pr  Pr1  1  0.000000  0.000000  0.000000  1
  Co  Co2  1  0.819606  0.606256  0.000000  1
  Co  Co3  1  0.393744  0.213350  0.000000  1
  Co  Co4  1  0.786650  0.180394  0.000000  1
  Si  Si5  1  0.778483  0.729673  0.500000  1
  Si  Si6  1  0.270327  0.048810  0.500000  1
  Si  Si7  1  0.951190  0.221517  0.500000  1
  Si  Si8  1  0.666667  0.333333  0.000000  1
  Si  Si9  1  0.063658  0.624049  0.000000  1
  Si  Si10  1  0.375951  0.439609  0.000000  1
  Si  Si11  1  0.560391  0.936342  0.000000  1
  Ir  Ir12  1  0.096470  0.392863  0.000000  1
  Ir  Ir13  1  0.607137  0.703609  0.000000  1
  Ir  Ir14  1  0.296391  0.903530  0.000000  1
  Ir  Ir15  1  0.048083  0.768315  0.500000  1
  Ir  Ir16  1  0.231685  0.279768  0.500000  1
  Ir  Ir17  1  0.720232  0.951917  0.500000  1
  Ir  Ir18  1  0.881235  0.428971  0.500000  1
  Ir  Ir19  1  0.571029  0.452264  0.500000  1
  Ir  Ir20  1  0.547736  0.118765  0.500000  1
