# generated using pymatgen
data_Y4Al16Ga2(IrRh)3
_symmetry_space_group_name_H-M   'P 1'
_cell_length_a   7.54707408
_cell_length_b   7.54711009
_cell_length_c   9.53533509
_cell_angle_alpha   90.00807084
_cell_angle_beta   90.00810306
_cell_angle_gamma   119.36407411
_symmetry_Int_Tables_number   1
_chemical_formula_structural   Y4Al16Ga2(IrRh)3
_chemical_formula_sum   'Y4 Al16 Ga2 Ir3 Rh3'
_cell_volume   473.34012425
_cell_formula_units_Z   1
loop_
 _symmetry_equiv_pos_site_id
 _symmetry_equiv_pos_as_xyz
  1  'x, y, z'
loop_
 _atom_site_type_symbol
 _atom_site_label
 _atom_site_symmetry_multiplicity
 _atom_site_fract_x
 _atom_site_fract_y
 _atom_site_fract_z
 _atom_site_occupancy
  Y  Y0  1  0.994524  0.672901  0.249856  1
  Y  Y1  1  0.005630  0.327325  0.750166  1
  Y  Y2  1  0.672675  0.994369  0.249835  1
  Y  Y3  1  0.327099  0.005477  0.750144  1
  Al  Al4  1  0.001633  0.335238  0.073210  1
  Al  Al5  1  0.998123  0.664691  0.926878  1
  Al  Al6  1  0.997893  0.664564  0.573258  1
  Al  Al7  1  0.335436  0.002107  0.426742  1
  Al  Al8  1  0.001281  0.335168  0.426781  1
  Al  Al9  1  0.664832  0.998718  0.573219  1
  Al  Al10  1  0.664762  0.998365  0.926790  1
  Al  Al11  1  0.335308  0.001876  0.073122  1
  Al  Al12  1  0.334286  0.333939  0.552166  1
  Al  Al13  1  0.666061  0.665714  0.447834  1
  Al  Al14  1  0.666013  0.665939  0.051975  1
  Al  Al15  1  0.334060  0.333987  0.948025  1
  Al  Al16  1  0.337585  0.547940  0.250039  1
  Al  Al17  1  0.662563  0.451497  0.749560  1
  Al  Al18  1  0.548503  0.337436  0.250440  1
  Al  Al19  1  0.452060  0.662415  0.749961  1
  Ga  Ga20  1  0.130940  0.130909  0.249993  1
  Ga  Ga21  1  0.869094  0.869064  0.750006  1
  Ir  Ir22  1  0.671718  0.328281  0.000000  1
  Ir  Ir23  1  0.328167  0.671832  0.000000  1
  Ir  Ir24  1  0.328154  0.671845  0.500000  1
  Rh  Rh25  1  0.671705  0.328295  0.500001  1
  Rh  Rh26  1  0.999968  0.000035  0.000001  1
  Rh  Rh27  1  0.999926  0.000073  0.500001  1
