# generated using pymatgen
data_Sc4Re24Sn
_symmetry_space_group_name_H-M   'P 1'
_cell_length_a   8.45477015
_cell_length_b   8.45476922
_cell_length_c   8.45477000
_cell_angle_alpha   109.47121771
_cell_angle_beta   109.47121547
_cell_angle_gamma   109.47122803
_symmetry_Int_Tables_number   1
_chemical_formula_structural   Sc4Re24Sn
_chemical_formula_sum   'Sc4 Re24 Sn1'
_cell_volume   465.24688498
_cell_formula_units_Z   1
loop_
 _symmetry_equiv_pos_site_id
 _symmetry_equiv_pos_as_xyz
  1  'x, y, z'
loop_
 _atom_site_type_symbol
 _atom_site_label
 _atom_site_symmetry_multiplicity
 _atom_site_fract_x
 _atom_site_fract_y
 _atom_site_fract_z
 _atom_site_occupancy
  Sc  Sc0  1  0.633840  0.000000  0.000000  1
  Sc  Sc1  1  0.000000  0.633840  0.000000  1
  Sc  Sc2  1  0.000000  0.000000  0.633840  1
  Sc  Sc3  1  0.366160  0.366160  0.366160  1
  Re  Re4  1  0.395965  0.676468  0.000000  1
  Re  Re5  1  0.719496  0.323532  0.323532  1
  Re  Re6  1  0.395965  0.000000  0.676468  1
  Re  Re7  1  0.676468  0.395965  0.000000  1
  Re  Re8  1  0.000000  0.395965  0.676468  1
  Re  Re9  1  0.323532  0.719496  0.323532  1
  Re  Re10  1  0.323532  0.323532  0.719496  1
  Re  Re11  1  0.000000  0.676468  0.395965  1
  Re  Re12  1  0.676468  0.000000  0.395965  1
  Re  Re13  1  0.604035  0.604035  0.280504  1
  Re  Re14  1  0.280504  0.604035  0.604035  1
  Re  Re15  1  0.604035  0.280504  0.604035  1
  Re  Re16  1  0.378395  0.193244  0.000000  1
  Re  Re17  1  0.185152  0.806756  0.806756  1
  Re  Re18  1  0.378395  0.000000  0.193244  1
  Re  Re19  1  0.193244  0.378395  0.000000  1
  Re  Re20  1  0.000000  0.378395  0.193244  1
  Re  Re21  1  0.806756  0.185152  0.806756  1
  Re  Re22  1  0.806756  0.806756  0.185152  1
  Re  Re23  1  0.000000  0.193244  0.378395  1
  Re  Re24  1  0.193244  0.000000  0.378395  1
  Re  Re25  1  0.621605  0.621605  0.814848  1
  Re  Re26  1  0.814848  0.621605  0.621605  1
  Re  Re27  1  0.621605  0.814848  0.621605  1
  Sn  Sn28  1  0.000000  0.000000  0.000000  1
