# generated using pymatgen
data_Ho3Zn3NiPdPt
_symmetry_space_group_name_H-M   'P 1'
_cell_length_a   7.22919200
_cell_length_b   7.22919293
_cell_length_c   3.78235000
_cell_angle_alpha   90.00000000
_cell_angle_beta   90.00000000
_cell_angle_gamma   119.99999572
_symmetry_Int_Tables_number   1
_chemical_formula_structural   Ho3Zn3NiPdPt
_chemical_formula_sum   'Ho3 Zn3 Ni1 Pd1 Pt1'
_cell_volume   171.18745642
_cell_formula_units_Z   1
loop_
 _symmetry_equiv_pos_site_id
 _symmetry_equiv_pos_as_xyz
  1  'x, y, z'
loop_
 _atom_site_type_symbol
 _atom_site_label
 _atom_site_symmetry_multiplicity
 _atom_site_fract_x
 _atom_site_fract_y
 _atom_site_fract_z
 _atom_site_occupancy
  Ho  Ho0  1  0.401773  0.398601  0.000000  1
  Ho  Ho1  1  0.601399  0.003171  0.000000  1
  Ho  Ho2  1  0.996829  0.598227  0.000000  1
  Zn  Zn3  1  0.760880  0.760684  0.500000  1
  Zn  Zn4  1  0.239316  0.000196  0.500000  1
  Zn  Zn5  1  0.999804  0.239120  0.500000  1
  Ni  Ni6  1  0.000000  0.000000  0.000000  1
  Pd  Pd7  1  0.333333  0.666667  0.500000  1
  Pt  Pt8  1  0.666667  0.333333  0.500000  1
