# generated using pymatgen
data_Eu4InGaPd4
_symmetry_space_group_name_H-M   'P 1'
_cell_length_a   5.84462377
_cell_length_b   5.84462453
_cell_length_c   8.17019019
_cell_angle_alpha   77.97241294
_cell_angle_beta   77.97241264
_cell_angle_gamma   60.09668608
_symmetry_Int_Tables_number   1
_chemical_formula_structural   Eu4InGaPd4
_chemical_formula_sum   'Eu4 In1 Ga1 Pd4'
_cell_volume   234.81955911
_cell_formula_units_Z   1
loop_
 _symmetry_equiv_pos_site_id
 _symmetry_equiv_pos_as_xyz
  1  'x, y, z'
loop_
 _atom_site_type_symbol
 _atom_site_label
 _atom_site_symmetry_multiplicity
 _atom_site_fract_x
 _atom_site_fract_y
 _atom_site_fract_z
 _atom_site_occupancy
  Eu  Eu0  1  0.787317  0.508871  0.350268  1
  Eu  Eu1  1  0.491129  0.212683  0.149732  1
  Eu  Eu2  1  0.209823  0.494112  0.645687  1
  Eu  Eu3  1  0.505888  0.790177  0.854313  1
  In  In4  1  0.847376  0.152624  0.750000  1
  Ga  Ga5  1  0.140398  0.859602  0.250000  1
  Pd  Pd6  1  0.006240  0.732662  0.011219  1
  Pd  Pd7  1  0.267338  0.993760  0.488781  1
  Pd  Pd8  1  0.005229  0.260738  0.007249  1
  Pd  Pd9  1  0.739262  0.994771  0.492751  1
