# generated using pymatgen
data_Fe2AgPbF9
_symmetry_space_group_name_H-M   'P 1'
_cell_length_a   7.37345247
_cell_length_b   7.37345184
_cell_length_c   7.79711514
_cell_angle_alpha   87.94744936
_cell_angle_beta   87.94745099
_cell_angle_gamma   118.50415508
_symmetry_Int_Tables_number   1
_chemical_formula_structural   Fe2AgPbF9
_chemical_formula_sum   'Fe4 Ag2 Pb2 F18'
_cell_volume   371.61119386
_cell_formula_units_Z   2
loop_
 _symmetry_equiv_pos_site_id
 _symmetry_equiv_pos_as_xyz
  1  'x, y, z'
loop_
 _atom_site_type_symbol
 _atom_site_label
 _atom_site_symmetry_multiplicity
 _atom_site_fract_x
 _atom_site_fract_y
 _atom_site_fract_z
 _atom_site_occupancy
  Fe  Fe0  1  0.000000  0.000000  0.500000  1
  Fe  Fe1  1  0.000000  0.000000  0.000000  1
  Fe  Fe2  1  0.500000  0.000000  0.500000  1
  Fe  Fe3  1  0.000000  0.500000  0.000000  1
  Ag  Ag4  1  0.500000  0.000000  0.000000  1
  Ag  Ag5  1  0.000000  0.500000  0.500000  1
  Pb  Pb6  1  0.478184  0.521816  0.750000  1
  Pb  Pb7  1  0.521816  0.478184  0.250000  1
  F  F8  1  0.197880  0.898602  0.541055  1
  F  F9  1  0.802120  0.101398  0.458945  1
  F  F10  1  0.101398  0.802120  0.958945  1
  F  F11  1  0.898602  0.197880  0.041055  1
  F  F12  1  0.975221  0.024779  0.750000  1
  F  F13  1  0.024779  0.975221  0.250000  1
  F  F14  1  0.513485  0.888155  0.726689  1
  F  F15  1  0.486515  0.111845  0.273311  1
  F  F16  1  0.111845  0.486515  0.773311  1
  F  F17  1  0.888155  0.513485  0.226689  1
  F  F18  1  0.565251  0.272037  0.578815  1
  F  F19  1  0.434749  0.727963  0.421185  1
  F  F20  1  0.727963  0.434749  0.921185  1
  F  F21  1  0.272037  0.565251  0.078815  1
  F  F22  1  0.713573  0.782089  0.024092  1
  F  F23  1  0.286427  0.217911  0.975908  1
  F  F24  1  0.217911  0.286427  0.475908  1
  F  F25  1  0.782089  0.713573  0.524092  1
