# generated using pymatgen
data_Ti5VS3
_symmetry_space_group_name_H-M   'P 1'
_cell_length_a   11.20885100
_cell_length_b   13.88249800
_cell_length_c   3.30246800
_cell_angle_alpha   90.00000000
_cell_angle_beta   90.00000000
_cell_angle_gamma   90.00000000
_symmetry_Int_Tables_number   1
_chemical_formula_structural   Ti5VS3
_chemical_formula_sum   'Ti20 V4 S12'
_cell_volume   513.88664796
_cell_formula_units_Z   4
loop_
 _symmetry_equiv_pos_site_id
 _symmetry_equiv_pos_as_xyz
  1  'x, y, z'
loop_
 _atom_site_type_symbol
 _atom_site_label
 _atom_site_symmetry_multiplicity
 _atom_site_fract_x
 _atom_site_fract_y
 _atom_site_fract_z
 _atom_site_occupancy
  Ti  Ti0  1  0.412442  0.761327  0.500000  1
  Ti  Ti1  1  0.587557  0.238672  0.500000  1
  Ti  Ti2  1  0.912442  0.738672  0.000000  1
  Ti  Ti3  1  0.087558  0.261328  0.000000  1
  Ti  Ti4  1  0.344848  0.519026  0.500000  1
  Ti  Ti5  1  0.655153  0.480975  0.500000  1
  Ti  Ti6  1  0.844847  0.980975  0.000000  1
  Ti  Ti7  1  0.155153  0.019025  0.000000  1
  Ti  Ti8  1  0.616661  0.928617  0.500000  1
  Ti  Ti9  1  0.383339  0.071383  0.500000  1
  Ti  Ti10  1  0.116661  0.571382  0.000000  1
  Ti  Ti11  1  0.883340  0.428617  0.000000  1
  Ti  Ti12  1  0.689752  0.708544  0.500000  1
  Ti  Ti13  1  0.310249  0.291455  0.500000  1
  Ti  Ti14  1  0.189751  0.791456  0.000000  1
  Ti  Ti15  1  0.810248  0.208544  0.000000  1
  Ti  Ti16  1  0.469275  0.389418  0.000000  1
  Ti  Ti17  1  0.030726  0.889417  0.500000  1
  Ti  Ti18  1  0.969274  0.110583  0.500000  1
  Ti  Ti19  1  0.530726  0.610582  0.000000  1
  V  V20  1  0.909885  0.578993  0.500000  1
  V  V21  1  0.090114  0.421007  0.500000  1
  V  V22  1  0.409885  0.921007  0.000000  1
  V  V23  1  0.590114  0.078993  0.000000  1
  S  S24  1  0.067547  0.702376  0.500000  1
  S  S25  1  0.932454  0.297623  0.500000  1
  S  S26  1  0.567547  0.797623  0.000000  1
  S  S27  1  0.432453  0.202377  0.000000  1
  S  S28  1  0.258178  0.910477  0.500000  1
  S  S29  1  0.741823  0.089523  0.500000  1
  S  S30  1  0.758178  0.589522  0.000000  1
  S  S31  1  0.241823  0.410478  0.000000  1
  S  S32  1  0.814767  0.850535  0.500000  1
  S  S33  1  0.185233  0.149465  0.500000  1
  S  S34  1  0.314768  0.649465  0.000000  1
  S  S35  1  0.685233  0.350535  0.000000  1
