# generated using pymatgen
data_TbY7(TcB6)4
_symmetry_space_group_name_H-M   'P 1'
_cell_length_a   9.18412301
_cell_length_b   11.57281101
_cell_length_c   3.69613000
_cell_angle_alpha   90.00000000
_cell_angle_beta   90.00000000
_cell_angle_gamma   89.99536847
_symmetry_Int_Tables_number   1
_chemical_formula_structural   TbY7(TcB6)4
_chemical_formula_sum   'Tb1 Y7 Tc4 B24'
_cell_volume   392.84731489
_cell_formula_units_Z   1
loop_
 _symmetry_equiv_pos_site_id
 _symmetry_equiv_pos_as_xyz
  1  'x, y, z'
loop_
 _atom_site_type_symbol
 _atom_site_label
 _atom_site_symmetry_multiplicity
 _atom_site_fract_x
 _atom_site_fract_y
 _atom_site_fract_z
 _atom_site_occupancy
  Tb  Tb0  1  0.823877  0.085781  0.000000  1
  Y  Y1  1  0.442595  0.130648  0.000000  1
  Y  Y2  1  0.942677  0.369420  0.000000  1
  Y  Y3  1  0.323768  0.414267  0.000000  1
  Y  Y4  1  0.676233  0.585744  0.000000  1
  Y  Y5  1  0.057310  0.630612  0.000000  1
  Y  Y6  1  0.557354  0.869334  0.000000  1
  Y  Y7  1  0.176205  0.914244  0.000000  1
  Tc  Tc8  1  0.138669  0.179348  0.000000  1
  Tc  Tc9  1  0.638609  0.320688  0.000000  1
  Tc  Tc10  1  0.361378  0.679365  0.000000  1
  Tc  Tc11  1  0.861357  0.820594  0.000000  1
  B  B12  1  0.600300  0.028048  0.500001  1
  B  B13  1  0.053489  0.067218  0.500001  1
  B  B14  1  0.248644  0.081603  0.500001  1
  B  B15  1  0.630941  0.185772  0.500001  1
  B  B16  1  0.982595  0.211550  0.500001  1
  B  B17  1  0.291611  0.234834  0.500001  1
  B  B18  1  0.791546  0.265220  0.500001  1
  B  B19  1  0.482482  0.288487  0.500001  1
  B  B20  1  0.130955  0.314287  0.500001  1
  B  B21  1  0.748635  0.418381  0.500001  1
  B  B22  1  0.553424  0.432838  0.500001  1
  B  B23  1  0.100438  0.471916  0.500001  1
  B  B24  1  0.899570  0.528079  0.500001  1
  B  B25  1  0.446577  0.567154  0.500001  1
  B  B26  1  0.251347  0.581599  0.500001  1
  B  B27  1  0.869056  0.685732  0.500001  1
  B  B28  1  0.517539  0.711510  0.500001  1
  B  B29  1  0.208346  0.734845  0.500001  1
  B  B30  1  0.708406  0.765165  0.500001  1
  B  B31  1  0.017509  0.788477  0.500001  1
  B  B32  1  0.369041  0.814298  0.500001  1
  B  B33  1  0.751400  0.918279  0.500001  1
  B  B34  1  0.946503  0.932737  0.500001  1
  B  B35  1  0.399613  0.971932  0.500001  1
