# generated using pymatgen
data_LuHf3(ZnRh2)4
_symmetry_space_group_name_H-M   'P 1'
_cell_length_a   5.97214300
_cell_length_b   5.97187800
_cell_length_c   6.98475700
_cell_angle_alpha   90.00000000
_cell_angle_beta   90.00000000
_cell_angle_gamma   90.00000000
_symmetry_Int_Tables_number   1
_chemical_formula_structural   LuHf3(ZnRh2)4
_chemical_formula_sum   'Lu1 Hf3 Zn4 Rh8'
_cell_volume   249.11072555
_cell_formula_units_Z   1
loop_
 _symmetry_equiv_pos_site_id
 _symmetry_equiv_pos_as_xyz
  1  'x, y, z'
loop_
 _atom_site_type_symbol
 _atom_site_label
 _atom_site_symmetry_multiplicity
 _atom_site_fract_x
 _atom_site_fract_y
 _atom_site_fract_z
 _atom_site_occupancy
  Lu  Lu0  1  0.749881  0.250000  0.000000  1
  Hf  Hf1  1  0.250147  0.750001  0.000000  1
  Hf  Hf2  1  0.750139  0.250000  0.500000  1
  Hf  Hf3  1  0.249867  0.750001  0.500000  1
  Zn  Zn4  1  0.249954  0.250000  0.000000  1
  Zn  Zn5  1  0.750038  0.750001  0.000000  1
  Zn  Zn6  1  0.749969  0.750001  0.499996  1
  Zn  Zn7  1  0.250033  0.250000  0.500003  1
  Rh  Rh8  1  0.002670  0.997334  0.253546  1
  Rh  Rh9  1  0.002670  0.502667  0.253546  1
  Rh  Rh10  1  0.497323  0.997330  0.253699  1
  Rh  Rh11  1  0.497323  0.502669  0.253699  1
  Rh  Rh12  1  0.497326  0.997330  0.746300  1
  Rh  Rh13  1  0.497326  0.502671  0.746300  1
  Rh  Rh14  1  0.002670  0.997334  0.746454  1
  Rh  Rh15  1  0.002670  0.502665  0.746454  1
