# generated using pymatgen
data_SmSn6Ru3Rh
_symmetry_space_group_name_H-M   'P 1'
_cell_length_a   6.96857333
_cell_length_b   6.96857297
_cell_length_c   6.97407181
_cell_angle_alpha   120.21652840
_cell_angle_beta   120.21652944
_cell_angle_gamma   89.58918471
_symmetry_Int_Tables_number   1
_chemical_formula_structural   SmSn6Ru3Rh
_chemical_formula_sum   'Sm1 Sn6 Ru3 Rh1'
_cell_volume   238.75990650
_cell_formula_units_Z   1
loop_
 _symmetry_equiv_pos_site_id
 _symmetry_equiv_pos_as_xyz
  1  'x, y, z'
loop_
 _atom_site_type_symbol
 _atom_site_label
 _atom_site_symmetry_multiplicity
 _atom_site_fract_x
 _atom_site_fract_y
 _atom_site_fract_z
 _atom_site_occupancy
  Sm  Sm0  1  0.997919  0.997919  0.995377  1
  Sn  Sn1  1  0.997416  0.499916  0.501508  1
  Sn  Sn2  1  0.469390  0.469390  0.348131  1
  Sn  Sn3  1  0.531259  0.884349  0.004388  1
  Sn  Sn4  1  0.884349  0.531259  0.004388  1
  Sn  Sn5  1  0.119322  0.119322  0.651943  1
  Sn  Sn6  1  0.499916  0.997416  0.501508  1
  Ru  Ru7  1  0.751408  0.751408  0.346303  1
  Ru  Ru8  1  0.249973  0.595151  0.998743  1
  Ru  Ru9  1  0.595151  0.249973  0.998743  1
  Rh  Rh10  1  0.403896  0.403896  0.648968  1
