# generated using pymatgen
data_Tb2Fe2NiP7Ru9
_symmetry_space_group_name_H-M   'P 1'
_cell_length_a   3.84235300
_cell_length_b   9.32961236
_cell_length_c   9.27470493
_cell_angle_alpha   119.40822588
_cell_angle_beta   90.00000000
_cell_angle_gamma   90.00000000
_symmetry_Int_Tables_number   1
_chemical_formula_structural   Tb2Fe2NiP7Ru9
_chemical_formula_sum   'Tb2 Fe2 Ni1 P7 Ru9'
_cell_volume   289.63468891
_cell_formula_units_Z   1
loop_
 _symmetry_equiv_pos_site_id
 _symmetry_equiv_pos_as_xyz
  1  'x, y, z'
loop_
 _atom_site_type_symbol
 _atom_site_label
 _atom_site_symmetry_multiplicity
 _atom_site_fract_x
 _atom_site_fract_y
 _atom_site_fract_z
 _atom_site_occupancy
  Tb  Tb0  1  0.000000  0.664418  0.328886  1
  Tb  Tb1  1  0.500000  0.334177  0.668046  1
  Fe  Fe2  1  0.000000  0.269339  0.157881  1
  Fe  Fe3  1  0.000000  0.842603  0.111880  1
  Ni  Ni4  1  0.000000  0.891223  0.732131  1
  P  P5  1  0.000000  0.112776  0.696276  1
  P  P6  1  0.000000  0.304029  0.412838  1
  P  P7  1  0.000000  0.590843  0.893880  1
  P  P8  1  0.500000  0.711015  0.598344  1
  P  P9  1  0.500000  0.397092  0.115301  1
  P  P10  1  0.500000  0.882996  0.281428  1
  P  P11  1  0.000000  0.003883  0.005538  1
  Ru  Ru12  1  0.000000  0.361754  0.937618  1
  Ru  Ru13  1  0.000000  0.060906  0.422894  1
  Ru  Ru14  1  0.000000  0.578042  0.638415  1
  Ru  Ru15  1  0.500000  0.945563  0.563375  1
  Ru  Ru16  1  0.500000  0.434115  0.384651  1
  Ru  Ru17  1  0.500000  0.614843  0.052691  1
  Ru  Ru18  1  0.500000  0.120667  0.914369  1
  Ru  Ru19  1  0.500000  0.084614  0.201335  1
  Ru  Ru20  1  0.500000  0.795102  0.882222  1
