# generated using pymatgen
data_VB2F8
_symmetry_space_group_name_H-M   'P 1'
_cell_length_a   5.69987500
_cell_length_b   8.93909500
_cell_length_c   11.39859700
_cell_angle_alpha   90.00000000
_cell_angle_beta   90.00000000
_cell_angle_gamma   90.00000000
_symmetry_Int_Tables_number   1
_chemical_formula_structural   VB2F8
_chemical_formula_sum   'V4 B8 F32'
_cell_volume   580.77816962
_cell_formula_units_Z   4
loop_
 _symmetry_equiv_pos_site_id
 _symmetry_equiv_pos_as_xyz
  1  'x, y, z'
loop_
 _atom_site_type_symbol
 _atom_site_label
 _atom_site_symmetry_multiplicity
 _atom_site_fract_x
 _atom_site_fract_y
 _atom_site_fract_z
 _atom_site_occupancy
  V  V0  1  0.250000  0.252970  0.564660  1
  V  V1  1  0.750000  0.747030  0.435340  1
  V  V2  1  0.250000  0.752970  0.935340  1
  V  V3  1  0.750000  0.247030  0.064660  1
  B  B4  1  0.250000  0.366801  0.901521  1
  B  B5  1  0.750000  0.633199  0.098479  1
  B  B6  1  0.250000  0.866801  0.598479  1
  B  B7  1  0.750000  0.133199  0.401521  1
  B  B8  1  0.250000  0.037239  0.146028  1
  B  B9  1  0.750000  0.962761  0.853972  1
  B  B10  1  0.250000  0.537239  0.353972  1
  B  B11  1  0.750000  0.462761  0.646028  1
  F  F12  1  0.250000  0.263239  0.812603  1
  F  F13  1  0.250000  0.957083  0.035126  1
  F  F14  1  0.750000  0.542917  0.535126  1
  F  F15  1  0.250000  0.457083  0.464874  1
  F  F16  1  0.750000  0.481907  0.139340  1
  F  F17  1  0.250000  0.518093  0.860660  1
  F  F18  1  0.750000  0.981907  0.360660  1
  F  F19  1  0.250000  0.018093  0.639340  1
  F  F20  1  0.046818  0.132068  0.147326  1
  F  F21  1  0.546818  0.867932  0.852674  1
  F  F22  1  0.453182  0.632068  0.352674  1
  F  F23  1  0.750000  0.042917  0.964874  1
  F  F24  1  0.953182  0.867932  0.852674  1
  F  F25  1  0.453182  0.132068  0.147326  1
  F  F26  1  0.546818  0.367932  0.647326  1
  F  F27  1  0.046818  0.632068  0.352674  1
  F  F28  1  0.044361  0.346954  0.973523  1
  F  F29  1  0.544361  0.653046  0.026477  1
  F  F30  1  0.455639  0.846954  0.526477  1
  F  F31  1  0.955639  0.153046  0.473523  1
  F  F32  1  0.955639  0.653046  0.026477  1
  F  F33  1  0.455639  0.346954  0.973523  1
  F  F34  1  0.544361  0.153046  0.473523  1
  F  F35  1  0.044361  0.846954  0.526477  1
  F  F36  1  0.750000  0.059978  0.761962  1
  F  F37  1  0.250000  0.940022  0.238038  1
  F  F38  1  0.750000  0.559978  0.738038  1
  F  F39  1  0.250000  0.440022  0.261962  1
  F  F40  1  0.250000  0.763239  0.687397  1
  F  F41  1  0.750000  0.236761  0.312603  1
  F  F42  1  0.953182  0.367932  0.647326  1
  F  F43  1  0.750000  0.736761  0.187397  1
