# generated using pymatgen
data_SrTb6FeCl12
_symmetry_space_group_name_H-M   'P 1'
_cell_length_a   8.94630560
_cell_length_b   8.98303559
_cell_length_c   8.67848407
_cell_angle_alpha   104.98888614
_cell_angle_beta   105.84993845
_cell_angle_gamma   106.30477077
_symmetry_Int_Tables_number   1
_chemical_formula_structural   SrTb6FeCl12
_chemical_formula_sum   'Sr1 Tb6 Fe1 Cl12'
_cell_volume   599.98002882
_cell_formula_units_Z   1
loop_
 _symmetry_equiv_pos_site_id
 _symmetry_equiv_pos_as_xyz
  1  'x, y, z'
loop_
 _atom_site_type_symbol
 _atom_site_label
 _atom_site_symmetry_multiplicity
 _atom_site_fract_x
 _atom_site_fract_y
 _atom_site_fract_z
 _atom_site_occupancy
  Sr  Sr0  1  0.500017  0.500007  0.500009  1
  Tb  Tb1  1  0.107464  0.315121  0.009296  1
  Tb  Tb2  1  0.316344  0.015867  0.108775  1
  Tb  Tb3  1  0.015401  0.095738  0.290931  1
  Tb  Tb4  1  0.984536  0.904271  0.709070  1
  Tb  Tb5  1  0.683577  0.984129  0.891179  1
  Tb  Tb6  1  0.892487  0.684872  0.990687  1
  Fe  Fe7  1  0.000030  0.000027  0.000053  1
  Cl  Cl8  1  0.213475  0.678219  0.077731  1
  Cl  Cl9  1  0.444822  0.356671  0.140599  1
  Cl  Cl10  1  0.679991  0.072925  0.212805  1
  Cl  Cl11  1  0.930889  0.789340  0.328330  1
  Cl  Cl12  1  0.143822  0.435423  0.351755  1
  Cl  Cl13  1  0.358043  0.146127  0.445368  1
  Cl  Cl14  1  0.641988  0.853849  0.554597  1
  Cl  Cl15  1  0.856222  0.564585  0.648252  1
  Cl  Cl16  1  0.069146  0.210645  0.671673  1
  Cl  Cl17  1  0.319984  0.927070  0.787226  1
  Cl  Cl18  1  0.555198  0.643292  0.859392  1
  Cl  Cl19  1  0.786564  0.321822  0.922270  1
