# generated using pymatgen
data_Rb3Sb(AsSe2)6
_symmetry_space_group_name_H-M   'P 1'
_cell_length_a   9.91775200
_cell_length_b   9.91775148
_cell_length_c   8.42678700
_cell_angle_alpha   90.00000000
_cell_angle_beta   90.00000000
_cell_angle_gamma   120.00000264
_symmetry_Int_Tables_number   1
_chemical_formula_structural   Rb3Sb(AsSe2)6
_chemical_formula_sum   'Rb3 Sb1 As6 Se12'
_cell_volume   717.82586412
_cell_formula_units_Z   1
loop_
 _symmetry_equiv_pos_site_id
 _symmetry_equiv_pos_as_xyz
  1  'x, y, z'
loop_
 _atom_site_type_symbol
 _atom_site_label
 _atom_site_symmetry_multiplicity
 _atom_site_fract_x
 _atom_site_fract_y
 _atom_site_fract_z
 _atom_site_occupancy
  Rb  Rb0  1  0.000000  0.000000  0.000000  1
  Rb  Rb1  1  0.333333  0.666667  0.837829  1
  Rb  Rb2  1  0.666667  0.333333  0.162171  1
  Sb  Sb3  1  0.000000  0.000000  0.500000  1
  As  As4  1  0.291426  0.837401  0.373951  1
  As  As5  1  0.162599  0.454025  0.373951  1
  As  As6  1  0.545975  0.708574  0.373951  1
  As  As7  1  0.708574  0.162599  0.626049  1
  As  As8  1  0.837401  0.545975  0.626049  1
  As  As9  1  0.454025  0.291426  0.626049  1
  Se  Se10  1  0.266210  0.056273  0.302781  1
  Se  Se11  1  0.943727  0.209938  0.302781  1
  Se  Se12  1  0.790062  0.733790  0.302781  1
  Se  Se13  1  0.733790  0.943727  0.697219  1
  Se  Se14  1  0.056273  0.790062  0.697219  1
  Se  Se15  1  0.209938  0.266210  0.697219  1
  Se  Se16  1  0.527752  0.907319  0.213169  1
  Se  Se17  1  0.092681  0.620432  0.213169  1
  Se  Se18  1  0.379568  0.472248  0.213169  1
  Se  Se19  1  0.472248  0.092681  0.786831  1
  Se  Se20  1  0.907319  0.379568  0.786831  1
  Se  Se21  1  0.620432  0.527752  0.786831  1
