# generated using pymatgen
data_Li2Ta3Ni9P7
_symmetry_space_group_name_H-M   'P 1'
_cell_length_a   9.24287200
_cell_length_b   9.24287304
_cell_length_c   3.62063400
_cell_angle_alpha   90.00000000
_cell_angle_beta   90.00000000
_cell_angle_gamma   120.00001060
_symmetry_Int_Tables_number   1
_chemical_formula_structural   Li2Ta3Ni9P7
_chemical_formula_sum   'Li2 Ta3 Ni9 P7'
_cell_volume   267.87312056
_cell_formula_units_Z   1
loop_
 _symmetry_equiv_pos_site_id
 _symmetry_equiv_pos_as_xyz
  1  'x, y, z'
loop_
 _atom_site_type_symbol
 _atom_site_label
 _atom_site_symmetry_multiplicity
 _atom_site_fract_x
 _atom_site_fract_y
 _atom_site_fract_z
 _atom_site_occupancy
  Li  Li0  1  0.333333  0.666667  0.000000  1
  Li  Li1  1  0.666667  0.333333  0.500000  1
  Ta  Ta2  1  0.872727  0.773083  0.500000  1
  Ta  Ta3  1  0.900356  0.127273  0.500000  1
  Ta  Ta4  1  0.226917  0.099644  0.500000  1
  Ni  Ni5  1  0.710919  0.874649  0.000000  1
  Ni  Ni6  1  0.163729  0.289081  0.000000  1
  Ni  Ni7  1  0.125351  0.836271  0.000000  1
  Ni  Ni8  1  0.627600  0.564119  0.000000  1
  Ni  Ni9  1  0.936520  0.372400  0.000000  1
  Ni  Ni10  1  0.435881  0.063480  0.000000  1
  Ni  Ni11  1  0.556222  0.944822  0.500000  1
  Ni  Ni12  1  0.388600  0.443778  0.500000  1
  Ni  Ni13  1  0.055178  0.611400  0.500000  1
  P  P14  1  0.577529  0.709250  0.500000  1
  P  P15  1  0.131721  0.422471  0.500000  1
  P  P16  1  0.290750  0.868279  0.500000  1
  P  P17  1  0.000000  0.000000  0.000000  1
  P  P18  1  0.879707  0.577509  0.000000  1
  P  P19  1  0.697802  0.120293  0.000000  1
  P  P20  1  0.422491  0.302198  0.000000  1
