# generated using pymatgen
data_Tm2Ga2NiRu
_symmetry_space_group_name_H-M   'P 1'
_cell_length_a   4.20339100
_cell_length_b   6.75775900
_cell_length_c   7.62925800
_cell_angle_alpha   90.00000000
_cell_angle_beta   90.00000000
_cell_angle_gamma   90.00000000
_symmetry_Int_Tables_number   1
_chemical_formula_structural   Tm2Ga2NiRu
_chemical_formula_sum   'Tm4 Ga4 Ni2 Ru2'
_cell_volume   216.71291376
_cell_formula_units_Z   2
loop_
 _symmetry_equiv_pos_site_id
 _symmetry_equiv_pos_as_xyz
  1  'x, y, z'
loop_
 _atom_site_type_symbol
 _atom_site_label
 _atom_site_symmetry_multiplicity
 _atom_site_fract_x
 _atom_site_fract_y
 _atom_site_fract_z
 _atom_site_occupancy
  Tm  Tm0  1  0.250000  0.023174  0.813247  1
  Tm  Tm1  1  0.250000  0.523174  0.686753  1
  Tm  Tm2  1  0.750000  0.981850  0.193202  1
  Tm  Tm3  1  0.750000  0.481850  0.306798  1
  Ga  Ga4  1  0.250000  0.165510  0.439050  1
  Ga  Ga5  1  0.250000  0.665510  0.060950  1
  Ga  Ga6  1  0.750000  0.837540  0.577881  1
  Ga  Ga7  1  0.750000  0.337540  0.922119  1
  Ni  Ni8  1  0.750000  0.220784  0.609682  1
  Ni  Ni9  1  0.750000  0.720784  0.890318  1
  Ru  Ru10  1  0.250000  0.771141  0.389668  1
  Ru  Ru11  1  0.250000  0.271141  0.110332  1
