# generated using pymatgen
data_LiBiCl30
_symmetry_space_group_name_H-M   'P 1'
_cell_length_a   8.69452426
_cell_length_b   12.50189880
_cell_length_c   14.48876500
_cell_angle_alpha   70.83772959
_cell_angle_beta   124.05619872
_cell_angle_gamma   110.90675661
_symmetry_Int_Tables_number   1
_chemical_formula_structural   LiBiCl30
_chemical_formula_sum   'Li1 Bi1 Cl30'
_cell_volume   1201.98996490
_cell_formula_units_Z   1
loop_
 _symmetry_equiv_pos_site_id
 _symmetry_equiv_pos_as_xyz
  1  'x, y, z'
loop_
 _atom_site_type_symbol
 _atom_site_label
 _atom_site_symmetry_multiplicity
 _atom_site_fract_x
 _atom_site_fract_y
 _atom_site_fract_z
 _atom_site_occupancy
  Li  Li0  1  0.062712  0.089224  0.922964  1
  Bi  Bi1  1  0.866755  0.848684  0.083507  1
  Cl  Cl2  1  0.270178  0.378387  0.949138  1
  Cl  Cl3  1  0.865190  0.643790  0.079779  1
  Cl  Cl4  1  0.147021  0.916458  0.033806  1
  Cl  Cl5  1  0.828465  0.071985  0.957601  1
  Cl  Cl6  1  0.153455  0.691168  0.298384  1
  Cl  Cl7  1  0.895824  0.297992  0.710530  1
  Cl  Cl8  1  0.359281  0.732890  0.453840  1
  Cl  Cl9  1  0.666624  0.268525  0.560112  1
  Cl  Cl10  1  0.210160  0.600169  0.695625  1
  Cl  Cl11  1  0.798188  0.408358  0.317039  1
  Cl  Cl12  1  0.026042  0.356139  0.457178  1
  Cl  Cl13  1  0.981374  0.632690  0.545227  1
  Cl  Cl14  1  0.410426  0.251255  0.813885  1
  Cl  Cl15  1  0.575747  0.757511  0.167075  1
  Cl  Cl16  1  0.277374  0.986641  0.519813  1
  Cl  Cl17  1  0.712833  0.020742  0.469581  1
  Cl  Cl18  1  0.272574  0.411699  0.301368  1
  Cl  Cl19  1  0.713775  0.572840  0.710079  1
  Cl  Cl20  1  0.032538  0.926088  0.666251  1
  Cl  Cl21  1  0.953810  0.089483  0.322239  1
  Cl  Cl22  1  0.767391  0.600412  0.855806  1
  Cl  Cl23  1  0.267049  0.410046  0.161980  1
  Cl  Cl24  1  0.644140  0.740972  0.330172  1
  Cl  Cl25  1  0.361718  0.243850  0.663843  1
  Cl  Cl26  1  0.490100  0.920751  0.661845  1
  Cl  Cl27  1  0.499778  0.082289  0.322899  1
  Cl  Cl28  1  0.063915  0.918391  0.818322  1
  Cl  Cl29  1  0.915375  0.088130  0.169627  1
  Cl  Cl30  1  0.513210  0.798906  0.944907  1
  Cl  Cl31  1  0.396979  0.243533  0.035579  1
