# generated using pymatgen
data_Ho3ErTc2(B8Mo)2
_symmetry_space_group_name_H-M   'P 1'
_cell_length_a   3.59989200
_cell_length_b   5.98507294
_cell_length_c   11.57378206
_cell_angle_alpha   89.90138399
_cell_angle_beta   90.00000000
_cell_angle_gamma   90.00000000
_symmetry_Int_Tables_number   1
_chemical_formula_structural   Ho3ErTc2(B8Mo)2
_chemical_formula_sum   'Ho3 Er1 Tc2 B16 Mo2'
_cell_volume   249.36389699
_cell_formula_units_Z   1
loop_
 _symmetry_equiv_pos_site_id
 _symmetry_equiv_pos_as_xyz
  1  'x, y, z'
loop_
 _atom_site_type_symbol
 _atom_site_label
 _atom_site_symmetry_multiplicity
 _atom_site_fract_x
 _atom_site_fract_y
 _atom_site_fract_z
 _atom_site_occupancy
  Ho  Ho0  1  0.000000  0.627307  0.348561  1
  Ho  Ho1  1  0.000000  0.372694  0.651490  1
  Ho  Ho2  1  0.000000  0.127679  0.148701  1
  Er  Er3  1  0.000000  0.872335  0.851212  1
  Tc  Tc4  1  0.000000  0.634371  0.086378  1
  Tc  Tc5  1  0.000000  0.365645  0.913474  1
  B  B6  1  0.500000  0.785580  0.184420  1
  B  B7  1  0.500000  0.214192  0.815597  1
  B  B8  1  0.500000  0.289588  0.312774  1
  B  B9  1  0.500000  0.710502  0.687323  1
  B  B10  1  0.500000  0.864047  0.030860  1
  B  B11  1  0.500000  0.135870  0.968942  1
  B  B12  1  0.500000  0.367638  0.467615  1
  B  B13  1  0.500000  0.632450  0.532434  1
  B  B14  1  0.500000  0.884856  0.452343  1
  B  B15  1  0.500000  0.115036  0.547743  1
  B  B16  1  0.500000  0.386947  0.047157  1
  B  B17  1  0.500000  0.613316  0.952668  1
  B  B18  1  0.500000  0.975778  0.305226  1
  B  B19  1  0.500000  0.024068  0.694917  1
  B  B20  1  0.500000  0.477333  0.191555  1
  B  B21  1  0.500000  0.522825  0.808446  1
  Mo  Mo22  1  0.000000  0.129576  0.415138  1
  Mo  Mo23  1  0.000000  0.870369  0.585026  1
