# generated using pymatgen
data_Mg3Mn(GePd5)2
_symmetry_space_group_name_H-M   'P 1'
_cell_length_a   4.13431800
_cell_length_b   5.53218400
_cell_length_c   10.78380400
_cell_angle_alpha   90.00017002
_cell_angle_beta   90.00000000
_cell_angle_gamma   90.00000000
_symmetry_Int_Tables_number   1
_chemical_formula_structural   Mg3Mn(GePd5)2
_chemical_formula_sum   'Mg3 Mn1 Ge2 Pd10'
_cell_volume   246.64509342
_cell_formula_units_Z   1
loop_
 _symmetry_equiv_pos_site_id
 _symmetry_equiv_pos_as_xyz
  1  'x, y, z'
loop_
 _atom_site_type_symbol
 _atom_site_label
 _atom_site_symmetry_multiplicity
 _atom_site_fract_x
 _atom_site_fract_y
 _atom_site_fract_z
 _atom_site_occupancy
  Mg  Mg0  1  0.500000  0.837321  0.857925  1
  Mg  Mg1  1  0.500000  0.337120  0.642839  1
  Mg  Mg2  1  0.500000  0.662106  0.356824  1
  Mn  Mn3  1  0.500000  0.165283  0.141767  1
  Ge  Ge4  1  0.000000  0.000034  0.500208  1
  Ge  Ge5  1  0.000000  0.497606  0.000884  1
  Pd  Pd6  1  0.500000  0.178756  0.393068  1
  Pd  Pd7  1  0.500000  0.819510  0.604248  1
  Pd  Pd8  1  0.500000  0.318823  0.896924  1
  Pd  Pd9  1  0.500000  0.683154  0.104722  1
  Pd  Pd10  1  0.000000  0.415568  0.235590  1
  Pd  Pd11  1  0.000000  0.581856  0.763942  1
  Pd  Pd12  1  0.000000  0.081656  0.737507  1
  Pd  Pd13  1  0.000000  0.919478  0.261655  1
  Pd  Pd14  1  0.000000  0.002271  0.002105  1
  Pd  Pd15  1  0.000000  0.499459  0.499791  1
