# generated using pymatgen
data_Er9Tm11(NiBi2)4
_symmetry_space_group_name_H-M   'P 1'
_cell_length_a   7.93017503
_cell_length_b   8.89584400
_cell_length_c   12.23162204
_cell_angle_alpha   90.00000000
_cell_angle_beta   89.99075732
_cell_angle_gamma   90.00000000
_symmetry_Int_Tables_number   1
_chemical_formula_structural   Er9Tm11(NiBi2)4
_chemical_formula_sum   'Er9 Tm11 Ni4 Bi8'
_cell_volume   862.88710359
_cell_formula_units_Z   1
loop_
 _symmetry_equiv_pos_site_id
 _symmetry_equiv_pos_as_xyz
  1  'x, y, z'
loop_
 _atom_site_type_symbol
 _atom_site_label
 _atom_site_symmetry_multiplicity
 _atom_site_fract_x
 _atom_site_fract_y
 _atom_site_fract_z
 _atom_site_occupancy
  Er  Er0  1  0.842396  0.750000  0.795443  1
  Er  Er1  1  0.157564  0.250000  0.204579  1
  Er  Er2  1  0.342412  0.250000  0.704620  1
  Er  Er3  1  0.657497  0.750000  0.295327  1
  Er  Er4  1  0.381221  0.750000  0.691392  1
  Er  Er5  1  0.618827  0.250000  0.308608  1
  Er  Er6  1  0.881184  0.250000  0.808629  1
  Er  Er7  1  0.118851  0.750000  0.191385  1
  Er  Er8  1  0.948189  0.750000  0.500820  1
  Tm  Tm9  1  0.051881  0.250000  0.499177  1
  Tm  Tm10  1  0.448101  0.250000  0.999177  1
  Tm  Tm11  1  0.551910  0.750000  0.000829  1
  Tm  Tm12  1  0.676297  0.043437  0.564701  1
  Tm  Tm13  1  0.323715  0.956693  0.435310  1
  Tm  Tm14  1  0.176367  0.956656  0.935326  1
  Tm  Tm15  1  0.323715  0.543307  0.435310  1
  Tm  Tm16  1  0.823647  0.043362  0.064674  1
  Tm  Tm17  1  0.676297  0.456563  0.564701  1
  Tm  Tm18  1  0.823647  0.456638  0.064674  1
  Tm  Tm19  1  0.176367  0.543344  0.935326  1
  Ni  Ni20  1  0.574271  0.750000  0.509895  1
  Ni  Ni21  1  0.425526  0.250000  0.490098  1
  Ni  Ni22  1  0.074491  0.250000  0.990107  1
  Ni  Ni23  1  0.925498  0.750000  0.009909  1
  Bi  Bi24  1  0.570541  0.490010  0.827428  1
  Bi  Bi25  1  0.429457  0.509982  0.172575  1
  Bi  Bi26  1  0.070613  0.509887  0.672662  1
  Bi  Bi27  1  0.429457  0.990018  0.172575  1
  Bi  Bi28  1  0.929453  0.489919  0.327326  1
  Bi  Bi29  1  0.570541  0.009990  0.827428  1
  Bi  Bi30  1  0.929453  0.010081  0.327326  1
  Bi  Bi31  1  0.070613  0.990113  0.672662  1
