# generated using pymatgen
data_Yb4RhO6
_symmetry_space_group_name_H-M   'P 1'
_cell_length_a   6.42956911
_cell_length_b   6.42956878
_cell_length_c   6.42956865
_cell_angle_alpha   90.51028906
_cell_angle_beta   90.51028213
_cell_angle_gamma   90.51030167
_symmetry_Int_Tables_number   1
_chemical_formula_structural   Yb4RhO6
_chemical_formula_sum   'Yb8 Rh2 O12'
_cell_volume   265.76241921
_cell_formula_units_Z   2
loop_
 _symmetry_equiv_pos_site_id
 _symmetry_equiv_pos_as_xyz
  1  'x, y, z'
loop_
 _atom_site_type_symbol
 _atom_site_label
 _atom_site_symmetry_multiplicity
 _atom_site_fract_x
 _atom_site_fract_y
 _atom_site_fract_z
 _atom_site_occupancy
  Yb  Yb0  1  0.883157  0.616843  0.250000  1
  Yb  Yb1  1  0.116843  0.383157  0.750000  1
  Yb  Yb2  1  0.250000  0.883157  0.616843  1
  Yb  Yb3  1  0.616843  0.250000  0.883157  1
  Yb  Yb4  1  0.750000  0.750000  0.750000  1
  Yb  Yb5  1  0.383157  0.750000  0.116843  1
  Yb  Yb6  1  0.250000  0.250000  0.250000  1
  Yb  Yb7  1  0.750000  0.116843  0.383157  1
  Rh  Rh8  1  0.000000  0.000000  0.000000  1
  Rh  Rh9  1  0.500000  0.500000  0.500000  1
  O  O10  1  0.442341  0.576191  0.800554  1
  O  O11  1  0.576191  0.800554  0.442341  1
  O  O12  1  0.942341  0.300554  0.076191  1
  O  O13  1  0.557659  0.423809  0.199446  1
  O  O14  1  0.199446  0.557659  0.423809  1
  O  O15  1  0.057659  0.699446  0.923809  1
  O  O16  1  0.800554  0.442341  0.576191  1
  O  O17  1  0.699446  0.923809  0.057659  1
  O  O18  1  0.076191  0.942341  0.300554  1
  O  O19  1  0.923809  0.057659  0.699446  1
  O  O20  1  0.423809  0.199446  0.557659  1
  O  O21  1  0.300554  0.076191  0.942341  1
