# generated using pymatgen
data_Ba2Tl2H2OF10
_symmetry_space_group_name_H-M   'P 1'
_cell_length_a   8.71668600
_cell_length_b   11.60313694
_cell_length_c   11.82018400
_cell_angle_alpha   90.00000000
_cell_angle_beta   90.00000000
_cell_angle_gamma   67.93750765
_symmetry_Int_Tables_number   1
_chemical_formula_structural   Ba2Tl2H2OF10
_chemical_formula_sum   'Ba8 Tl8 H8 O4 F40'
_cell_volume   1107.96294491
_cell_formula_units_Z   4
loop_
 _symmetry_equiv_pos_site_id
 _symmetry_equiv_pos_as_xyz
  1  'x, y, z'
loop_
 _atom_site_type_symbol
 _atom_site_label
 _atom_site_symmetry_multiplicity
 _atom_site_fract_x
 _atom_site_fract_y
 _atom_site_fract_z
 _atom_site_occupancy
  Ba  Ba0  1  0.378540  0.242920  0.046219  1
  Ba  Ba1  1  0.971995  0.556011  0.250000  1
  Ba  Ba2  1  0.471995  0.556011  0.250000  1
  Ba  Ba3  1  0.878539  0.242920  0.453781  1
  Ba  Ba4  1  0.121461  0.757080  0.546218  1
  Ba  Ba5  1  0.528005  0.443989  0.750000  1
  Ba  Ba6  1  0.028005  0.443989  0.750000  1
  Ba  Ba7  1  0.621460  0.757080  0.953782  1
  Tl  Tl8  1  0.823582  0.352835  0.060564  1
  Tl  Tl9  1  0.782353  0.935293  0.250000  1
  Tl  Tl10  1  0.282354  0.935293  0.250000  1
  Tl  Tl11  1  0.323583  0.352835  0.439437  1
  Tl  Tl12  1  0.676417  0.647165  0.560563  1
  Tl  Tl13  1  0.717647  0.064706  0.750000  1
  Tl  Tl14  1  0.217647  0.064706  0.750000  1
  Tl  Tl15  1  0.176418  0.647165  0.939437  1
  H  H16  1  0.850035  0.110003  0.076121  1
  H  H17  1  0.039962  0.110003  0.076121  1
  H  H18  1  0.539961  0.110003  0.423879  1
  H  H19  1  0.350037  0.110003  0.423879  1
  H  H20  1  0.649964  0.889996  0.576121  1
  H  H21  1  0.460038  0.889996  0.576121  1
  H  H22  1  0.960039  0.889996  0.923879  1
  H  H23  1  0.149964  0.889996  0.923879  1
  O  O24  1  0.927411  0.145177  0.039894  1
  O  O25  1  0.427412  0.145177  0.460107  1
  O  O26  1  0.572589  0.854822  0.539894  1
  O  O27  1  0.072590  0.854822  0.960106  1
  F  F28  1  0.563508  0.378121  0.080497  1
  F  F29  1  0.058371  0.378121  0.080497  1
  F  F30  1  0.720467  0.559065  0.101131  1
  F  F31  1  0.197683  0.604637  0.120704  1
  F  F32  1  0.689014  0.079797  0.118475  1
  F  F33  1  0.231190  0.079797  0.118475  1
  F  F34  1  0.801812  0.782842  0.135511  1
  F  F35  1  0.415346  0.782842  0.135511  1
  F  F36  1  0.019773  0.960454  0.219957  1
  F  F37  1  0.819986  0.360028  0.249707  1
  F  F38  1  0.319988  0.360028  0.250293  1
  F  F39  1  0.519772  0.960454  0.280044  1
  F  F40  1  0.915346  0.782842  0.364489  1
  F  F41  1  0.301812  0.782842  0.364489  1
  F  F42  1  0.731190  0.079797  0.381526  1
  F  F43  1  0.189014  0.079797  0.381526  1
  F  F44  1  0.697681  0.604637  0.379295  1
  F  F45  1  0.220468  0.559065  0.398869  1
  F  F46  1  0.558372  0.378121  0.419504  1
  F  F47  1  0.063508  0.378121  0.419504  1
  F  F48  1  0.936492  0.621878  0.580496  1
  F  F49  1  0.441629  0.621878  0.580496  1
  F  F50  1  0.779532  0.440935  0.601131  1
  F  F51  1  0.302320  0.395362  0.620705  1
  F  F52  1  0.810986  0.920204  0.618475  1
  F  F53  1  0.268810  0.920204  0.618475  1
  F  F54  1  0.698188  0.217158  0.635511  1
  F  F55  1  0.084654  0.217158  0.635511  1
  F  F56  1  0.480228  0.039545  0.719957  1
  F  F57  1  0.680013  0.639972  0.749707  1
  F  F58  1  0.180014  0.639972  0.750293  1
  F  F59  1  0.980227  0.039545  0.780043  1
  F  F60  1  0.584654  0.217158  0.864489  1
  F  F61  1  0.198187  0.217158  0.864489  1
  F  F62  1  0.768811  0.920204  0.881525  1
  F  F63  1  0.310985  0.920204  0.881525  1
  F  F64  1  0.802318  0.395362  0.879296  1
  F  F65  1  0.279534  0.440935  0.898870  1
  F  F66  1  0.941629  0.621878  0.919503  1
  F  F67  1  0.436493  0.621878  0.919503  1
