# generated using pymatgen
data_LiTb16In3Ir4
_symmetry_space_group_name_H-M   'P 1'
_cell_length_a   9.69767854
_cell_length_b   9.69767850
_cell_length_c   9.69767901
_cell_angle_alpha   59.87973497
_cell_angle_beta   59.87973777
_cell_angle_gamma   59.87973117
_symmetry_Int_Tables_number   1
_chemical_formula_structural   LiTb16In3Ir4
_chemical_formula_sum   'Li1 Tb16 In3 Ir4'
_cell_volume   643.13428579
_cell_formula_units_Z   1
loop_
 _symmetry_equiv_pos_site_id
 _symmetry_equiv_pos_as_xyz
  1  'x, y, z'
loop_
 _atom_site_type_symbol
 _atom_site_label
 _atom_site_symmetry_multiplicity
 _atom_site_fract_x
 _atom_site_fract_y
 _atom_site_fract_z
 _atom_site_occupancy
  Li  Li0  1  0.321814  0.321814  0.321814  1
  Tb  Tb1  1  0.098860  0.704384  0.098860  1
  Tb  Tb2  1  0.942082  0.942082  0.557979  1
  Tb  Tb3  1  0.942082  0.557979  0.942082  1
  Tb  Tb4  1  0.311241  0.690059  0.311241  1
  Tb  Tb5  1  0.936649  0.561497  0.561497  1
  Tb  Tb6  1  0.311241  0.311241  0.690059  1
  Tb  Tb7  1  0.099353  0.099353  0.099353  1
  Tb  Tb8  1  0.561497  0.561497  0.936649  1
  Tb  Tb9  1  0.098860  0.098860  0.704384  1
  Tb  Tb10  1  0.690365  0.309562  0.690365  1
  Tb  Tb11  1  0.690365  0.690365  0.309562  1
  Tb  Tb12  1  0.690059  0.311241  0.311241  1
  Tb  Tb13  1  0.309562  0.690365  0.690365  1
  Tb  Tb14  1  0.561497  0.936649  0.561497  1
  Tb  Tb15  1  0.704384  0.098860  0.098860  1
  Tb  Tb16  1  0.557979  0.942082  0.942082  1
  In  In17  1  0.004661  0.332434  0.332434  1
  In  In18  1  0.332434  0.004661  0.332434  1
  In  In19  1  0.332434  0.332434  0.004661  1
  Ir  Ir20  1  0.892229  0.892229  0.892229  1
  Ir  Ir21  1  0.892178  0.892178  0.325994  1
  Ir  Ir22  1  0.325994  0.892178  0.892178  1
  Ir  Ir23  1  0.892178  0.325994  0.892178  1
