# generated using pymatgen
data_Dy5Er3(Hf3Si4)4
_symmetry_space_group_name_H-M   'P 1'
_cell_length_a   7.26916515
_cell_length_b   7.26850901
_cell_length_c   13.35681928
_cell_angle_alpha   90.00456769
_cell_angle_beta   90.02295451
_cell_angle_gamma   90.00384615
_symmetry_Int_Tables_number   1
_chemical_formula_structural   Dy5Er3(Hf3Si4)4
_chemical_formula_sum   'Dy5 Er3 Hf12 Si16'
_cell_volume   705.72074124
_cell_formula_units_Z   1
loop_
 _symmetry_equiv_pos_site_id
 _symmetry_equiv_pos_as_xyz
  1  'x, y, z'
loop_
 _atom_site_type_symbol
 _atom_site_label
 _atom_site_symmetry_multiplicity
 _atom_site_fract_x
 _atom_site_fract_y
 _atom_site_fract_z
 _atom_site_occupancy
  Dy  Dy0  1  0.346169  0.994986  0.785118  1
  Dy  Dy1  1  0.845717  0.505074  0.965041  1
  Dy  Dy2  1  0.154147  0.494872  0.464872  1
  Dy  Dy3  1  0.005013  0.654115  0.714875  1
  Dy  Dy4  1  0.994788  0.345776  0.214991  1
  Er  Er5  1  0.495686  0.153671  0.535083  1
  Er  Er6  1  0.504433  0.846601  0.035277  1
  Er  Er7  1  0.653554  0.004511  0.285069  1
  Hf  Hf8  1  0.675460  0.324204  0.750014  1
  Hf  Hf9  1  0.324667  0.676062  0.249961  1
  Hf  Hf10  1  0.823956  0.824590  0.499868  1
  Hf  Hf11  1  0.176004  0.175394  0.000102  1
  Hf  Hf12  1  0.496892  0.352538  0.124978  1
  Hf  Hf13  1  0.503618  0.647468  0.624604  1
  Hf  Hf14  1  0.852143  0.003278  0.874821  1
  Hf  Hf15  1  0.147538  0.996800  0.374728  1
  Hf  Hf16  1  0.647409  0.503493  0.375128  1
  Hf  Hf17  1  0.352629  0.496263  0.875331  1
  Hf  Hf18  1  0.003513  0.852555  0.125330  1
  Hf  Hf19  1  0.996395  0.147638  0.625102  1
  Si  Si20  1  0.794992  0.139205  0.067352  1
  Si  Si21  1  0.204856  0.860804  0.567195  1
  Si  Si22  1  0.639639  0.704457  0.817264  1
  Si  Si23  1  0.360748  0.295048  0.317333  1
  Si  Si24  1  0.859015  0.203700  0.432537  1
  Si  Si25  1  0.140371  0.795862  0.933054  1
  Si  Si26  1  0.703579  0.641059  0.182609  1
  Si  Si27  1  0.296219  0.359609  0.682408  1
  Si  Si28  1  0.550340  0.204900  0.936113  1
  Si  Si29  1  0.450133  0.795499  0.435774  1
  Si  Si30  1  0.705215  0.949922  0.685595  1
  Si  Si31  1  0.295464  0.049893  0.185819  1
  Si  Si32  1  0.794024  0.449011  0.564120  1
  Si  Si33  1  0.205996  0.550852  0.064175  1
  Si  Si34  1  0.949092  0.706026  0.314177  1
  Si  Si35  1  0.050586  0.294263  0.814184  1
