# generated using pymatgen
data_CeHo2In3Pt2Rh
_symmetry_space_group_name_H-M   'P 1'
_cell_length_a   7.74912838
_cell_length_b   7.74912788
_cell_length_c   3.81497400
_cell_angle_alpha   90.00000000
_cell_angle_beta   90.00000000
_cell_angle_gamma   120.46855048
_symmetry_Int_Tables_number   1
_chemical_formula_structural   CeHo2In3Pt2Rh
_chemical_formula_sum   'Ce1 Ho2 In3 Pt2 Rh1'
_cell_volume   197.45038517
_cell_formula_units_Z   1
loop_
 _symmetry_equiv_pos_site_id
 _symmetry_equiv_pos_as_xyz
  1  'x, y, z'
loop_
 _atom_site_type_symbol
 _atom_site_label
 _atom_site_symmetry_multiplicity
 _atom_site_fract_x
 _atom_site_fract_y
 _atom_site_fract_z
 _atom_site_occupancy
  Ce  Ce0  1  0.592989  0.592989  0.500000  1
  Ho  Ho1  1  0.408351  0.002950  0.500000  1
  Ho  Ho2  1  0.002950  0.408351  0.500000  1
  In  In3  1  0.744130  0.007247  0.000000  1
  In  In4  1  0.007247  0.744130  0.000000  1
  In  In5  1  0.249824  0.249824  0.000000  1
  Pt  Pt6  1  0.336088  0.665429  0.000000  1
  Pt  Pt7  1  0.665429  0.336088  0.000000  1
  Rh  Rh8  1  0.992991  0.992991  0.500000  1
