# generated using pymatgen
data_Tb4Al18FePd4Ru
_symmetry_space_group_name_H-M   'P 1'
_cell_length_a   7.59053526
_cell_length_b   7.59053384
_cell_length_c   9.48426031
_cell_angle_alpha   90.13342028
_cell_angle_beta   90.13341755
_cell_angle_gamma   119.54141977
_symmetry_Int_Tables_number   1
_chemical_formula_structural   Tb4Al18FePd4Ru
_chemical_formula_sum   'Tb4 Al18 Fe1 Pd4 Ru1'
_cell_volume   475.40368149
_cell_formula_units_Z   1
loop_
 _symmetry_equiv_pos_site_id
 _symmetry_equiv_pos_as_xyz
  1  'x, y, z'
loop_
 _atom_site_type_symbol
 _atom_site_label
 _atom_site_symmetry_multiplicity
 _atom_site_fract_x
 _atom_site_fract_y
 _atom_site_fract_z
 _atom_site_occupancy
  Tb  Tb0  1  0.994261  0.667982  0.249299  1
  Tb  Tb1  1  0.005739  0.332018  0.750701  1
  Tb  Tb2  1  0.667982  0.994262  0.249299  1
  Tb  Tb3  1  0.332018  0.005738  0.750701  1
  Al  Al4  1  0.120039  0.120039  0.246168  1
  Al  Al5  1  0.879961  0.879961  0.753832  1
  Al  Al6  1  0.999763  0.324127  0.074241  1
  Al  Al7  1  0.000237  0.675873  0.925759  1
  Al  Al8  1  0.999368  0.671284  0.576329  1
  Al  Al9  1  0.328716  0.000632  0.423671  1
  Al  Al10  1  0.000632  0.328716  0.423671  1
  Al  Al11  1  0.671284  0.999368  0.576329  1
  Al  Al12  1  0.675873  0.000237  0.925759  1
  Al  Al13  1  0.324127  0.999763  0.074241  1
  Al  Al14  1  0.328469  0.328469  0.553403  1
  Al  Al15  1  0.671531  0.671531  0.446597  1
  Al  Al16  1  0.677535  0.677535  0.051063  1
  Al  Al17  1  0.322465  0.322465  0.948937  1
  Al  Al18  1  0.341655  0.545724  0.249210  1
  Al  Al19  1  0.658345  0.454276  0.750790  1
  Al  Al20  1  0.545724  0.341655  0.249210  1
  Al  Al21  1  0.454276  0.658345  0.750790  1
  Fe  Fe22  1  0.000000  0.000000  0.000000  1
  Pd  Pd23  1  0.672242  0.327758  0.000000  1
  Pd  Pd24  1  0.327758  0.672242  0.000000  1
  Pd  Pd25  1  0.327748  0.672252  0.500000  1
  Pd  Pd26  1  0.672252  0.327748  0.500000  1
  Ru  Ru27  1  0.000000  0.000000  0.500000  1
