# generated using pymatgen
data_TbDy3Cr3ReB16
_symmetry_space_group_name_H-M   'P 1'
_cell_length_a   5.95413303
_cell_length_b   11.50447591
_cell_length_c   3.50012900
_cell_angle_alpha   90.00000000
_cell_angle_beta   90.00000000
_cell_angle_gamma   89.90483960
_symmetry_Int_Tables_number   1
_chemical_formula_structural   TbDy3Cr3ReB16
_chemical_formula_sum   'Tb1 Dy3 Cr3 Re1 B16'
_cell_volume   239.75563594
_cell_formula_units_Z   1
loop_
 _symmetry_equiv_pos_site_id
 _symmetry_equiv_pos_as_xyz
  1  'x, y, z'
loop_
 _atom_site_type_symbol
 _atom_site_label
 _atom_site_symmetry_multiplicity
 _atom_site_fract_x
 _atom_site_fract_y
 _atom_site_fract_z
 _atom_site_occupancy
  Tb  Tb0  1  0.623811  0.351761  0.000000  1
  Dy  Dy1  1  0.375698  0.650125  0.000000  1
  Dy  Dy2  1  0.125912  0.151913  0.000000  1
  Dy  Dy3  1  0.875500  0.847356  0.000000  1
  Cr  Cr4  1  0.372329  0.916953  0.000000  1
  Cr  Cr5  1  0.123238  0.419750  0.000000  1
  Cr  Cr6  1  0.876824  0.580557  0.000000  1
  Re  Re7  1  0.627123  0.082809  0.000000  1
  B  B8  1  0.784236  0.185978  0.500000  1
  B  B9  1  0.218276  0.814937  0.500000  1
  B  B10  1  0.281078  0.317007  0.500000  1
  B  B11  1  0.718238  0.683496  0.500000  1
  B  B12  1  0.864861  0.031187  0.500000  1
  B  B13  1  0.137218  0.966581  0.500000  1
  B  B14  1  0.362120  0.468102  0.500000  1
  B  B15  1  0.637853  0.532945  0.500000  1
  B  B16  1  0.887063  0.453811  0.500000  1
  B  B17  1  0.113678  0.547026  0.500000  1
  B  B18  1  0.384128  0.045791  0.500000  1
  B  B19  1  0.612513  0.951316  0.500000  1
  B  B20  1  0.976616  0.309488  0.500000  1
  B  B21  1  0.024365  0.691061  0.500000  1
  B  B22  1  0.473179  0.192648  0.500000  1
  B  B23  1  0.524145  0.807402  0.500000  1
