# generated using pymatgen
data_Tb3YGa16Ir3
_symmetry_space_group_name_H-M   'P 1'
_cell_length_a   6.17298200
_cell_length_b   6.17022900
_cell_length_c   11.23606800
_cell_angle_alpha   90.00000000
_cell_angle_beta   90.00000000
_cell_angle_gamma   90.00000000
_symmetry_Int_Tables_number   1
_chemical_formula_structural   Tb3YGa16Ir3
_chemical_formula_sum   'Tb3 Y1 Ga16 Ir3'
_cell_volume   427.96736428
_cell_formula_units_Z   1
loop_
 _symmetry_equiv_pos_site_id
 _symmetry_equiv_pos_as_xyz
  1  'x, y, z'
loop_
 _atom_site_type_symbol
 _atom_site_label
 _atom_site_symmetry_multiplicity
 _atom_site_fract_x
 _atom_site_fract_y
 _atom_site_fract_z
 _atom_site_occupancy
  Tb  Tb0  1  0.000000  0.500000  0.805513  1
  Tb  Tb1  1  0.500000  0.000000  0.194443  1
  Tb  Tb2  1  0.000000  0.500000  0.194478  1
  Y  Y3  1  0.500000  0.000000  0.805513  1
  Ga  Ga4  1  0.248778  0.248775  0.620251  1
  Ga  Ga5  1  0.751222  0.751225  0.620251  1
  Ga  Ga6  1  0.751222  0.248775  0.620251  1
  Ga  Ga7  1  0.248778  0.751225  0.620251  1
  Ga  Ga8  1  0.751207  0.751205  0.379739  1
  Ga  Ga9  1  0.248793  0.248795  0.379739  1
  Ga  Ga10  1  0.248793  0.751205  0.379739  1
  Ga  Ga11  1  0.751207  0.248795  0.379739  1
  Ga  Ga12  1  0.288178  0.288183  0.999996  1
  Ga  Ga13  1  0.711822  0.711817  0.999996  1
  Ga  Ga14  1  0.711822  0.288183  0.999996  1
  Ga  Ga15  1  0.288178  0.711817  0.999996  1
  Ga  Ga16  1  0.500000  0.500000  0.804584  1
  Ga  Ga17  1  0.500000  0.500000  0.195440  1
  Ga  Ga18  1  0.000000  0.000000  0.775443  1
  Ga  Ga19  1  0.000000  0.000000  0.224586  1
  Ir  Ir20  1  0.500000  0.000000  0.500037  1
  Ir  Ir21  1  0.000000  0.500000  0.500010  1
  Ir  Ir22  1  0.000000  0.000000  0.000008  1
