# generated using pymatgen
data_Pr5PaS10
_symmetry_space_group_name_H-M   'P 1'
_cell_length_a   7.57388700
_cell_length_b   8.17158400
_cell_length_c   12.08918300
_cell_angle_alpha   90.00000000
_cell_angle_beta   90.00000000
_cell_angle_gamma   90.00000000
_symmetry_Int_Tables_number   1
_chemical_formula_structural   Pr5PaS10
_chemical_formula_sum   'Pr10 Pa2 S20'
_cell_volume   748.20744010
_cell_formula_units_Z   2
loop_
 _symmetry_equiv_pos_site_id
 _symmetry_equiv_pos_as_xyz
  1  'x, y, z'
loop_
 _atom_site_type_symbol
 _atom_site_label
 _atom_site_symmetry_multiplicity
 _atom_site_fract_x
 _atom_site_fract_y
 _atom_site_fract_z
 _atom_site_occupancy
  Pr  Pr0  1  0.927279  0.750000  0.491618  1
  Pr  Pr1  1  0.427279  0.250000  0.008382  1
  Pr  Pr2  1  0.478547  0.999332  0.321680  1
  Pr  Pr3  1  0.978547  0.000668  0.178320  1
  Pr  Pr4  1  0.523965  0.500281  0.675743  1
  Pr  Pr5  1  0.023965  0.499719  0.824257  1
  Pr  Pr6  1  0.523965  0.999719  0.675743  1
  Pr  Pr7  1  0.023965  0.000281  0.824257  1
  Pr  Pr8  1  0.478547  0.500668  0.321680  1
  Pr  Pr9  1  0.978547  0.499332  0.178320  1
  Pa  Pa10  1  0.066203  0.250000  0.507464  1
  Pa  Pa11  1  0.566203  0.750000  0.992536  1
  S  S12  1  0.174486  0.750000  0.308279  1
  S  S13  1  0.674486  0.250000  0.191721  1
  S  S14  1  0.830575  0.250000  0.683652  1
  S  S15  1  0.330575  0.750000  0.816348  1
  S  S16  1  0.538452  0.750000  0.497394  1
  S  S17  1  0.038452  0.250000  0.002606  1
  S  S18  1  0.447639  0.250000  0.499231  1
  S  S19  1  0.947639  0.750000  0.000769  1
  S  S20  1  0.805506  0.750000  0.716000  1
  S  S21  1  0.305506  0.250000  0.784000  1
  S  S22  1  0.196045  0.250000  0.287721  1
  S  S23  1  0.696045  0.750000  0.212279  1
  S  S24  1  0.163988  0.528957  0.599529  1
  S  S25  1  0.663988  0.471043  0.900471  1
  S  S26  1  0.840407  0.051900  0.404776  1
  S  S27  1  0.340407  0.948100  0.095224  1
  S  S28  1  0.840407  0.448100  0.404776  1
  S  S29  1  0.340407  0.551900  0.095224  1
  S  S30  1  0.163988  0.971043  0.599529  1
  S  S31  1  0.663988  0.028957  0.900471  1
