# generated using pymatgen
data_Er16In4CoIrPd2
_symmetry_space_group_name_H-M   'P 1'
_cell_length_a   9.59066801
_cell_length_b   9.59862866
_cell_length_c   9.58518498
_cell_angle_alpha   60.04648688
_cell_angle_beta   59.98106864
_cell_angle_gamma   60.02742944
_symmetry_Int_Tables_number   1
_chemical_formula_structural   Er16In4CoIrPd2
_chemical_formula_sum   'Er16 In4 Co1 Ir1 Pd2'
_cell_volume   624.19985257
_cell_formula_units_Z   1
loop_
 _symmetry_equiv_pos_site_id
 _symmetry_equiv_pos_as_xyz
  1  'x, y, z'
loop_
 _atom_site_type_symbol
 _atom_site_label
 _atom_site_symmetry_multiplicity
 _atom_site_fract_x
 _atom_site_fract_y
 _atom_site_fract_z
 _atom_site_occupancy
  Er  Er0  1  0.063169  0.061731  0.434909  1
  Er  Er1  1  0.653853  0.052971  0.639325  1
  Er  Er2  1  0.179587  0.810430  0.198132  1
  Er  Er3  1  0.440190  0.061731  0.434909  1
  Er  Er4  1  0.185266  0.194465  0.809860  1
  Er  Er5  1  0.658078  0.651608  0.644794  1
  Er  Er6  1  0.045521  0.651608  0.644794  1
  Er  Er7  1  0.438229  0.062214  0.061328  1
  Er  Er8  1  0.649625  0.642893  0.057858  1
  Er  Er9  1  0.190353  0.809218  0.810075  1
  Er  Er10  1  0.810408  0.194465  0.809860  1
  Er  Er11  1  0.811372  0.184610  0.192646  1
  Er  Er12  1  0.811850  0.810430  0.198132  1
  Er  Er13  1  0.062637  0.436813  0.437912  1
  Er  Er14  1  0.442197  0.435481  0.060081  1
  Er  Er15  1  0.062241  0.435481  0.060081  1
  In  In16  1  0.751077  0.416399  0.417614  1
  In  In17  1  0.417234  0.418251  0.747282  1
  In  In18  1  0.416445  0.748357  0.418754  1
  In  In19  1  0.414910  0.416399  0.417614  1
  Co  Co20  1  0.856597  0.860503  0.426304  1
  Ir  Ir21  1  0.855867  0.427564  0.860702  1
  Pd  Pd22  1  0.854523  0.858191  0.858518  1
  Pd  Pd23  1  0.428770  0.858191  0.858518  1
