# generated using pymatgen
data_TbY6Ho13Pb16
_symmetry_space_group_name_H-M   'P 1'
_cell_length_a   8.20253154
_cell_length_b   8.28267232
_cell_length_c   15.61734406
_cell_angle_alpha   89.98124958
_cell_angle_beta   90.02214125
_cell_angle_gamma   89.89126829
_symmetry_Int_Tables_number   1
_chemical_formula_structural   TbY6Ho13Pb16
_chemical_formula_sum   'Tb1 Y6 Ho13 Pb16'
_cell_volume   1061.02283208
_cell_formula_units_Z   1
loop_
 _symmetry_equiv_pos_site_id
 _symmetry_equiv_pos_as_xyz
  1  'x, y, z'
loop_
 _atom_site_type_symbol
 _atom_site_label
 _atom_site_symmetry_multiplicity
 _atom_site_fract_x
 _atom_site_fract_y
 _atom_site_fract_z
 _atom_site_occupancy
  Tb  Tb0  1  0.035115  0.176685  0.900302  1
  Y  Y1  1  0.035030  0.176656  0.599978  1
  Y  Y2  1  0.464472  0.676129  0.400245  1
  Y  Y3  1  0.964600  0.823648  0.099718  1
  Y  Y4  1  0.464347  0.675879  0.099769  1
  Y  Y5  1  0.965012  0.823411  0.400368  1
  Y  Y6  1  0.535058  0.323594  0.599896  1
  Ho  Ho7  1  0.376381  0.841651  0.878566  1
  Ho  Ho8  1  0.875488  0.657803  0.621081  1
  Ho  Ho9  1  0.623631  0.158215  0.378550  1
  Ho  Ho10  1  0.123785  0.341867  0.120805  1
  Ho  Ho11  1  0.623206  0.158269  0.121186  1
  Ho  Ho12  1  0.124236  0.341995  0.379115  1
  Ho  Ho13  1  0.376342  0.841944  0.621715  1
  Ho  Ho14  1  0.876050  0.658068  0.879060  1
  Ho  Ho15  1  0.536918  0.324562  0.899560  1
  Ho  Ho16  1  0.208311  0.504295  0.750235  1
  Ho  Ho17  1  0.708441  0.995768  0.750191  1
  Ho  Ho18  1  0.791604  0.495473  0.249815  1
  Ho  Ho19  1  0.291199  0.004277  0.249953  1
  Pb  Pb20  1  0.282755  0.033822  0.042858  1
  Pb  Pb21  1  0.782300  0.465231  0.457131  1
  Pb  Pb22  1  0.717388  0.966040  0.543109  1
  Pb  Pb23  1  0.219134  0.533734  0.956697  1
  Pb  Pb24  1  0.716686  0.966742  0.956863  1
  Pb  Pb25  1  0.217410  0.534825  0.543084  1
  Pb  Pb26  1  0.282746  0.034126  0.457209  1
  Pb  Pb27  1  0.781701  0.464591  0.042250  1
  Pb  Pb28  1  0.571336  0.625828  0.750019  1
  Pb  Pb29  1  0.070827  0.873391  0.750032  1
  Pb  Pb30  1  0.428921  0.373869  0.249779  1
  Pb  Pb31  1  0.929077  0.126801  0.249961  1
  Pb  Pb32  1  0.347422  0.154107  0.750655  1
  Pb  Pb33  1  0.846610  0.347080  0.750244  1
  Pb  Pb34  1  0.653047  0.846588  0.250056  1
  Pb  Pb35  1  0.153414  0.653036  0.249947  1
