# generated using pymatgen
data_PrNd2In3Cu2Ru
_symmetry_space_group_name_H-M   'P 1'
_cell_length_a   7.66455255
_cell_length_b   7.66509402
_cell_length_c   4.05933200
_cell_angle_alpha   90.00000000
_cell_angle_beta   90.00000000
_cell_angle_gamma   119.92483169
_symmetry_Int_Tables_number   1
_chemical_formula_structural   PrNd2In3Cu2Ru
_chemical_formula_sum   'Pr1 Nd2 In3 Cu2 Ru1'
_cell_volume   206.68928009
_cell_formula_units_Z   1
loop_
 _symmetry_equiv_pos_site_id
 _symmetry_equiv_pos_as_xyz
  1  'x, y, z'
loop_
 _atom_site_type_symbol
 _atom_site_label
 _atom_site_symmetry_multiplicity
 _atom_site_fract_x
 _atom_site_fract_y
 _atom_site_fract_z
 _atom_site_occupancy
  Pr  Pr0  1  0.985075  0.579405  0.500000  1
  Nd  Nd1  1  0.420268  0.404186  0.500000  1
  Nd  Nd2  1  0.595381  0.015516  0.500000  1
  In  In3  1  0.750000  0.752122  0.000000  1
  In  In4  1  0.249211  0.001154  0.000000  1
  In  In5  1  0.999751  0.246584  0.000000  1
  Cu  Cu6  1  0.333089  0.668070  0.000000  1
  Cu  Cu7  1  0.001387  0.000415  0.500000  1
  Ru  Ru8  1  0.665839  0.332547  0.000000  1
