# generated using pymatgen
data_Tb4Er4B24Ir3Ru
_symmetry_space_group_name_H-M   'P 1'
_cell_length_a   3.64637600
_cell_length_b   9.17290223
_cell_length_c   11.51293130
_cell_angle_alpha   90.02592101
_cell_angle_beta   90.00000000
_cell_angle_gamma   90.00000000
_symmetry_Int_Tables_number   1
_chemical_formula_structural   Tb4Er4B24Ir3Ru
_chemical_formula_sum   'Tb4 Er4 B24 Ir3 Ru1'
_cell_volume   385.08276603
_cell_formula_units_Z   1
loop_
 _symmetry_equiv_pos_site_id
 _symmetry_equiv_pos_as_xyz
  1  'x, y, z'
loop_
 _atom_site_type_symbol
 _atom_site_label
 _atom_site_symmetry_multiplicity
 _atom_site_fract_x
 _atom_site_fract_y
 _atom_site_fract_z
 _atom_site_occupancy
  Tb  Tb0  1  0.000000  0.320848  0.413561  1
  Tb  Tb1  1  0.000000  0.680168  0.587574  1
  Tb  Tb2  1  0.000000  0.821059  0.084928  1
  Tb  Tb3  1  0.000000  0.177255  0.913233  1
  Er  Er4  1  0.000000  0.944189  0.373789  1
  Er  Er5  1  0.000000  0.054299  0.627279  1
  Er  Er6  1  0.000000  0.444244  0.126025  1
  Er  Er7  1  0.000000  0.557603  0.873726  1
  B  B8  1  0.500000  0.554243  0.433934  1
  B  B9  1  0.500000  0.445804  0.566188  1
  B  B10  1  0.500000  0.053969  0.066273  1
  B  B11  1  0.500000  0.945223  0.932981  1
  B  B12  1  0.500000  0.750387  0.420312  1
  B  B13  1  0.500000  0.249669  0.579836  1
  B  B14  1  0.500000  0.250068  0.079764  1
  B  B15  1  0.500000  0.751090  0.919242  1
  B  B16  1  0.500000  0.792980  0.265080  1
  B  B17  1  0.500000  0.207140  0.734389  1
  B  B18  1  0.500000  0.293343  0.234889  1
  B  B19  1  0.500000  0.708032  0.765873  1
  B  B20  1  0.500000  0.631600  0.183720  1
  B  B21  1  0.500000  0.368470  0.816206  1
  B  B22  1  0.500000  0.131961  0.316222  1
  B  B23  1  0.500000  0.868503  0.685001  1
  B  B24  1  0.500000  0.982445  0.213754  1
  B  B25  1  0.500000  0.016071  0.786224  1
  B  B26  1  0.500000  0.482524  0.286111  1
  B  B27  1  0.500000  0.517397  0.714133  1
  B  B28  1  0.500000  0.607675  0.029689  1
  B  B29  1  0.500000  0.391893  0.970591  1
  B  B30  1  0.500000  0.107845  0.470548  1
  B  B31  1  0.500000  0.892189  0.529123  1
  Ir  Ir32  1  0.000000  0.638715  0.320990  1
  Ir  Ir33  1  0.000000  0.361466  0.679365  1
  Ir  Ir34  1  0.000000  0.138404  0.178933  1
  Ru  Ru35  1  0.000000  0.861228  0.820513  1
