# generated using pymatgen
data_Na20V3CdAs12
_symmetry_space_group_name_H-M   'P 1'
_cell_length_a   7.52161023
_cell_length_b   8.29435235
_cell_length_c   15.80263400
_cell_angle_alpha   59.14294023
_cell_angle_beta   89.76320970
_cell_angle_gamma   90.22431202
_symmetry_Int_Tables_number   1
_chemical_formula_structural   Na20V3CdAs12
_chemical_formula_sum   'Na20 V3 Cd1 As12'
_cell_volume   846.29761654
_cell_formula_units_Z   1
loop_
 _symmetry_equiv_pos_site_id
 _symmetry_equiv_pos_as_xyz
  1  'x, y, z'
loop_
 _atom_site_type_symbol
 _atom_site_label
 _atom_site_symmetry_multiplicity
 _atom_site_fract_x
 _atom_site_fract_y
 _atom_site_fract_z
 _atom_site_occupancy
  Na  Na0  1  0.508584  0.554673  0.759321  1
  Na  Na1  1  0.014225  0.445768  0.746270  1
  Na  Na2  1  0.477952  0.445854  0.238826  1
  Na  Na3  1  0.990307  0.561875  0.247754  1
  Na  Na4  1  0.978033  0.271948  0.575687  1
  Na  Na5  1  0.466718  0.729624  0.927605  1
  Na  Na6  1  0.037884  0.755843  0.412670  1
  Na  Na7  1  0.502718  0.252814  0.079222  1
  Na  Na8  1  0.492232  0.088315  0.591019  1
  Na  Na9  1  0.991765  0.899215  0.919748  1
  Na  Na10  1  0.507095  0.915684  0.405281  1
  Na  Na11  1  0.027866  0.088680  0.089158  1
  Na  Na12  1  0.340896  0.159300  0.915377  1
  Na  Na13  1  0.837773  0.843254  0.580592  1
  Na  Na14  1  0.658550  0.850243  0.079316  1
  Na  Na15  1  0.161986  0.157488  0.420745  1
  Na  Na16  1  0.153789  0.844998  0.738203  1
  Na  Na17  1  0.658197  0.159898  0.762602  1
  Na  Na18  1  0.845474  0.166883  0.254378  1
  Na  Na19  1  0.350329  0.826575  0.243026  1
  V  V20  1  0.641172  0.508034  0.420763  1
  V  V21  1  0.862467  0.513986  0.918570  1
  V  V22  1  0.367066  0.489448  0.582116  1
  Cd  Cd23  1  0.143674  0.479887  0.087316  1
  As  As24  1  0.248114  0.758985  0.580703  1
  As  As25  1  0.740565  0.243090  0.920281  1
  As  As26  1  0.757759  0.238591  0.421221  1
  As  As27  1  0.262318  0.796658  0.077424  1
  As  As28  1  0.270017  0.200501  0.720732  1
  As  As29  1  0.767922  0.807514  0.775025  1
  As  As30  1  0.734420  0.792780  0.280688  1
  As  As31  1  0.236677  0.149682  0.246244  1
  As  As32  1  0.181124  0.483869  0.913795  1
  As  As33  1  0.691023  0.518854  0.571417  1
  As  As34  1  0.777171  0.520500  0.063399  1
  As  As35  1  0.316135  0.478690  0.433500  1
