# generated using pymatgen
data_CeMn4P3W
_symmetry_space_group_name_H-M   'P 1'
_cell_length_a   3.72743300
_cell_length_b   10.79264500
_cell_length_c   12.23421900
_cell_angle_alpha   90.00000000
_cell_angle_beta   90.00000000
_cell_angle_gamma   90.00000000
_symmetry_Int_Tables_number   1
_chemical_formula_structural   CeMn4P3W
_chemical_formula_sum   'Ce4 Mn16 P12 W4'
_cell_volume   492.16869719
_cell_formula_units_Z   4
loop_
 _symmetry_equiv_pos_site_id
 _symmetry_equiv_pos_as_xyz
  1  'x, y, z'
loop_
 _atom_site_type_symbol
 _atom_site_label
 _atom_site_symmetry_multiplicity
 _atom_site_fract_x
 _atom_site_fract_y
 _atom_site_fract_z
 _atom_site_occupancy
  Ce  Ce0  1  0.250000  0.588151  0.706624  1
  Ce  Ce1  1  0.250000  0.911849  0.206624  1
  Ce  Ce2  1  0.750000  0.411849  0.293376  1
  Ce  Ce3  1  0.750000  0.088151  0.793376  1
  Mn  Mn4  1  0.250000  0.409766  0.493719  1
  Mn  Mn5  1  0.250000  0.090234  0.993719  1
  Mn  Mn6  1  0.750000  0.590234  0.506281  1
  Mn  Mn7  1  0.750000  0.909766  0.006281  1
  Mn  Mn8  1  0.250000  0.210807  0.182979  1
  Mn  Mn9  1  0.250000  0.289193  0.682979  1
  Mn  Mn10  1  0.750000  0.789193  0.817021  1
  Mn  Mn11  1  0.750000  0.710807  0.317021  1
  Mn  Mn12  1  0.250000  0.885166  0.691664  1
  Mn  Mn13  1  0.250000  0.614834  0.191664  1
  Mn  Mn14  1  0.750000  0.114834  0.308336  1
  Mn  Mn15  1  0.750000  0.385166  0.808336  1
  Mn  Mn16  1  0.250000  0.467649  0.935125  1
  Mn  Mn17  1  0.250000  0.032351  0.435125  1
  Mn  Mn18  1  0.750000  0.532351  0.064875  1
  Mn  Mn19  1  0.750000  0.967649  0.564875  1
  P  P20  1  0.250000  0.412953  0.115756  1
  P  P21  1  0.250000  0.087047  0.615756  1
  P  P22  1  0.750000  0.587047  0.884244  1
  P  P23  1  0.750000  0.912953  0.384244  1
  P  P24  1  0.250000  0.267638  0.874456  1
  P  P25  1  0.250000  0.232362  0.374456  1
  P  P26  1  0.750000  0.732362  0.125544  1
  P  P27  1  0.750000  0.767638  0.625544  1
  P  P28  1  0.250000  0.592253  0.384274  1
  P  P29  1  0.250000  0.907747  0.884274  1
  P  P30  1  0.750000  0.407747  0.615726  1
  P  P31  1  0.750000  0.092253  0.115726  1
  W  W32  1  0.250000  0.708641  0.982505  1
  W  W33  1  0.250000  0.791359  0.482505  1
  W  W34  1  0.750000  0.291359  0.017495  1
  W  W35  1  0.750000  0.208641  0.517495  1
