# generated using pymatgen
data_Rb2CoSi3O8
_symmetry_space_group_name_H-M   'P 1'
_cell_length_a   5.40312749
_cell_length_b   6.97210865
_cell_length_c   7.08065281
_cell_angle_alpha   77.73016775
_cell_angle_beta   68.01194036
_cell_angle_gamma   67.41815006
_symmetry_Int_Tables_number   1
_chemical_formula_structural   Rb2CoSi3O8
_chemical_formula_sum   'Rb2 Co1 Si3 O8'
_cell_volume   227.63478475
_cell_formula_units_Z   1
loop_
 _symmetry_equiv_pos_site_id
 _symmetry_equiv_pos_as_xyz
  1  'x, y, z'
loop_
 _atom_site_type_symbol
 _atom_site_label
 _atom_site_symmetry_multiplicity
 _atom_site_fract_x
 _atom_site_fract_y
 _atom_site_fract_z
 _atom_site_occupancy
  Rb  Rb0  1  0.954979  0.292783  0.813392  1
  Rb  Rb1  1  0.090521  0.681434  0.149716  1
  Co  Co2  1  0.665810  0.886699  0.778346  1
  Si  Si3  1  0.324199  0.089481  0.259856  1
  Si  Si4  1  0.655030  0.287483  0.405085  1
  Si  Si5  1  0.344223  0.707540  0.601964  1
  O  O6  1  0.996757  0.252118  0.271362  1
  O  O7  1  0.540274  0.675443  0.737539  1
  O  O8  1  0.513329  0.233190  0.257199  1
  O  O9  1  0.043892  0.684934  0.745998  1
  O  O10  1  0.293731  0.941453  0.473904  1
  O  O11  1  0.606242  0.163342  0.624984  1
  O  O12  1  0.463805  0.963707  0.061999  1
  O  O13  1  0.507207  0.542394  0.416656  1
