# generated using pymatgen
data_Tb3Dy5CdHgIr2
_symmetry_space_group_name_H-M   'P 1'
_cell_length_a   9.63229063
_cell_length_b   9.63229061
_cell_length_c   9.64144000
_cell_angle_alpha   59.96857369
_cell_angle_beta   59.96857377
_cell_angle_gamma   59.97130965
_symmetry_Int_Tables_number   1
_chemical_formula_structural   Tb3Dy5CdHgIr2
_chemical_formula_sum   'Tb6 Dy10 Cd2 Hg2 Ir4'
_cell_volume   632.09948644
_cell_formula_units_Z   2
loop_
 _symmetry_equiv_pos_site_id
 _symmetry_equiv_pos_as_xyz
  1  'x, y, z'
loop_
 _atom_site_type_symbol
 _atom_site_label
 _atom_site_symmetry_multiplicity
 _atom_site_fract_x
 _atom_site_fract_y
 _atom_site_fract_z
 _atom_site_occupancy
  Tb  Tb0  1  0.187604  0.811069  0.812225  1
  Tb  Tb1  1  0.811069  0.187604  0.189102  1
  Tb  Tb2  1  0.811069  0.187604  0.812225  1
  Tb  Tb3  1  0.187604  0.811069  0.189102  1
  Tb  Tb4  1  0.811652  0.811652  0.188348  1
  Tb  Tb5  1  0.188314  0.188314  0.811686  1
  Dy  Dy6  1  0.599627  0.599627  0.598133  1
  Dy  Dy7  1  0.599627  0.599627  0.202614  1
  Dy  Dy8  1  0.600976  0.200008  0.599508  1
  Dy  Dy9  1  0.200008  0.600976  0.599508  1
  Dy  Dy10  1  0.059870  0.438721  0.441012  1
  Dy  Dy11  1  0.438721  0.059870  0.060397  1
  Dy  Dy12  1  0.438721  0.059870  0.441012  1
  Dy  Dy13  1  0.059870  0.438721  0.060397  1
  Dy  Dy14  1  0.439255  0.439255  0.060745  1
  Dy  Dy15  1  0.059356  0.059356  0.440644  1
  Cd  Cd16  1  0.830261  0.507260  0.831240  1
  Cd  Cd17  1  0.507260  0.830261  0.831240  1
  Hg  Hg18  1  0.833800  0.833800  0.835815  1
  Hg  Hg19  1  0.833800  0.833800  0.496584  1
  Ir  Ir20  1  0.392144  0.392144  0.391250  1
  Ir  Ir21  1  0.392144  0.392144  0.824461  1
  Ir  Ir22  1  0.392221  0.825029  0.391375  1
  Ir  Ir23  1  0.825029  0.392221  0.391375  1
