# generated using pymatgen
data_Pr3NdSn12
_symmetry_space_group_name_H-M   'P 1'
_cell_length_a   12.27058599
_cell_length_b   12.27058596
_cell_length_c   12.27058653
_cell_angle_alpha   31.34417878
_cell_angle_beta   31.34417605
_cell_angle_gamma   31.34418284
_symmetry_Int_Tables_number   1
_chemical_formula_structural   Pr3NdSn12
_chemical_formula_sum   'Pr3 Nd1 Sn12'
_cell_volume   443.72089867
_cell_formula_units_Z   1
loop_
 _symmetry_equiv_pos_site_id
 _symmetry_equiv_pos_as_xyz
  1  'x, y, z'
loop_
 _atom_site_type_symbol
 _atom_site_label
 _atom_site_symmetry_multiplicity
 _atom_site_fract_x
 _atom_site_fract_y
 _atom_site_fract_z
 _atom_site_occupancy
  Pr  Pr0  1  0.878224  0.878224  0.878224  1
  Pr  Pr1  1  0.121994  0.121994  0.121994  1
  Pr  Pr2  1  0.705851  0.705851  0.705851  1
  Nd  Nd3  1  0.293630  0.293630  0.293630  1
  Sn  Sn4  1  0.293282  0.791653  0.791653  1
  Sn  Sn5  1  0.791653  0.791653  0.293282  1
  Sn  Sn6  1  0.862789  0.382898  0.382898  1
  Sn  Sn7  1  0.382898  0.382898  0.862789  1
  Sn  Sn8  1  0.382898  0.862789  0.382898  1
  Sn  Sn9  1  0.617268  0.137333  0.617268  1
  Sn  Sn10  1  0.137333  0.617268  0.617268  1
  Sn  Sn11  1  0.617268  0.617268  0.137333  1
  Sn  Sn12  1  0.791653  0.293282  0.791653  1
  Sn  Sn13  1  0.208985  0.705289  0.208985  1
  Sn  Sn14  1  0.208985  0.208985  0.705289  1
  Sn  Sn15  1  0.705289  0.208985  0.208985  1
