# generated using pymatgen
data_Dy5V3P12(IrRh3)4
_symmetry_space_group_name_H-M   'P 1'
_cell_length_a   12.70632781
_cell_length_b   12.69626735
_cell_length_c   3.90895600
_cell_angle_alpha   90.00000000
_cell_angle_beta   90.00000000
_cell_angle_gamma   120.06728226
_symmetry_Int_Tables_number   1
_chemical_formula_structural   Dy5V3P12(IrRh3)4
_chemical_formula_sum   'Dy5 V3 P12 Ir4 Rh12'
_cell_volume   545.74866937
_cell_formula_units_Z   1
loop_
 _symmetry_equiv_pos_site_id
 _symmetry_equiv_pos_as_xyz
  1  'x, y, z'
loop_
 _atom_site_type_symbol
 _atom_site_label
 _atom_site_symmetry_multiplicity
 _atom_site_fract_x
 _atom_site_fract_y
 _atom_site_fract_z
 _atom_site_occupancy
  Dy  Dy0  1  0.333178  0.666486  0.500000  1
  Dy  Dy1  1  0.666360  0.333191  0.500000  1
  Dy  Dy2  1  0.000040  0.810302  0.000000  1
  Dy  Dy3  1  0.189615  0.189460  0.000000  1
  Dy  Dy4  1  0.810629  0.999945  0.000000  1
  V  V5  1  0.000751  0.449195  0.500000  1
  V  V6  1  0.551356  0.551605  0.500000  1
  V  V7  1  0.448730  0.000136  0.500000  1
  P  P8  1  0.000084  0.634001  0.500000  1
  P  P9  1  0.364995  0.365257  0.500000  1
  P  P10  1  0.635910  0.000784  0.500000  1
  P  P11  1  0.516668  0.682274  0.000000  1
  P  P12  1  0.317522  0.834151  0.000000  1
  P  P13  1  0.165122  0.482957  0.000000  1
  P  P14  1  0.483076  0.165956  0.000000  1
  P  P15  1  0.682556  0.516733  0.000000  1
  P  P16  1  0.834365  0.317157  0.000000  1
  P  P17  1  0.999563  0.177471  0.500000  1
  P  P18  1  0.822403  0.822534  0.500000  1
  P  P19  1  0.177517  0.999984  0.500000  1
  Ir  Ir20  1  0.716230  0.716253  0.000000  1
  Ir  Ir21  1  0.283917  0.999962  0.000000  1
  Ir  Ir22  1  0.822275  0.199297  0.500000  1
  Ir  Ir23  1  0.000064  0.000061  0.500000  1
  Rh  Rh24  1  0.512201  0.869397  0.000000  1
  Rh  Rh25  1  0.130264  0.642923  0.000000  1
  Rh  Rh26  1  0.356975  0.487198  0.000000  1
  Rh  Rh27  1  0.487408  0.357444  0.000000  1
  Rh  Rh28  1  0.869595  0.511770  0.000000  1
  Rh  Rh29  1  0.642084  0.130465  0.000000  1
  Rh  Rh30  1  0.000392  0.283451  0.000000  1
  Rh  Rh31  1  0.623474  0.802413  0.500000  1
  Rh  Rh32  1  0.198060  0.821451  0.500000  1
  Rh  Rh33  1  0.178003  0.376297  0.500000  1
  Rh  Rh34  1  0.376586  0.178824  0.500000  1
  Rh  Rh35  1  0.802032  0.623213  0.500000  1
