# generated using pymatgen
data_ErNiB2Ir
_symmetry_space_group_name_H-M   'P 1'
_cell_length_a   5.06284363
_cell_length_b   5.06284344
_cell_length_c   7.24352825
_cell_angle_alpha   58.76141514
_cell_angle_beta   58.76141785
_cell_angle_gamma   62.20406390
_symmetry_Int_Tables_number   1
_chemical_formula_structural   ErNiB2Ir
_chemical_formula_sum   'Er2 Ni2 B4 Ir2'
_cell_volume   130.69280672
_cell_formula_units_Z   2
loop_
 _symmetry_equiv_pos_site_id
 _symmetry_equiv_pos_as_xyz
  1  'x, y, z'
loop_
 _atom_site_type_symbol
 _atom_site_label
 _atom_site_symmetry_multiplicity
 _atom_site_fract_x
 _atom_site_fract_y
 _atom_site_fract_z
 _atom_site_occupancy
  Er  Er0  1  0.111770  0.888230  0.750000  1
  Er  Er1  1  0.876129  0.123871  0.250000  1
  Ni  Ni2  1  0.529865  0.730752  0.292583  1
  Ni  Ni3  1  0.269248  0.470135  0.207417  1
  B  B4  1  0.165922  0.498792  0.505643  1
  B  B5  1  0.501208  0.834078  0.994357  1
  B  B6  1  0.842511  0.489220  0.470578  1
  B  B7  1  0.510780  0.157489  0.029422  1
  Ir  Ir8  1  0.462870  0.270302  0.697415  1
  Ir  Ir9  1  0.729698  0.537130  0.802585  1
