# generated using pymatgen
data_TbEu(Co3P2)2
_symmetry_space_group_name_H-M   'P 1'
_cell_length_a   3.74210300
_cell_length_b   10.64067405
_cell_length_c   12.29489317
_cell_angle_alpha   89.98467082
_cell_angle_beta   90.00000000
_cell_angle_gamma   90.00000000
_symmetry_Int_Tables_number   1
_chemical_formula_structural   TbEu(Co3P2)2
_chemical_formula_sum   'Tb3 Eu3 Co18 P12'
_cell_volume   489.56416529
_cell_formula_units_Z   3
loop_
 _symmetry_equiv_pos_site_id
 _symmetry_equiv_pos_as_xyz
  1  'x, y, z'
loop_
 _atom_site_type_symbol
 _atom_site_label
 _atom_site_symmetry_multiplicity
 _atom_site_fract_x
 _atom_site_fract_y
 _atom_site_fract_z
 _atom_site_occupancy
  Tb  Tb0  1  0.500000  0.182651  0.204192  1
  Tb  Tb1  1  0.000000  0.682105  0.795643  1
  Tb  Tb2  1  0.000000  0.317426  0.795256  1
  Eu  Eu3  1  0.000000  0.499424  0.523742  1
  Eu  Eu4  1  0.500000  0.000242  0.476191  1
  Eu  Eu5  1  0.500000  0.819291  0.205320  1
  Co  Co6  1  0.500000  0.499098  0.156496  1
  Co  Co7  1  0.000000  0.001516  0.842736  1
  Co  Co8  1  0.500000  0.499738  0.704234  1
  Co  Co9  1  0.000000  0.003246  0.296478  1
  Co  Co10  1  0.000000  0.499503  0.986313  1
  Co  Co11  1  0.500000  0.001237  0.011653  1
  Co  Co12  1  0.500000  0.333402  0.994010  1
  Co  Co13  1  0.500000  0.665739  0.993657  1
  Co  Co14  1  0.000000  0.167265  0.005066  1
  Co  Co15  1  0.000000  0.833468  0.003259  1
  Co  Co16  1  0.500000  0.296168  0.429615  1
  Co  Co17  1  0.500000  0.703005  0.431806  1
  Co  Co18  1  0.000000  0.203961  0.570390  1
  Co  Co19  1  0.000000  0.796137  0.571776  1
  Co  Co20  1  0.500000  0.880072  0.712506  1
  Co  Co21  1  0.500000  0.120024  0.711458  1
  Co  Co22  1  0.000000  0.617467  0.290185  1
  Co  Co23  1  0.000000  0.378957  0.288041  1
  P  P24  1  0.500000  0.499592  0.883573  1
  P  P25  1  0.000000  0.000957  0.114897  1
  P  P26  1  0.500000  0.499938  0.339277  1
  P  P27  1  0.000000  0.999841  0.660410  1
  P  P28  1  0.500000  0.306446  0.616682  1
  P  P29  1  0.500000  0.693111  0.617587  1
  P  P30  1  0.000000  0.193892  0.383390  1
  P  P31  1  0.000000  0.805325  0.385321  1
  P  P32  1  0.500000  0.846808  0.894984  1
  P  P33  1  0.500000  0.153072  0.894059  1
  P  P34  1  0.000000  0.652377  0.104822  1
  P  P35  1  0.000000  0.347499  0.104976  1
