# generated using pymatgen
data_Y3Ho5(ReB6)4
_symmetry_space_group_name_H-M   'P 1'
_cell_length_a   3.67784500
_cell_length_b   9.16550600
_cell_length_c   11.55004001
_cell_angle_alpha   89.99637154
_cell_angle_beta   90.00000000
_cell_angle_gamma   90.00000000
_symmetry_Int_Tables_number   1
_chemical_formula_structural   Y3Ho5(ReB6)4
_chemical_formula_sum   'Y3 Ho5 Re4 B24'
_cell_volume   389.34388327
_cell_formula_units_Z   1
loop_
 _symmetry_equiv_pos_site_id
 _symmetry_equiv_pos_as_xyz
  1  'x, y, z'
loop_
 _atom_site_type_symbol
 _atom_site_label
 _atom_site_symmetry_multiplicity
 _atom_site_fract_x
 _atom_site_fract_y
 _atom_site_fract_z
 _atom_site_occupancy
  Y  Y0  1  0.000000  0.323231  0.413892  1
  Y  Y1  1  0.000000  0.676768  0.586262  1
  Y  Y2  1  0.000000  0.823308  0.086040  1
  Ho  Ho3  1  0.000000  0.176393  0.913863  1
  Ho  Ho4  1  0.000000  0.943190  0.369940  1
  Ho  Ho5  1  0.000000  0.056864  0.630031  1
  Ho  Ho6  1  0.000000  0.443062  0.129807  1
  Ho  Ho7  1  0.000000  0.556909  0.870120  1
  Re  Re8  1  0.000000  0.638723  0.320329  1
  Re  Re9  1  0.000000  0.360986  0.679885  1
  Re  Re10  1  0.000000  0.138798  0.179240  1
  Re  Re11  1  0.000000  0.861487  0.820628  1
  B  B12  1  0.500000  0.553336  0.432733  1
  B  B13  1  0.500000  0.446524  0.567416  1
  B  B14  1  0.500000  0.053606  0.066893  1
  B  B15  1  0.500000  0.947074  0.932741  1
  B  B16  1  0.500000  0.749162  0.418143  1
  B  B17  1  0.500000  0.250851  0.582063  1
  B  B18  1  0.500000  0.249077  0.081323  1
  B  B19  1  0.500000  0.751085  0.918137  1
  B  B20  1  0.500000  0.792189  0.265584  1
  B  B21  1  0.500000  0.207666  0.734792  1
  B  B22  1  0.500000  0.292111  0.234089  1
  B  B23  1  0.500000  0.707971  0.765723  1
  B  B24  1  0.500000  0.630484  0.185590  1
  B  B25  1  0.500000  0.369125  0.814751  1
  B  B26  1  0.500000  0.130565  0.314192  1
  B  B27  1  0.500000  0.869658  0.685785  1
  B  B28  1  0.500000  0.982467  0.211904  1
  B  B29  1  0.500000  0.018075  0.788126  1
  B  B30  1  0.500000  0.482275  0.287814  1
  B  B31  1  0.500000  0.517493  0.712295  1
  B  B32  1  0.500000  0.599504  0.027833  1
  B  B33  1  0.500000  0.399914  0.971989  1
  B  B34  1  0.500000  0.099512  0.472174  1
  B  B35  1  0.500000  0.900559  0.527871  1
