# generated using pymatgen
data_Ho2Er6Re3B24Os
_symmetry_space_group_name_H-M   'P 1'
_cell_length_a   3.65405400
_cell_length_b   9.12761172
_cell_length_c   11.50463601
_cell_angle_alpha   90.07244371
_cell_angle_beta   90.00000000
_cell_angle_gamma   90.00000000
_symmetry_Int_Tables_number   1
_chemical_formula_structural   Ho2Er6Re3B24Os
_chemical_formula_sum   'Ho2 Er6 Re3 B24 Os1'
_cell_volume   383.71135753
_cell_formula_units_Z   1
loop_
 _symmetry_equiv_pos_site_id
 _symmetry_equiv_pos_as_xyz
  1  'x, y, z'
loop_
 _atom_site_type_symbol
 _atom_site_label
 _atom_site_symmetry_multiplicity
 _atom_site_fract_x
 _atom_site_fract_y
 _atom_site_fract_z
 _atom_site_occupancy
  Ho  Ho0  1  0.000000  0.321970  0.414159  1
  Ho  Ho1  1  0.000000  0.677456  0.587536  1
  Er  Er2  1  0.000000  0.824369  0.084450  1
  Er  Er3  1  0.000000  0.176546  0.913558  1
  Er  Er4  1  0.000000  0.942856  0.370080  1
  Er  Er5  1  0.000000  0.056336  0.629365  1
  Er  Er6  1  0.000000  0.442936  0.129631  1
  Er  Er7  1  0.000000  0.556753  0.870983  1
  Re  Re8  1  0.000000  0.361900  0.678311  1
  Re  Re9  1  0.000000  0.138420  0.179539  1
  Re  Re10  1  0.000000  0.861596  0.820986  1
  B  B11  1  0.500000  0.553877  0.432931  1
  B  B12  1  0.500000  0.446969  0.566644  1
  B  B13  1  0.500000  0.053068  0.066603  1
  B  B14  1  0.500000  0.946945  0.933292  1
  B  B15  1  0.500000  0.749127  0.418704  1
  B  B16  1  0.500000  0.250119  0.580965  1
  B  B17  1  0.500000  0.249624  0.080854  1
  B  B18  1  0.500000  0.750735  0.919221  1
  B  B19  1  0.500000  0.791541  0.265407  1
  B  B20  1  0.500000  0.207512  0.734507  1
  B  B21  1  0.500000  0.292334  0.234837  1
  B  B22  1  0.500000  0.707476  0.765749  1
  B  B23  1  0.500000  0.631403  0.185514  1
  B  B24  1  0.500000  0.369234  0.814434  1
  B  B25  1  0.500000  0.131115  0.315056  1
  B  B26  1  0.500000  0.868859  0.685398  1
  B  B27  1  0.500000  0.982069  0.211978  1
  B  B28  1  0.500000  0.018007  0.787785  1
  B  B29  1  0.500000  0.483121  0.287968  1
  B  B30  1  0.500000  0.518256  0.712147  1
  B  B31  1  0.500000  0.601584  0.028745  1
  B  B32  1  0.500000  0.398661  0.971985  1
  B  B33  1  0.500000  0.100545  0.471662  1
  B  B34  1  0.500000  0.898192  0.528035  1
  Os  Os35  1  0.000000  0.638495  0.320980  1
