# generated using pymatgen
data_Li2Tb3TiIr3
_symmetry_space_group_name_H-M   'P 1'
_cell_length_a   7.21710368
_cell_length_b   7.13550247
_cell_length_c   4.00272300
_cell_angle_alpha   90.00000000
_cell_angle_beta   90.00000000
_cell_angle_gamma   119.62667484
_symmetry_Int_Tables_number   1
_chemical_formula_structural   Li2Tb3TiIr3
_chemical_formula_sum   'Li2 Tb3 Ti1 Ir3'
_cell_volume   179.18232725
_cell_formula_units_Z   1
loop_
 _symmetry_equiv_pos_site_id
 _symmetry_equiv_pos_as_xyz
  1  'x, y, z'
loop_
 _atom_site_type_symbol
 _atom_site_label
 _atom_site_symmetry_multiplicity
 _atom_site_fract_x
 _atom_site_fract_y
 _atom_site_fract_z
 _atom_site_occupancy
  Li  Li0  1  0.756522  0.761292  0.500000  1
  Li  Li1  1  0.243478  0.004770  0.500000  1
  Tb  Tb2  1  0.423009  0.413283  0.000000  1
  Tb  Tb3  1  0.576991  0.990273  0.000000  1
  Tb  Tb4  1  0.000000  0.603473  0.000000  1
  Ti  Ti5  1  0.000000  0.242439  0.500000  1
  Ir  Ir6  1  0.000000  0.030646  0.000000  1
  Ir  Ir7  1  0.309642  0.631733  0.500000  1
  Ir  Ir8  1  0.690358  0.322091  0.500000  1
