# generated using pymatgen
data_Er3(TmIr)2
_symmetry_space_group_name_H-M   'P 1'
_cell_length_a   6.44281098
_cell_length_b   7.16791832
_cell_length_c   8.39287765
_cell_angle_alpha   96.41973858
_cell_angle_beta   112.57088789
_cell_angle_gamma   89.99999797
_symmetry_Int_Tables_number   1
_chemical_formula_structural   Er3(TmIr)2
_chemical_formula_sum   'Er6 Tm4 Ir4'
_cell_volume   355.27478707
_cell_formula_units_Z   2
loop_
 _symmetry_equiv_pos_site_id
 _symmetry_equiv_pos_as_xyz
  1  'x, y, z'
loop_
 _atom_site_type_symbol
 _atom_site_label
 _atom_site_symmetry_multiplicity
 _atom_site_fract_x
 _atom_site_fract_y
 _atom_site_fract_z
 _atom_site_occupancy
  Er  Er0  1  0.969923  0.919090  0.181888  1
  Er  Er1  1  0.788033  0.580910  0.818112  1
  Er  Er2  1  0.030160  0.081265  0.818091  1
  Er  Er3  1  0.212070  0.418735  0.181909  1
  Er  Er4  1  0.654094  0.818184  0.442382  1
  Er  Er5  1  0.211713  0.681816  0.557618  1
  Tm  Tm6  1  0.345971  0.181905  0.557799  1
  Tm  Tm7  1  0.788172  0.318095  0.442201  1
  Tm  Tm8  1  0.427515  0.750000  0.000000  1
  Tm  Tm9  1  0.572519  0.250000  0.000000  1
  Ir  Ir10  1  0.825604  0.572795  0.217948  1
  Ir  Ir11  1  0.607656  0.927205  0.782052  1
  Ir  Ir12  1  0.174071  0.426513  0.781569  1
  Ir  Ir13  1  0.392501  0.073487  0.218431  1
