# generated using pymatgen
data_HoLu2Sc2(In2Co)2
_symmetry_space_group_name_H-M   'P 1'
_cell_length_a   3.46873800
_cell_length_b   7.73580700
_cell_length_c   17.58379400
_cell_angle_alpha   90.00000000
_cell_angle_beta   90.00000000
_cell_angle_gamma   90.00000000
_symmetry_Int_Tables_number   1
_chemical_formula_structural   HoLu2Sc2(In2Co)2
_chemical_formula_sum   'Ho2 Lu4 Sc4 In8 Co4'
_cell_volume   471.83452005
_cell_formula_units_Z   2
loop_
 _symmetry_equiv_pos_site_id
 _symmetry_equiv_pos_as_xyz
  1  'x, y, z'
loop_
 _atom_site_type_symbol
 _atom_site_label
 _atom_site_symmetry_multiplicity
 _atom_site_fract_x
 _atom_site_fract_y
 _atom_site_fract_z
 _atom_site_occupancy
  Ho  Ho0  1  0.000000  0.000000  0.000000  1
  Ho  Ho1  1  0.000000  0.500000  0.500000  1
  Lu  Lu2  1  0.000000  0.747741  0.781911  1
  Lu  Lu3  1  0.000000  0.252259  0.218089  1
  Lu  Lu4  1  0.000000  0.247741  0.718089  1
  Lu  Lu5  1  0.000000  0.752259  0.281911  1
  Sc  Sc6  1  0.000000  0.878226  0.592959  1
  Sc  Sc7  1  0.000000  0.121774  0.407041  1
  Sc  Sc8  1  0.000000  0.378226  0.907041  1
  Sc  Sc9  1  0.000000  0.621774  0.092959  1
  In  In10  1  0.500000  0.811987  0.436795  1
  In  In11  1  0.500000  0.188013  0.563205  1
  In  In12  1  0.500000  0.311987  0.063205  1
  In  In13  1  0.500000  0.688013  0.936795  1
  In  In14  1  0.500000  0.925282  0.152964  1
  In  In15  1  0.500000  0.074718  0.847036  1
  In  In16  1  0.500000  0.425282  0.347036  1
  In  In17  1  0.500000  0.574718  0.652964  1
  Co  Co18  1  0.500000  0.964071  0.693741  1
  Co  Co19  1  0.500000  0.035929  0.306259  1
  Co  Co20  1  0.500000  0.464071  0.806259  1
  Co  Co21  1  0.500000  0.535929  0.193741  1
