# generated using pymatgen
data_Sc2Cr3Ni9As7
_symmetry_space_group_name_H-M   'P 1'
_cell_length_a   9.46161900
_cell_length_b   9.46161926
_cell_length_c   3.71565100
_cell_angle_alpha   90.00000000
_cell_angle_beta   90.00000000
_cell_angle_gamma   119.99999561
_symmetry_Int_Tables_number   1
_chemical_formula_structural   Sc2Cr3Ni9As7
_chemical_formula_sum   'Sc2 Cr3 Ni9 As7'
_cell_volume   288.06897664
_cell_formula_units_Z   1
loop_
 _symmetry_equiv_pos_site_id
 _symmetry_equiv_pos_as_xyz
  1  'x, y, z'
loop_
 _atom_site_type_symbol
 _atom_site_label
 _atom_site_symmetry_multiplicity
 _atom_site_fract_x
 _atom_site_fract_y
 _atom_site_fract_z
 _atom_site_occupancy
  Sc  Sc0  1  0.333333  0.666667  0.000000  1
  Sc  Sc1  1  0.666667  0.333333  0.500000  1
  Cr  Cr2  1  0.225371  0.124358  0.500000  1
  Cr  Cr3  1  0.875642  0.101013  0.500000  1
  Cr  Cr4  1  0.898987  0.774629  0.500000  1
  Ni  Ni5  1  0.122160  0.281053  0.000000  1
  Ni  Ni6  1  0.718947  0.841108  0.000000  1
  Ni  Ni7  1  0.158892  0.877840  0.000000  1
  Ni  Ni8  1  0.431310  0.372450  0.000000  1
  Ni  Ni9  1  0.627550  0.058861  0.000000  1
  Ni  Ni10  1  0.941139  0.568690  0.000000  1
  Ni  Ni11  1  0.051869  0.435963  0.500000  1
  Ni  Ni12  1  0.564037  0.615906  0.500000  1
  Ni  Ni13  1  0.384094  0.948131  0.500000  1
  As  As14  1  0.291617  0.415650  0.500000  1
  As  As15  1  0.584350  0.875967  0.500000  1
  As  As16  1  0.124033  0.708383  0.500000  1
  As  As17  1  0.417322  0.121329  0.000000  1
  As  As18  1  0.878671  0.295993  0.000000  1
  As  As19  1  0.704007  0.582678  0.000000  1
  As  As20  1  0.000000  0.000000  0.000000  1
