# generated using pymatgen
data_Rb4Ti2Cu3Te8Au
_symmetry_space_group_name_H-M   'P 1'
_cell_length_a   6.25681500
_cell_length_b   6.21727700
_cell_length_c   14.99941500
_cell_angle_alpha   90.00000000
_cell_angle_beta   90.00000000
_cell_angle_gamma   90.00000000
_symmetry_Int_Tables_number   1
_chemical_formula_structural   Rb4Ti2Cu3Te8Au
_chemical_formula_sum   'Rb4 Ti2 Cu3 Te8 Au1'
_cell_volume   583.48252319
_cell_formula_units_Z   1
loop_
 _symmetry_equiv_pos_site_id
 _symmetry_equiv_pos_as_xyz
  1  'x, y, z'
loop_
 _atom_site_type_symbol
 _atom_site_label
 _atom_site_symmetry_multiplicity
 _atom_site_fract_x
 _atom_site_fract_y
 _atom_site_fract_z
 _atom_site_occupancy
  Rb  Rb0  1  0.752691  0.747620  0.001348  1
  Rb  Rb1  1  0.247309  0.747620  0.498652  1
  Rb  Rb2  1  0.752691  0.252380  0.498652  1
  Rb  Rb3  1  0.247309  0.252380  0.001348  1
  Ti  Ti4  1  0.500000  0.500000  0.250000  1
  Ti  Ti5  1  0.500000  0.500000  0.750000  1
  Cu  Cu6  1  0.500000  0.000000  0.750000  1
  Cu  Cu7  1  0.500000  0.000000  0.250000  1
  Cu  Cu8  1  0.000000  0.500000  0.250000  1
  Te  Te9  1  0.747590  0.252143  0.151472  1
  Te  Te10  1  0.747590  0.747857  0.348528  1
  Te  Te11  1  0.268447  0.244935  0.645935  1
  Te  Te12  1  0.731553  0.755065  0.645935  1
  Te  Te13  1  0.252410  0.252143  0.348528  1
  Te  Te14  1  0.731553  0.244935  0.854065  1
  Te  Te15  1  0.268447  0.755065  0.854065  1
  Te  Te16  1  0.252410  0.747857  0.151472  1
  Au  Au17  1  0.000000  0.500000  0.750000  1
