# generated using pymatgen
data_Tb8Nb12Si15Ge
_symmetry_space_group_name_H-M   'P 1'
_cell_length_a   6.90818175
_cell_length_b   7.10132970
_cell_length_c   13.47144836
_cell_angle_alpha   90.04684068
_cell_angle_beta   89.92060080
_cell_angle_gamma   90.01957403
_symmetry_Int_Tables_number   1
_chemical_formula_structural   Tb8Nb12Si15Ge
_chemical_formula_sum   'Tb8 Nb12 Si15 Ge1'
_cell_volume   660.87167020
_cell_formula_units_Z   1
loop_
 _symmetry_equiv_pos_site_id
 _symmetry_equiv_pos_as_xyz
  1  'x, y, z'
loop_
 _atom_site_type_symbol
 _atom_site_label
 _atom_site_symmetry_multiplicity
 _atom_site_fract_x
 _atom_site_fract_y
 _atom_site_fract_z
 _atom_site_occupancy
  Tb  Tb0  1  0.503202  0.329124  0.095845  1
  Tb  Tb1  1  0.002057  0.170583  0.403882  1
  Tb  Tb2  1  0.499857  0.672771  0.596491  1
  Tb  Tb3  1  0.996821  0.828952  0.904561  1
  Tb  Tb4  1  0.496727  0.670841  0.904447  1
  Tb  Tb5  1  0.996728  0.829673  0.595961  1
  Tb  Tb6  1  0.503612  0.327761  0.403332  1
  Tb  Tb7  1  0.003132  0.171217  0.095616  1
  Nb  Nb8  1  0.664759  0.008919  0.750141  1
  Nb  Nb9  1  0.164620  0.490372  0.751870  1
  Nb  Nb10  1  0.334900  0.991130  0.249803  1
  Nb  Nb11  1  0.835296  0.509141  0.249855  1
  Nb  Nb12  1  0.836571  0.324297  0.625922  1
  Nb  Nb13  1  0.338396  0.175055  0.874681  1
  Nb  Nb14  1  0.161461  0.675319  0.125409  1
  Nb  Nb15  1  0.661012  0.825226  0.374057  1
  Nb  Nb16  1  0.159991  0.677688  0.372913  1
  Nb  Nb17  1  0.660821  0.824537  0.125362  1
  Nb  Nb18  1  0.838403  0.324681  0.874655  1
  Nb  Nb19  1  0.341054  0.171594  0.626798  1
  Si  Si20  1  0.797530  0.624104  0.750159  1
  Si  Si21  1  0.296415  0.874690  0.750583  1
  Si  Si22  1  0.202930  0.375859  0.249742  1
  Si  Si23  1  0.703038  0.124168  0.249603  1
  Si  Si24  1  0.543111  0.375366  0.750362  1
  Si  Si25  1  0.043203  0.125055  0.750042  1
  Si  Si26  1  0.456420  0.624753  0.249918  1
  Si  Si27  1  0.955796  0.875725  0.249046  1
  Si  Si28  1  0.662868  0.038223  0.540277  1
  Si  Si29  1  0.162180  0.462142  0.959426  1
  Si  Si30  1  0.337433  0.962349  0.040701  1
  Si  Si31  1  0.833583  0.538707  0.458420  1
  Si  Si32  1  0.337112  0.961697  0.459394  1
  Si  Si33  1  0.837840  0.537929  0.040903  1
  Si  Si34  1  0.662397  0.037825  0.959380  1
  Ge  Ge35  1  0.168727  0.462528  0.540443  1
