# generated using pymatgen
data_Er2Tm4Fe3(Co5P4)3
_symmetry_space_group_name_H-M   'P 1'
_cell_length_a   3.67874800
_cell_length_b   10.49436000
_cell_length_c   12.08204200
_cell_angle_alpha   90.00000000
_cell_angle_beta   90.00000000
_cell_angle_gamma   90.00000000
_symmetry_Int_Tables_number   1
_chemical_formula_structural   Er2Tm4Fe3(Co5P4)3
_chemical_formula_sum   'Er2 Tm4 Fe3 Co15 P12'
_cell_volume   466.44059247
_cell_formula_units_Z   1
loop_
 _symmetry_equiv_pos_site_id
 _symmetry_equiv_pos_as_xyz
  1  'x, y, z'
loop_
 _atom_site_type_symbol
 _atom_site_label
 _atom_site_symmetry_multiplicity
 _atom_site_fract_x
 _atom_site_fract_y
 _atom_site_fract_z
 _atom_site_occupancy
  Er  Er0  1  0.000000  0.500000  0.522706  1
  Er  Er1  1  0.500000  0.000000  0.476993  1
  Tm  Tm2  1  0.500000  0.818129  0.204821  1
  Tm  Tm3  1  0.500000  0.181871  0.204821  1
  Tm  Tm4  1  0.000000  0.680531  0.795929  1
  Tm  Tm5  1  0.000000  0.319469  0.795929  1
  Fe  Fe6  1  0.500000  0.500000  0.156350  1
  Fe  Fe7  1  0.000000  0.000000  0.841900  1
  Fe  Fe8  1  0.000000  0.500000  0.987980  1
  Co  Co9  1  0.500000  0.500000  0.701679  1
  Co  Co10  1  0.000000  0.000000  0.298369  1
  Co  Co11  1  0.500000  0.000000  0.013854  1
  Co  Co12  1  0.500000  0.330968  0.993936  1
  Co  Co13  1  0.500000  0.669032  0.993936  1
  Co  Co14  1  0.000000  0.166315  0.006140  1
  Co  Co15  1  0.000000  0.833685  0.006140  1
  Co  Co16  1  0.500000  0.297111  0.430601  1
  Co  Co17  1  0.500000  0.702889  0.430601  1
  Co  Co18  1  0.000000  0.203423  0.569548  1
  Co  Co19  1  0.000000  0.796577  0.569548  1
  Co  Co20  1  0.500000  0.878427  0.708752  1
  Co  Co21  1  0.500000  0.121573  0.708752  1
  Co  Co22  1  0.000000  0.621667  0.290623  1
  Co  Co23  1  0.000000  0.378333  0.290623  1
  P  P24  1  0.500000  0.500000  0.883647  1
  P  P25  1  0.000000  0.000000  0.118515  1
  P  P26  1  0.500000  0.500000  0.342744  1
  P  P27  1  0.000000  0.000000  0.656148  1
  P  P28  1  0.500000  0.311269  0.617079  1
  P  P29  1  0.500000  0.688731  0.617079  1
  P  P30  1  0.000000  0.189118  0.383016  1
  P  P31  1  0.000000  0.810882  0.383016  1
  P  P32  1  0.500000  0.847261  0.891882  1
  P  P33  1  0.500000  0.152739  0.891882  1
  P  P34  1  0.000000  0.653226  0.107231  1
  P  P35  1  0.000000  0.346774  0.107231  1
