# generated using pymatgen
data_ErLu2Zn2In3Rh
_symmetry_space_group_name_H-M   'P 1'
_cell_length_a   7.73501936
_cell_length_b   7.73592182
_cell_length_c   3.73560700
_cell_angle_alpha   90.00000000
_cell_angle_beta   90.00000000
_cell_angle_gamma   119.81867780
_symmetry_Int_Tables_number   1
_chemical_formula_structural   ErLu2Zn2In3Rh
_chemical_formula_sum   'Er1 Lu2 Zn2 In3 Rh1'
_cell_volume   193.93486945
_cell_formula_units_Z   1
loop_
 _symmetry_equiv_pos_site_id
 _symmetry_equiv_pos_as_xyz
  1  'x, y, z'
loop_
 _atom_site_type_symbol
 _atom_site_label
 _atom_site_symmetry_multiplicity
 _atom_site_fract_x
 _atom_site_fract_y
 _atom_site_fract_z
 _atom_site_occupancy
  Er  Er0  1  0.587442  0.972341  0.500000  1
  Lu  Lu1  1  0.030805  0.616417  0.500000  1
  Lu  Lu2  1  0.382949  0.413605  0.500000  1
  Zn  Zn3  1  0.666965  0.334767  0.000000  1
  Zn  Zn4  1  0.999932  0.999438  0.500000  1
  In  In5  1  0.272510  0.010340  0.000000  1
  In  In6  1  0.737448  0.726258  0.000000  1
  In  In7  1  0.990527  0.263069  0.000000  1
  Rh  Rh8  1  0.331420  0.663767  0.000000  1
