# generated using pymatgen
data_Pr16MgAg3Ir3Pt
_symmetry_space_group_name_H-M   'P 1'
_cell_length_a   9.94009796
_cell_length_b   9.99223443
_cell_length_c   9.99223359
_cell_angle_alpha   60.57719870
_cell_angle_beta   60.44352904
_cell_angle_gamma   60.44352443
_symmetry_Int_Tables_number   1
_chemical_formula_structural   Pr16MgAg3Ir3Pt
_chemical_formula_sum   'Pr16 Mg1 Ag3 Ir3 Pt1'
_cell_volume   709.51894083
_cell_formula_units_Z   1
loop_
 _symmetry_equiv_pos_site_id
 _symmetry_equiv_pos_as_xyz
  1  'x, y, z'
loop_
 _atom_site_type_symbol
 _atom_site_label
 _atom_site_symmetry_multiplicity
 _atom_site_fract_x
 _atom_site_fract_y
 _atom_site_fract_z
 _atom_site_occupancy
  Pr  Pr0  1  0.347359  0.346649  0.346649  1
  Pr  Pr1  1  0.350589  0.350835  0.951458  1
  Pr  Pr2  1  0.350589  0.951458  0.350835  1
  Pr  Pr3  1  0.938961  0.354911  0.354911  1
  Pr  Pr4  1  0.803629  0.192133  0.192133  1
  Pr  Pr5  1  0.188239  0.811150  0.811150  1
  Pr  Pr6  1  0.189412  0.806811  0.189291  1
  Pr  Pr7  1  0.806751  0.192160  0.807740  1
  Pr  Pr8  1  0.189412  0.189291  0.806811  1
  Pr  Pr9  1  0.806751  0.807740  0.192160  1
  Pr  Pr10  1  0.937175  0.563222  0.563222  1
  Pr  Pr11  1  0.563116  0.938403  0.938403  1
  Pr  Pr12  1  0.561841  0.939179  0.563594  1
  Pr  Pr13  1  0.937824  0.564402  0.936937  1
  Pr  Pr14  1  0.561841  0.563594  0.939179  1
  Pr  Pr15  1  0.937824  0.936937  0.564402  1
  Mg  Mg16  1  0.294668  0.568676  0.568676  1
  Ag  Ag17  1  0.580901  0.584931  0.584931  1
  Ag  Ag18  1  0.580029  0.585010  0.251486  1
  Ag  Ag19  1  0.580029  0.251486  0.585010  1
  Ir  Ir20  1  0.139541  0.142808  0.573642  1
  Ir  Ir21  1  0.139541  0.573642  0.142808  1
  Ir  Ir22  1  0.573795  0.141121  0.141121  1
  Pt  Pt23  1  0.140182  0.143454  0.143454  1
