# generated using pymatgen
data_Cr(CoMo)6
_symmetry_space_group_name_H-M   'P 1'
_cell_length_a   8.96968349
_cell_length_b   8.96968363
_cell_length_c   8.96968487
_cell_angle_alpha   30.74201580
_cell_angle_beta   30.74201560
_cell_angle_gamma   30.74202008
_symmetry_Int_Tables_number   1
_chemical_formula_structural   Cr(CoMo)6
_chemical_formula_sum   'Cr1 Co6 Mo6'
_cell_volume   167.21602531
_cell_formula_units_Z   1
loop_
 _symmetry_equiv_pos_site_id
 _symmetry_equiv_pos_as_xyz
  1  'x, y, z'
loop_
 _atom_site_type_symbol
 _atom_site_label
 _atom_site_symmetry_multiplicity
 _atom_site_fract_x
 _atom_site_fract_y
 _atom_site_fract_z
 _atom_site_occupancy
  Cr  Cr0  1  0.000000  0.000000  0.000000  1
  Co  Co1  1  0.091433  0.091433  0.587658  1
  Co  Co2  1  0.412342  0.908567  0.908567  1
  Co  Co3  1  0.587658  0.091433  0.091433  1
  Co  Co4  1  0.908567  0.908567  0.412342  1
  Co  Co5  1  0.908567  0.412342  0.908567  1
  Co  Co6  1  0.091433  0.587658  0.091433  1
  Mo  Mo7  1  0.835148  0.835148  0.835148  1
  Mo  Mo8  1  0.653299  0.653299  0.653299  1
  Mo  Mo9  1  0.450362  0.450362  0.450362  1
  Mo  Mo10  1  0.549638  0.549638  0.549638  1
  Mo  Mo11  1  0.164852  0.164852  0.164852  1
  Mo  Mo12  1  0.346701  0.346701  0.346701  1
