# generated using pymatgen
data_TiNb3SiB2Mo
_symmetry_space_group_name_H-M   'P 1'
_cell_length_a   7.26052436
_cell_length_b   7.28235568
_cell_length_c   7.28235475
_cell_angle_alpha   129.88063647
_cell_angle_beta   129.80799536
_cell_angle_gamma   73.72020096
_symmetry_Int_Tables_number   1
_chemical_formula_structural   TiNb3SiB2Mo
_chemical_formula_sum   'Ti2 Nb6 Si2 B4 Mo2'
_cell_volume   221.38034420
_cell_formula_units_Z   2
loop_
 _symmetry_equiv_pos_site_id
 _symmetry_equiv_pos_as_xyz
  1  'x, y, z'
loop_
 _atom_site_type_symbol
 _atom_site_label
 _atom_site_symmetry_multiplicity
 _atom_site_fract_x
 _atom_site_fract_y
 _atom_site_fract_z
 _atom_site_occupancy
  Ti  Ti0  1  0.805558  0.963789  0.499291  1
  Ti  Ti1  1  0.305558  0.806267  0.841769  1
  Nb  Nb2  1  0.192161  0.033821  0.498996  1
  Nb  Nb3  1  0.533657  0.691963  0.498828  1
  Nb  Nb4  1  0.033657  0.534829  0.841695  1
  Nb  Nb5  1  0.692161  0.193165  0.158338  1
  Nb  Nb6  1  0.968172  0.468776  0.162116  1
  Nb  Nb7  1  0.468172  0.306054  0.499395  1
  Si  Si8  1  0.745103  0.751585  0.002228  1
  Si  Si9  1  0.245103  0.242876  0.993518  1
  B  B10  1  0.387834  0.885369  0.269906  1
  B  B11  1  0.887834  0.617929  0.502465  1
  B  B12  1  0.616954  0.114441  0.729439  1
  B  B13  1  0.116954  0.387515  0.502514  1
  Mo  Mo14  1  0.000562  0.999498  0.998440  1
  Mo  Mo15  1  0.500562  0.502122  0.001063  1
