# generated using pymatgen
data_NaPr2Nd4CoBr12
_symmetry_space_group_name_H-M   'P 1'
_cell_length_a   9.53098251
_cell_length_b   9.50721830
_cell_length_c   9.66027870
_cell_angle_alpha   106.88718769
_cell_angle_beta   107.55564267
_cell_angle_gamma   106.67707660
_symmetry_Int_Tables_number   1
_chemical_formula_structural   NaPr2Nd4CoBr12
_chemical_formula_sum   'Na1 Pr2 Nd4 Co1 Br12'
_cell_volume   728.16581256
_cell_formula_units_Z   1
loop_
 _symmetry_equiv_pos_site_id
 _symmetry_equiv_pos_as_xyz
  1  'x, y, z'
loop_
 _atom_site_type_symbol
 _atom_site_label
 _atom_site_symmetry_multiplicity
 _atom_site_fract_x
 _atom_site_fract_y
 _atom_site_fract_z
 _atom_site_occupancy
  Na  Na0  1  0.500132  0.499871  0.499780  1
  Pr  Pr1  1  0.688278  0.971313  0.892366  1
  Pr  Pr2  1  0.894941  0.691213  0.973582  1
  Nd  Nd3  1  0.105581  0.306909  0.026828  1
  Nd  Nd4  1  0.309291  0.027903  0.106987  1
  Nd  Nd5  1  0.029058  0.113741  0.322981  1
  Nd  Nd6  1  0.970533  0.887515  0.677487  1
  Co  Co7  1  0.999689  0.000028  0.000358  1
  Br  Br8  1  0.221572  0.684611  0.074916  1
  Br  Br9  1  0.449962  0.369685  0.154452  1
  Br  Br10  1  0.683330  0.072652  0.217598  1
  Br  Br11  1  0.929972  0.784193  0.317605  1
  Br  Br12  1  0.154700  0.450985  0.366272  1
  Br  Br13  1  0.367902  0.150779  0.447555  1
  Br  Br14  1  0.631842  0.848232  0.549659  1
  Br  Br15  1  0.845554  0.549415  0.631106  1
  Br  Br16  1  0.071654  0.218408  0.685780  1
  Br  Br17  1  0.315351  0.928154  0.784438  1
  Br  Br18  1  0.547358  0.626765  0.843416  1
  Br  Br19  1  0.783302  0.317628  0.926838  1
