# generated using pymatgen
data_Sc8V8Re3Si16Ir
_symmetry_space_group_name_H-M   'P 1'
_cell_length_a   6.62730307
_cell_length_b   6.62730297
_cell_length_c   12.24745420
_cell_angle_alpha   90.14322458
_cell_angle_beta   89.85677652
_cell_angle_gamma   89.77130437
_symmetry_Int_Tables_number   1
_chemical_formula_structural   Sc8V8Re3Si16Ir
_chemical_formula_sum   'Sc8 V8 Re3 Si16 Ir1'
_cell_volume   537.91455588
_cell_formula_units_Z   1
loop_
 _symmetry_equiv_pos_site_id
 _symmetry_equiv_pos_as_xyz
  1  'x, y, z'
loop_
 _atom_site_type_symbol
 _atom_site_label
 _atom_site_symmetry_multiplicity
 _atom_site_fract_x
 _atom_site_fract_y
 _atom_site_fract_z
 _atom_site_occupancy
  Sc  Sc0  1  0.001132  0.664579  0.029147  1
  Sc  Sc1  1  0.836104  0.500142  0.278554  1
  Sc  Sc2  1  0.163184  0.500994  0.778918  1
  Sc  Sc3  1  0.500142  0.836104  0.721446  1
  Sc  Sc4  1  0.500994  0.163184  0.221082  1
  Sc  Sc5  1  0.999543  0.335744  0.529286  1
  Sc  Sc6  1  0.664579  0.001132  0.970853  1
  Sc  Sc7  1  0.335744  0.999543  0.470714  1
  V  V8  1  0.994835  0.158950  0.126626  1
  V  V9  1  0.341814  0.500198  0.374847  1
  V  V10  1  0.664763  0.500936  0.874774  1
  V  V11  1  0.500198  0.341814  0.625153  1
  V  V12  1  0.500936  0.664763  0.125226  1
  V  V13  1  0.999773  0.842194  0.626075  1
  V  V14  1  0.158950  0.994835  0.873374  1
  V  V15  1  0.842194  0.999773  0.373925  1
  Re  Re16  1  0.166231  0.831216  0.250072  1
  Re  Re17  1  0.831216  0.166231  0.749928  1
  Re  Re18  1  0.667133  0.667133  0.500000  1
  Si  Si19  1  0.289563  0.960512  0.063859  1
  Si  Si20  1  0.538975  0.793937  0.315345  1
  Si  Si21  1  0.459314  0.207309  0.816407  1
  Si  Si22  1  0.793937  0.538975  0.684655  1
  Si  Si23  1  0.207309  0.459314  0.183593  1
  Si  Si24  1  0.705837  0.039170  0.565004  1
  Si  Si25  1  0.960512  0.289563  0.936141  1
  Si  Si26  1  0.039170  0.705837  0.434996  1
  Si  Si27  1  0.703521  0.376254  0.068936  1
  Si  Si28  1  0.128656  0.204938  0.319039  1
  Si  Si29  1  0.871954  0.796093  0.819958  1
  Si  Si30  1  0.204938  0.128656  0.680961  1
  Si  Si31  1  0.796093  0.871954  0.180042  1
  Si  Si32  1  0.295071  0.628319  0.569897  1
  Si  Si33  1  0.376254  0.703521  0.931064  1
  Si  Si34  1  0.628319  0.295071  0.430103  1
  Ir  Ir35  1  0.331112  0.331112  0.000000  1
