# generated using pymatgen
data_NdDyCu2(TeO6)2
_symmetry_space_group_name_H-M   'P 1'
_cell_length_a   5.17071107
_cell_length_b   5.17105141
_cell_length_c   10.07540821
_cell_angle_alpha   90.00537002
_cell_angle_beta   89.99531764
_cell_angle_gamma   120.00260750
_symmetry_Int_Tables_number   1
_chemical_formula_structural   NdDyCu2(TeO6)2
_chemical_formula_sum   'Nd1 Dy1 Cu2 Te2 O12'
_cell_volume   233.29798881
_cell_formula_units_Z   1
loop_
 _symmetry_equiv_pos_site_id
 _symmetry_equiv_pos_as_xyz
  1  'x, y, z'
loop_
 _atom_site_type_symbol
 _atom_site_label
 _atom_site_symmetry_multiplicity
 _atom_site_fract_x
 _atom_site_fract_y
 _atom_site_fract_z
 _atom_site_occupancy
  Nd  Nd0  1  0.000004  0.999994  0.499985  1
  Dy  Dy1  1  0.999993  0.999986  0.000008  1
  Cu  Cu2  1  0.333287  0.666662  0.245156  1
  Cu  Cu3  1  0.666715  0.333334  0.754853  1
  Te  Te4  1  0.666611  0.333321  0.244813  1
  Te  Te5  1  0.333388  0.666679  0.755184  1
  O  O6  1  0.647958  0.636749  0.137379  1
  O  O7  1  0.988729  0.351918  0.137398  1
  O  O8  1  0.363122  0.011150  0.137408  1
  O  O9  1  0.376714  0.367705  0.355617  1
  O  O10  1  0.990847  0.623289  0.355601  1
  O  O11  1  0.632295  0.009153  0.355638  1
  O  O12  1  0.367737  0.990859  0.644358  1
  O  O13  1  0.009171  0.376752  0.644378  1
  O  O14  1  0.623316  0.632322  0.644394  1
  O  O15  1  0.636841  0.988829  0.862611  1
  O  O16  1  0.011268  0.648075  0.862600  1
  O  O17  1  0.352000  0.363222  0.862616  1
