# generated using pymatgen
data_Dy2Sc2B12IrW
_symmetry_space_group_name_H-M   'P 1'
_cell_length_a   3.54859300
_cell_length_b   9.04913482
_cell_length_c   11.47699334
_cell_angle_alpha   90.16839860
_cell_angle_beta   90.00000000
_cell_angle_gamma   90.00000000
_symmetry_Int_Tables_number   1
_chemical_formula_structural   Dy2Sc2B12IrW
_chemical_formula_sum   'Dy4 Sc4 B24 Ir2 W2'
_cell_volume   368.54413452
_cell_formula_units_Z   2
loop_
 _symmetry_equiv_pos_site_id
 _symmetry_equiv_pos_as_xyz
  1  'x, y, z'
loop_
 _atom_site_type_symbol
 _atom_site_label
 _atom_site_symmetry_multiplicity
 _atom_site_fract_x
 _atom_site_fract_y
 _atom_site_fract_z
 _atom_site_occupancy
  Dy  Dy0  1  0.500000  0.318039  0.413055  1
  Dy  Dy1  1  0.500000  0.681961  0.586945  1
  Dy  Dy2  1  0.500000  0.178120  0.915577  1
  Dy  Dy3  1  0.500000  0.821880  0.084423  1
  Sc  Sc4  1  0.500000  0.444178  0.125247  1
  Sc  Sc5  1  0.500000  0.555822  0.874753  1
  Sc  Sc6  1  0.500000  0.052579  0.625879  1
  Sc  Sc7  1  0.500000  0.947421  0.374121  1
  B  B8  1  0.000000  0.099868  0.474380  1
  B  B9  1  0.000000  0.900132  0.525620  1
  B  B10  1  0.000000  0.401696  0.972461  1
  B  B11  1  0.000000  0.598304  0.027539  1
  B  B12  1  0.000000  0.129744  0.320213  1
  B  B13  1  0.000000  0.870256  0.679787  1
  B  B14  1  0.000000  0.370892  0.817622  1
  B  B15  1  0.000000  0.629108  0.182378  1
  B  B16  1  0.000000  0.052400  0.065804  1
  B  B17  1  0.000000  0.947600  0.934196  1
  B  B18  1  0.000000  0.445050  0.566812  1
  B  B19  1  0.000000  0.554950  0.433188  1
  B  B20  1  0.000000  0.482618  0.286328  1
  B  B21  1  0.000000  0.517382  0.713672  1
  B  B22  1  0.000000  0.022201  0.783905  1
  B  B23  1  0.000000  0.977799  0.216095  1
  B  B24  1  0.000000  0.256042  0.078890  1
  B  B25  1  0.000000  0.743958  0.921110  1
  B  B26  1  0.000000  0.245627  0.580671  1
  B  B27  1  0.000000  0.754373  0.419329  1
  B  B28  1  0.000000  0.299342  0.236262  1
  B  B29  1  0.000000  0.700658  0.763738  1
  B  B30  1  0.000000  0.206798  0.734353  1
  B  B31  1  0.000000  0.793202  0.265647  1
  Ir  Ir32  1  0.500000  0.359716  0.680504  1
  Ir  Ir33  1  0.500000  0.640284  0.319496  1
  W  W34  1  0.500000  0.141265  0.182939  1
  W  W35  1  0.500000  0.858735  0.817061  1
