# generated using pymatgen
data_Hf6Si6OsRu5
_symmetry_space_group_name_H-M   'P 1'
_cell_length_a   7.61056385
_cell_length_b   7.60611608
_cell_length_c   7.60611735
_cell_angle_alpha   127.89121463
_cell_angle_beta   121.94608503
_cell_angle_gamma   81.74895352
_symmetry_Int_Tables_number   1
_chemical_formula_structural   Hf6Si6OsRu5
_chemical_formula_sum   'Hf6 Si6 Os1 Ru5'
_cell_volume   283.81399292
_cell_formula_units_Z   1
loop_
 _symmetry_equiv_pos_site_id
 _symmetry_equiv_pos_as_xyz
  1  'x, y, z'
loop_
 _atom_site_type_symbol
 _atom_site_label
 _atom_site_symmetry_multiplicity
 _atom_site_fract_x
 _atom_site_fract_y
 _atom_site_fract_z
 _atom_site_occupancy
  Hf  Hf0  1  0.470851  0.699296  0.728847  1
  Hf  Hf1  1  0.529149  0.257996  0.228445  1
  Hf  Hf2  1  0.747296  0.831435  0.583928  1
  Hf  Hf3  1  0.252704  0.836631  0.084139  1
  Hf  Hf4  1  0.052470  0.256591  0.704316  1
  Hf  Hf5  1  0.947530  0.651847  0.204120  1
  Si  Si6  1  0.275251  0.269561  0.493717  1
  Si  Si7  1  0.724749  0.218465  0.994310  1
  Si  Si8  1  0.327025  0.587407  0.249405  1
  Si  Si9  1  0.672975  0.922380  0.260382  1
  Si  Si10  1  0.161767  0.922454  0.749302  1
  Si  Si11  1  0.838233  0.587535  0.760687  1
  Os  Os12  1  0.500000  0.500301  0.000301  1
  Ru  Ru13  1  0.000000  0.499769  0.499769  1
  Ru  Ru14  1  0.096307  0.253660  0.102067  1
  Ru  Ru15  1  0.903693  0.005760  0.157354  1
  Ru  Ru16  1  0.348330  0.005296  0.601548  1
  Ru  Ru17  1  0.651670  0.253217  0.656966  1
