# generated using pymatgen
data_Ho5Pb3O
_symmetry_space_group_name_H-M   'P 1'
_cell_length_a   9.07811382
_cell_length_b   9.07811423
_cell_length_c   9.07811362
_cell_angle_alpha   125.80352673
_cell_angle_beta   125.80352400
_cell_angle_gamma   80.21129950
_symmetry_Int_Tables_number   1
_chemical_formula_structural   Ho5Pb3O
_chemical_formula_sum   'Ho10 Pb6 O2'
_cell_volume   474.93895188
_cell_formula_units_Z   2
loop_
 _symmetry_equiv_pos_site_id
 _symmetry_equiv_pos_as_xyz
  1  'x, y, z'
loop_
 _atom_site_type_symbol
 _atom_site_label
 _atom_site_symmetry_multiplicity
 _atom_site_fract_x
 _atom_site_fract_y
 _atom_site_fract_z
 _atom_site_occupancy
  Ho  Ho0  1  0.998314  0.198915  0.500000  1
  Ho  Ho1  1  0.801085  0.301085  0.799399  1
  Ho  Ho2  1  0.498314  0.998314  0.799399  1
  Ho  Ho3  1  0.501686  0.001686  0.200601  1
  Ho  Ho4  1  0.001686  0.801085  0.500000  1
  Ho  Ho5  1  0.500000  0.500000  0.000000  1
  Ho  Ho6  1  0.198915  0.698915  0.200601  1
  Ho  Ho7  1  0.698915  0.498314  0.500000  1
  Ho  Ho8  1  0.301085  0.501686  0.500000  1
  Ho  Ho9  1  0.000000  0.000000  0.000000  1
  Pb  Pb10  1  0.852284  0.352284  0.204568  1
  Pb  Pb11  1  0.147716  0.647716  0.795432  1
  Pb  Pb12  1  0.352284  0.147716  0.500000  1
  Pb  Pb13  1  0.750000  0.750000  0.000000  1
  Pb  Pb14  1  0.647716  0.852284  0.500000  1
  Pb  Pb15  1  0.250000  0.250000  0.000000  1
  O  O16  1  0.750000  0.250000  0.500000  1
  O  O17  1  0.250000  0.750000  0.500000  1
