# generated using pymatgen
data_Ce3Al12Tc2RuRh
_symmetry_space_group_name_H-M   'P 1'
_cell_length_a   8.95019318
_cell_length_b   9.01355664
_cell_length_c   9.65447800
_cell_angle_alpha   90.00000000
_cell_angle_beta   90.00000000
_cell_angle_gamma   120.23446575
_symmetry_Int_Tables_number   1
_chemical_formula_structural   Ce3Al12Tc2RuRh
_chemical_formula_sum   'Ce6 Al24 Tc4 Ru2 Rh2'
_cell_volume   672.91017562
_cell_formula_units_Z   2
loop_
 _symmetry_equiv_pos_site_id
 _symmetry_equiv_pos_as_xyz
  1  'x, y, z'
loop_
 _atom_site_type_symbol
 _atom_site_label
 _atom_site_symmetry_multiplicity
 _atom_site_fract_x
 _atom_site_fract_y
 _atom_site_fract_z
 _atom_site_occupancy
  Ce  Ce0  1  0.794562  0.613875  0.750000  1
  Ce  Ce1  1  0.205438  0.819313  0.250000  1
  Ce  Ce2  1  0.605679  0.802839  0.250000  1
  Ce  Ce3  1  0.394321  0.197161  0.750000  1
  Ce  Ce4  1  0.794562  0.180687  0.750000  1
  Ce  Ce5  1  0.205438  0.386125  0.250000  1
  Al  Al6  1  0.330167  0.665084  0.491249  1
  Al  Al7  1  0.669833  0.334916  0.991249  1
  Al  Al8  1  0.669833  0.334916  0.508751  1
  Al  Al9  1  0.330167  0.665084  0.008751  1
  Al  Al10  1  0.158971  0.321137  0.578825  1
  Al  Al11  1  0.672972  0.836487  0.577926  1
  Al  Al12  1  0.158971  0.837834  0.578825  1
  Al  Al13  1  0.841029  0.162166  0.078825  1
  Al  Al14  1  0.841029  0.162166  0.421175  1
  Al  Al15  1  0.841029  0.678863  0.078825  1
  Al  Al16  1  0.327028  0.163513  0.077926  1
  Al  Al17  1  0.672972  0.836487  0.922074  1
  Al  Al18  1  0.158971  0.321137  0.921175  1
  Al  Al19  1  0.841029  0.678863  0.421175  1
  Al  Al20  1  0.000140  0.000070  0.250000  1
  Al  Al21  1  0.999860  0.999930  0.750000  1
  Al  Al22  1  0.570596  0.130686  0.250000  1
  Al  Al23  1  0.429404  0.560091  0.750000  1
  Al  Al24  1  0.112349  0.556174  0.750000  1
  Al  Al25  1  0.887651  0.443826  0.250000  1
  Al  Al26  1  0.570596  0.439909  0.250000  1
  Al  Al27  1  0.429404  0.869314  0.750000  1
  Al  Al28  1  0.158971  0.837834  0.921175  1
  Al  Al29  1  0.327028  0.163513  0.422074  1
  Tc  Tc30  1  0.500000  0.000000  0.500000  1
  Tc  Tc31  1  0.500000  0.500000  0.000000  1
  Tc  Tc32  1  0.500000  0.500000  0.500000  1
  Tc  Tc33  1  0.500000  0.000000  0.000000  1
  Ru  Ru34  1  0.000000  0.000000  0.500000  1
  Ru  Ru35  1  0.000000  0.000000  0.000000  1
  Rh  Rh36  1  0.000000  0.500000  0.000000  1
  Rh  Rh37  1  0.000000  0.500000  0.500000  1
