# generated using pymatgen
data_Nd(MnC)2
_symmetry_space_group_name_H-M   'P 1'
_cell_length_a   3.50284028
_cell_length_b   3.50284015
_cell_length_c   5.71173120
_cell_angle_alpha   107.85660470
_cell_angle_beta   107.85660337
_cell_angle_gamma   89.99999843
_symmetry_Int_Tables_number   1
_chemical_formula_structural   Nd(MnC)2
_chemical_formula_sum   'Nd1 Mn2 C2'
_cell_volume   63.14991753
_cell_formula_units_Z   1
loop_
 _symmetry_equiv_pos_site_id
 _symmetry_equiv_pos_as_xyz
  1  'x, y, z'
loop_
 _atom_site_type_symbol
 _atom_site_label
 _atom_site_symmetry_multiplicity
 _atom_site_fract_x
 _atom_site_fract_y
 _atom_site_fract_z
 _atom_site_occupancy
  Nd  Nd0  1  0.000000  0.000000  0.000000  1
  Mn  Mn1  1  0.750000  0.250000  0.500000  1
  Mn  Mn2  1  0.250000  0.750000  0.500000  1
  C  C3  1  0.664311  0.664311  0.328623  1
  C  C4  1  0.335688  0.335688  0.671376  1
