# generated using pymatgen
data_NaYb9SnBi5
_symmetry_space_group_name_H-M   'P 1'
_cell_length_a   9.31738160
_cell_length_b   9.29924474
_cell_length_c   7.06716600
_cell_angle_alpha   90.00000000
_cell_angle_beta   90.00000000
_cell_angle_gamma   120.19270435
_symmetry_Int_Tables_number   1
_chemical_formula_structural   NaYb9SnBi5
_chemical_formula_sum   'Na1 Yb9 Sn1 Bi5'
_cell_volume   529.26220878
_cell_formula_units_Z   1
loop_
 _symmetry_equiv_pos_site_id
 _symmetry_equiv_pos_as_xyz
  1  'x, y, z'
loop_
 _atom_site_type_symbol
 _atom_site_label
 _atom_site_symmetry_multiplicity
 _atom_site_fract_x
 _atom_site_fract_y
 _atom_site_fract_z
 _atom_site_occupancy
  Na  Na0  1  0.268078  0.000595  0.250000  1
  Yb  Yb1  1  0.328173  0.666449  0.999443  1
  Yb  Yb2  1  0.667514  0.329180  0.500443  1
  Yb  Yb3  1  0.667514  0.329180  0.999557  1
  Yb  Yb4  1  0.328173  0.666449  0.500557  1
  Yb  Yb5  1  0.731660  0.007392  0.750000  1
  Yb  Yb6  1  0.002278  0.276187  0.250000  1
  Yb  Yb7  1  0.724260  0.722942  0.250000  1
  Yb  Yb8  1  0.270577  0.276284  0.750000  1
  Yb  Yb9  1  0.002051  0.719813  0.750000  1
  Sn  Sn10  1  0.001642  0.378166  0.750000  1
  Bi  Bi11  1  0.624980  0.997800  0.250000  1
  Bi  Bi12  1  0.379098  0.001570  0.750000  1
  Bi  Bi13  1  0.998373  0.623330  0.250000  1
  Bi  Bi14  1  0.378887  0.378129  0.250000  1
  Bi  Bi15  1  0.626741  0.626534  0.750000  1
