# generated using pymatgen
data_Er4Th(CoB3)2
_symmetry_space_group_name_H-M   'P 1'
_cell_length_a   5.44364131
_cell_length_b   5.44364153
_cell_length_c   8.09823445
_cell_angle_alpha   70.36053279
_cell_angle_beta   70.36053117
_cell_angle_gamma   59.99998679
_symmetry_Int_Tables_number   1
_chemical_formula_structural   Er4Th(CoB3)2
_chemical_formula_sum   'Er4 Th1 Co2 B6'
_cell_volume   191.53646726
_cell_formula_units_Z   1
loop_
 _symmetry_equiv_pos_site_id
 _symmetry_equiv_pos_as_xyz
  1  'x, y, z'
loop_
 _atom_site_type_symbol
 _atom_site_label
 _atom_site_symmetry_multiplicity
 _atom_site_fract_x
 _atom_site_fract_y
 _atom_site_fract_z
 _atom_site_occupancy
  Er  Er0  1  0.253099  0.253099  0.240702  1
  Er  Er1  1  0.746901  0.746901  0.759298  1
  Er  Er2  1  0.414483  0.414483  0.756550  1
  Er  Er3  1  0.585517  0.585517  0.243450  1
  Th  Th4  1  0.000000  0.000000  0.000000  1
  Co  Co5  1  0.115064  0.115064  0.654808  1
  Co  Co6  1  0.884936  0.884936  0.345192  1
  B  B7  1  0.168345  0.831655  0.500000  1
  B  B8  1  0.831655  0.500000  0.500000  1
  B  B9  1  0.500000  0.168345  0.500000  1
  B  B10  1  0.168345  0.500000  0.500000  1
  B  B11  1  0.500000  0.831655  0.500000  1
  B  B12  1  0.831655  0.168345  0.500000  1
