# generated using pymatgen
data_Er2Tm6Re3TcC8
_symmetry_space_group_name_H-M   'P 1'
_cell_length_a   5.03003500
_cell_length_b   6.52256018
_cell_length_c   9.75847114
_cell_angle_alpha   90.04411626
_cell_angle_beta   90.00000000
_cell_angle_gamma   90.00000000
_symmetry_Int_Tables_number   1
_chemical_formula_structural   Er2Tm6Re3TcC8
_chemical_formula_sum   'Er2 Tm6 Re3 Tc1 C8'
_cell_volume   320.16271548
_cell_formula_units_Z   1
loop_
 _symmetry_equiv_pos_site_id
 _symmetry_equiv_pos_as_xyz
  1  'x, y, z'
loop_
 _atom_site_type_symbol
 _atom_site_label
 _atom_site_symmetry_multiplicity
 _atom_site_fract_x
 _atom_site_fract_y
 _atom_site_fract_z
 _atom_site_occupancy
  Er  Er0  1  0.250000  0.464004  0.217030  1
  Er  Er1  1  0.750000  0.035118  0.716911  1
  Tm  Tm2  1  0.750000  0.534718  0.783412  1
  Tm  Tm3  1  0.250000  0.964343  0.283157  1
  Tm  Tm4  1  0.750000  0.676660  0.442059  1
  Tm  Tm5  1  0.250000  0.824721  0.942035  1
  Tm  Tm6  1  0.750000  0.175454  0.058334  1
  Tm  Tm7  1  0.250000  0.323635  0.558637  1
  Re  Re8  1  0.250000  0.783675  0.631377  1
  Re  Re9  1  0.750000  0.217051  0.368908  1
  Re  Re10  1  0.750000  0.716807  0.131540  1
  Tc  Tc11  1  0.250000  0.283477  0.868691  1
  C  C12  1  0.250000  0.674507  0.446994  1
  C  C13  1  0.250000  0.552031  0.758235  1
  C  C14  1  0.750000  0.449422  0.241024  1
  C  C15  1  0.750000  0.824935  0.947228  1
  C  C16  1  0.250000  0.050583  0.740425  1
  C  C17  1  0.250000  0.172779  0.051729  1
  C  C18  1  0.750000  0.326898  0.552851  1
  C  C19  1  0.750000  0.949180  0.259422  1
