# generated using pymatgen
data_Hg2IrPdO7
_symmetry_space_group_name_H-M   'P 1'
_cell_length_a   7.30828803
_cell_length_b   7.31546398
_cell_length_c   7.30828851
_cell_angle_alpha   59.96751808
_cell_angle_beta   60.54977983
_cell_angle_gamma   59.96752069
_symmetry_Int_Tables_number   1
_chemical_formula_structural   Hg2IrPdO7
_chemical_formula_sum   'Hg4 Ir2 Pd2 O14'
_cell_volume   277.27778448
_cell_formula_units_Z   2
loop_
 _symmetry_equiv_pos_site_id
 _symmetry_equiv_pos_as_xyz
  1  'x, y, z'
loop_
 _atom_site_type_symbol
 _atom_site_label
 _atom_site_symmetry_multiplicity
 _atom_site_fract_x
 _atom_site_fract_y
 _atom_site_fract_z
 _atom_site_occupancy
  Hg  Hg0  1  0.625000  0.125000  0.125000  1
  Hg  Hg1  1  0.125000  0.625000  0.125000  1
  Hg  Hg2  1  0.125000  0.125000  0.625000  1
  Hg  Hg3  1  0.125000  0.125000  0.125000  1
  Ir  Ir4  1  0.125000  0.625000  0.625000  1
  Ir  Ir5  1  0.625000  0.625000  0.125000  1
  Pd  Pd6  1  0.625000  0.125000  0.625000  1
  Pd  Pd7  1  0.625000  0.625000  0.625000  1
  O  O8  1  0.708081  0.688670  0.294316  1
  O  O9  1  0.294316  0.308934  0.708081  1
  O  O10  1  0.713574  0.286426  0.713574  1
  O  O11  1  0.308674  0.691326  0.308674  1
  O  O12  1  0.294316  0.688670  0.708081  1
  O  O13  1  0.708081  0.308934  0.294316  1
  O  O14  1  0.541919  0.561330  0.955684  1
  O  O15  1  0.955684  0.941066  0.541919  1
  O  O16  1  0.536426  0.963574  0.536426  1
  O  O17  1  0.941326  0.558674  0.941326  1
  O  O18  1  0.955684  0.561330  0.541919  1
  O  O19  1  0.541919  0.941066  0.955684  1
  O  O20  1  0.242916  0.257084  0.242916  1
  O  O21  1  0.007084  0.992916  0.007084  1
