# generated using pymatgen
data_Sc5TiB4(IrRh4)2
_symmetry_space_group_name_H-M   'P 1'
_cell_length_a   9.44483402
_cell_length_b   9.44356402
_cell_length_c   3.11908900
_cell_angle_alpha   90.00000000
_cell_angle_beta   90.00000000
_cell_angle_gamma   89.99316882
_symmetry_Int_Tables_number   1
_chemical_formula_structural   Sc5TiB4(IrRh4)2
_chemical_formula_sum   'Sc5 Ti1 B4 Ir2 Rh8'
_cell_volume   278.20057465
_cell_formula_units_Z   1
loop_
 _symmetry_equiv_pos_site_id
 _symmetry_equiv_pos_as_xyz
  1  'x, y, z'
loop_
 _atom_site_type_symbol
 _atom_site_label
 _atom_site_symmetry_multiplicity
 _atom_site_fract_x
 _atom_site_fract_y
 _atom_site_fract_z
 _atom_site_occupancy
  Sc  Sc0  1  0.825974  0.324408  0.000000  1
  Sc  Sc1  1  0.324554  0.173725  0.000000  1
  Sc  Sc2  1  0.675014  0.825722  0.000000  1
  Sc  Sc3  1  0.173783  0.675142  0.000000  1
  Sc  Sc4  1  0.500207  0.500055  0.000000  1
  Ti  Ti5  1  0.997783  0.998719  0.000000  1
  B  B6  1  0.622301  0.122270  0.000000  1
  B  B7  1  0.122178  0.377117  0.000000  1
  B  B8  1  0.878403  0.622135  0.000000  1
  B  B9  1  0.377312  0.878418  0.000000  1
  Ir  Ir10  1  0.068070  0.216213  0.500000  1
  Ir  Ir11  1  0.216727  0.932842  0.500000  1
  Rh  Rh12  1  0.783336  0.068239  0.500000  1
  Rh  Rh13  1  0.932648  0.782786  0.500000  1
  Rh  Rh14  1  0.425378  0.723260  0.500000  1
  Rh  Rh15  1  0.575239  0.277111  0.500000  1
  Rh  Rh16  1  0.723274  0.575753  0.500000  1
  Rh  Rh17  1  0.277113  0.425986  0.500000  1
  Rh  Rh18  1  0.501180  0.000302  0.500000  1
  Rh  Rh19  1  0.999525  0.499797  0.500000  1
