# generated using pymatgen
data_Tb5YHo10(CdIr)4
_symmetry_space_group_name_H-M   'P 1'
_cell_length_a   9.62582534
_cell_length_b   9.62586091
_cell_length_c   9.62821300
_cell_angle_alpha   59.99195422
_cell_angle_beta   59.99177806
_cell_angle_gamma   59.98575734
_symmetry_Int_Tables_number   1
_chemical_formula_structural   Tb5YHo10(CdIr)4
_chemical_formula_sum   'Tb5 Y1 Ho10 Cd4 Ir4'
_cell_volume   630.67859097
_cell_formula_units_Z   1
loop_
 _symmetry_equiv_pos_site_id
 _symmetry_equiv_pos_as_xyz
  1  'x, y, z'
loop_
 _atom_site_type_symbol
 _atom_site_label
 _atom_site_symmetry_multiplicity
 _atom_site_fract_x
 _atom_site_fract_y
 _atom_site_fract_z
 _atom_site_occupancy
  Tb  Tb0  1  0.938979  0.561239  0.561400  1
  Tb  Tb1  1  0.561238  0.938983  0.938381  1
  Tb  Tb2  1  0.561234  0.938985  0.561400  1
  Tb  Tb3  1  0.938985  0.561236  0.938382  1
  Tb  Tb4  1  0.561493  0.561490  0.938507  1
  Y  Y5  1  0.938495  0.938491  0.561514  1
  Ho  Ho6  1  0.348723  0.348730  0.348283  1
  Ho  Ho7  1  0.348717  0.348732  0.954263  1
  Ho  Ho8  1  0.349251  0.953410  0.348667  1
  Ho  Ho9  1  0.953415  0.349255  0.348663  1
  Ho  Ho10  1  0.810454  0.188583  0.189660  1
  Ho  Ho11  1  0.188577  0.810449  0.811308  1
  Ho  Ho12  1  0.188575  0.810450  0.189672  1
  Ho  Ho13  1  0.810453  0.188579  0.811305  1
  Ho  Ho14  1  0.189139  0.189147  0.810858  1
  Ho  Ho15  1  0.810946  0.810928  0.189061  1
  Cd  Cd16  1  0.580440  0.580437  0.580811  1
  Cd  Cd17  1  0.580438  0.580436  0.258313  1
  Cd  Cd18  1  0.580851  0.257404  0.580870  1
  Cd  Cd19  1  0.257402  0.580852  0.580873  1
  Ir  Ir20  1  0.142132  0.142129  0.140785  1
  Ir  Ir21  1  0.142134  0.142131  0.574945  1
  Ir  Ir22  1  0.142565  0.575361  0.141040  1
  Ir  Ir23  1  0.575363  0.142565  0.141037  1
