# generated using pymatgen
data_CaLa3(YbBi)12
_symmetry_space_group_name_H-M   'P 1'
_cell_length_a   9.71845103
_cell_length_b   9.71844991
_cell_length_c   9.71845100
_cell_angle_alpha   90.14003166
_cell_angle_beta   90.14003165
_cell_angle_gamma   89.85997435
_symmetry_Int_Tables_number   1
_chemical_formula_structural   CaLa3(YbBi)12
_chemical_formula_sum   'Ca1 La3 Yb12 Bi12'
_cell_volume   917.88276541
_cell_formula_units_Z   1
loop_
 _symmetry_equiv_pos_site_id
 _symmetry_equiv_pos_as_xyz
  1  'x, y, z'
loop_
 _atom_site_type_symbol
 _atom_site_label
 _atom_site_symmetry_multiplicity
 _atom_site_fract_x
 _atom_site_fract_y
 _atom_site_fract_z
 _atom_site_occupancy
  Ca  Ca0  1  0.071996  0.571996  0.928004  1
  La  La1  1  0.928916  0.072857  0.573370  1
  La  La2  1  0.426630  0.428916  0.427143  1
  La  La3  1  0.572857  0.926630  0.071084  1
  Yb  Yb4  1  0.825511  0.325511  0.174489  1
  Yb  Yb5  1  0.932554  0.925825  0.930886  1
  Yb  Yb6  1  0.827094  0.673706  0.325339  1
  Yb  Yb7  1  0.177539  0.821603  0.321686  1
  Yb  Yb8  1  0.173706  0.174661  0.172906  1
  Yb  Yb9  1  0.324005  0.824005  0.675995  1
  Yb  Yb10  1  0.069114  0.432554  0.574175  1
  Yb  Yb11  1  0.321603  0.178314  0.822461  1
  Yb  Yb12  1  0.674661  0.327094  0.826294  1
  Yb  Yb13  1  0.678314  0.677539  0.678397  1
  Yb  Yb14  1  0.569198  0.069198  0.430802  1
  Yb  Yb15  1  0.425825  0.569114  0.067446  1
  Bi  Bi16  1  0.749890  0.371890  0.499413  1
  Bi  Bi17  1  0.871890  0.000587  0.250110  1
  Bi  Bi18  1  0.999648  0.750667  0.626367  1
  Bi  Bi19  1  0.250516  0.127119  0.499414  1
  Bi  Bi20  1  0.127058  0.499086  0.250203  1
  Bi  Bi21  1  0.999086  0.249797  0.872942  1
  Bi  Bi22  1  0.250667  0.873633  0.000352  1
  Bi  Bi23  1  0.373633  0.499648  0.749333  1
  Bi  Bi24  1  0.500587  0.249890  0.128110  1
  Bi  Bi25  1  0.749797  0.627058  0.000914  1
  Bi  Bi26  1  0.627119  0.000586  0.749484  1
  Bi  Bi27  1  0.500586  0.750516  0.372881  1
