# generated using pymatgen
data_Dy6FeP12Rh17
_symmetry_space_group_name_H-M   'P 1'
_cell_length_a   3.88823000
_cell_length_b   11.23049000
_cell_length_c   12.73212200
_cell_angle_alpha   90.00000000
_cell_angle_beta   90.00000000
_cell_angle_gamma   90.00000000
_symmetry_Int_Tables_number   1
_chemical_formula_structural   Dy6FeP12Rh17
_chemical_formula_sum   'Dy6 Fe1 P12 Rh17'
_cell_volume   555.97010993
_cell_formula_units_Z   1
loop_
 _symmetry_equiv_pos_site_id
 _symmetry_equiv_pos_as_xyz
  1  'x, y, z'
loop_
 _atom_site_type_symbol
 _atom_site_label
 _atom_site_symmetry_multiplicity
 _atom_site_fract_x
 _atom_site_fract_y
 _atom_site_fract_z
 _atom_site_occupancy
  Dy  Dy0  1  0.000000  0.500000  0.521160  1
  Dy  Dy1  1  0.500000  0.000000  0.479406  1
  Dy  Dy2  1  0.500000  0.813154  0.203330  1
  Dy  Dy3  1  0.500000  0.186846  0.203330  1
  Dy  Dy4  1  0.000000  0.680623  0.797578  1
  Dy  Dy5  1  0.000000  0.319377  0.797578  1
  Fe  Fe6  1  0.000000  0.500000  0.986412  1
  P  P7  1  0.500000  0.500000  0.883384  1
  P  P8  1  0.000000  0.000000  0.121941  1
  P  P9  1  0.500000  0.500000  0.350246  1
  P  P10  1  0.000000  0.000000  0.648827  1
  P  P11  1  0.500000  0.315466  0.619368  1
  P  P12  1  0.500000  0.684534  0.619368  1
  P  P13  1  0.000000  0.185558  0.380875  1
  P  P14  1  0.000000  0.814442  0.380875  1
  P  P15  1  0.500000  0.845507  0.892571  1
  P  P16  1  0.500000  0.154493  0.892571  1
  P  P17  1  0.000000  0.648139  0.103387  1
  P  P18  1  0.000000  0.351861  0.103387  1
  Rh  Rh19  1  0.500000  0.500000  0.164687  1
  Rh  Rh20  1  0.000000  0.000000  0.831635  1
  Rh  Rh21  1  0.500000  0.500000  0.701603  1
  Rh  Rh22  1  0.000000  0.000000  0.299717  1
  Rh  Rh23  1  0.500000  0.000000  0.020842  1
  Rh  Rh24  1  0.500000  0.336540  0.993041  1
  Rh  Rh25  1  0.500000  0.663460  0.993041  1
  Rh  Rh26  1  0.000000  0.166772  0.005837  1
  Rh  Rh27  1  0.000000  0.833228  0.005837  1
  Rh  Rh28  1  0.500000  0.294745  0.430567  1
  Rh  Rh29  1  0.500000  0.705255  0.430567  1
  Rh  Rh30  1  0.000000  0.206551  0.569386  1
  Rh  Rh31  1  0.000000  0.793449  0.569386  1
  Rh  Rh32  1  0.500000  0.872073  0.711375  1
  Rh  Rh33  1  0.500000  0.127927  0.711375  1
  Rh  Rh34  1  0.000000  0.626307  0.287756  1
  Rh  Rh35  1  0.000000  0.373693  0.287756  1
