# generated using pymatgen
data_BaCeAg(H6Ir)2
_symmetry_space_group_name_H-M   'P 1'
_cell_length_a   5.07116500
_cell_length_b   5.07116413
_cell_length_c   8.56045100
_cell_angle_alpha   90.00000000
_cell_angle_beta   90.00000000
_cell_angle_gamma   119.99999916
_symmetry_Int_Tables_number   1
_chemical_formula_structural   BaCeAg(H6Ir)2
_chemical_formula_sum   'Ba1 Ce1 Ag1 H12 Ir2'
_cell_volume   190.65258112
_cell_formula_units_Z   1
loop_
 _symmetry_equiv_pos_site_id
 _symmetry_equiv_pos_as_xyz
  1  'x, y, z'
loop_
 _atom_site_type_symbol
 _atom_site_label
 _atom_site_symmetry_multiplicity
 _atom_site_fract_x
 _atom_site_fract_y
 _atom_site_fract_z
 _atom_site_occupancy
  Ba  Ba0  1  0.000000  0.000000  0.034613  1
  Ce  Ce1  1  0.333333  0.666667  0.613506  1
  Ag  Ag2  1  0.666667  0.333333  0.352734  1
  H  H3  1  0.170768  0.829232  0.369363  1
  H  H4  1  0.658465  0.829232  0.369363  1
  H  H5  1  0.170768  0.341535  0.369363  1
  H  H6  1  0.829194  0.170806  0.630695  1
  H  H7  1  0.341612  0.170806  0.630695  1
  H  H8  1  0.829194  0.658388  0.630695  1
  H  H9  1  0.512676  0.025351  0.852032  1
  H  H10  1  0.512676  0.487324  0.852032  1
  H  H11  1  0.974649  0.487324  0.852032  1
  H  H12  1  0.486640  0.973281  0.147290  1
  H  H13  1  0.486640  0.513360  0.147290  1
  H  H14  1  0.026719  0.513360  0.147290  1
  Ir  Ir15  1  0.666667  0.333333  0.736078  1
  Ir  Ir16  1  0.333333  0.666667  0.264930  1
