# generated using pymatgen
data_Sc5(Al2Co)2
_symmetry_space_group_name_H-M   'P 1'
_cell_length_a   3.22291300
_cell_length_b   7.30272200
_cell_length_c   16.63820700
_cell_angle_alpha   90.00000000
_cell_angle_beta   90.00000000
_cell_angle_gamma   90.00000000
_symmetry_Int_Tables_number   1
_chemical_formula_structural   Sc5(Al2Co)2
_chemical_formula_sum   'Sc10 Al8 Co4'
_cell_volume   391.59746670
_cell_formula_units_Z   2
loop_
 _symmetry_equiv_pos_site_id
 _symmetry_equiv_pos_as_xyz
  1  'x, y, z'
loop_
 _atom_site_type_symbol
 _atom_site_label
 _atom_site_symmetry_multiplicity
 _atom_site_fract_x
 _atom_site_fract_y
 _atom_site_fract_z
 _atom_site_occupancy
  Sc  Sc0  1  0.500000  0.500000  0.500000  1
  Sc  Sc1  1  0.500000  0.000000  0.000000  1
  Sc  Sc2  1  0.500000  0.875932  0.414866  1
  Sc  Sc3  1  0.500000  0.124068  0.585134  1
  Sc  Sc4  1  0.500000  0.624068  0.914866  1
  Sc  Sc5  1  0.500000  0.375932  0.085134  1
  Sc  Sc6  1  0.500000  0.248198  0.279431  1
  Sc  Sc7  1  0.500000  0.751802  0.720569  1
  Sc  Sc8  1  0.500000  0.251802  0.779431  1
  Sc  Sc9  1  0.500000  0.748198  0.220569  1
  Al  Al10  1  0.000000  0.204095  0.429196  1
  Al  Al11  1  0.000000  0.795905  0.570804  1
  Al  Al12  1  0.000000  0.295905  0.929196  1
  Al  Al13  1  0.000000  0.704095  0.070804  1
  Al  Al14  1  0.000000  0.563928  0.348280  1
  Al  Al15  1  0.000000  0.436072  0.651720  1
  Al  Al16  1  0.000000  0.936072  0.848280  1
  Al  Al17  1  0.000000  0.063928  0.151720  1
  Co  Co18  1  0.000000  0.970538  0.304702  1
  Co  Co19  1  0.000000  0.029462  0.695298  1
  Co  Co20  1  0.000000  0.529462  0.804702  1
  Co  Co21  1  0.000000  0.470538  0.195298  1
