# generated using pymatgen
data_TbYb3(WN2)4
_symmetry_space_group_name_H-M   'P 1'
_cell_length_a   3.11709500
_cell_length_b   5.63472232
_cell_length_c   10.88595635
_cell_angle_alpha   89.78498806
_cell_angle_beta   90.00000000
_cell_angle_gamma   90.00000000
_symmetry_Int_Tables_number   1
_chemical_formula_structural   TbYb3(WN2)4
_chemical_formula_sum   'Tb1 Yb3 W4 N8'
_cell_volume   191.19920762
_cell_formula_units_Z   1
loop_
 _symmetry_equiv_pos_site_id
 _symmetry_equiv_pos_as_xyz
  1  'x, y, z'
loop_
 _atom_site_type_symbol
 _atom_site_label
 _atom_site_symmetry_multiplicity
 _atom_site_fract_x
 _atom_site_fract_y
 _atom_site_fract_z
 _atom_site_occupancy
  Tb  Tb0  1  0.750000  0.413832  0.368023  1
  Yb  Yb1  1  0.250000  0.082702  0.869825  1
  Yb  Yb2  1  0.250000  0.586744  0.633215  1
  Yb  Yb3  1  0.750000  0.917731  0.130463  1
  W  W4  1  0.250000  0.425928  0.117304  1
  W  W5  1  0.250000  0.921368  0.379223  1
  W  W6  1  0.750000  0.576571  0.879383  1
  W  W7  1  0.750000  0.079274  0.622573  1
  N  N8  1  0.250000  0.169334  0.243929  1
  N  N9  1  0.250000  0.668529  0.255482  1
  N  N10  1  0.750000  0.829039  0.756870  1
  N  N11  1  0.750000  0.328708  0.743839  1
  N  N12  1  0.250000  0.724844  0.992486  1
  N  N13  1  0.250000  0.230848  0.508204  1
  N  N14  1  0.750000  0.272774  0.006610  1
  N  N15  1  0.750000  0.771774  0.492570  1
