# generated using pymatgen
data_HoZrBIr6
_symmetry_space_group_name_H-M   'P 1'
_cell_length_a   5.78423126
_cell_length_b   5.78423148
_cell_length_c   5.78423100
_cell_angle_alpha   59.99999704
_cell_angle_beta   59.99999577
_cell_angle_gamma   59.99999515
_symmetry_Int_Tables_number   1
_chemical_formula_structural   HoZrBIr6
_chemical_formula_sum   'Ho1 Zr1 B1 Ir6'
_cell_volume   136.84278507
_cell_formula_units_Z   1
loop_
 _symmetry_equiv_pos_site_id
 _symmetry_equiv_pos_as_xyz
  1  'x, y, z'
loop_
 _atom_site_type_symbol
 _atom_site_label
 _atom_site_symmetry_multiplicity
 _atom_site_fract_x
 _atom_site_fract_y
 _atom_site_fract_z
 _atom_site_occupancy
  Ho  Ho0  1  0.750000  0.750000  0.750000  1
  Zr  Zr1  1  0.250000  0.250000  0.250000  1
  B  B2  1  0.000000  0.000000  0.000000  1
  Ir  Ir3  1  0.741709  0.741709  0.258291  1
  Ir  Ir4  1  0.258291  0.741709  0.258291  1
  Ir  Ir5  1  0.741709  0.258291  0.258291  1
  Ir  Ir6  1  0.258291  0.258291  0.741709  1
  Ir  Ir7  1  0.741709  0.258291  0.741709  1
  Ir  Ir8  1  0.258291  0.741709  0.741709  1
