# generated using pymatgen
data_Sb7TeAs2Pd5
_symmetry_space_group_name_H-M   'P 1'
_cell_length_a   20.05623166
_cell_length_b   20.05623160
_cell_length_c   6.41788300
_cell_angle_alpha   71.44281659
_cell_angle_beta   71.44281665
_cell_angle_gamma   8.31662888
_symmetry_Int_Tables_number   1
_chemical_formula_structural   Sb7TeAs2Pd5
_chemical_formula_sum   'Sb7 Te1 As2 Pd5'
_cell_volume   353.89217705
_cell_formula_units_Z   1
loop_
 _symmetry_equiv_pos_site_id
 _symmetry_equiv_pos_as_xyz
  1  'x, y, z'
loop_
 _atom_site_type_symbol
 _atom_site_label
 _atom_site_symmetry_multiplicity
 _atom_site_fract_x
 _atom_site_fract_y
 _atom_site_fract_z
 _atom_site_occupancy
  Sb  Sb0  1  0.674814  0.674814  0.725394  1
  Sb  Sb1  1  0.276720  0.276720  0.732421  1
  Sb  Sb2  1  0.876953  0.876953  0.739716  1
  Sb  Sb3  1  0.532958  0.532958  0.277689  1
  Sb  Sb4  1  0.130344  0.130344  0.275880  1
  Sb  Sb5  1  0.733174  0.733174  0.275120  1
  Sb  Sb6  1  0.335958  0.335958  0.281796  1
  Te  Te7  1  0.938491  0.938491  0.271708  1
  As  As8  1  0.075714  0.075714  0.732933  1
  As  As9  1  0.480181  0.480181  0.719391  1
  Pd  Pd10  1  0.008186  0.008186  0.974215  1
  Pd  Pd11  1  0.603417  0.603417  0.984752  1
  Pd  Pd12  1  0.203878  0.203878  0.998804  1
  Pd  Pd13  1  0.805337  0.805337  0.012795  1
  Pd  Pd14  1  0.409596  0.409596  0.997389  1
