# generated using pymatgen
data_MnTl4Ni3F12
_symmetry_space_group_name_H-M   'P 1'
_cell_length_a   6.10554585
_cell_length_b   6.10554564
_cell_length_c   10.50958200
_cell_angle_alpha   73.11358831
_cell_angle_beta   106.88641110
_cell_angle_gamma   120.00000174
_symmetry_Int_Tables_number   1
_chemical_formula_structural   MnTl4Ni3F12
_chemical_formula_sum   'Mn1 Tl4 Ni3 F12'
_cell_volume   319.63103543
_cell_formula_units_Z   1
loop_
 _symmetry_equiv_pos_site_id
 _symmetry_equiv_pos_as_xyz
  1  'x, y, z'
loop_
 _atom_site_type_symbol
 _atom_site_label
 _atom_site_symmetry_multiplicity
 _atom_site_fract_x
 _atom_site_fract_y
 _atom_site_fract_z
 _atom_site_occupancy
  Mn  Mn0  1  0.000000  0.000000  0.000000  1
  Tl  Tl1  1  0.714434  0.285566  0.143301  1
  Tl  Tl2  1  0.129700  0.870301  0.389099  1
  Tl  Tl3  1  0.870301  0.129700  0.610901  1
  Tl  Tl4  1  0.285566  0.714435  0.856700  1
  Ni  Ni5  1  0.409041  0.590959  0.227122  1
  Ni  Ni6  1  0.500000  0.500000  0.500000  1
  Ni  Ni7  1  0.590960  0.409040  0.772878  1
  F  F8  1  0.702019  0.789793  0.122431  1
  F  F9  1  0.210206  0.297980  0.122431  1
  F  F10  1  0.210206  0.789793  0.122431  1
  F  F11  1  0.602451  0.397549  0.367488  1
  F  F12  1  0.602451  0.837412  0.367488  1
  F  F13  1  0.162589  0.397549  0.367488  1
  F  F14  1  0.837411  0.602450  0.632512  1
  F  F15  1  0.397549  0.162587  0.632512  1
  F  F16  1  0.397549  0.602450  0.632512  1
  F  F17  1  0.789792  0.210206  0.877569  1
  F  F18  1  0.789792  0.702018  0.877569  1
  F  F19  1  0.297982  0.210207  0.877569  1
