# generated using pymatgen
data_NdSm5Cd23P
_symmetry_space_group_name_H-M   'P 1'
_cell_length_a   10.01032396
_cell_length_b   10.01032362
_cell_length_c   10.01984100
_cell_angle_alpha   59.96854092
_cell_angle_beta   59.96854207
_cell_angle_gamma   60.06291123
_symmetry_Int_Tables_number   1
_chemical_formula_structural   NdSm5Cd23P
_chemical_formula_sum   'Nd1 Sm5 Cd23 P1'
_cell_volume   709.97209208
_cell_formula_units_Z   1
loop_
 _symmetry_equiv_pos_site_id
 _symmetry_equiv_pos_as_xyz
  1  'x, y, z'
loop_
 _atom_site_type_symbol
 _atom_site_label
 _atom_site_symmetry_multiplicity
 _atom_site_fract_x
 _atom_site_fract_y
 _atom_site_fract_z
 _atom_site_occupancy
  Nd  Nd0  1  0.798660  0.798660  0.201340  1
  Sm  Sm1  1  0.200055  0.800220  0.199780  1
  Sm  Sm2  1  0.800220  0.200055  0.199780  1
  Sm  Sm3  1  0.200574  0.200574  0.799426  1
  Sm  Sm4  1  0.800220  0.200055  0.799945  1
  Sm  Sm5  1  0.200055  0.800220  0.799945  1
  Cd  Cd6  1  0.834807  0.834807  0.496413  1
  Cd  Cd7  1  0.835033  0.495232  0.834867  1
  Cd  Cd8  1  0.495232  0.835033  0.834867  1
  Cd  Cd9  1  0.834807  0.834807  0.833972  1
  Cd  Cd10  1  0.165133  0.165133  0.504768  1
  Cd  Cd11  1  0.166028  0.503587  0.165193  1
  Cd  Cd12  1  0.503587  0.166028  0.165193  1
  Cd  Cd13  1  0.165133  0.165133  0.164967  1
  Cd  Cd14  1  0.621077  0.621077  0.135251  1
  Cd  Cd15  1  0.621332  0.135861  0.621404  1
  Cd  Cd16  1  0.135861  0.621332  0.621404  1
  Cd  Cd17  1  0.621077  0.621077  0.622595  1
  Cd  Cd18  1  0.378596  0.378596  0.864139  1
  Cd  Cd19  1  0.377405  0.864749  0.378923  1
  Cd  Cd20  1  0.864749  0.377405  0.378923  1
  Cd  Cd21  1  0.378596  0.378596  0.378668  1
  Cd  Cd22  1  0.000225  0.000225  0.499775  1
  Cd  Cd23  1  0.499802  0.000207  0.500198  1
  Cd  Cd24  1  0.000207  0.499802  0.500198  1
  Cd  Cd25  1  0.500225  0.500225  0.999775  1
  Cd  Cd26  1  0.000207  0.499802  0.999793  1
  Cd  Cd27  1  0.499802  0.000207  0.999793  1
  Cd  Cd28  1  0.500215  0.500215  0.499785  1
  P  P29  1  0.001079  0.001079  0.998921  1
