# generated using pymatgen
data_ErLu9CuGePb6
_symmetry_space_group_name_H-M   'P 1'
_cell_length_a   9.05820242
_cell_length_b   9.04493520
_cell_length_c   6.62974531
_cell_angle_alpha   89.98246121
_cell_angle_beta   90.03501988
_cell_angle_gamma   120.04853362
_symmetry_Int_Tables_number   1
_chemical_formula_structural   ErLu9CuGePb6
_chemical_formula_sum   'Er1 Lu9 Cu1 Ge1 Pb6'
_cell_volume   470.17796767
_cell_formula_units_Z   1
loop_
 _symmetry_equiv_pos_site_id
 _symmetry_equiv_pos_as_xyz
  1  'x, y, z'
loop_
 _atom_site_type_symbol
 _atom_site_label
 _atom_site_symmetry_multiplicity
 _atom_site_fract_x
 _atom_site_fract_y
 _atom_site_fract_z
 _atom_site_occupancy
  Er  Er0  1  0.250051  0.000000  0.743011  1
  Lu  Lu1  1  0.750697  0.000000  0.257571  1
  Lu  Lu2  1  0.999920  0.249412  0.742530  1
  Lu  Lu3  1  0.000046  0.750726  0.257321  1
  Lu  Lu4  1  0.750508  0.750588  0.742530  1
  Lu  Lu5  1  0.249319  0.249274  0.257321  1
  Lu  Lu6  1  0.333463  0.666600  0.500094  1
  Lu  Lu7  1  0.666864  0.333400  0.500094  1
  Lu  Lu8  1  0.666781  0.333272  0.000153  1
  Lu  Lu9  1  0.333508  0.666728  0.000153  1
  Cu  Cu10  1  0.999567  0.000000  0.000485  1
  Ge  Ge11  1  0.999300  0.000000  0.498966  1
  Pb  Pb12  1  0.606110  0.000000  0.748950  1
  Pb  Pb13  1  0.394148  0.000000  0.250857  1
  Pb  Pb14  1  0.999543  0.605013  0.749205  1
  Pb  Pb15  1  0.999993  0.394339  0.250777  1
  Pb  Pb16  1  0.394530  0.394987  0.749205  1
  Pb  Pb17  1  0.605654  0.605661  0.250777  1
