# generated using pymatgen
data_TbY2ThNi4
_symmetry_space_group_name_H-M   'P 1'
_cell_length_a   4.37304900
_cell_length_b   5.40224711
_cell_length_c   7.00591908
_cell_angle_alpha   91.35661023
_cell_angle_beta   90.00000000
_cell_angle_gamma   90.00000000
_symmetry_Int_Tables_number   1
_chemical_formula_structural   TbY2ThNi4
_chemical_formula_sum   'Tb1 Y2 Th1 Ni4'
_cell_volume   165.46348175
_cell_formula_units_Z   1
loop_
 _symmetry_equiv_pos_site_id
 _symmetry_equiv_pos_as_xyz
  1  'x, y, z'
loop_
 _atom_site_type_symbol
 _atom_site_label
 _atom_site_symmetry_multiplicity
 _atom_site_fract_x
 _atom_site_fract_y
 _atom_site_fract_z
 _atom_site_occupancy
  Tb  Tb0  1  0.000000  0.882660  0.184155  1
  Y  Y1  1  0.500000  0.386422  0.315741  1
  Y  Y2  1  0.500000  0.616985  0.820843  1
  Th  Th3  1  0.000000  0.116702  0.679329  1
  Ni  Ni4  1  0.000000  0.618490  0.541955  1
  Ni  Ni5  1  0.000000  0.372312  0.032743  1
  Ni  Ni6  1  0.500000  0.884795  0.467362  1
  Ni  Ni7  1  0.500000  0.121634  0.957872  1
