# generated using pymatgen
data_Y3Mn(P3Rh4)2
_symmetry_space_group_name_H-M   'P 1'
_cell_length_a   3.90087100
_cell_length_b   11.26756700
_cell_length_c   12.60297500
_cell_angle_alpha   90.00000000
_cell_angle_beta   90.00000000
_cell_angle_gamma   90.00000000
_symmetry_Int_Tables_number   1
_chemical_formula_structural   Y3Mn(P3Rh4)2
_chemical_formula_sum   'Y6 Mn2 P12 Rh16'
_cell_volume   553.94266056
_cell_formula_units_Z   2
loop_
 _symmetry_equiv_pos_site_id
 _symmetry_equiv_pos_as_xyz
  1  'x, y, z'
loop_
 _atom_site_type_symbol
 _atom_site_label
 _atom_site_symmetry_multiplicity
 _atom_site_fract_x
 _atom_site_fract_y
 _atom_site_fract_z
 _atom_site_occupancy
  Y  Y0  1  0.000000  0.500000  0.520190  1
  Y  Y1  1  0.500000  0.000000  0.479810  1
  Y  Y2  1  0.500000  0.820771  0.201510  1
  Y  Y3  1  0.500000  0.179229  0.201510  1
  Y  Y4  1  0.000000  0.679229  0.798490  1
  Y  Y5  1  0.000000  0.320771  0.798490  1
  Mn  Mn6  1  0.000000  0.500000  0.990564  1
  Mn  Mn7  1  0.500000  0.000000  0.009436  1
  P  P8  1  0.500000  0.500000  0.885563  1
  P  P9  1  0.000000  0.000000  0.114437  1
  P  P10  1  0.500000  0.500000  0.348284  1
  P  P11  1  0.000000  0.000000  0.651716  1
  P  P12  1  0.500000  0.313832  0.620590  1
  P  P13  1  0.500000  0.686168  0.620590  1
  P  P14  1  0.000000  0.186168  0.379410  1
  P  P15  1  0.000000  0.813832  0.379410  1
  P  P16  1  0.500000  0.849645  0.897126  1
  P  P17  1  0.500000  0.150355  0.897126  1
  P  P18  1  0.000000  0.650355  0.102874  1
  P  P19  1  0.000000  0.349645  0.102874  1
  Rh  Rh20  1  0.500000  0.500000  0.160698  1
  Rh  Rh21  1  0.000000  0.000000  0.839302  1
  Rh  Rh22  1  0.500000  0.500000  0.700874  1
  Rh  Rh23  1  0.000000  0.000000  0.299126  1
  Rh  Rh24  1  0.500000  0.333644  0.992756  1
  Rh  Rh25  1  0.500000  0.666356  0.992756  1
  Rh  Rh26  1  0.000000  0.166356  0.007244  1
  Rh  Rh27  1  0.000000  0.833644  0.007244  1
  Rh  Rh28  1  0.500000  0.294517  0.429884  1
  Rh  Rh29  1  0.500000  0.705483  0.429884  1
  Rh  Rh30  1  0.000000  0.205483  0.570116  1
  Rh  Rh31  1  0.000000  0.794517  0.570116  1
  Rh  Rh32  1  0.500000  0.873125  0.713605  1
  Rh  Rh33  1  0.500000  0.126875  0.713605  1
  Rh  Rh34  1  0.000000  0.626875  0.286395  1
  Rh  Rh35  1  0.000000  0.373125  0.286395  1
