# generated using pymatgen
data_ErFe3P3Ru2
_symmetry_space_group_name_H-M   'P 1'
_cell_length_a   3.75134700
_cell_length_b   10.45401500
_cell_length_c   11.95363000
_cell_angle_alpha   90.00000000
_cell_angle_beta   90.00000000
_cell_angle_gamma   90.00000000
_symmetry_Int_Tables_number   1
_chemical_formula_structural   ErFe3P3Ru2
_chemical_formula_sum   'Er4 Fe12 P12 Ru8'
_cell_volume   468.78117820
_cell_formula_units_Z   4
loop_
 _symmetry_equiv_pos_site_id
 _symmetry_equiv_pos_as_xyz
  1  'x, y, z'
loop_
 _atom_site_type_symbol
 _atom_site_label
 _atom_site_symmetry_multiplicity
 _atom_site_fract_x
 _atom_site_fract_y
 _atom_site_fract_z
 _atom_site_occupancy
  Er  Er0  1  0.250000  0.582727  0.709684  1
  Er  Er1  1  0.250000  0.917273  0.209684  1
  Er  Er2  1  0.750000  0.417273  0.290316  1
  Er  Er3  1  0.750000  0.082727  0.790316  1
  Fe  Fe4  1  0.250000  0.224415  0.175444  1
  Fe  Fe5  1  0.250000  0.275585  0.675444  1
  Fe  Fe6  1  0.750000  0.775585  0.824556  1
  Fe  Fe7  1  0.750000  0.724415  0.324556  1
  Fe  Fe8  1  0.250000  0.880387  0.699141  1
  Fe  Fe9  1  0.250000  0.619613  0.199141  1
  Fe  Fe10  1  0.750000  0.119613  0.300859  1
  Fe  Fe11  1  0.750000  0.380387  0.800859  1
  Fe  Fe12  1  0.250000  0.462068  0.934402  1
  Fe  Fe13  1  0.250000  0.037932  0.434402  1
  Fe  Fe14  1  0.750000  0.537932  0.065598  1
  Fe  Fe15  1  0.750000  0.962068  0.565598  1
  P  P16  1  0.250000  0.425222  0.113389  1
  P  P17  1  0.250000  0.074778  0.613389  1
  P  P18  1  0.750000  0.574778  0.886611  1
  P  P19  1  0.750000  0.925222  0.386611  1
  P  P20  1  0.250000  0.272046  0.860902  1
  P  P21  1  0.250000  0.227954  0.360902  1
  P  P22  1  0.750000  0.727954  0.139098  1
  P  P23  1  0.750000  0.772046  0.639098  1
  P  P24  1  0.250000  0.605679  0.384969  1
  P  P25  1  0.250000  0.894321  0.884969  1
  P  P26  1  0.750000  0.394321  0.615031  1
  P  P27  1  0.750000  0.105679  0.115031  1
  Ru  Ru28  1  0.250000  0.702559  0.984509  1
  Ru  Ru29  1  0.250000  0.797441  0.484509  1
  Ru  Ru30  1  0.750000  0.297441  0.015491  1
  Ru  Ru31  1  0.750000  0.202559  0.515491  1
  Ru  Ru32  1  0.250000  0.403216  0.484976  1
  Ru  Ru33  1  0.250000  0.096785  0.984976  1
  Ru  Ru34  1  0.750000  0.596784  0.515024  1
  Ru  Ru35  1  0.750000  0.903216  0.015024  1
