# generated using pymatgen
data_Hf8Cu7Hg4Ir
_symmetry_space_group_name_H-M   'P 1'
_cell_length_a   7.22946346
_cell_length_b   7.22946444
_cell_length_c   6.74657827
_cell_angle_alpha   90.15327418
_cell_angle_beta   90.15327179
_cell_angle_gamma   90.14827168
_symmetry_Int_Tables_number   1
_chemical_formula_structural   Hf8Cu7Hg4Ir
_chemical_formula_sum   'Hf8 Cu7 Hg4 Ir1'
_cell_volume   352.60720815
_cell_formula_units_Z   1
loop_
 _symmetry_equiv_pos_site_id
 _symmetry_equiv_pos_as_xyz
  1  'x, y, z'
loop_
 _atom_site_type_symbol
 _atom_site_label
 _atom_site_symmetry_multiplicity
 _atom_site_fract_x
 _atom_site_fract_y
 _atom_site_fract_z
 _atom_site_occupancy
  Hf  Hf0  1  0.154483  0.154483  0.004785  1
  Hf  Hf1  1  0.853971  0.853971  0.994702  1
  Hf  Hf2  1  0.648036  0.345408  0.494384  1
  Hf  Hf3  1  0.345408  0.648036  0.494384  1
  Hf  Hf4  1  0.685206  0.307745  0.002977  1
  Hf  Hf5  1  0.307745  0.685206  0.002977  1
  Hf  Hf6  1  0.810384  0.810384  0.502286  1
  Hf  Hf7  1  0.191819  0.191819  0.498297  1
  Cu  Cu8  1  0.623328  0.623328  0.789752  1
  Cu  Cu9  1  0.633775  0.633775  0.201739  1
  Cu  Cu10  1  0.877291  0.124840  0.707129  1
  Cu  Cu11  1  0.877525  0.122078  0.292882  1
  Cu  Cu12  1  0.376417  0.376417  0.793127  1
  Cu  Cu13  1  0.122078  0.877525  0.292882  1
  Cu  Cu14  1  0.124840  0.877291  0.707129  1
  Hg  Hg15  1  0.503219  0.988939  0.249074  1
  Hg  Hg16  1  0.498885  0.998448  0.749314  1
  Hg  Hg17  1  0.988939  0.503219  0.249074  1
  Hg  Hg18  1  0.998448  0.498885  0.749314  1
  Ir  Ir19  1  0.378204  0.378204  0.223791  1
