# generated using pymatgen
data_Tb8Er12Si15Ru
_symmetry_space_group_name_H-M   'P 1'
_cell_length_a   7.35588929
_cell_length_b   7.74096518
_cell_length_c   14.50320700
_cell_angle_alpha   90.00000000
_cell_angle_beta   90.00000000
_cell_angle_gamma   90.00376504
_symmetry_Int_Tables_number   1
_chemical_formula_structural   Tb8Er12Si15Ru
_chemical_formula_sum   'Tb8 Er12 Si15 Ru1'
_cell_volume   825.83701217
_cell_formula_units_Z   1
loop_
 _symmetry_equiv_pos_site_id
 _symmetry_equiv_pos_as_xyz
  1  'x, y, z'
loop_
 _atom_site_type_symbol
 _atom_site_label
 _atom_site_symmetry_multiplicity
 _atom_site_fract_x
 _atom_site_fract_y
 _atom_site_fract_z
 _atom_site_occupancy
  Tb  Tb0  1  0.521060  0.673547  0.594472  1
  Tb  Tb1  1  0.023716  0.818473  0.904082  1
  Tb  Tb2  1  0.474606  0.315825  0.097033  1
  Tb  Tb3  1  0.975570  0.181629  0.403503  1
  Tb  Tb4  1  0.474606  0.315825  0.402967  1
  Tb  Tb5  1  0.975570  0.181629  0.096497  1
  Tb  Tb6  1  0.521060  0.673547  0.905528  1
  Tb  Tb7  1  0.023716  0.818473  0.595918  1
  Er  Er8  1  0.671088  0.184902  0.625922  1
  Er  Er9  1  0.193718  0.325984  0.872634  1
  Er  Er10  1  0.318346  0.819984  0.124158  1
  Er  Er11  1  0.817372  0.676515  0.376225  1
  Er  Er12  1  0.318346  0.819984  0.375842  1
  Er  Er13  1  0.817372  0.676515  0.123775  1
  Er  Er14  1  0.671088  0.184902  0.874078  1
  Er  Er15  1  0.193718  0.325984  0.627366  1
  Er  Er16  1  0.839143  0.512799  0.750000  1
  Er  Er17  1  0.353508  0.982400  0.750000  1
  Er  Er18  1  0.150675  0.484810  0.250000  1
  Er  Er19  1  0.649840  0.013013  0.250000  1
  Si  Si20  1  0.648004  0.970175  0.460809  1
  Si  Si21  1  0.150433  0.529294  0.039540  1
  Si  Si22  1  0.347544  0.026095  0.961132  1
  Si  Si23  1  0.855524  0.469374  0.539299  1
  Si  Si24  1  0.347544  0.026095  0.538868  1
  Si  Si25  1  0.855524  0.469374  0.960701  1
  Si  Si26  1  0.648004  0.970175  0.039191  1
  Si  Si27  1  0.150433  0.529294  0.460460  1
  Si  Si28  1  0.980338  0.104454  0.750000  1
  Si  Si29  1  0.522349  0.606412  0.250000  1
  Si  Si30  1  0.019078  0.891655  0.250000  1
  Si  Si31  1  0.739414  0.877375  0.750000  1
  Si  Si32  1  0.227847  0.632962  0.750000  1
  Si  Si33  1  0.268250  0.127668  0.250000  1
  Si  Si34  1  0.770909  0.371181  0.250000  1
  Ru  Ru35  1  0.484687  0.411678  0.750000  1
