# generated using pymatgen
data_La6Tb4Sn20IrRh7
_symmetry_space_group_name_H-M   'P 1'
_cell_length_a   14.25346396
_cell_length_b   14.25499694
_cell_length_c   4.62009600
_cell_angle_alpha   90.00000000
_cell_angle_beta   90.00000000
_cell_angle_gamma   89.89529840
_symmetry_Int_Tables_number   1
_chemical_formula_structural   La6Tb4Sn20IrRh7
_chemical_formula_sum   'La6 Tb4 Sn20 Ir1 Rh7'
_cell_volume   938.72379153
_cell_formula_units_Z   1
loop_
 _symmetry_equiv_pos_site_id
 _symmetry_equiv_pos_as_xyz
  1  'x, y, z'
loop_
 _atom_site_type_symbol
 _atom_site_label
 _atom_site_symmetry_multiplicity
 _atom_site_fract_x
 _atom_site_fract_y
 _atom_site_fract_z
 _atom_site_occupancy
  La  La0  1  0.499613  0.499618  0.000000  1
  La  La1  1  0.999851  0.999668  0.000000  1
  La  La2  1  0.887936  0.388059  0.500000  1
  La  La3  1  0.111257  0.613101  0.500000  1
  La  La4  1  0.388165  0.111258  0.500000  1
  La  La5  1  0.611509  0.888403  0.500000  1
  Tb  Tb6  1  0.674866  0.177341  0.500000  1
  Tb  Tb7  1  0.324340  0.822428  0.500000  1
  Tb  Tb8  1  0.176819  0.322747  0.500000  1
  Tb  Tb9  1  0.827149  0.680280  0.500000  1
  Sn  Sn10  1  0.570112  0.069824  0.000000  1
  Sn  Sn11  1  0.429611  0.929685  0.000000  1
  Sn  Sn12  1  0.070342  0.429697  0.000000  1
  Sn  Sn13  1  0.928581  0.568627  0.000000  1
  Sn  Sn14  1  0.654438  0.697276  0.000000  1
  Sn  Sn15  1  0.345891  0.301852  0.000000  1
  Sn  Sn16  1  0.154753  0.801464  0.000000  1
  Sn  Sn17  1  0.845730  0.197877  0.000000  1
  Sn  Sn18  1  0.301843  0.653926  0.000000  1
  Sn  Sn19  1  0.698775  0.345634  0.000000  1
  Sn  Sn20  1  0.198212  0.154121  0.000000  1
  Sn  Sn21  1  0.800474  0.845964  0.000000  1
  Sn  Sn22  1  0.664353  0.509988  0.500000  1
  Sn  Sn23  1  0.335348  0.492109  0.500000  1
  Sn  Sn24  1  0.164691  0.992254  0.500000  1
  Sn  Sn25  1  0.835499  0.008271  0.500000  1
  Sn  Sn26  1  0.493289  0.663654  0.500000  1
  Sn  Sn27  1  0.506437  0.335814  0.500000  1
  Sn  Sn28  1  0.007655  0.163861  0.500000  1
  Sn  Sn29  1  0.993937  0.837722  0.500000  1
  Ir  Ir30  1  0.969206  0.751529  0.000000  1
  Rh  Rh31  1  0.746842  0.528824  0.000000  1
  Rh  Rh32  1  0.252516  0.470510  0.000000  1
  Rh  Rh33  1  0.246472  0.970167  0.000000  1
  Rh  Rh34  1  0.753024  0.029634  0.000000  1
  Rh  Rh35  1  0.470125  0.746549  0.000000  1
  Rh  Rh36  1  0.530651  0.253191  0.000000  1
  Rh  Rh37  1  0.029687  0.247078  0.000000  1
