# generated using pymatgen
data_Ac7Pr9(HoPb4)4
_symmetry_space_group_name_H-M   'P 1'
_cell_length_a   8.57064876
_cell_length_b   16.55447749
_cell_length_c   8.67925428
_cell_angle_alpha   90.09217047
_cell_angle_beta   89.61070951
_cell_angle_gamma   90.29793917
_symmetry_Int_Tables_number   1
_chemical_formula_structural   Ac7Pr9(HoPb4)4
_chemical_formula_sum   'Ac7 Pr9 Ho4 Pb16'
_cell_volume   1231.38867026
_cell_formula_units_Z   1
loop_
 _symmetry_equiv_pos_site_id
 _symmetry_equiv_pos_as_xyz
  1  'x, y, z'
loop_
 _atom_site_type_symbol
 _atom_site_label
 _atom_site_symmetry_multiplicity
 _atom_site_fract_x
 _atom_site_fract_y
 _atom_site_fract_z
 _atom_site_occupancy
  Ac  Ac0  1  0.978024  0.901120  0.821530  1
  Ac  Ac1  1  0.521550  0.096940  0.322230  1
  Ac  Ac2  1  0.023668  0.403690  0.178822  1
  Ac  Ac3  1  0.523280  0.403312  0.324439  1
  Ac  Ac4  1  0.021383  0.096779  0.177787  1
  Ac  Ac5  1  0.478960  0.902602  0.677423  1
  Ac  Ac6  1  0.976991  0.597221  0.820126  1
  Pr  Pr7  1  0.634548  0.620828  0.155109  1
  Pr  Pr8  1  0.137153  0.878469  0.344682  1
  Pr  Pr9  1  0.363592  0.121870  0.844039  1
  Pr  Pr10  1  0.865197  0.381110  0.653772  1
  Pr  Pr11  1  0.366987  0.379585  0.844750  1
  Pr  Pr12  1  0.863132  0.120891  0.655246  1
  Pr  Pr13  1  0.635963  0.876656  0.155857  1
  Pr  Pr14  1  0.135426  0.619311  0.345531  1
  Pr  Pr15  1  0.473773  0.600435  0.676893  1
  Ho  Ho16  1  0.800185  0.748726  0.496123  1
  Ho  Ho17  1  0.300345  0.748667  0.002095  1
  Ho  Ho18  1  0.199996  0.251103  0.504473  1
  Ho  Ho19  1  0.700206  0.250173  0.996580  1
  Pb  Pb20  1  0.703699  0.453054  0.960327  1
  Pb  Pb21  1  0.202592  0.047090  0.542358  1
  Pb  Pb22  1  0.298322  0.951863  0.040050  1
  Pb  Pb23  1  0.787627  0.549809  0.464868  1
  Pb  Pb24  1  0.298201  0.548794  0.034624  1
  Pb  Pb25  1  0.797646  0.952520  0.457266  1
  Pb  Pb26  1  0.701972  0.046594  0.959567  1
  Pb  Pb27  1  0.209378  0.455851  0.544887  1
  Pb  Pb28  1  0.440988  0.747854  0.370035  1
  Pb  Pb29  1  0.942990  0.749038  0.132153  1
  Pb  Pb30  1  0.559111  0.250510  0.632245  1
  Pb  Pb31  1  0.057107  0.251260  0.867047  1
  Pb  Pb32  1  0.662733  0.746960  0.846714  1
  Pb  Pb33  1  0.171770  0.748697  0.648545  1
  Pb  Pb34  1  0.332660  0.250313  0.150693  1
  Pb  Pb35  1  0.832845  0.250301  0.351111  1
