# generated using pymatgen
data_RbAlGeSe4
_symmetry_space_group_name_H-M   'P 1'
_cell_length_a   17.18299500
_cell_length_b   7.34685050
_cell_length_c   7.79359868
_cell_angle_alpha   69.68349055
_cell_angle_beta   90.00000000
_cell_angle_gamma   90.00000000
_symmetry_Int_Tables_number   1
_chemical_formula_structural   RbAlGeSe4
_chemical_formula_sum   'Rb4 Al4 Ge4 Se16'
_cell_volume   922.66321435
_cell_formula_units_Z   4
loop_
 _symmetry_equiv_pos_site_id
 _symmetry_equiv_pos_as_xyz
  1  'x, y, z'
loop_
 _atom_site_type_symbol
 _atom_site_label
 _atom_site_symmetry_multiplicity
 _atom_site_fract_x
 _atom_site_fract_y
 _atom_site_fract_z
 _atom_site_occupancy
  Rb  Rb0  1  0.396293  0.972312  0.179123  1
  Rb  Rb1  1  0.896293  0.027688  0.820877  1
  Rb  Rb2  1  0.603135  0.517813  0.819472  1
  Rb  Rb3  1  0.103135  0.482187  0.180528  1
  Al  Al4  1  0.582661  0.169060  0.473622  1
  Al  Al5  1  0.082661  0.830940  0.526378  1
  Al  Al6  1  0.272974  0.594144  0.711876  1
  Al  Al7  1  0.772974  0.405856  0.288124  1
  Ge  Ge8  1  0.419966  0.333780  0.531270  1
  Ge  Ge9  1  0.919966  0.666220  0.468730  1
  Ge  Ge10  1  0.724633  0.911344  0.272551  1
  Ge  Ge11  1  0.224633  0.088656  0.727449  1
  Se  Se12  1  0.593587  0.888535  0.378618  1
  Se  Se13  1  0.093587  0.111465  0.621382  1
  Se  Se14  1  0.409549  0.607998  0.626578  1
  Se  Se15  1  0.909549  0.392002  0.373422  1
  Se  Se16  1  0.799081  0.778437  0.552338  1
  Se  Se17  1  0.299081  0.221563  0.447662  1
  Se  Se18  1  0.201450  0.727845  0.436954  1
  Se  Se19  1  0.701450  0.272155  0.563046  1
  Se  Se20  1  0.764212  0.227585  0.078215  1
  Se  Se21  1  0.264212  0.772415  0.921785  1
  Se  Se22  1  0.238362  0.274054  0.923546  1
  Se  Se23  1  0.738362  0.725946  0.076454  1
  Se  Se24  1  0.997850  0.912375  0.257483  1
  Se  Se25  1  0.497850  0.087625  0.742517  1
  Se  Se26  1  0.996245  0.595127  0.740897  1
  Se  Se27  1  0.496245  0.404873  0.259103  1
