# generated using pymatgen
data_Cs2AgAs2O7
_symmetry_space_group_name_H-M   'P 1'
_cell_length_a   8.04229003
_cell_length_b   8.04229094
_cell_length_c   10.80233291
_cell_angle_alpha   80.44929203
_cell_angle_beta   80.44929142
_cell_angle_gamma   122.89254970
_symmetry_Int_Tables_number   1
_chemical_formula_structural   Cs2AgAs2O7
_chemical_formula_sum   'Cs4 Ag2 As4 O14'
_cell_volume   550.19293763
_cell_formula_units_Z   2
loop_
 _symmetry_equiv_pos_site_id
 _symmetry_equiv_pos_as_xyz
  1  'x, y, z'
loop_
 _atom_site_type_symbol
 _atom_site_label
 _atom_site_symmetry_multiplicity
 _atom_site_fract_x
 _atom_site_fract_y
 _atom_site_fract_z
 _atom_site_occupancy
  Cs  Cs0  1  0.373323  0.465623  0.127884  1
  Cs  Cs1  1  0.465623  0.373323  0.627884  1
  Cs  Cs2  1  0.589328  0.016663  0.320063  1
  Cs  Cs3  1  0.016663  0.589328  0.820063  1
  Ag  Ag4  1  0.008470  0.779126  0.286766  1
  Ag  Ag5  1  0.779126  0.008470  0.786766  1
  As  As6  1  0.392574  0.987095  0.000119  1
  As  As7  1  0.987095  0.392574  0.500119  1
  As  As8  1  0.024537  0.041452  0.991492  1
  As  As9  1  0.041452  0.024537  0.491492  1
  O  O10  1  0.287599  0.123243  0.407084  1
  O  O11  1  0.123243  0.287599  0.907084  1
  O  O12  1  0.986430  0.205952  0.425204  1
  O  O13  1  0.205952  0.986430  0.925204  1
  O  O14  1  0.568348  0.227145  0.004919  1
  O  O15  1  0.227145  0.568348  0.504919  1
  O  O16  1  0.995298  0.009290  0.157414  1
  O  O17  1  0.009290  0.995298  0.657414  1
  O  O18  1  0.802569  0.850879  0.964335  1
  O  O19  1  0.850879  0.802569  0.464335  1
  O  O20  1  0.466724  0.880424  0.898315  1
  O  O21  1  0.880424  0.466724  0.398315  1
  O  O22  1  0.250171  0.794518  0.151355  1
  O  O23  1  0.794518  0.250171  0.651355  1
