# generated using pymatgen
data_TbHo2Fe(Co4P3)2
_symmetry_space_group_name_H-M   'P 1'
_cell_length_a   3.69186600
_cell_length_b   10.50854500
_cell_length_c   12.16376200
_cell_angle_alpha   90.00000000
_cell_angle_beta   90.00000000
_cell_angle_gamma   90.00000000
_symmetry_Int_Tables_number   1
_chemical_formula_structural   TbHo2Fe(Co4P3)2
_chemical_formula_sum   'Tb2 Ho4 Fe2 Co16 P12'
_cell_volume   471.90701342
_cell_formula_units_Z   2
loop_
 _symmetry_equiv_pos_site_id
 _symmetry_equiv_pos_as_xyz
  1  'x, y, z'
loop_
 _atom_site_type_symbol
 _atom_site_label
 _atom_site_symmetry_multiplicity
 _atom_site_fract_x
 _atom_site_fract_y
 _atom_site_fract_z
 _atom_site_occupancy
  Tb  Tb0  1  0.000000  0.500000  0.522137  1
  Tb  Tb1  1  0.500000  0.000000  0.477863  1
  Ho  Ho2  1  0.500000  0.817695  0.205069  1
  Ho  Ho3  1  0.500000  0.182305  0.205069  1
  Ho  Ho4  1  0.000000  0.682305  0.794931  1
  Ho  Ho5  1  0.000000  0.317695  0.794931  1
  Fe  Fe6  1  0.500000  0.500000  0.157181  1
  Fe  Fe7  1  0.000000  0.000000  0.842819  1
  Co  Co8  1  0.500000  0.500000  0.702734  1
  Co  Co9  1  0.000000  0.000000  0.297266  1
  Co  Co10  1  0.000000  0.500000  0.986248  1
  Co  Co11  1  0.500000  0.000000  0.013752  1
  Co  Co12  1  0.500000  0.332916  0.994378  1
  Co  Co13  1  0.500000  0.667084  0.994378  1
  Co  Co14  1  0.000000  0.167084  0.005622  1
  Co  Co15  1  0.000000  0.832916  0.005622  1
  Co  Co16  1  0.500000  0.296875  0.430452  1
  Co  Co17  1  0.500000  0.703125  0.430452  1
  Co  Co18  1  0.000000  0.203125  0.569548  1
  Co  Co19  1  0.000000  0.796875  0.569548  1
  Co  Co20  1  0.500000  0.878926  0.709420  1
  Co  Co21  1  0.500000  0.121074  0.709420  1
  Co  Co22  1  0.000000  0.621074  0.290580  1
  Co  Co23  1  0.000000  0.378926  0.290580  1
  P  P24  1  0.500000  0.500000  0.882316  1
  P  P25  1  0.000000  0.000000  0.117684  1
  P  P26  1  0.500000  0.500000  0.342452  1
  P  P27  1  0.000000  0.000000  0.657548  1
  P  P28  1  0.500000  0.309894  0.616349  1
  P  P29  1  0.500000  0.690106  0.616349  1
  P  P30  1  0.000000  0.190106  0.383651  1
  P  P31  1  0.000000  0.809894  0.383651  1
  P  P32  1  0.500000  0.847279  0.892572  1
  P  P33  1  0.500000  0.152721  0.892572  1
  P  P34  1  0.000000  0.652721  0.107428  1
  P  P35  1  0.000000  0.347279  0.107428  1
