# generated using pymatgen
data_Ho4PtPb2Au3
_symmetry_space_group_name_H-M   'P 1'
_cell_length_a   8.16578004
_cell_length_b   8.16577981
_cell_length_c   3.57728800
_cell_angle_alpha   90.00000000
_cell_angle_beta   90.00000000
_cell_angle_gamma   90.13525284
_symmetry_Int_Tables_number   1
_chemical_formula_structural   Ho4PtPb2Au3
_chemical_formula_sum   'Ho4 Pt1 Pb2 Au3'
_cell_volume   238.53276228
_cell_formula_units_Z   1
loop_
 _symmetry_equiv_pos_site_id
 _symmetry_equiv_pos_as_xyz
  1  'x, y, z'
loop_
 _atom_site_type_symbol
 _atom_site_label
 _atom_site_symmetry_multiplicity
 _atom_site_fract_x
 _atom_site_fract_y
 _atom_site_fract_z
 _atom_site_occupancy
  Ho  Ho0  1  0.676451  0.176451  0.500000  1
  Ho  Ho1  1  0.152207  0.329976  0.500000  1
  Ho  Ho2  1  0.829976  0.652207  0.500000  1
  Ho  Ho3  1  0.336702  0.836702  0.500000  1
  Pt  Pt4  1  0.874149  0.374149  0.000000  1
  Pb  Pb5  1  0.998289  0.999731  0.000000  1
  Pb  Pb6  1  0.499731  0.498289  0.000000  1
  Au  Au7  1  0.374963  0.129584  0.000000  1
  Au  Au8  1  0.127947  0.627947  0.000000  1
  Au  Au9  1  0.629584  0.874963  0.000000  1
