# generated using pymatgen
data_Tm3PaAl18PtRh5
_symmetry_space_group_name_H-M   'P 1'
_cell_length_a   7.58404507
_cell_length_b   7.57704229
_cell_length_c   9.39744606
_cell_angle_alpha   89.99989444
_cell_angle_beta   89.98931033
_cell_angle_gamma   119.53052645
_symmetry_Int_Tables_number   1
_chemical_formula_structural   Tm3PaAl18PtRh5
_chemical_formula_sum   'Tm3 Pa1 Al18 Pt1 Rh5'
_cell_volume   469.86839057
_cell_formula_units_Z   1
loop_
 _symmetry_equiv_pos_site_id
 _symmetry_equiv_pos_as_xyz
  1  'x, y, z'
loop_
 _atom_site_type_symbol
 _atom_site_label
 _atom_site_symmetry_multiplicity
 _atom_site_fract_x
 _atom_site_fract_y
 _atom_site_fract_z
 _atom_site_occupancy
  Tm  Tm0  1  0.005444  0.327999  0.749807  1
  Tm  Tm1  1  0.672847  0.993894  0.250155  1
  Tm  Tm2  1  0.328656  0.005057  0.749697  1
  Pa  Pa3  1  0.996530  0.672900  0.250843  1
  Al  Al4  1  0.131938  0.130117  0.250044  1
  Al  Al5  1  0.873838  0.875172  0.749795  1
  Al  Al6  1  0.003133  0.332949  0.075687  1
  Al  Al7  1  0.003240  0.667541  0.919787  1
  Al  Al8  1  0.000087  0.663916  0.579744  1
  Al  Al9  1  0.339321  0.002931  0.425122  1
  Al  Al10  1  0.999911  0.332653  0.425283  1
  Al  Al11  1  0.664628  0.000895  0.577037  1
  Al  Al12  1  0.664630  0.997499  0.922111  1
  Al  Al13  1  0.335479  0.999783  0.075720  1
  Al  Al14  1  0.331467  0.331570  0.555778  1
  Al  Al15  1  0.664013  0.666422  0.450529  1
  Al  Al16  1  0.663761  0.669356  0.050836  1
  Al  Al17  1  0.328656  0.332026  0.943086  1
  Al  Al18  1  0.340015  0.548952  0.250073  1
  Al  Al19  1  0.658469  0.449022  0.746958  1
  Al  Al20  1  0.547505  0.343022  0.252876  1
  Al  Al21  1  0.448380  0.660203  0.749729  1
  Pt  Pt22  1  0.673440  0.328021  0.001076  1
  Rh  Rh23  1  0.326407  0.672273  0.001271  1
  Rh  Rh24  1  0.326313  0.672203  0.498478  1
  Rh  Rh25  1  0.673403  0.328240  0.498747  1
  Rh  Rh26  1  0.999160  0.997829  0.002111  1
  Rh  Rh27  1  0.999331  0.997556  0.497622  1
