# generated using pymatgen
data_LaY2Ir2Rh7
_symmetry_space_group_name_H-M   'P 1'
_cell_length_a   5.32765349
_cell_length_b   5.31923463
_cell_length_c   17.57608524
_cell_angle_alpha   90.00003094
_cell_angle_beta   89.96251279
_cell_angle_gamma   119.94559492
_symmetry_Int_Tables_number   1
_chemical_formula_structural   LaY2Ir2Rh7
_chemical_formula_sum   'La2 Y4 Ir4 Rh14'
_cell_volume   431.59420567
_cell_formula_units_Z   2
loop_
 _symmetry_equiv_pos_site_id
 _symmetry_equiv_pos_as_xyz
  1  'x, y, z'
loop_
 _atom_site_type_symbol
 _atom_site_label
 _atom_site_symmetry_multiplicity
 _atom_site_fract_x
 _atom_site_fract_y
 _atom_site_fract_z
 _atom_site_occupancy
  La  La0  1  0.333367  0.666682  0.749882  1
  La  La1  1  0.666263  0.333125  0.250415  1
  Y  Y2  1  0.333194  0.666599  0.959180  1
  Y  Y3  1  0.666954  0.333474  0.040836  1
  Y  Y4  1  0.667810  0.333905  0.459277  1
  Y  Y5  1  0.333547  0.666776  0.540331  1
  Ir  Ir6  1  0.165105  0.830886  0.375428  1
  Ir  Ir7  1  0.165108  0.334235  0.375413  1
  Ir  Ir8  1  0.003076  0.001539  0.500280  1
  Ir  Ir9  1  0.999928  0.999957  0.000108  1
  Rh  Rh10  1  0.663940  0.831958  0.375273  1
  Rh  Rh11  1  0.832874  0.167265  0.624516  1
  Rh  Rh12  1  0.832879  0.665595  0.624535  1
  Rh  Rh13  1  0.334351  0.167180  0.624699  1
  Rh  Rh14  1  0.833060  0.167254  0.875708  1
  Rh  Rh15  1  0.833044  0.665802  0.875687  1
  Rh  Rh16  1  0.334285  0.167145  0.875586  1
  Rh  Rh17  1  0.166978  0.832392  0.123901  1
  Rh  Rh18  1  0.166991  0.334598  0.123918  1
  Rh  Rh19  1  0.665656  0.832825  0.124558  1
  Rh  Rh20  1  0.331332  0.665769  0.249928  1
  Rh  Rh21  1  0.666913  0.333348  0.750382  1
  Rh  Rh22  1  0.004342  0.002086  0.250192  1
  Rh  Rh23  1  0.999004  0.999604  0.749967  1
