# generated using pymatgen
data_Tb12Ga3Si8Ni
_symmetry_space_group_name_H-M   'P 1'
_cell_length_a   3.92544600
_cell_length_b   5.78381393
_cell_length_c   23.99051453
_cell_angle_alpha   82.63231675
_cell_angle_beta   90.00000000
_cell_angle_gamma   90.00000000
_symmetry_Int_Tables_number   1
_chemical_formula_structural   Tb12Ga3Si8Ni
_chemical_formula_sum   'Tb12 Ga3 Si8 Ni1'
_cell_volume   540.18473970
_cell_formula_units_Z   1
loop_
 _symmetry_equiv_pos_site_id
 _symmetry_equiv_pos_as_xyz
  1  'x, y, z'
loop_
 _atom_site_type_symbol
 _atom_site_label
 _atom_site_symmetry_multiplicity
 _atom_site_fract_x
 _atom_site_fract_y
 _atom_site_fract_z
 _atom_site_occupancy
  Tb  Tb0  1  0.750000  0.359204  0.069347  1
  Tb  Tb1  1  0.250000  0.660168  0.942478  1
  Tb  Tb2  1  0.750000  0.519655  0.221781  1
  Tb  Tb3  1  0.250000  0.470909  0.773312  1
  Tb  Tb4  1  0.750000  0.168914  0.391469  1
  Tb  Tb5  1  0.250000  0.826226  0.604279  1
  Tb  Tb6  1  0.750000  0.353167  0.556228  1
  Tb  Tb7  1  0.250000  0.643716  0.437723  1
  Tb  Tb8  1  0.750000  0.990299  0.725741  1
  Tb  Tb9  1  0.250000  0.997251  0.272263  1
  Tb  Tb10  1  0.750000  0.171318  0.894713  1
  Tb  Tb11  1  0.250000  0.836690  0.110211  1
  Ga  Ga12  1  0.250000  0.150295  0.991811  1
  Ga  Ga13  1  0.250000  0.957465  0.821773  1
  Ga  Ga14  1  0.250000  0.287341  0.652836  1
  Si  Si15  1  0.750000  0.874314  0.014832  1
  Si  Si16  1  0.750000  0.050217  0.180104  1
  Si  Si17  1  0.750000  0.702783  0.343947  1
  Si  Si18  1  0.750000  0.866405  0.509730  1
  Si  Si19  1  0.250000  0.131588  0.485112  1
  Si  Si20  1  0.750000  0.532382  0.677770  1
  Si  Si21  1  0.250000  0.465780  0.318515  1
  Si  Si22  1  0.750000  0.684679  0.847092  1
  Ni  Ni23  1  0.250000  0.299234  0.156931  1
