# generated using pymatgen
data_Tm2Th3Os2Rh
_symmetry_space_group_name_H-M   'P 1'
_cell_length_a   8.38579500
_cell_length_b   8.38579609
_cell_length_c   6.31109600
_cell_angle_alpha   90.00000000
_cell_angle_beta   90.00000000
_cell_angle_gamma   119.89707174
_symmetry_Int_Tables_number   1
_chemical_formula_structural   Tm2Th3Os2Rh
_chemical_formula_sum   'Tm4 Th6 Os4 Rh2'
_cell_volume   384.74542320
_cell_formula_units_Z   2
loop_
 _symmetry_equiv_pos_site_id
 _symmetry_equiv_pos_as_xyz
  1  'x, y, z'
loop_
 _atom_site_type_symbol
 _atom_site_label
 _atom_site_symmetry_multiplicity
 _atom_site_fract_x
 _atom_site_fract_y
 _atom_site_fract_z
 _atom_site_occupancy
  Tm  Tm0  1  0.331604  0.668396  0.000000  1
  Tm  Tm1  1  0.668396  0.331604  0.000000  1
  Tm  Tm2  1  0.668396  0.331604  0.500000  1
  Tm  Tm3  1  0.331604  0.668396  0.500000  1
  Th  Th4  1  0.254102  0.995892  0.250000  1
  Th  Th5  1  0.745898  0.004108  0.750000  1
  Th  Th6  1  0.995892  0.254102  0.250000  1
  Th  Th7  1  0.004108  0.745898  0.750000  1
  Th  Th8  1  0.747174  0.747174  0.250000  1
  Th  Th9  1  0.252826  0.252826  0.750000  1
  Os  Os10  1  0.612833  0.997565  0.250000  1
  Os  Os11  1  0.387167  0.002435  0.750000  1
  Os  Os12  1  0.997565  0.612833  0.250000  1
  Os  Os13  1  0.002435  0.387167  0.750000  1
  Rh  Rh14  1  0.385031  0.385031  0.250000  1
  Rh  Rh15  1  0.614969  0.614969  0.750000  1
