# generated using pymatgen
data_Nd4Y6Sn3Pb5
_symmetry_space_group_name_H-M   'P 1'
_cell_length_a   8.13816100
_cell_length_b   8.27759100
_cell_length_c   15.60052100
_cell_angle_alpha   90.00000000
_cell_angle_beta   90.00000000
_cell_angle_gamma   90.00000000
_symmetry_Int_Tables_number   1
_chemical_formula_structural   Nd4Y6Sn3Pb5
_chemical_formula_sum   'Nd8 Y12 Sn6 Pb10'
_cell_volume   1050.91924154
_cell_formula_units_Z   2
loop_
 _symmetry_equiv_pos_site_id
 _symmetry_equiv_pos_as_xyz
  1  'x, y, z'
loop_
 _atom_site_type_symbol
 _atom_site_label
 _atom_site_symmetry_multiplicity
 _atom_site_fract_x
 _atom_site_fract_y
 _atom_site_fract_z
 _atom_site_occupancy
  Nd  Nd0  1  0.520388  0.320228  0.901407  1
  Nd  Nd1  1  0.020388  0.179772  0.598593  1
  Nd  Nd2  1  0.480072  0.678138  0.400139  1
  Nd  Nd3  1  0.980072  0.821862  0.099861  1
  Nd  Nd4  1  0.480072  0.678138  0.099861  1
  Nd  Nd5  1  0.980072  0.821862  0.400139  1
  Nd  Nd6  1  0.520388  0.320228  0.598593  1
  Nd  Nd7  1  0.020388  0.179772  0.901407  1
  Y  Y8  1  0.364137  0.839678  0.877323  1
  Y  Y9  1  0.864137  0.660322  0.622677  1
  Y  Y10  1  0.635400  0.162249  0.375387  1
  Y  Y11  1  0.135400  0.337751  0.124613  1
  Y  Y12  1  0.635400  0.162249  0.124613  1
  Y  Y13  1  0.135400  0.337751  0.375387  1
  Y  Y14  1  0.364137  0.839678  0.622677  1
  Y  Y15  1  0.864137  0.660322  0.877323  1
  Y  Y16  1  0.194999  0.499978  0.750000  1
  Y  Y17  1  0.694999  0.000022  0.750000  1
  Y  Y18  1  0.803216  0.497064  0.250000  1
  Y  Y19  1  0.303216  0.002936  0.250000  1
  Sn  Sn20  1  0.437681  0.377418  0.250000  1
  Sn  Sn21  1  0.937681  0.122582  0.250000  1
  Sn  Sn22  1  0.329336  0.146272  0.750000  1
  Sn  Sn23  1  0.829336  0.353728  0.750000  1
  Sn  Sn24  1  0.673170  0.855343  0.250000  1
  Sn  Sn25  1  0.173170  0.644657  0.250000  1
  Pb  Pb26  1  0.296730  0.040167  0.042037  1
  Pb  Pb27  1  0.796730  0.459833  0.457963  1
  Pb  Pb28  1  0.703933  0.960309  0.541381  1
  Pb  Pb29  1  0.203933  0.539691  0.958619  1
  Pb  Pb30  1  0.703933  0.960309  0.958619  1
  Pb  Pb31  1  0.203933  0.539691  0.541381  1
  Pb  Pb32  1  0.296730  0.040167  0.457963  1
  Pb  Pb33  1  0.796730  0.459833  0.042037  1
  Pb  Pb34  1  0.560280  0.623514  0.750000  1
  Pb  Pb35  1  0.060280  0.876486  0.750000  1
