# generated using pymatgen
data_Co2Ni6RhSe8
_symmetry_space_group_name_H-M   'P 1'
_cell_length_a   7.48361861
_cell_length_b   7.46769256
_cell_length_c   7.46769278
_cell_angle_alpha   59.85422875
_cell_angle_beta   59.92942959
_cell_angle_gamma   59.92943434
_symmetry_Int_Tables_number   1
_chemical_formula_structural   Co2Ni6RhSe8
_chemical_formula_sum   'Co2 Ni6 Rh1 Se8'
_cell_volume   294.45962269
_cell_formula_units_Z   1
loop_
 _symmetry_equiv_pos_site_id
 _symmetry_equiv_pos_as_xyz
  1  'x, y, z'
loop_
 _atom_site_type_symbol
 _atom_site_label
 _atom_site_symmetry_multiplicity
 _atom_site_fract_x
 _atom_site_fract_y
 _atom_site_fract_z
 _atom_site_occupancy
  Co  Co0  1  0.877803  0.877792  0.366600  1
  Co  Co1  1  0.122197  0.633400  0.122208  1
  Ni  Ni2  1  0.876042  0.371114  0.876800  1
  Ni  Ni3  1  0.123958  0.123200  0.628886  1
  Ni  Ni4  1  0.629297  0.123690  0.123383  1
  Ni  Ni5  1  0.123633  0.123690  0.123383  1
  Ni  Ni6  1  0.370703  0.876617  0.876310  1
  Ni  Ni7  1  0.876367  0.876617  0.876310  1
  Rh  Rh8  1  0.500000  0.498362  0.501638  1
  Se  Se9  1  0.751788  0.753629  0.742794  1
  Se  Se10  1  0.248212  0.257206  0.246371  1
  Se  Se11  1  0.258793  0.259682  0.740318  1
  Se  Se12  1  0.258880  0.736625  0.745614  1
  Se  Se13  1  0.741120  0.254386  0.263375  1
  Se  Se14  1  0.253962  0.737154  0.262846  1
  Se  Se15  1  0.741207  0.259682  0.740318  1
  Se  Se16  1  0.746038  0.737154  0.262846  1
