# generated using pymatgen
data_Dy3Ho5B2(Os2C3)2
_symmetry_space_group_name_H-M   'P 1'
_cell_length_a   5.12479700
_cell_length_b   6.54871886
_cell_length_c   9.80674825
_cell_angle_alpha   90.26789042
_cell_angle_beta   90.00000000
_cell_angle_gamma   90.00000000
_symmetry_Int_Tables_number   1
_chemical_formula_structural   Dy3Ho5B2(Os2C3)2
_chemical_formula_sum   'Dy3 Ho5 B2 Os4 C6'
_cell_volume   329.11925638
_cell_formula_units_Z   1
loop_
 _symmetry_equiv_pos_site_id
 _symmetry_equiv_pos_as_xyz
  1  'x, y, z'
loop_
 _atom_site_type_symbol
 _atom_site_label
 _atom_site_symmetry_multiplicity
 _atom_site_fract_x
 _atom_site_fract_y
 _atom_site_fract_z
 _atom_site_occupancy
  Dy  Dy0  1  0.750000  0.477036  0.788480  1
  Dy  Dy1  1  0.750000  0.974090  0.715594  1
  Dy  Dy2  1  0.250000  0.025999  0.284279  1
  Ho  Ho3  1  0.250000  0.679886  0.550028  1
  Ho  Ho4  1  0.750000  0.320382  0.449817  1
  Ho  Ho5  1  0.750000  0.825533  0.053054  1
  Ho  Ho6  1  0.250000  0.174246  0.947125  1
  Ho  Ho7  1  0.250000  0.523032  0.211930  1
  B  B8  1  0.250000  0.452978  0.757353  1
  B  B9  1  0.750000  0.547083  0.242462  1
  Os  Os10  1  0.250000  0.727684  0.863386  1
  Os  Os11  1  0.750000  0.272465  0.136678  1
  Os  Os12  1  0.750000  0.786304  0.370472  1
  Os  Os13  1  0.250000  0.213739  0.629327  1
  C  C14  1  0.750000  0.043239  0.260353  1
  C  C15  1  0.250000  0.956916  0.739640  1
  C  C16  1  0.250000  0.822206  0.051346  1
  C  C17  1  0.750000  0.176956  0.948967  1
  C  C18  1  0.750000  0.674828  0.552884  1
  C  C19  1  0.250000  0.325400  0.446826  1
