# generated using pymatgen
data_Dy3Si6(Pd3Pt)5
_symmetry_space_group_name_H-M   'P 1'
_cell_length_a   8.76206828
_cell_length_b   8.77396130
_cell_length_c   8.78763800
_cell_angle_alpha   59.94842247
_cell_angle_beta   59.90341871
_cell_angle_gamma   59.93114547
_symmetry_Int_Tables_number   1
_chemical_formula_structural   Dy3Si6(Pd3Pt)5
_chemical_formula_sum   'Dy3 Si6 Pd15 Pt5'
_cell_volume   476.92071410
_cell_formula_units_Z   1
loop_
 _symmetry_equiv_pos_site_id
 _symmetry_equiv_pos_as_xyz
  1  'x, y, z'
loop_
 _atom_site_type_symbol
 _atom_site_label
 _atom_site_symmetry_multiplicity
 _atom_site_fract_x
 _atom_site_fract_y
 _atom_site_fract_z
 _atom_site_occupancy
  Dy  Dy0  1  0.252023  0.250172  0.248903  1
  Dy  Dy1  1  0.747962  0.749148  0.751445  1
  Dy  Dy2  1  0.000038  0.000111  0.999926  1
  Si  Si3  1  0.730937  0.268506  0.267168  1
  Si  Si4  1  0.269809  0.730724  0.731705  1
  Si  Si5  1  0.269809  0.730724  0.267763  1
  Si  Si6  1  0.730937  0.268506  0.733389  1
  Si  Si7  1  0.268551  0.267634  0.731908  1
  Si  Si8  1  0.730630  0.731856  0.268757  1
  Pd  Pd9  1  0.619343  0.149620  0.615519  1
  Pd  Pd10  1  0.851481  0.380517  0.384000  1
  Pd  Pd11  1  0.147611  0.617826  0.617282  1
  Pd  Pd12  1  0.344816  0.000576  0.999474  1
  Pd  Pd13  1  0.654838  0.000522  0.000107  1
  Pd  Pd14  1  0.999677  0.345855  0.655228  1
  Pd  Pd15  1  0.999572  0.655872  0.344802  1
  Pd  Pd16  1  0.999677  0.345855  0.999241  1
  Pd  Pd17  1  0.654838  0.000522  0.344533  1
  Pd  Pd18  1  0.999572  0.655872  0.999755  1
  Pd  Pd19  1  0.344816  0.000576  0.655134  1
  Pd  Pd20  1  0.999784  0.000797  0.344648  1
  Pd  Pd21  1  0.999784  0.000797  0.654772  1
  Pd  Pd22  1  0.655348  0.345890  0.999381  1
  Pd  Pd23  1  0.344899  0.656247  0.999427  1
  Pt  Pt24  1  0.383027  0.383486  0.386783  1
  Pt  Pt25  1  0.618142  0.614702  0.614209  1
  Pt  Pt26  1  0.383027  0.383486  0.846703  1
  Pt  Pt27  1  0.380909  0.848904  0.385093  1
  Pt  Pt28  1  0.618142  0.614702  0.152948  1
