# generated using pymatgen
data_Cs6CrIr2RhBr18
_symmetry_space_group_name_H-M   'P 1'
_cell_length_a   7.74619200
_cell_length_b   7.74619145
_cell_length_c   19.62288100
_cell_angle_alpha   90.00000000
_cell_angle_beta   90.00000000
_cell_angle_gamma   119.99999380
_symmetry_Int_Tables_number   1
_chemical_formula_structural   Cs6CrIr2RhBr18
_chemical_formula_sum   'Cs6 Cr1 Ir2 Rh1 Br18'
_cell_volume   1019.69411546
_cell_formula_units_Z   1
loop_
 _symmetry_equiv_pos_site_id
 _symmetry_equiv_pos_as_xyz
  1  'x, y, z'
loop_
 _atom_site_type_symbol
 _atom_site_label
 _atom_site_symmetry_multiplicity
 _atom_site_fract_x
 _atom_site_fract_y
 _atom_site_fract_z
 _atom_site_occupancy
  Cs  Cs0  1  0.666667  0.333333  0.933016  1
  Cs  Cs1  1  0.333333  0.666667  0.433747  1
  Cs  Cs2  1  0.666667  0.333333  0.569590  1
  Cs  Cs3  1  0.333333  0.666667  0.068089  1
  Cs  Cs4  1  0.000000  0.000000  0.748062  1
  Cs  Cs5  1  0.000000  0.000000  0.250132  1
  Cr  Cr6  1  0.333333  0.666667  0.835824  1
  Ir  Ir7  1  0.333333  0.666667  0.668185  1
  Ir  Ir8  1  0.666667  0.333333  0.166240  1
  Rh  Rh9  1  0.666667  0.333333  0.334350  1
  Br  Br10  1  0.819422  0.638843  0.405904  1
  Br  Br11  1  0.178991  0.357984  0.904094  1
  Br  Br12  1  0.178991  0.821009  0.904094  1
  Br  Br13  1  0.180692  0.361385  0.595391  1
  Br  Br14  1  0.642016  0.821009  0.904094  1
  Br  Br15  1  0.361157  0.180578  0.405904  1
  Br  Br16  1  0.037431  0.518715  0.749059  1
  Br  Br17  1  0.819422  0.180578  0.405904  1
  Br  Br18  1  0.520931  0.041862  0.249186  1
  Br  Br19  1  0.481285  0.518715  0.749059  1
  Br  Br20  1  0.520931  0.479069  0.249186  1
  Br  Br21  1  0.958138  0.479069  0.249186  1
  Br  Br22  1  0.360561  0.180280  0.093954  1
  Br  Br23  1  0.481285  0.962569  0.749059  1
  Br  Br24  1  0.819720  0.639439  0.093954  1
  Br  Br25  1  0.180692  0.819308  0.595391  1
  Br  Br26  1  0.638615  0.819308  0.595391  1
  Br  Br27  1  0.819720  0.180280  0.093954  1
