# generated using pymatgen
data_Ta3Mn2SiRu6
_symmetry_space_group_name_H-M   'P 1'
_cell_length_a   4.37227000
_cell_length_b   6.19308300
_cell_length_c   13.14276800
_cell_angle_alpha   90.00000000
_cell_angle_beta   90.00193753
_cell_angle_gamma   90.00000000
_symmetry_Int_Tables_number   1
_chemical_formula_structural   Ta3Mn2SiRu6
_chemical_formula_sum   'Ta6 Mn4 Si2 Ru12'
_cell_volume   355.87765078
_cell_formula_units_Z   2
loop_
 _symmetry_equiv_pos_site_id
 _symmetry_equiv_pos_as_xyz
  1  'x, y, z'
loop_
 _atom_site_type_symbol
 _atom_site_label
 _atom_site_symmetry_multiplicity
 _atom_site_fract_x
 _atom_site_fract_y
 _atom_site_fract_z
 _atom_site_occupancy
  Ta  Ta0  1  0.999912  0.500000  0.997927  1
  Ta  Ta1  1  0.499966  0.000000  0.168699  1
  Ta  Ta2  1  0.999980  0.500000  0.335419  1
  Ta  Ta3  1  0.500040  0.000000  0.498974  1
  Ta  Ta4  1  0.999980  0.500000  0.667640  1
  Ta  Ta5  1  0.500009  0.000000  0.831190  1
  Mn  Mn6  1  0.000518  0.000000  0.333591  1
  Mn  Mn7  1  0.500117  0.500000  0.499371  1
  Mn  Mn8  1  0.000379  0.000000  0.667628  1
  Mn  Mn9  1  0.499431  0.500000  0.833210  1
  Si  Si10  1  0.999960  0.000000  0.000436  1
  Si  Si11  1  0.499940  0.500000  0.166172  1
  Ru  Ru12  1  0.499955  0.247378  0.003212  1
  Ru  Ru13  1  0.499955  0.752622  0.003212  1
  Ru  Ru14  1  0.999944  0.252514  0.163379  1
  Ru  Ru15  1  0.999944  0.747487  0.163379  1
  Ru  Ru16  1  0.500010  0.254536  0.327996  1
  Ru  Ru17  1  0.500010  0.745464  0.327996  1
  Ru  Ru18  1  0.999985  0.250628  0.499646  1
  Ru  Ru19  1  0.999985  0.749372  0.499646  1
  Ru  Ru20  1  0.500091  0.249339  0.666962  1
  Ru  Ru21  1  0.500091  0.750661  0.666962  1
  Ru  Ru22  1  0.999898  0.245566  0.838677  1
  Ru  Ru23  1  0.999898  0.754435  0.838677  1
