# generated using pymatgen
data_Y6Er7Th3(CdIr)4
_symmetry_space_group_name_H-M   'P 1'
_cell_length_a   9.70733955
_cell_length_b   9.70904223
_cell_length_c   9.70904300
_cell_angle_alpha   60.00000079
_cell_angle_beta   59.99419838
_cell_angle_gamma   59.99420337
_symmetry_Int_Tables_number   1
_chemical_formula_structural   Y6Er7Th3(CdIr)4
_chemical_formula_sum   'Y6 Er7 Th3 Cd4 Ir4'
_cell_volume   646.99357383
_cell_formula_units_Z   1
loop_
 _symmetry_equiv_pos_site_id
 _symmetry_equiv_pos_as_xyz
  1  'x, y, z'
loop_
 _atom_site_type_symbol
 _atom_site_label
 _atom_site_symmetry_multiplicity
 _atom_site_fract_x
 _atom_site_fract_y
 _atom_site_fract_z
 _atom_site_occupancy
  Y  Y0  1  0.936758  0.563204  0.563204  1
  Y  Y1  1  0.563975  0.935819  0.935819  1
  Y  Y2  1  0.563975  0.935819  0.564385  1
  Y  Y3  1  0.936758  0.563204  0.936833  1
  Y  Y4  1  0.563975  0.564385  0.935819  1
  Y  Y5  1  0.936758  0.936833  0.563204  1
  Er  Er6  1  0.949011  0.350330  0.350330  1
  Er  Er7  1  0.811971  0.189263  0.189263  1
  Er  Er8  1  0.187887  0.812430  0.812430  1
  Er  Er9  1  0.187887  0.812430  0.187252  1
  Er  Er10  1  0.811971  0.189263  0.809504  1
  Er  Er11  1  0.187887  0.187252  0.812430  1
  Er  Er12  1  0.811971  0.809504  0.189263  1
  Th  Th13  1  0.347414  0.349923  0.349923  1
  Th  Th14  1  0.347414  0.349923  0.952740  1
  Th  Th15  1  0.347414  0.952740  0.349923  1
  Cd  Cd16  1  0.584110  0.581029  0.581029  1
  Cd  Cd17  1  0.584110  0.581029  0.253833  1
  Cd  Cd18  1  0.584110  0.253833  0.581029  1
  Cd  Cd19  1  0.251666  0.582778  0.582778  1
  Ir  Ir20  1  0.143522  0.141559  0.141559  1
  Ir  Ir21  1  0.143522  0.141559  0.573361  1
  Ir  Ir22  1  0.143522  0.573361  0.141559  1
  Ir  Ir23  1  0.572416  0.142528  0.142528  1
