# generated using pymatgen
data_Pr3ZnAg2Pd3
_symmetry_space_group_name_H-M   'P 1'
_cell_length_a   7.47645400
_cell_length_b   7.61156104
_cell_length_c   4.08605100
_cell_angle_alpha   90.00000000
_cell_angle_beta   90.00000000
_cell_angle_gamma   119.41453485
_symmetry_Int_Tables_number   1
_chemical_formula_structural   Pr3ZnAg2Pd3
_chemical_formula_sum   'Pr3 Zn1 Ag2 Pd3'
_cell_volume   202.55167430
_cell_formula_units_Z   1
loop_
 _symmetry_equiv_pos_site_id
 _symmetry_equiv_pos_as_xyz
  1  'x, y, z'
loop_
 _atom_site_type_symbol
 _atom_site_label
 _atom_site_symmetry_multiplicity
 _atom_site_fract_x
 _atom_site_fract_y
 _atom_site_fract_z
 _atom_site_occupancy
  Pr  Pr0  1  0.597011  0.000000  0.500000  1
  Pr  Pr1  1  0.401069  0.405660  0.500000  1
  Pr  Pr2  1  0.995408  0.594340  0.500000  1
  Zn  Zn3  1  0.247741  0.000000  0.000000  1
  Ag  Ag4  1  0.752680  0.755150  0.000000  1
  Ag  Ag5  1  0.997530  0.244850  0.000000  1
  Pd  Pd6  1  0.027799  0.000000  0.500000  1
  Pd  Pd7  1  0.327858  0.674956  0.000000  1
  Pd  Pd8  1  0.652903  0.325044  0.000000  1
