# generated using pymatgen
data_Tb4Er8InCo4Os
_symmetry_space_group_name_H-M   'P 1'
_cell_length_a   8.26857083
_cell_length_b   8.26856976
_cell_length_c   8.26857130
_cell_angle_alpha   111.22687134
_cell_angle_beta   110.89092989
_cell_angle_gamma   106.34067944
_symmetry_Int_Tables_number   1
_chemical_formula_structural   Tb4Er8InCo4Os
_chemical_formula_sum   'Tb4 Er8 In1 Co4 Os1'
_cell_volume   434.20896733
_cell_formula_units_Z   1
loop_
 _symmetry_equiv_pos_site_id
 _symmetry_equiv_pos_as_xyz
  1  'x, y, z'
loop_
 _atom_site_type_symbol
 _atom_site_label
 _atom_site_symmetry_multiplicity
 _atom_site_fract_x
 _atom_site_fract_y
 _atom_site_fract_z
 _atom_site_occupancy
  Tb  Tb0  1  0.183218  0.280058  0.463276  1
  Tb  Tb1  1  0.816782  0.719942  0.536724  1
  Tb  Tb2  1  0.183218  0.719942  0.903160  1
  Tb  Tb3  1  0.816782  0.280058  0.096840  1
  Er  Er4  1  0.314925  0.621905  0.306980  1
  Er  Er5  1  0.685075  0.378095  0.693020  1
  Er  Er6  1  0.314925  0.007946  0.693020  1
  Er  Er7  1  0.685075  0.992054  0.306980  1
  Er  Er8  1  0.414479  0.220489  0.193990  1
  Er  Er9  1  0.585521  0.779511  0.806010  1
  Er  Er10  1  0.026498  0.220489  0.806010  1
  Er  Er11  1  0.973502  0.779511  0.193990  1
  In  In12  1  0.500000  0.500000  0.000000  1
  Co  Co13  1  0.111841  0.611841  0.500000  1
  Co  Co14  1  0.888159  0.388159  0.500000  1
  Co  Co15  1  0.376815  0.000000  0.376815  1
  Co  Co16  1  0.623185  0.000000  0.623185  1
  Os  Os17  1  0.000000  0.000000  0.000000  1
