# generated using pymatgen
data_LaDy4Sc3(P3Ir4)4
_symmetry_space_group_name_H-M   'P 1'
_cell_length_a   12.89448500
_cell_length_b   12.89448561
_cell_length_c   3.98027600
_cell_angle_alpha   90.00000000
_cell_angle_beta   90.00000000
_cell_angle_gamma   120.00000099
_symmetry_Int_Tables_number   1
_chemical_formula_structural   LaDy4Sc3(P3Ir4)4
_chemical_formula_sum   'La1 Dy4 Sc3 P12 Ir16'
_cell_volume   573.12828016
_cell_formula_units_Z   1
loop_
 _symmetry_equiv_pos_site_id
 _symmetry_equiv_pos_as_xyz
  1  'x, y, z'
loop_
 _atom_site_type_symbol
 _atom_site_label
 _atom_site_symmetry_multiplicity
 _atom_site_fract_x
 _atom_site_fract_y
 _atom_site_fract_z
 _atom_site_occupancy
  La  La0  1  0.333333  0.666667  0.500000  1
  Dy  Dy1  1  0.666667  0.333333  0.500000  1
  Dy  Dy2  1  0.000125  0.811470  0.000000  1
  Dy  Dy3  1  0.188530  0.188655  0.000000  1
  Dy  Dy4  1  0.811345  0.999875  0.000000  1
  Sc  Sc5  1  0.998855  0.443607  0.500000  1
  Sc  Sc6  1  0.556393  0.555248  0.500000  1
  Sc  Sc7  1  0.444752  0.001145  0.500000  1
  P  P8  1  0.000296  0.645254  0.500000  1
  P  P9  1  0.354746  0.355043  0.500000  1
  P  P10  1  0.644957  0.999704  0.500000  1
  P  P11  1  0.520577  0.686909  0.000000  1
  P  P12  1  0.313091  0.833668  0.000000  1
  P  P13  1  0.166332  0.479423  0.000000  1
  P  P14  1  0.483166  0.170029  0.000000  1
  P  P15  1  0.686863  0.516834  0.000000  1
  P  P16  1  0.829971  0.313137  0.000000  1
  P  P17  1  0.999417  0.176156  0.500000  1
  P  P18  1  0.823844  0.823261  0.500000  1
  P  P19  1  0.176739  0.000583  0.500000  1
  Ir  Ir20  1  0.514562  0.872612  0.000000  1
  Ir  Ir21  1  0.127388  0.641951  0.000000  1
  Ir  Ir22  1  0.358049  0.485438  0.000000  1
  Ir  Ir23  1  0.491115  0.357458  0.000000  1
  Ir  Ir24  1  0.866344  0.508885  0.000000  1
  Ir  Ir25  1  0.642542  0.133656  0.000000  1
  Ir  Ir26  1  0.999181  0.276826  0.000000  1
  Ir  Ir27  1  0.723174  0.722355  0.000000  1
  Ir  Ir28  1  0.277645  0.000819  0.000000  1
  Ir  Ir29  1  0.629395  0.807297  0.500000  1
  Ir  Ir30  1  0.192703  0.822098  0.500000  1
  Ir  Ir31  1  0.177902  0.370605  0.500000  1
  Ir  Ir32  1  0.371893  0.179330  0.500000  1
  Ir  Ir33  1  0.807436  0.628107  0.500000  1
  Ir  Ir34  1  0.820670  0.192564  0.500000  1
  Ir  Ir35  1  0.000000  0.000000  0.500000  1
