# generated using pymatgen
data_Sm6TiCr(FeC6)2
_symmetry_space_group_name_H-M   'P 1'
_cell_length_a   8.22805100
_cell_length_b   8.22805009
_cell_length_c   5.05935000
_cell_angle_alpha   90.00000000
_cell_angle_beta   90.00000000
_cell_angle_gamma   119.99999161
_symmetry_Int_Tables_number   1
_chemical_formula_structural   Sm6TiCr(FeC6)2
_chemical_formula_sum   'Sm6 Ti1 Cr1 Fe2 C12'
_cell_volume   296.63288416
_cell_formula_units_Z   1
loop_
 _symmetry_equiv_pos_site_id
 _symmetry_equiv_pos_as_xyz
  1  'x, y, z'
loop_
 _atom_site_type_symbol
 _atom_site_label
 _atom_site_symmetry_multiplicity
 _atom_site_fract_x
 _atom_site_fract_y
 _atom_site_fract_z
 _atom_site_occupancy
  Sm  Sm0  1  0.618154  0.680249  0.749772  1
  Sm  Sm1  1  0.937907  0.618154  0.250228  1
  Sm  Sm2  1  0.680249  0.062093  0.250228  1
  Sm  Sm3  1  0.319751  0.937907  0.749772  1
  Sm  Sm4  1  0.062093  0.381846  0.749772  1
  Sm  Sm5  1  0.381846  0.319751  0.250228  1
  Ti  Ti6  1  0.000000  0.000000  0.000000  1
  Cr  Cr7  1  0.000000  0.000000  0.500000  1
  Fe  Fe8  1  0.666667  0.333333  0.752194  1
  Fe  Fe9  1  0.333333  0.666667  0.247806  1
  C  C10  1  0.957409  0.762737  0.744423  1
  C  C11  1  0.194671  0.957409  0.255577  1
  C  C12  1  0.762737  0.805329  0.255577  1
  C  C13  1  0.237263  0.194671  0.744423  1
  C  C14  1  0.805329  0.042591  0.744423  1
  C  C15  1  0.042591  0.237263  0.255577  1
  C  C16  1  0.862500  0.572021  0.746036  1
  C  C17  1  0.290478  0.862500  0.253964  1
  C  C18  1  0.572021  0.709522  0.253964  1
  C  C19  1  0.427979  0.290478  0.746036  1
  C  C20  1  0.137500  0.427979  0.253964  1
  C  C21  1  0.709522  0.137500  0.746036  1
