# generated using pymatgen
data_Li3SiIr
_symmetry_space_group_name_H-M   'P 1'
_cell_length_a   6.53086000
_cell_length_b   6.53086000
_cell_length_c   6.53086000
_cell_angle_alpha   90.00000000
_cell_angle_beta   90.00000000
_cell_angle_gamma   90.00000000
_symmetry_Int_Tables_number   1
_chemical_formula_structural   Li3SiIr
_chemical_formula_sum   'Li12 Si4 Ir4'
_cell_volume   278.55510501
_cell_formula_units_Z   4
loop_
 _symmetry_equiv_pos_site_id
 _symmetry_equiv_pos_as_xyz
  1  'x, y, z'
loop_
 _atom_site_type_symbol
 _atom_site_label
 _atom_site_symmetry_multiplicity
 _atom_site_fract_x
 _atom_site_fract_y
 _atom_site_fract_z
 _atom_site_occupancy
  Li  Li0  1  0.539289  0.629209  0.299207  1
  Li  Li1  1  0.799207  0.960711  0.370791  1
  Li  Li2  1  0.039289  0.870791  0.700793  1
  Li  Li3  1  0.870791  0.700793  0.039289  1
  Li  Li4  1  0.700793  0.039289  0.870791  1
  Li  Li5  1  0.629209  0.299207  0.539289  1
  Li  Li6  1  0.129209  0.200793  0.460711  1
  Li  Li7  1  0.370791  0.799207  0.960711  1
  Li  Li8  1  0.299207  0.539289  0.629209  1
  Li  Li9  1  0.460711  0.129209  0.200793  1
  Li  Li10  1  0.200793  0.460711  0.129209  1
  Li  Li11  1  0.960711  0.370791  0.799207  1
  Si  Si12  1  0.924693  0.575307  0.424693  1
  Si  Si13  1  0.575307  0.424693  0.924693  1
  Si  Si14  1  0.424693  0.924693  0.575307  1
  Si  Si15  1  0.075307  0.075307  0.075307  1
  Ir  Ir16  1  0.320249  0.179751  0.820249  1
  Ir  Ir17  1  0.179751  0.820249  0.320249  1
  Ir  Ir18  1  0.820249  0.320249  0.179751  1
  Ir  Ir19  1  0.679751  0.679751  0.679751  1
