# generated using pymatgen
data_TbSm7Sc11Si16Tc
_symmetry_space_group_name_H-M   'P 1'
_cell_length_a   7.10508109
_cell_length_b   7.43440674
_cell_length_c   14.02888708
_cell_angle_alpha   89.93879653
_cell_angle_beta   90.01222631
_cell_angle_gamma   90.11273682
_symmetry_Int_Tables_number   1
_chemical_formula_structural   TbSm7Sc11Si16Tc
_chemical_formula_sum   'Tb1 Sm7 Sc11 Si16 Tc1'
_cell_volume   741.03288001
_cell_formula_units_Z   1
loop_
 _symmetry_equiv_pos_site_id
 _symmetry_equiv_pos_as_xyz
  1  'x, y, z'
loop_
 _atom_site_type_symbol
 _atom_site_label
 _atom_site_symmetry_multiplicity
 _atom_site_fract_x
 _atom_site_fract_y
 _atom_site_fract_z
 _atom_site_occupancy
  Tb  Tb0  1  0.486330  0.671632  0.599885  1
  Sm  Sm1  1  0.012331  0.175261  0.094046  1
  Sm  Sm2  1  0.992860  0.820577  0.899746  1
  Sm  Sm3  1  0.486939  0.670514  0.901175  1
  Sm  Sm4  1  0.992704  0.820547  0.599752  1
  Sm  Sm5  1  0.511545  0.325597  0.095799  1
  Sm  Sm6  1  0.012490  0.175171  0.406297  1
  Sm  Sm7  1  0.511461  0.325360  0.404704  1
  Sc  Sc8  1  0.841748  0.498635  0.250046  1
  Sc  Sc9  1  0.342056  0.001502  0.250098  1
  Sc  Sc10  1  0.657188  0.998049  0.749656  1
  Sc  Sc11  1  0.326426  0.178567  0.627715  1
  Sc  Sc12  1  0.671860  0.823807  0.374895  1
  Sc  Sc13  1  0.172409  0.674397  0.376651  1
  Sc  Sc14  1  0.672181  0.824337  0.125490  1
  Sc  Sc15  1  0.828886  0.332008  0.628340  1
  Sc  Sc16  1  0.325992  0.178435  0.871764  1
  Sc  Sc17  1  0.829323  0.331690  0.870946  1
  Sc  Sc18  1  0.171948  0.674485  0.123668  1
  Si  Si19  1  0.030401  0.126139  0.749750  1
  Si  Si20  1  0.971197  0.880992  0.250098  1
  Si  Si21  1  0.467774  0.620779  0.250145  1
  Si  Si22  1  0.520295  0.390213  0.749121  1
  Si  Si23  1  0.287864  0.869242  0.749223  1
  Si  Si24  1  0.715671  0.123575  0.250070  1
  Si  Si25  1  0.213242  0.376878  0.250101  1
  Si  Si26  1  0.793663  0.623926  0.749303  1
  Si  Si27  1  0.154976  0.465308  0.548226  1
  Si  Si28  1  0.845269  0.536840  0.463069  1
  Si  Si29  1  0.349314  0.962229  0.463607  1
  Si  Si30  1  0.845881  0.536722  0.037272  1
  Si  Si31  1  0.653664  0.033319  0.540775  1
  Si  Si32  1  0.152492  0.463856  0.952300  1
  Si  Si33  1  0.654168  0.035362  0.959621  1
  Si  Si34  1  0.348995  0.963933  0.037074  1
  Tc  Tc35  1  0.148457  0.490119  0.749571  1
