# generated using pymatgen
data_HoEr9Cd3Pd
_symmetry_space_group_name_H-M   'P 1'
_cell_length_a   9.57344200
_cell_length_b   9.57372607
_cell_length_c   9.76633900
_cell_angle_alpha   90.00000000
_cell_angle_beta   90.00000000
_cell_angle_gamma   120.00098129
_symmetry_Int_Tables_number   1
_chemical_formula_structural   HoEr9Cd3Pd
_chemical_formula_sum   'Ho2 Er18 Cd6 Pd2'
_cell_volume   775.18835417
_cell_formula_units_Z   2
loop_
 _symmetry_equiv_pos_site_id
 _symmetry_equiv_pos_as_xyz
  1  'x, y, z'
loop_
 _atom_site_type_symbol
 _atom_site_label
 _atom_site_symmetry_multiplicity
 _atom_site_fract_x
 _atom_site_fract_y
 _atom_site_fract_z
 _atom_site_occupancy
  Ho  Ho0  1  0.542922  0.457161  0.750000  1
  Ho  Ho1  1  0.542922  0.085760  0.750000  1
  Er  Er2  1  0.208231  0.791683  0.943401  1
  Er  Er3  1  0.208231  0.416549  0.943401  1
  Er  Er4  1  0.583463  0.791732  0.943424  1
  Er  Er5  1  0.791745  0.208273  0.056703  1
  Er  Er6  1  0.791745  0.583471  0.056703  1
  Er  Er7  1  0.416546  0.208272  0.056749  1
  Er  Er8  1  0.791745  0.208273  0.443297  1
  Er  Er9  1  0.791745  0.583471  0.443297  1
  Er  Er10  1  0.416546  0.208272  0.443251  1
  Er  Er11  1  0.208231  0.791683  0.556599  1
  Er  Er12  1  0.208231  0.416549  0.556599  1
  Er  Er13  1  0.583463  0.791732  0.556576  1
  Er  Er14  1  0.914272  0.457135  0.750000  1
  Er  Er15  1  0.457095  0.542869  0.250000  1
  Er  Er16  1  0.457095  0.914227  0.250000  1
  Er  Er17  1  0.085826  0.542914  0.250000  1
  Er  Er18  1  0.000003  0.000002  0.999977  1
  Er  Er19  1  0.000003  0.000002  0.500023  1
  Cd  Cd20  1  0.885315  0.114779  0.750000  1
  Cd  Cd21  1  0.885315  0.770537  0.750000  1
  Cd  Cd22  1  0.229396  0.114698  0.750000  1
  Cd  Cd23  1  0.114764  0.885209  0.250000  1
  Cd  Cd24  1  0.114764  0.229555  0.250000  1
  Cd  Cd25  1  0.770482  0.885241  0.250000  1
  Pd  Pd26  1  0.333274  0.666637  0.750000  1
  Pd  Pd27  1  0.666633  0.333316  0.250000  1
