# generated using pymatgen
data_Y4HoEr3(Si3Rh)4
_symmetry_space_group_name_H-M   'P 1'
_cell_length_a   8.16566400
_cell_length_b   8.17025119
_cell_length_c   7.88078700
_cell_angle_alpha   90.00000000
_cell_angle_beta   90.00000000
_cell_angle_gamma   120.01858022
_symmetry_Int_Tables_number   1
_chemical_formula_structural   Y4HoEr3(Si3Rh)4
_chemical_formula_sum   'Y4 Ho1 Er3 Si12 Rh4'
_cell_volume   455.24563859
_cell_formula_units_Z   1
loop_
 _symmetry_equiv_pos_site_id
 _symmetry_equiv_pos_as_xyz
  1  'x, y, z'
loop_
 _atom_site_type_symbol
 _atom_site_label
 _atom_site_symmetry_multiplicity
 _atom_site_fract_x
 _atom_site_fract_y
 _atom_site_fract_z
 _atom_site_occupancy
  Y  Y0  1  0.000159  0.000080  0.250000  1
  Y  Y1  1  0.000105  0.000053  0.750000  1
  Y  Y2  1  0.491107  0.508775  0.250000  1
  Y  Y3  1  0.491107  0.982332  0.250000  1
  Ho  Ho4  1  0.015717  0.507858  0.250000  1
  Er  Er5  1  0.508973  0.490924  0.750000  1
  Er  Er6  1  0.981914  0.490957  0.750000  1
  Er  Er7  1  0.508973  0.018049  0.750000  1
  Si  Si8  1  0.833125  0.166979  0.501328  1
  Si  Si9  1  0.833125  0.666147  0.501328  1
  Si  Si10  1  0.334257  0.167129  0.501669  1
  Si  Si11  1  0.833125  0.166979  0.998672  1
  Si  Si12  1  0.833125  0.666147  0.998672  1
  Si  Si13  1  0.334257  0.167129  0.998331  1
  Si  Si14  1  0.167227  0.832456  0.999573  1
  Si  Si15  1  0.665325  0.832663  0.998489  1
  Si  Si16  1  0.167227  0.334770  0.999573  1
  Si  Si17  1  0.167227  0.832456  0.500427  1
  Si  Si18  1  0.665325  0.832663  0.501511  1
  Si  Si19  1  0.167227  0.334770  0.500427  1
  Rh  Rh20  1  0.667765  0.333882  0.469710  1
  Rh  Rh21  1  0.667765  0.333882  0.030290  1
  Rh  Rh22  1  0.332922  0.666461  0.962054  1
  Rh  Rh23  1  0.332922  0.666461  0.537946  1
