# generated using pymatgen
data_Er16Tm4Ir7Ru5
_symmetry_space_group_name_H-M   'P 1'
_cell_length_a   10.72420563
_cell_length_b   10.72420519
_cell_length_c   6.36276201
_cell_angle_alpha   89.97875768
_cell_angle_beta   89.97875592
_cell_angle_gamma   90.05755541
_symmetry_Int_Tables_number   1
_chemical_formula_structural   Er16Tm4Ir7Ru5
_chemical_formula_sum   'Er16 Tm4 Ir7 Ru5'
_cell_volume   731.77176429
_cell_formula_units_Z   1
loop_
 _symmetry_equiv_pos_site_id
 _symmetry_equiv_pos_as_xyz
  1  'x, y, z'
loop_
 _atom_site_type_symbol
 _atom_site_label
 _atom_site_symmetry_multiplicity
 _atom_site_fract_x
 _atom_site_fract_y
 _atom_site_fract_z
 _atom_site_occupancy
  Er  Er0  1  0.293417  0.086098  0.376662  1
  Er  Er1  1  0.292912  0.913730  0.876736  1
  Er  Er2  1  0.707349  0.086489  0.877096  1
  Er  Er3  1  0.707104  0.914075  0.375816  1
  Er  Er4  1  0.586286  0.793461  0.876768  1
  Er  Er5  1  0.587106  0.206789  0.376688  1
  Er  Er6  1  0.413689  0.793398  0.376617  1
  Er  Er7  1  0.413561  0.206478  0.876124  1
  Er  Er8  1  0.206539  0.413714  0.623232  1
  Er  Er9  1  0.206602  0.586311  0.123383  1
  Er  Er10  1  0.793211  0.412894  0.123312  1
  Er  Er11  1  0.793522  0.586439  0.623876  1
  Er  Er12  1  0.913902  0.706583  0.123338  1
  Er  Er13  1  0.913511  0.292651  0.622904  1
  Er  Er14  1  0.086270  0.707088  0.623264  1
  Er  Er15  1  0.085925  0.292896  0.124184  1
  Tm  Tm16  1  0.999491  0.000914  0.499297  1
  Tm  Tm17  1  0.999086  0.000509  0.000703  1
  Tm  Tm18  1  0.500136  0.500081  0.000060  1
  Tm  Tm19  1  0.499919  0.499864  0.499940  1
  Ir  Ir20  1  0.846925  0.846588  0.749877  1
  Ir  Ir21  1  0.153412  0.153075  0.750123  1
  Ir  Ir22  1  0.153077  0.846923  0.250000  1
  Ir  Ir23  1  0.652127  0.347873  0.750000  1
  Ir  Ir24  1  0.652893  0.652622  0.249768  1
  Ir  Ir25  1  0.347378  0.347107  0.250232  1
  Ir  Ir26  1  0.347374  0.652626  0.750000  1
  Ru  Ru27  1  0.847454  0.152546  0.250000  1
  Ru  Ru28  1  0.500143  0.000213  0.122459  1
  Ru  Ru29  1  0.499887  0.999992  0.622580  1
  Ru  Ru30  1  0.000008  0.500113  0.877420  1
  Ru  Ru31  1  0.999787  0.499857  0.377541  1
