# generated using pymatgen
data_Zn3CdP6SeN12
_symmetry_space_group_name_H-M   'P 1'
_cell_length_a   7.24027584
_cell_length_b   7.26533969
_cell_length_c   7.24027671
_cell_angle_alpha   109.54135230
_cell_angle_beta   109.40099689
_cell_angle_gamma   109.54134998
_symmetry_Int_Tables_number   1
_chemical_formula_structural   Zn3CdP6SeN12
_chemical_formula_sum   'Zn3 Cd1 P6 Se1 N12'
_cell_volume   292.93260039
_cell_formula_units_Z   1
loop_
 _symmetry_equiv_pos_site_id
 _symmetry_equiv_pos_as_xyz
  1  'x, y, z'
loop_
 _atom_site_type_symbol
 _atom_site_label
 _atom_site_symmetry_multiplicity
 _atom_site_fract_x
 _atom_site_fract_y
 _atom_site_fract_z
 _atom_site_occupancy
  Zn  Zn0  1  0.641767  0.645521  0.641767  1
  Zn  Zn1  1  0.358233  0.003755  0.000000  1
  Zn  Zn2  1  0.000000  0.003755  0.358233  1
  Cd  Cd3  1  0.000000  0.303585  0.000000  1
  P  P4  1  0.748560  0.254601  0.498896  1
  P  P5  1  0.249665  0.755706  0.501104  1
  P  P6  1  0.501104  0.755706  0.249665  1
  P  P7  1  0.498896  0.254601  0.748560  1
  P  P8  1  0.750335  0.506041  0.251440  1
  P  P9  1  0.251440  0.506041  0.750335  1
  Se  Se10  1  0.000000  0.952310  0.000000  1
  N  N11  1  0.557263  0.280545  0.000000  1
  N  N12  1  0.438968  0.443274  0.711957  1
  N  N13  1  0.000000  0.280545  0.557263  1
  N  N14  1  0.272988  0.004306  0.561032  1
  N  N15  1  0.711957  0.443274  0.438968  1
  N  N16  1  0.000000  0.565413  0.280029  1
  N  N17  1  0.561032  0.004306  0.272988  1
  N  N18  1  0.442737  0.723282  0.442737  1
  N  N19  1  0.280029  0.565413  0.000000  1
  N  N20  1  0.719971  0.285385  0.719971  1
  N  N21  1  0.727012  0.731317  0.288043  1
  N  N22  1  0.288043  0.731317  0.727012  1
