# generated using pymatgen
data_Dy2Y4TcBi2
_symmetry_space_group_name_H-M   'P 1'
_cell_length_a   8.32987300
_cell_length_b   8.31813166
_cell_length_c   4.28993900
_cell_angle_alpha   90.00000000
_cell_angle_beta   90.00000000
_cell_angle_gamma   120.04670022
_symmetry_Int_Tables_number   1
_chemical_formula_structural   Dy2Y4TcBi2
_chemical_formula_sum   'Dy2 Y4 Tc1 Bi2'
_cell_volume   257.30092957
_cell_formula_units_Z   1
loop_
 _symmetry_equiv_pos_site_id
 _symmetry_equiv_pos_as_xyz
  1  'x, y, z'
loop_
 _atom_site_type_symbol
 _atom_site_label
 _atom_site_symmetry_multiplicity
 _atom_site_fract_x
 _atom_site_fract_y
 _atom_site_fract_z
 _atom_site_occupancy
  Dy  Dy0  1  0.999954  0.231755  0.500000  1
  Dy  Dy1  1  0.768199  0.768245  0.500000  1
  Y  Y2  1  0.233411  0.000000  0.500000  1
  Y  Y3  1  0.607306  0.000000  0.000000  1
  Y  Y4  1  0.999757  0.606993  0.000000  1
  Y  Y5  1  0.392765  0.393007  0.000000  1
  Tc  Tc6  1  0.998819  0.000000  0.000000  1
  Bi  Bi7  1  0.333283  0.666777  0.500000  1
  Bi  Bi8  1  0.666507  0.333223  0.500000  1
