# generated using pymatgen
data_Co7NiMo2(W7C2)2
_symmetry_space_group_name_H-M   'P 1'
_cell_length_a   7.99699988
_cell_length_b   8.01400530
_cell_length_c   8.01400501
_cell_angle_alpha   59.96578728
_cell_angle_beta   59.96202411
_cell_angle_gamma   59.96202399
_symmetry_Int_Tables_number   1
_chemical_formula_structural   Co7NiMo2(W7C2)2
_chemical_formula_sum   'Co7 Ni1 Mo2 W14 C4'
_cell_volume   362.86870147
_cell_formula_units_Z   1
loop_
 _symmetry_equiv_pos_site_id
 _symmetry_equiv_pos_as_xyz
  1  'x, y, z'
loop_
 _atom_site_type_symbol
 _atom_site_label
 _atom_site_symmetry_multiplicity
 _atom_site_fract_x
 _atom_site_fract_y
 _atom_site_fract_z
 _atom_site_occupancy
  Co  Co0  1  0.831229  0.831199  0.831199  1
  Co  Co1  1  0.829529  0.832658  0.506357  1
  Co  Co2  1  0.508529  0.830071  0.830071  1
  Co  Co3  1  0.829529  0.506357  0.832658  1
  Co  Co4  1  0.419531  0.417728  0.417728  1
  Co  Co5  1  0.418184  0.418810  0.745252  1
  Co  Co6  1  0.418184  0.745252  0.418810  1
  Ni  Ni7  1  0.752379  0.415493  0.415493  1
  Mo  Mo8  1  0.436185  0.064171  0.064171  1
  Mo  Mo9  1  0.063708  0.438713  0.438713  1
  W  W10  1  0.062709  0.439809  0.057770  1
  W  W11  1  0.062709  0.057770  0.439809  1
  W  W12  1  0.437318  0.063176  0.436393  1
  W  W13  1  0.437318  0.436393  0.063176  1
  W  W14  1  0.186712  0.813371  0.186601  1
  W  W15  1  0.812546  0.187839  0.811617  1
  W  W16  1  0.812055  0.188422  0.188422  1
  W  W17  1  0.186712  0.186601  0.813371  1
  W  W18  1  0.187098  0.812920  0.812920  1
  W  W19  1  0.812546  0.811617  0.187839  1
  W  W20  1  0.623597  0.625782  0.625782  1
  W  W21  1  0.622967  0.626655  0.124828  1
  W  W22  1  0.125045  0.624537  0.624537  1
  W  W23  1  0.622967  0.124828  0.626655  1
  C  C24  1  0.124430  0.125738  0.125738  1
  C  C25  1  0.124870  0.125334  0.624108  1
  C  C26  1  0.626543  0.124649  0.124649  1
  C  C27  1  0.124870  0.624108  0.125334  1
