# generated using pymatgen
data_ErTm3(SeO4)6
_symmetry_space_group_name_H-M   'P 1'
_cell_length_a   9.87112813
_cell_length_b   9.87105244
_cell_length_c   9.87108333
_cell_angle_alpha   58.01370714
_cell_angle_beta   58.01425010
_cell_angle_gamma   58.01410467
_symmetry_Int_Tables_number   1
_chemical_formula_structural   ErTm3(SeO4)6
_chemical_formula_sum   'Er1 Tm3 Se6 O24'
_cell_volume   649.13054280
_cell_formula_units_Z   1
loop_
 _symmetry_equiv_pos_site_id
 _symmetry_equiv_pos_as_xyz
  1  'x, y, z'
loop_
 _atom_site_type_symbol
 _atom_site_label
 _atom_site_symmetry_multiplicity
 _atom_site_fract_x
 _atom_site_fract_y
 _atom_site_fract_z
 _atom_site_occupancy
  Er  Er0  1  0.643821  0.643858  0.643855  1
  Tm  Tm1  1  0.356085  0.356084  0.356089  1
  Tm  Tm2  1  0.143926  0.143920  0.143911  1
  Tm  Tm3  1  0.856071  0.856067  0.856069  1
  Se  Se4  1  0.750148  0.037972  0.462366  1
  Se  Se5  1  0.963153  0.537205  0.249357  1
  Se  Se6  1  0.537210  0.249349  0.963161  1
  Se  Se7  1  0.462372  0.750133  0.037973  1
  Se  Se8  1  0.037971  0.462366  0.750135  1
  Se  Se9  1  0.249340  0.963167  0.537207  1
  O  O10  1  0.919689  0.064691  0.289551  1
  O  O11  1  0.775591  0.008183  0.630949  1
  O  O12  1  0.992284  0.368852  0.224122  1
  O  O13  1  0.710312  0.080118  0.935881  1
  O  O14  1  0.580398  0.210566  0.435574  1
  O  O15  1  0.869961  0.491141  0.724836  1
  O  O16  1  0.508017  0.275394  0.131125  1
  O  O17  1  0.790236  0.563927  0.418504  1
  O  O18  1  0.935875  0.710311  0.080122  1
  O  O19  1  0.563916  0.418506  0.790247  1
  O  O20  1  0.368860  0.224115  0.992285  1
  O  O21  1  0.275395  0.131126  0.508006  1
  O  O22  1  0.724840  0.869966  0.491147  1
  O  O23  1  0.630954  0.775585  0.008172  1
  O  O24  1  0.435594  0.580380  0.210564  1
  O  O25  1  0.064683  0.289552  0.919686  1
  O  O26  1  0.210567  0.435573  0.580399  1
  O  O27  1  0.491142  0.724829  0.869973  1
  O  O28  1  0.131118  0.508006  0.275403  1
  O  O29  1  0.418492  0.790248  0.563926  1
  O  O30  1  0.289560  0.919686  0.064674  1
  O  O31  1  0.008180  0.630954  0.775582  1
  O  O32  1  0.224119  0.992287  0.368851  1
  O  O33  1  0.080116  0.935879  0.710303  1
