# generated using pymatgen
data_Th4Ti(WN4)3
_symmetry_space_group_name_H-M   'P 1'
_cell_length_a   5.60552629
_cell_length_b   5.67747597
_cell_length_c   7.95295284
_cell_angle_alpha   90.02417038
_cell_angle_beta   90.04637374
_cell_angle_gamma   90.06245476
_symmetry_Int_Tables_number   1
_chemical_formula_structural   Th4Ti(WN4)3
_chemical_formula_sum   'Th4 Ti1 W3 N12'
_cell_volume   253.10438311
_cell_formula_units_Z   1
loop_
 _symmetry_equiv_pos_site_id
 _symmetry_equiv_pos_as_xyz
  1  'x, y, z'
loop_
 _atom_site_type_symbol
 _atom_site_label
 _atom_site_symmetry_multiplicity
 _atom_site_fract_x
 _atom_site_fract_y
 _atom_site_fract_z
 _atom_site_occupancy
  Th  Th0  1  0.502887  0.540888  0.245807  1
  Th  Th1  1  0.995392  0.046182  0.245412  1
  Th  Th2  1  0.497113  0.459112  0.754193  1
  Th  Th3  1  0.004608  0.953818  0.754588  1
  Ti  Ti4  1  0.000000  0.500000  0.000000  1
  W  W5  1  0.500000  0.000000  0.500000  1
  W  W6  1  0.000000  0.500000  0.500000  1
  W  W7  1  0.500000  0.000000  0.000000  1
  N  N8  1  0.425798  0.984192  0.250123  1
  N  N9  1  0.076089  0.481728  0.251151  1
  N  N10  1  0.574202  0.015808  0.749877  1
  N  N11  1  0.923911  0.518272  0.748849  1
  N  N12  1  0.796934  0.801610  0.039248  1
  N  N13  1  0.703218  0.295523  0.461110  1
  N  N14  1  0.203415  0.203561  0.539339  1
  N  N15  1  0.300706  0.702587  0.960294  1
  N  N16  1  0.203066  0.198390  0.960752  1
  N  N17  1  0.296782  0.704477  0.538890  1
  N  N18  1  0.796585  0.796439  0.460661  1
  N  N19  1  0.699294  0.297413  0.039706  1
