# generated using pymatgen
data_TmLu5ZnNi2
_symmetry_space_group_name_H-M   'P 1'
_cell_length_a   8.12329884
_cell_length_b   8.12329973
_cell_length_c   8.12329836
_cell_angle_alpha   106.21767165
_cell_angle_beta   109.97833176
_cell_angle_gamma   112.27472268
_symmetry_Int_Tables_number   1
_chemical_formula_structural   TmLu5ZnNi2
_chemical_formula_sum   'Tm2 Lu10 Zn2 Ni4'
_cell_volume   411.47740940
_cell_formula_units_Z   2
loop_
 _symmetry_equiv_pos_site_id
 _symmetry_equiv_pos_as_xyz
  1  'x, y, z'
loop_
 _atom_site_type_symbol
 _atom_site_label
 _atom_site_symmetry_multiplicity
 _atom_site_fract_x
 _atom_site_fract_y
 _atom_site_fract_z
 _atom_site_occupancy
  Tm  Tm0  1  0.035583  0.215828  0.819755  1
  Tm  Tm1  1  0.396075  0.215828  0.180245  1
  Lu  Lu2  1  0.693805  0.262249  0.956046  1
  Lu  Lu3  1  0.306203  0.737759  0.043954  1
  Lu  Lu4  1  0.693805  0.737759  0.431556  1
  Lu  Lu5  1  0.306203  0.262249  0.568444  1
  Lu  Lu6  1  0.805288  0.131157  0.325869  1
  Lu  Lu7  1  0.805288  0.479420  0.674131  1
  Lu  Lu8  1  0.194837  0.868575  0.673738  1
  Lu  Lu9  1  0.194837  0.521098  0.326262  1
  Lu  Lu10  1  0.604067  0.784088  0.819979  1
  Lu  Lu11  1  0.964109  0.784088  0.180021  1
  Zn  Zn12  1  0.500371  0.500371  0.000000  1
  Zn  Zn13  1  0.500045  0.000045  0.500000  1
  Ni  Ni14  1  0.848443  0.500180  0.348263  1
  Ni  Ni15  1  0.151917  0.500180  0.651737  1
  Ni  Ni16  1  0.999562  0.123216  0.123654  1
  Ni  Ni17  1  0.999562  0.875908  0.876346  1
