# generated using pymatgen
data_Pr8Ho7Er5Si16
_symmetry_space_group_name_H-M   'P 1'
_cell_length_a   7.49813451
_cell_length_b   7.78091933
_cell_length_c   14.78216700
_cell_angle_alpha   90.01190698
_cell_angle_beta   89.97895575
_cell_angle_gamma   89.96875315
_symmetry_Int_Tables_number   1
_chemical_formula_structural   Pr8Ho7Er5Si16
_chemical_formula_sum   'Pr8 Ho7 Er5 Si16'
_cell_volume   862.42659453
_cell_formula_units_Z   1
loop_
 _symmetry_equiv_pos_site_id
 _symmetry_equiv_pos_as_xyz
  1  'x, y, z'
loop_
 _atom_site_type_symbol
 _atom_site_label
 _atom_site_symmetry_multiplicity
 _atom_site_fract_x
 _atom_site_fract_y
 _atom_site_fract_z
 _atom_site_occupancy
  Pr  Pr0  1  0.975713  0.820948  0.097715  1
  Pr  Pr1  1  0.475850  0.679226  0.402327  1
  Pr  Pr2  1  0.524292  0.320950  0.902021  1
  Pr  Pr3  1  0.024120  0.179214  0.597862  1
  Pr  Pr4  1  0.023929  0.179071  0.901942  1
  Pr  Pr5  1  0.524202  0.320659  0.597812  1
  Pr  Pr6  1  0.475947  0.679246  0.097589  1
  Pr  Pr7  1  0.975843  0.820804  0.402239  1
  Ho  Ho8  1  0.181028  0.678001  0.623269  1
  Ho  Ho9  1  0.819011  0.322016  0.123151  1
  Ho  Ho10  1  0.318996  0.178005  0.376826  1
  Ho  Ho11  1  0.319055  0.177862  0.123114  1
  Ho  Ho12  1  0.818952  0.322003  0.376836  1
  Ho  Ho13  1  0.181001  0.678081  0.876862  1
  Ho  Ho14  1  0.681081  0.822033  0.623303  1
  Er  Er15  1  0.649663  0.989881  0.250006  1
  Er  Er16  1  0.149630  0.510127  0.250017  1
  Er  Er17  1  0.850347  0.490159  0.750148  1
  Er  Er18  1  0.350390  0.010033  0.750079  1
  Er  Er19  1  0.680847  0.822131  0.876633  1
  Si  Si20  1  0.769552  0.621087  0.249986  1
  Si  Si21  1  0.269505  0.878981  0.249997  1
  Si  Si22  1  0.730270  0.120653  0.750299  1
  Si  Si23  1  0.230349  0.378771  0.750081  1
  Si  Si24  1  0.023468  0.112771  0.249971  1
  Si  Si25  1  0.523449  0.387161  0.249964  1
  Si  Si26  1  0.477157  0.613346  0.750302  1
  Si  Si27  1  0.976047  0.887042  0.750339  1
  Si  Si28  1  0.855402  0.531578  0.959621  1
  Si  Si29  1  0.356021  0.968965  0.540230  1
  Si  Si30  1  0.644305  0.030524  0.039841  1
  Si  Si31  1  0.143916  0.469006  0.459862  1
  Si  Si32  1  0.143901  0.469105  0.040187  1
  Si  Si33  1  0.643902  0.030990  0.459808  1
  Si  Si34  1  0.356735  0.968570  0.959546  1
  Si  Si35  1  0.856121  0.531003  0.540214  1
