# generated using pymatgen
data_Y4Sc2TcTe2
_symmetry_space_group_name_H-M   'P 1'
_cell_length_a   8.12160600
_cell_length_b   8.24273679
_cell_length_c   3.93309300
_cell_angle_alpha   90.00000000
_cell_angle_beta   90.00000000
_cell_angle_gamma   119.51940259
_symmetry_Int_Tables_number   1
_chemical_formula_structural   Y4Sc2TcTe2
_chemical_formula_sum   'Y4 Sc2 Tc1 Te2'
_cell_volume   229.11899736
_cell_formula_units_Z   1
loop_
 _symmetry_equiv_pos_site_id
 _symmetry_equiv_pos_as_xyz
  1  'x, y, z'
loop_
 _atom_site_type_symbol
 _atom_site_label
 _atom_site_symmetry_multiplicity
 _atom_site_fract_x
 _atom_site_fract_y
 _atom_site_fract_z
 _atom_site_occupancy
  Y  Y0  1  0.233008  0.999958  0.500000  1
  Y  Y1  1  0.612710  0.999955  0.000000  1
  Y  Y2  1  0.400064  0.400966  0.000000  1
  Y  Y3  1  0.999078  0.599103  0.000000  1
  Sc  Sc4  1  0.768296  0.764258  0.500000  1
  Sc  Sc5  1  0.003970  0.235701  0.500000  1
  Tc  Tc6  1  0.976605  0.000083  0.000000  1
  Te  Te7  1  0.334561  0.662977  0.500000  1
  Te  Te8  1  0.671709  0.336999  0.500000  1
