# generated using pymatgen
data_K3Ta2Cu3Te8
_symmetry_space_group_name_H-M   'P 1'
_cell_length_a   6.03339302
_cell_length_b   13.42239748
_cell_length_c   15.07718147
_cell_angle_alpha   69.27558478
_cell_angle_beta   78.45815535
_cell_angle_gamma   77.01177020
_symmetry_Int_Tables_number   1
_chemical_formula_structural   K3Ta2Cu3Te8
_chemical_formula_sum   'K6 Ta4 Cu6 Te16'
_cell_volume   1102.98925565
_cell_formula_units_Z   2
loop_
 _symmetry_equiv_pos_site_id
 _symmetry_equiv_pos_as_xyz
  1  'x, y, z'
loop_
 _atom_site_type_symbol
 _atom_site_label
 _atom_site_symmetry_multiplicity
 _atom_site_fract_x
 _atom_site_fract_y
 _atom_site_fract_z
 _atom_site_occupancy
  K  K0  1  0.731969  0.710201  0.904875  1
  K  K1  1  0.347046  0.789799  0.595125  1
  K  K2  1  0.268031  0.289799  0.095125  1
  K  K3  1  0.652954  0.210201  0.404875  1
  K  K4  1  0.000000  0.500000  0.500000  1
  K  K5  1  0.000000  0.000000  0.000000  1
  Ta  Ta6  1  0.158163  0.467911  0.778274  1
  Ta  Ta7  1  0.404348  0.032089  0.721726  1
  Ta  Ta8  1  0.841837  0.532089  0.221726  1
  Ta  Ta9  1  0.595652  0.967911  0.278274  1
  Cu  Cu10  1  0.275856  0.250000  0.750000  1
  Cu  Cu11  1  0.724144  0.750000  0.250000  1
  Cu  Cu12  1  0.903592  0.035179  0.720369  1
  Cu  Cu13  1  0.659141  0.464821  0.779631  1
  Cu  Cu14  1  0.096408  0.964821  0.279631  1
  Cu  Cu15  1  0.340859  0.535179  0.220369  1
  Te  Te16  1  0.945413  0.301783  0.877615  1
  Te  Te17  1  0.124810  0.198217  0.622385  1
  Te  Te18  1  0.054587  0.698217  0.122385  1
  Te  Te19  1  0.875190  0.801783  0.377615  1
  Te  Te20  1  0.496204  0.412468  0.653866  1
  Te  Te21  1  0.562537  0.087532  0.846134  1
  Te  Te22  1  0.503796  0.587532  0.346134  1
  Te  Te23  1  0.437463  0.912468  0.153866  1
  Te  Te24  1  0.870242  0.632887  0.683898  1
  Te  Te25  1  0.187028  0.867113  0.816102  1
  Te  Te26  1  0.129758  0.367113  0.316102  1
  Te  Te27  1  0.812972  0.132887  0.183898  1
  Te  Te28  1  0.744128  0.969224  0.604529  1
  Te  Te29  1  0.317881  0.530776  0.895471  1
  Te  Te30  1  0.255872  0.030776  0.395471  1
  Te  Te31  1  0.682119  0.469224  0.104529  1
