# generated using pymatgen
data_La3TbAl16(SiIr3)2
_symmetry_space_group_name_H-M   'P 1'
_cell_length_a   7.60025900
_cell_length_b   7.60739336
_cell_length_c   9.48077300
_cell_angle_alpha   90.00000000
_cell_angle_beta   90.00000000
_cell_angle_gamma   119.63780751
_symmetry_Int_Tables_number   1
_chemical_formula_structural   La3TbAl16(SiIr3)2
_chemical_formula_sum   'La3 Tb1 Al16 Si2 Ir6'
_cell_volume   476.44431022
_cell_formula_units_Z   1
loop_
 _symmetry_equiv_pos_site_id
 _symmetry_equiv_pos_as_xyz
  1  'x, y, z'
loop_
 _atom_site_type_symbol
 _atom_site_label
 _atom_site_symmetry_multiplicity
 _atom_site_fract_x
 _atom_site_fract_y
 _atom_site_fract_z
 _atom_site_occupancy
  La  La0  1  0.994975  0.674938  0.250000  1
  La  La1  1  0.005208  0.325283  0.750000  1
  La  La2  1  0.674738  0.994868  0.250000  1
  Tb  Tb3  1  0.324395  0.004715  0.750000  1
  Al  Al4  1  0.004854  0.337085  0.074056  1
  Al  Al5  1  0.998284  0.665730  0.921903  1
  Al  Al6  1  0.998284  0.665730  0.578097  1
  Al  Al7  1  0.336761  0.003934  0.429472  1
  Al  Al8  1  0.004854  0.337085  0.425944  1
  Al  Al9  1  0.660624  0.996705  0.577656  1
  Al  Al10  1  0.660624  0.996705  0.922344  1
  Al  Al11  1  0.336761  0.003934  0.070528  1
  Al  Al12  1  0.337292  0.335264  0.555753  1
  Al  Al13  1  0.662100  0.662060  0.451473  1
  Al  Al14  1  0.662100  0.662060  0.048527  1
  Al  Al15  1  0.337292  0.335264  0.944247  1
  Al  Al16  1  0.336338  0.544818  0.250000  1
  Al  Al17  1  0.660093  0.450106  0.750000  1
  Al  Al18  1  0.543744  0.334136  0.250000  1
  Al  Al19  1  0.453695  0.666751  0.750000  1
  Si  Si20  1  0.134858  0.133389  0.250000  1
  Si  Si21  1  0.870857  0.868531  0.750000  1
  Ir  Ir22  1  0.670450  0.328967  0.999207  1
  Ir  Ir23  1  0.329348  0.671330  0.999150  1
  Ir  Ir24  1  0.329348  0.671330  0.500850  1
  Ir  Ir25  1  0.670450  0.328967  0.500793  1
  Ir  Ir26  1  0.000838  0.000157  0.998436  1
  Ir  Ir27  1  0.000838  0.000157  0.501564  1
