# generated using pymatgen
data_Te16Rh
_symmetry_space_group_name_H-M   'P 1'
_cell_length_a   7.76314717
_cell_length_b   7.76314675
_cell_length_c   13.95891457
_cell_angle_alpha   54.65797973
_cell_angle_beta   54.65798174
_cell_angle_gamma   64.56862704
_symmetry_Int_Tables_number   1
_chemical_formula_structural   Te16Rh
_chemical_formula_sum   'Te16 Rh1'
_cell_volume   554.04849379
_cell_formula_units_Z   1
loop_
 _symmetry_equiv_pos_site_id
 _symmetry_equiv_pos_as_xyz
  1  'x, y, z'
loop_
 _atom_site_type_symbol
 _atom_site_label
 _atom_site_symmetry_multiplicity
 _atom_site_fract_x
 _atom_site_fract_y
 _atom_site_fract_z
 _atom_site_occupancy
  Te  Te0  1  0.823821  0.823821  0.888166  1
  Te  Te1  1  0.350646  0.350646  0.873479  1
  Te  Te2  1  0.669337  0.161175  0.121231  1
  Te  Te3  1  0.161175  0.669337  0.121231  1
  Te  Te4  1  0.031774  0.031774  0.325493  1
  Te  Te5  1  0.429496  0.429496  0.412446  1
  Te  Te6  1  0.544734  0.019410  0.626965  1
  Te  Te7  1  0.019410  0.544734  0.626965  1
  Te  Te8  1  0.236629  0.236629  0.378753  1
  Te  Te9  1  0.738583  0.738583  0.337670  1
  Te  Te10  1  0.330375  0.747463  0.636459  1
  Te  Te11  1  0.747463  0.330375  0.636459  1
  Te  Te12  1  0.049641  0.049641  0.913557  1
  Te  Te13  1  0.600922  0.600922  0.881059  1
  Te  Te14  1  0.413592  0.905744  0.121994  1
  Te  Te15  1  0.905744  0.413592  0.121994  1
  Rh  Rh16  1  0.757956  0.757956  0.510481  1
