# generated using pymatgen
data_Sc6Al14Fe5Si10Os
_symmetry_space_group_name_H-M   'P 1'
_cell_length_a   8.34611772
_cell_length_b   8.30454726
_cell_length_c   8.91302408
_cell_angle_alpha   89.99999677
_cell_angle_beta   90.13488671
_cell_angle_gamma   119.83537971
_symmetry_Int_Tables_number   1
_chemical_formula_structural   Sc6Al14Fe5Si10Os
_chemical_formula_sum   'Sc6 Al14 Fe5 Si10 Os1'
_cell_volume   535.88624432
_cell_formula_units_Z   1
loop_
 _symmetry_equiv_pos_site_id
 _symmetry_equiv_pos_as_xyz
  1  'x, y, z'
loop_
 _atom_site_type_symbol
 _atom_site_label
 _atom_site_symmetry_multiplicity
 _atom_site_fract_x
 _atom_site_fract_y
 _atom_site_fract_z
 _atom_site_occupancy
  Sc  Sc0  1  0.199387  0.801036  0.250268  1
  Sc  Sc1  1  0.199387  0.398350  0.250268  1
  Sc  Sc2  1  0.604224  0.802111  0.250678  1
  Sc  Sc3  1  0.800613  0.198964  0.749732  1
  Sc  Sc4  1  0.800613  0.601650  0.749732  1
  Sc  Sc5  1  0.395776  0.197889  0.749322  1
  Al  Al6  1  0.164450  0.846047  0.921579  1
  Al  Al7  1  0.164450  0.318403  0.921579  1
  Al  Al8  1  0.678413  0.839206  0.920555  1
  Al  Al9  1  0.835550  0.153953  0.078421  1
  Al  Al10  1  0.835550  0.681597  0.078421  1
  Al  Al11  1  0.321587  0.160794  0.079445  1
  Al  Al12  1  0.838225  0.159245  0.423497  1
  Al  Al13  1  0.838225  0.678981  0.423497  1
  Al  Al14  1  0.322301  0.161151  0.423040  1
  Al  Al15  1  0.161775  0.840755  0.576503  1
  Al  Al16  1  0.161775  0.321019  0.576503  1
  Al  Al17  1  0.677699  0.838849  0.576960  1
  Al  Al18  1  0.001966  0.000984  0.250124  1
  Al  Al19  1  0.998034  0.999016  0.749876  1
  Fe  Fe20  1  0.500000  0.500000  0.500000  1
  Fe  Fe21  1  0.500000  0.000000  0.500000  1
  Fe  Fe22  1  0.000000  0.500000  0.500000  1
  Fe  Fe23  1  0.500000  0.500000  0.000000  1
  Fe  Fe24  1  0.500000  0.000000  0.000000  1
  Si  Si25  1  0.561108  0.439478  0.250318  1
  Si  Si26  1  0.561108  0.121630  0.250318  1
  Si  Si27  1  0.872293  0.436147  0.257234  1
  Si  Si28  1  0.438892  0.560522  0.749682  1
  Si  Si29  1  0.438892  0.878370  0.749682  1
  Si  Si30  1  0.127707  0.563853  0.742766  1
  Si  Si31  1  0.334175  0.667089  0.459513  1
  Si  Si32  1  0.665825  0.332911  0.540487  1
  Si  Si33  1  0.657717  0.328858  0.959356  1
  Si  Si34  1  0.342283  0.671142  0.040644  1
  Os  Os35  1  0.000000  0.500000  0.000000  1
