# generated using pymatgen
data_LaNdDy2CdNi
_symmetry_space_group_name_H-M   'P 1'
_cell_length_a   9.77156982
_cell_length_b   9.75503426
_cell_length_c   9.75599196
_cell_angle_alpha   60.10942748
_cell_angle_beta   59.93780278
_cell_angle_gamma   59.93503363
_symmetry_Int_Tables_number   1
_chemical_formula_structural   LaNdDy2CdNi
_chemical_formula_sum   'La4 Nd4 Dy8 Cd4 Ni4'
_cell_volume   657.48933281
_cell_formula_units_Z   4
loop_
 _symmetry_equiv_pos_site_id
 _symmetry_equiv_pos_as_xyz
  1  'x, y, z'
loop_
 _atom_site_type_symbol
 _atom_site_label
 _atom_site_symmetry_multiplicity
 _atom_site_fract_x
 _atom_site_fract_y
 _atom_site_fract_z
 _atom_site_occupancy
  La  La0  1  0.600384  0.598953  0.598938  1
  La  La1  1  0.599181  0.601134  0.200419  1
  La  La2  1  0.599305  0.200470  0.600939  1
  La  La3  1  0.201303  0.599158  0.599157  1
  Nd  Nd4  1  0.816630  0.184827  0.815373  1
  Nd  Nd5  1  0.183253  0.815349  0.185016  1
  Nd  Nd6  1  0.816636  0.815299  0.184963  1
  Nd  Nd7  1  0.183333  0.184890  0.815456  1
  Dy  Dy8  1  0.065200  0.434786  0.434838  1
  Dy  Dy9  1  0.435083  0.065077  0.065161  1
  Dy  Dy10  1  0.435857  0.065354  0.434745  1
  Dy  Dy11  1  0.064325  0.434683  0.065211  1
  Dy  Dy12  1  0.435889  0.434717  0.065180  1
  Dy  Dy13  1  0.064245  0.065322  0.434688  1
  Dy  Dy14  1  0.189713  0.810460  0.810346  1
  Dy  Dy15  1  0.810924  0.189168  0.189166  1
  Cd  Cd16  1  0.833579  0.829732  0.829869  1
  Cd  Cd17  1  0.829422  0.833753  0.507238  1
  Cd  Cd18  1  0.829446  0.507081  0.833854  1
  Cd  Cd19  1  0.506818  0.829724  0.829820  1
  Ni  Ni20  1  0.393990  0.388727  0.388699  1
  Ni  Ni21  1  0.388582  0.393242  0.829083  1
  Ni  Ni22  1  0.388341  0.829339  0.393672  1
  Ni  Ni23  1  0.828559  0.388755  0.388173  1
