# generated using pymatgen
data_Dy9Ho(GeB4)4
_symmetry_space_group_name_H-M   'P 1'
_cell_length_a   7.25311000
_cell_length_b   7.25311000
_cell_length_c   8.14009200
_cell_angle_alpha   90.00000000
_cell_angle_beta   90.00000000
_cell_angle_gamma   90.00000000
_symmetry_Int_Tables_number   1
_chemical_formula_structural   Dy9Ho(GeB4)4
_chemical_formula_sum   'Dy9 Ho1 Ge4 B16'
_cell_volume   428.23074193
_cell_formula_units_Z   1
loop_
 _symmetry_equiv_pos_site_id
 _symmetry_equiv_pos_as_xyz
  1  'x, y, z'
loop_
 _atom_site_type_symbol
 _atom_site_label
 _atom_site_symmetry_multiplicity
 _atom_site_fract_x
 _atom_site_fract_y
 _atom_site_fract_z
 _atom_site_occupancy
  Dy  Dy0  1  0.680505  0.180365  0.221283  1
  Dy  Dy1  1  0.319495  0.819635  0.778717  1
  Dy  Dy2  1  0.319495  0.819635  0.221283  1
  Dy  Dy3  1  0.819635  0.680505  0.221283  1
  Dy  Dy4  1  0.819635  0.680505  0.778717  1
  Dy  Dy5  1  0.680505  0.180365  0.778717  1
  Dy  Dy6  1  0.180365  0.319495  0.778717  1
  Dy  Dy7  1  0.180365  0.319495  0.221283  1
  Dy  Dy8  1  0.500000  0.500000  0.500000  1
  Ho  Ho9  1  0.000000  0.000000  0.500000  1
  Ge  Ge10  1  0.119492  0.620832  0.500000  1
  Ge  Ge11  1  0.880508  0.379168  0.500000  1
  Ge  Ge12  1  0.379168  0.119492  0.500000  1
  Ge  Ge13  1  0.620832  0.880508  0.500000  1
  B  B14  1  0.172122  0.039201  0.000000  1
  B  B15  1  0.827878  0.960799  0.000000  1
  B  B16  1  0.960799  0.172122  0.000000  1
  B  B17  1  0.327880  0.539221  0.000000  1
  B  B18  1  0.039201  0.827878  0.000000  1
  B  B19  1  0.672120  0.460779  0.000000  1
  B  B20  1  0.539221  0.672120  0.000000  1
  B  B21  1  0.460779  0.327880  0.000000  1
  B  B22  1  0.090318  0.590290  0.000000  1
  B  B23  1  0.909682  0.409710  0.000000  1
  B  B24  1  0.409710  0.090318  0.000000  1
  B  B25  1  0.590290  0.909682  0.000000  1
  B  B26  1  0.000000  0.000000  0.161845  1
  B  B27  1  0.000000  0.000000  0.838155  1
  B  B28  1  0.500000  0.500000  0.838284  1
  B  B29  1  0.500000  0.500000  0.161716  1
