# generated using pymatgen
data_DyEr7(CuP)12
_symmetry_space_group_name_H-M   'P 1'
_cell_length_a   3.81758000
_cell_length_b   10.62610517
_cell_length_c   12.91219821
_cell_angle_alpha   89.97967180
_cell_angle_beta   90.00000000
_cell_angle_gamma   90.00000000
_symmetry_Int_Tables_number   1
_chemical_formula_structural   DyEr7(CuP)12
_chemical_formula_sum   'Dy1 Er7 Cu12 P12'
_cell_volume   523.79628410
_cell_formula_units_Z   1
loop_
 _symmetry_equiv_pos_site_id
 _symmetry_equiv_pos_as_xyz
  1  'x, y, z'
loop_
 _atom_site_type_symbol
 _atom_site_label
 _atom_site_symmetry_multiplicity
 _atom_site_fract_x
 _atom_site_fract_y
 _atom_site_fract_z
 _atom_site_occupancy
  Dy  Dy0  1  0.250000  0.931451  0.792044  1
  Er  Er1  1  0.750000  0.431346  0.708131  1
  Er  Er2  1  0.250000  0.568714  0.292105  1
  Er  Er3  1  0.750000  0.068774  0.207916  1
  Er  Er4  1  0.250000  0.840475  0.503119  1
  Er  Er5  1  0.750000  0.340780  0.996754  1
  Er  Er6  1  0.250000  0.659120  0.003647  1
  Er  Er7  1  0.750000  0.159406  0.496451  1
  Cu  Cu8  1  0.250000  0.406176  0.512119  1
  Cu  Cu9  1  0.750000  0.904726  0.987664  1
  Cu  Cu10  1  0.250000  0.094552  0.013012  1
  Cu  Cu11  1  0.750000  0.594308  0.487849  1
  Cu  Cu12  1  0.250000  0.271192  0.330960  1
  Cu  Cu13  1  0.750000  0.771803  0.168383  1
  Cu  Cu14  1  0.250000  0.228441  0.831792  1
  Cu  Cu15  1  0.750000  0.728485  0.668758  1
  Cu  Cu16  1  0.250000  0.859391  0.281275  1
  Cu  Cu17  1  0.750000  0.359256  0.218492  1
  Cu  Cu18  1  0.250000  0.640325  0.781636  1
  Cu  Cu19  1  0.750000  0.141744  0.718335  1
  P  P20  1  0.250000  0.244377  0.641893  1
  P  P21  1  0.750000  0.742582  0.858343  1
  P  P22  1  0.250000  0.256018  0.141995  1
  P  P23  1  0.750000  0.755785  0.358011  1
  P  P24  1  0.250000  0.605391  0.602823  1
  P  P25  1  0.750000  0.105599  0.897532  1
  P  P26  1  0.250000  0.894913  0.102393  1
  P  P27  1  0.750000  0.394809  0.397333  1
  P  P28  1  0.250000  0.056242  0.369555  1
  P  P29  1  0.750000  0.556313  0.130561  1
  P  P30  1  0.250000  0.443580  0.869840  1
  P  P31  1  0.750000  0.943928  0.629280  1
