# generated using pymatgen
data_Ho2Er(In2Rh)2
_symmetry_space_group_name_H-M   'P 1'
_cell_length_a   7.91162232
_cell_length_b   7.91649549
_cell_length_c   3.73233800
_cell_angle_alpha   90.00000000
_cell_angle_beta   90.00000000
_cell_angle_gamma   119.97071310
_symmetry_Int_Tables_number   1
_chemical_formula_structural   Ho2Er(In2Rh)2
_chemical_formula_sum   'Ho2 Er1 In4 Rh2'
_cell_volume   202.50614420
_cell_formula_units_Z   1
loop_
 _symmetry_equiv_pos_site_id
 _symmetry_equiv_pos_as_xyz
  1  'x, y, z'
loop_
 _atom_site_type_symbol
 _atom_site_label
 _atom_site_symmetry_multiplicity
 _atom_site_fract_x
 _atom_site_fract_y
 _atom_site_fract_z
 _atom_site_occupancy
  Ho  Ho0  1  0.702536  0.955995  0.500000  1
  Ho  Ho1  1  0.253909  0.297743  0.500000  1
  Er  Er2  1  0.043492  0.746189  0.500000  1
  In  In3  1  0.926408  0.336700  0.000000  1
  In  In4  1  0.409910  0.073118  0.000000  1
  In  In5  1  0.664218  0.590530  0.000000  1
  In  In6  1  0.332726  0.666957  0.000000  1
  Rh  Rh7  1  0.666499  0.333643  0.500000  1
  Rh  Rh8  1  0.000303  0.999123  0.000000  1
