# generated using pymatgen
data_AcPa(Al3Ir)3
_symmetry_space_group_name_H-M   'P 1'
_cell_length_a   7.71094342
_cell_length_b   7.68744491
_cell_length_c   9.53043500
_cell_angle_alpha   90.00000000
_cell_angle_beta   90.00000000
_cell_angle_gamma   119.53252534
_symmetry_Int_Tables_number   1
_chemical_formula_structural   AcPa(Al3Ir)3
_chemical_formula_sum   'Ac2 Pa2 Al18 Ir6'
_cell_volume   491.54066837
_cell_formula_units_Z   2
loop_
 _symmetry_equiv_pos_site_id
 _symmetry_equiv_pos_as_xyz
  1  'x, y, z'
loop_
 _atom_site_type_symbol
 _atom_site_label
 _atom_site_symmetry_multiplicity
 _atom_site_fract_x
 _atom_site_fract_y
 _atom_site_fract_z
 _atom_site_occupancy
  Ac  Ac0  1  0.669921  0.993954  0.250000  1
  Ac  Ac1  1  0.330079  0.006046  0.750000  1
  Pa  Pa2  1  0.998468  0.672399  0.250000  1
  Pa  Pa3  1  0.001532  0.327601  0.750000  1
  Al  Al4  1  0.135598  0.130018  0.250000  1
  Al  Al5  1  0.864402  0.869982  0.750000  1
  Al  Al6  1  0.005608  0.338261  0.072599  1
  Al  Al7  1  0.994392  0.661739  0.927401  1
  Al  Al8  1  0.994392  0.661739  0.572599  1
  Al  Al9  1  0.332446  0.004084  0.423404  1
  Al  Al10  1  0.005608  0.338261  0.427401  1
  Al  Al11  1  0.667554  0.995916  0.576596  1
  Al  Al12  1  0.667554  0.995916  0.923404  1
  Al  Al13  1  0.332446  0.004084  0.076596  1
  Al  Al14  1  0.334357  0.337913  0.547980  1
  Al  Al15  1  0.665643  0.662087  0.452020  1
  Al  Al16  1  0.665643  0.662087  0.047980  1
  Al  Al17  1  0.334357  0.337913  0.952020  1
  Al  Al18  1  0.332505  0.540587  0.250000  1
  Al  Al19  1  0.667495  0.459413  0.750000  1
  Al  Al20  1  0.551705  0.351765  0.250000  1
  Al  Al21  1  0.448295  0.648235  0.750000  1
  Ir  Ir22  1  0.675672  0.330996  0.999334  1
  Ir  Ir23  1  0.324328  0.669004  0.000666  1
  Ir  Ir24  1  0.324328  0.669004  0.499334  1
  Ir  Ir25  1  0.675672  0.330996  0.500666  1
  Ir  Ir26  1  0.000000  0.000000  0.000000  1
  Ir  Ir27  1  0.000000  0.000000  0.500000  1
