# generated using pymatgen
data_Na4DyTc3(P3Ir4)4
_symmetry_space_group_name_H-M   'P 1'
_cell_length_a   12.58959900
_cell_length_b   12.58959913
_cell_length_c   3.99304900
_cell_angle_alpha   90.00000000
_cell_angle_beta   90.00000000
_cell_angle_gamma   119.99999702
_symmetry_Int_Tables_number   1
_chemical_formula_structural   Na4DyTc3(P3Ir4)4
_chemical_formula_sum   'Na4 Dy1 Tc3 P12 Ir16'
_cell_volume   548.09909319
_cell_formula_units_Z   1
loop_
 _symmetry_equiv_pos_site_id
 _symmetry_equiv_pos_as_xyz
  1  'x, y, z'
loop_
 _atom_site_type_symbol
 _atom_site_label
 _atom_site_symmetry_multiplicity
 _atom_site_fract_x
 _atom_site_fract_y
 _atom_site_fract_z
 _atom_site_occupancy
  Na  Na0  1  0.333333  0.666667  0.500000  1
  Na  Na1  1  0.999572  0.819858  0.000000  1
  Na  Na2  1  0.180142  0.179714  0.000000  1
  Na  Na3  1  0.820286  0.000428  0.000000  1
  Dy  Dy4  1  0.666667  0.333333  0.500000  1
  Tc  Tc5  1  0.995127  0.453632  0.500000  1
  Tc  Tc6  1  0.546368  0.541496  0.500000  1
  Tc  Tc7  1  0.458504  0.004873  0.500000  1
  P  P8  1  0.002951  0.640735  0.500000  1
  P  P9  1  0.359265  0.362216  0.500000  1
  P  P10  1  0.637784  0.997049  0.500000  1
  P  P11  1  0.514692  0.685889  0.000000  1
  P  P12  1  0.314111  0.828803  0.000000  1
  P  P13  1  0.171197  0.485308  0.000000  1
  P  P14  1  0.480090  0.166688  0.000000  1
  P  P15  1  0.686598  0.519910  0.000000  1
  P  P16  1  0.833312  0.313402  0.000000  1
  P  P17  1  0.001362  0.179798  0.500000  1
  P  P18  1  0.820202  0.821565  0.500000  1
  P  P19  1  0.178435  0.998638  0.500000  1
  Ir  Ir20  1  0.513092  0.873030  0.000000  1
  Ir  Ir21  1  0.126970  0.640063  0.000000  1
  Ir  Ir22  1  0.359937  0.486908  0.000000  1
  Ir  Ir23  1  0.493501  0.358481  0.000000  1
  Ir  Ir24  1  0.864981  0.506499  0.000000  1
  Ir  Ir25  1  0.641519  0.135019  0.000000  1
  Ir  Ir26  1  0.001075  0.287279  0.000000  1
  Ir  Ir27  1  0.712721  0.713796  0.000000  1
  Ir  Ir28  1  0.286204  0.998925  0.000000  1
  Ir  Ir29  1  0.620375  0.800515  0.500000  1
  Ir  Ir30  1  0.199485  0.819860  0.500000  1
  Ir  Ir31  1  0.180140  0.379625  0.500000  1
  Ir  Ir32  1  0.375346  0.181824  0.500000  1
  Ir  Ir33  1  0.806478  0.624654  0.500000  1
  Ir  Ir34  1  0.818176  0.193522  0.500000  1
  Ir  Ir35  1  0.000000  0.000000  0.500000  1
