# generated using pymatgen
data_RbAc(SeO4)2
_symmetry_space_group_name_H-M   'P 1'
_cell_length_a   5.22631653
_cell_length_b   5.22631600
_cell_length_c   9.71147694
_cell_angle_alpha   102.30413037
_cell_angle_beta   102.30412940
_cell_angle_gamma   63.51991050
_symmetry_Int_Tables_number   1
_chemical_formula_structural   RbAc(SeO4)2
_chemical_formula_sum   'Rb1 Ac1 Se2 O8'
_cell_volume   229.85588783
_cell_formula_units_Z   1
loop_
 _symmetry_equiv_pos_site_id
 _symmetry_equiv_pos_as_xyz
  1  'x, y, z'
loop_
 _atom_site_type_symbol
 _atom_site_label
 _atom_site_symmetry_multiplicity
 _atom_site_fract_x
 _atom_site_fract_y
 _atom_site_fract_z
 _atom_site_occupancy
  Rb  Rb0  1  0.027953  0.972047  0.000000  1
  Ac  Ac1  1  0.502843  0.497157  0.500000  1
  Se  Se2  1  0.740595  0.741407  0.270051  1
  Se  Se3  1  0.258592  0.259404  0.729949  1
  O  O4  1  0.833592  0.604307  0.110027  1
  O  O5  1  0.420773  0.749665  0.283239  1
  O  O6  1  0.719971  0.077795  0.313016  1
  O  O7  1  0.973650  0.546391  0.400325  1
  O  O8  1  0.453610  0.026350  0.599675  1
  O  O9  1  0.922206  0.280030  0.686984  1
  O  O10  1  0.250335  0.579227  0.716761  1
  O  O11  1  0.395693  0.166408  0.889973  1
