# generated using pymatgen
data_Yb3Lu(Ru2O7)2
_symmetry_space_group_name_H-M   'P 1'
_cell_length_a   7.21037395
_cell_length_b   7.20112528
_cell_length_c   7.21037400
_cell_angle_alpha   59.95750515
_cell_angle_beta   59.99999978
_cell_angle_gamma   59.95751053
_symmetry_Int_Tables_number   1
_chemical_formula_structural   Yb3Lu(Ru2O7)2
_chemical_formula_sum   'Yb3 Lu1 Ru4 O14'
_cell_volume   264.55849826
_cell_formula_units_Z   1
loop_
 _symmetry_equiv_pos_site_id
 _symmetry_equiv_pos_as_xyz
  1  'x, y, z'
loop_
 _atom_site_type_symbol
 _atom_site_label
 _atom_site_symmetry_multiplicity
 _atom_site_fract_x
 _atom_site_fract_y
 _atom_site_fract_z
 _atom_site_occupancy
  Yb  Yb0  1  0.125000  0.125000  0.125000  1
  Yb  Yb1  1  0.625000  0.125000  0.125000  1
  Yb  Yb2  1  0.125000  0.125000  0.625000  1
  Lu  Lu3  1  0.125000  0.625000  0.125000  1
  Ru  Ru4  1  0.625000  0.625000  0.625000  1
  Ru  Ru5  1  0.125000  0.625000  0.625000  1
  Ru  Ru6  1  0.625000  0.625000  0.125000  1
  Ru  Ru7  1  0.625000  0.125000  0.625000  1
  O  O8  1  0.004789  0.985634  0.004789  1
  O  O9  1  0.245211  0.264366  0.245211  1
  O  O10  1  0.301074  0.303178  0.697874  1
  O  O11  1  0.543702  0.549587  0.953355  1
  O  O12  1  0.697874  0.303178  0.697874  1
  O  O13  1  0.697874  0.303178  0.301074  1
  O  O14  1  0.296645  0.700413  0.706298  1
  O  O15  1  0.296645  0.700413  0.296645  1
  O  O16  1  0.706298  0.700413  0.296645  1
  O  O17  1  0.953355  0.549587  0.543702  1
  O  O18  1  0.552126  0.946822  0.948926  1
  O  O19  1  0.948926  0.946822  0.552126  1
  O  O20  1  0.953355  0.549587  0.953355  1
  O  O21  1  0.552126  0.946822  0.552126  1
