# generated using pymatgen
data_DyHo3Al4Pt3Rh
_symmetry_space_group_name_H-M   'P 1'
_cell_length_a   4.40322800
_cell_length_b   6.80935055
_cell_length_c   7.80507121
_cell_angle_alpha   89.99122220
_cell_angle_beta   90.00000000
_cell_angle_gamma   90.00000000
_symmetry_Int_Tables_number   1
_chemical_formula_structural   DyHo3Al4Pt3Rh
_chemical_formula_sum   'Dy1 Ho3 Al4 Pt3 Rh1'
_cell_volume   234.02040741
_cell_formula_units_Z   1
loop_
 _symmetry_equiv_pos_site_id
 _symmetry_equiv_pos_as_xyz
  1  'x, y, z'
loop_
 _atom_site_type_symbol
 _atom_site_label
 _atom_site_symmetry_multiplicity
 _atom_site_fract_x
 _atom_site_fract_y
 _atom_site_fract_z
 _atom_site_occupancy
  Dy  Dy0  1  0.750000  0.466926  0.819158  1
  Ho  Ho1  1  0.250000  0.532317  0.179534  1
  Ho  Ho2  1  0.750000  0.970135  0.678874  1
  Ho  Ho3  1  0.250000  0.034871  0.323091  1
  Al  Al4  1  0.250000  0.637739  0.561420  1
  Al  Al5  1  0.750000  0.358579  0.439970  1
  Al  Al6  1  0.750000  0.857740  0.060920  1
  Al  Al7  1  0.250000  0.142766  0.938470  1
  Pt  Pt8  1  0.250000  0.770993  0.879505  1
  Pt  Pt9  1  0.750000  0.230750  0.121511  1
  Pt  Pt10  1  0.750000  0.731688  0.378740  1
  Rh  Rh11  1  0.250000  0.265495  0.618808  1
