# generated using pymatgen
data_Be2AgAs3O10
_symmetry_space_group_name_H-M   'P 1'
_cell_length_a   7.82734984
_cell_length_b   7.82734997
_cell_length_c   9.27041800
_cell_angle_alpha   66.60299517
_cell_angle_beta   66.60299477
_cell_angle_gamma   69.72868374
_symmetry_Int_Tables_number   1
_chemical_formula_structural   Be2AgAs3O10
_chemical_formula_sum   'Be4 Ag2 As6 O20'
_cell_volume   466.24162139
_cell_formula_units_Z   2
loop_
 _symmetry_equiv_pos_site_id
 _symmetry_equiv_pos_as_xyz
  1  'x, y, z'
loop_
 _atom_site_type_symbol
 _atom_site_label
 _atom_site_symmetry_multiplicity
 _atom_site_fract_x
 _atom_site_fract_y
 _atom_site_fract_z
 _atom_site_occupancy
  Be  Be0  1  0.704481  0.771274  0.945880  1
  Be  Be1  1  0.295519  0.228726  0.054120  1
  Be  Be2  1  0.228726  0.295519  0.554120  1
  Be  Be3  1  0.771274  0.704481  0.445880  1
  Ag  Ag4  1  0.622142  0.377858  0.250000  1
  Ag  Ag5  1  0.377858  0.622142  0.750000  1
  As  As6  1  0.869522  0.479038  0.767958  1
  As  As7  1  0.479038  0.869522  0.267958  1
  As  As8  1  0.130478  0.520962  0.232042  1
  As  As9  1  0.085326  0.914674  0.250000  1
  As  As10  1  0.914674  0.085326  0.750000  1
  As  As11  1  0.520962  0.130478  0.732042  1
  O  O12  1  0.600420  0.723324  0.145932  1
  O  O13  1  0.399580  0.276676  0.854068  1
  O  O14  1  0.276676  0.399580  0.354068  1
  O  O15  1  0.895567  0.548287  0.341669  1
  O  O16  1  0.758808  0.174369  0.627559  1
  O  O17  1  0.133395  0.108031  0.620048  1
  O  O18  1  0.825631  0.241192  0.872441  1
  O  O19  1  0.208232  0.447297  0.063460  1
  O  O20  1  0.723324  0.600420  0.645932  1
  O  O21  1  0.241192  0.825631  0.372441  1
  O  O22  1  0.548287  0.895567  0.841669  1
  O  O23  1  0.891969  0.866605  0.879952  1
  O  O24  1  0.451713  0.104433  0.158331  1
  O  O25  1  0.104433  0.451713  0.658331  1
  O  O26  1  0.552703  0.791768  0.436540  1
  O  O27  1  0.866605  0.891969  0.379952  1
  O  O28  1  0.174369  0.758808  0.127559  1
  O  O29  1  0.447297  0.208232  0.563460  1
  O  O30  1  0.791768  0.552703  0.936540  1
  O  O31  1  0.108031  0.133395  0.120048  1
