# generated using pymatgen
data_NbGeB2Ru5W
_symmetry_space_group_name_H-M   'P 1'
_cell_length_a   9.35660539
_cell_length_b   9.35660539
_cell_length_c   2.93827900
_cell_angle_alpha   90.00000000
_cell_angle_beta   90.00000000
_cell_angle_gamma   89.86611435
_symmetry_Int_Tables_number   1
_chemical_formula_structural   NbGeB2Ru5W
_chemical_formula_sum   'Nb2 Ge2 B4 Ru10 W2'
_cell_volume   257.23406013
_cell_formula_units_Z   2
loop_
 _symmetry_equiv_pos_site_id
 _symmetry_equiv_pos_as_xyz
  1  'x, y, z'
loop_
 _atom_site_type_symbol
 _atom_site_label
 _atom_site_symmetry_multiplicity
 _atom_site_fract_x
 _atom_site_fract_y
 _atom_site_fract_z
 _atom_site_occupancy
  Nb  Nb0  1  0.322673  0.822673  0.000000  1
  Nb  Nb1  1  0.677327  0.177327  0.000000  1
  Ge  Ge2  1  0.500000  0.500000  0.000000  1
  Ge  Ge3  1  0.000000  0.000000  0.000000  1
  B  B4  1  0.623946  0.876054  0.000000  1
  B  B5  1  0.376054  0.123946  0.000000  1
  B  B6  1  0.124561  0.624561  0.000000  1
  B  B7  1  0.875439  0.375439  0.000000  1
  Ru  Ru8  1  0.571694  0.713116  0.500000  1
  Ru  Ru9  1  0.428306  0.286884  0.500000  1
  Ru  Ru10  1  0.063646  0.783670  0.500000  1
  Ru  Ru11  1  0.936354  0.216330  0.500000  1
  Ru  Ru12  1  0.283670  0.563646  0.500000  1
  Ru  Ru13  1  0.716330  0.436354  0.500000  1
  Ru  Ru14  1  0.213116  0.071694  0.500000  1
  Ru  Ru15  1  0.786884  0.928306  0.500000  1
  Ru  Ru16  1  0.500000  0.000000  0.500000  1
  Ru  Ru17  1  0.000000  0.500000  0.500000  1
  W  W18  1  0.823254  0.676746  0.000000  1
  W  W19  1  0.176746  0.323254  0.000000  1
