# generated using pymatgen
data_Tm5ThMg2(Co4P3)4
_symmetry_space_group_name_H-M   'P 1'
_cell_length_a   3.73433600
_cell_length_b   10.65439300
_cell_length_c   12.27629900
_cell_angle_alpha   90.00000000
_cell_angle_beta   90.00000000
_cell_angle_gamma   90.00000000
_symmetry_Int_Tables_number   1
_chemical_formula_structural   Tm5ThMg2(Co4P3)4
_chemical_formula_sum   'Tm5 Th1 Mg2 Co16 P12'
_cell_volume   488.43813140
_cell_formula_units_Z   1
loop_
 _symmetry_equiv_pos_site_id
 _symmetry_equiv_pos_as_xyz
  1  'x, y, z'
loop_
 _atom_site_type_symbol
 _atom_site_label
 _atom_site_symmetry_multiplicity
 _atom_site_fract_x
 _atom_site_fract_y
 _atom_site_fract_z
 _atom_site_occupancy
  Tm  Tm0  1  0.500000  0.000000  0.473465  1
  Tm  Tm1  1  0.500000  0.822447  0.206372  1
  Tm  Tm2  1  0.500000  0.177553  0.206372  1
  Tm  Tm3  1  0.000000  0.679057  0.795720  1
  Tm  Tm4  1  0.000000  0.320943  0.795720  1
  Th  Th5  1  0.000000  0.500000  0.529004  1
  Mg  Mg6  1  0.500000  0.500000  0.152526  1
  Mg  Mg7  1  0.000000  0.000000  0.843356  1
  Co  Co8  1  0.500000  0.500000  0.705229  1
  Co  Co9  1  0.000000  0.000000  0.294881  1
  Co  Co10  1  0.000000  0.500000  0.988575  1
  Co  Co11  1  0.500000  0.000000  0.012116  1
  Co  Co12  1  0.500000  0.331778  0.995865  1
  Co  Co13  1  0.500000  0.668222  0.995865  1
  Co  Co14  1  0.000000  0.166811  0.003624  1
  Co  Co15  1  0.000000  0.833189  0.003624  1
  Co  Co16  1  0.500000  0.294118  0.431544  1
  Co  Co17  1  0.500000  0.705882  0.431544  1
  Co  Co18  1  0.000000  0.201035  0.568391  1
  Co  Co19  1  0.000000  0.798965  0.568391  1
  Co  Co20  1  0.500000  0.878710  0.707748  1
  Co  Co21  1  0.500000  0.121290  0.707748  1
  Co  Co22  1  0.000000  0.623753  0.292382  1
  Co  Co23  1  0.000000  0.376247  0.292382  1
  P  P24  1  0.500000  0.500000  0.884832  1
  P  P25  1  0.000000  0.000000  0.116119  1
  P  P26  1  0.500000  0.500000  0.349959  1
  P  P27  1  0.000000  0.000000  0.643099  1
  P  P28  1  0.500000  0.304173  0.618006  1
  P  P29  1  0.500000  0.695827  0.618006  1
  P  P30  1  0.000000  0.188059  0.383801  1
  P  P31  1  0.000000  0.811941  0.383801  1
  P  P32  1  0.500000  0.839113  0.892833  1
  P  P33  1  0.500000  0.160887  0.892833  1
  P  P34  1  0.000000  0.662556  0.107133  1
  P  P35  1  0.000000  0.337444  0.107133  1
