# generated using pymatgen
data_DyHo3Re2(B8Mo)2
_symmetry_space_group_name_H-M   'P 1'
_cell_length_a   3.61212600
_cell_length_b   5.99371362
_cell_length_c   11.59402000
_cell_angle_alpha   89.93801063
_cell_angle_beta   90.00000000
_cell_angle_gamma   90.00000000
_symmetry_Int_Tables_number   1
_chemical_formula_structural   DyHo3Re2(B8Mo)2
_chemical_formula_sum   'Dy1 Ho3 Re2 B16 Mo2'
_cell_volume   251.01095184
_cell_formula_units_Z   1
loop_
 _symmetry_equiv_pos_site_id
 _symmetry_equiv_pos_as_xyz
  1  'x, y, z'
loop_
 _atom_site_type_symbol
 _atom_site_label
 _atom_site_symmetry_multiplicity
 _atom_site_fract_x
 _atom_site_fract_y
 _atom_site_fract_z
 _atom_site_occupancy
  Dy  Dy0  1  0.000000  0.627495  0.149407  1
  Ho  Ho1  1  0.000000  0.372469  0.850617  1
  Ho  Ho2  1  0.000000  0.126799  0.349409  1
  Ho  Ho3  1  0.000000  0.873203  0.650613  1
  Re  Re4  1  0.000000  0.134441  0.086935  1
  Re  Re5  1  0.000000  0.865575  0.912884  1
  B  B6  1  0.500000  0.977619  0.191683  1
  B  B7  1  0.500000  0.022542  0.808291  1
  B  B8  1  0.500000  0.476043  0.305769  1
  B  B9  1  0.500000  0.523820  0.694423  1
  B  B10  1  0.500000  0.789599  0.313554  1
  B  B11  1  0.500000  0.210459  0.686580  1
  B  B12  1  0.500000  0.285585  0.184467  1
  B  B13  1  0.500000  0.714183  0.815522  1
  B  B14  1  0.500000  0.867313  0.467777  1
  B  B15  1  0.500000  0.132695  0.532254  1
  B  B16  1  0.500000  0.363282  0.030820  1
  B  B17  1  0.500000  0.636624  0.968983  1
  B  B18  1  0.500000  0.886780  0.047261  1
  B  B19  1  0.500000  0.113522  0.952573  1
  B  B20  1  0.500000  0.384923  0.452292  1
  B  B21  1  0.500000  0.615055  0.547740  1
  Mo  Mo22  1  0.000000  0.629446  0.415307  1
  Mo  Mo23  1  0.000000  0.370532  0.584840  1
