# generated using pymatgen
data_CeDySi4OsPt3
_symmetry_space_group_name_H-M   'P 1'
_cell_length_a   4.17599100
_cell_length_b   4.18756000
_cell_length_c   9.94933500
_cell_angle_alpha   90.00000000
_cell_angle_beta   90.00000000
_cell_angle_gamma   90.00000000
_symmetry_Int_Tables_number   1
_chemical_formula_structural   CeDySi4OsPt3
_chemical_formula_sum   'Ce1 Dy1 Si4 Os1 Pt3'
_cell_volume   173.98613908
_cell_formula_units_Z   1
loop_
 _symmetry_equiv_pos_site_id
 _symmetry_equiv_pos_as_xyz
  1  'x, y, z'
loop_
 _atom_site_type_symbol
 _atom_site_label
 _atom_site_symmetry_multiplicity
 _atom_site_fract_x
 _atom_site_fract_y
 _atom_site_fract_z
 _atom_site_occupancy
  Ce  Ce0  1  0.500000  0.000000  0.745873  1
  Dy  Dy1  1  0.000000  0.500000  0.252503  1
  Si  Si2  1  0.500000  0.500000  0.498022  1
  Si  Si3  1  0.500000  0.000000  0.132531  1
  Si  Si4  1  0.000000  0.000000  0.498446  1
  Si  Si5  1  0.000000  0.500000  0.871138  1
  Os  Os6  1  0.000000  0.000000  0.000404  1
  Pt  Pt7  1  0.000000  0.500000  0.625275  1
  Pt  Pt8  1  0.500000  0.000000  0.374032  1
  Pt  Pt9  1  0.500000  0.500000  0.001777  1
