# generated using pymatgen
data_Nd4Al18GaIr5
_symmetry_space_group_name_H-M   'P 1'
_cell_length_a   7.64486222
_cell_length_b   7.64486317
_cell_length_c   9.60815324
_cell_angle_alpha   89.78267953
_cell_angle_beta   89.78268004
_cell_angle_gamma   119.33196569
_symmetry_Int_Tables_number   1
_chemical_formula_structural   Nd4Al18GaIr5
_chemical_formula_sum   'Nd4 Al18 Ga1 Ir5'
_cell_volume   489.53300526
_cell_formula_units_Z   1
loop_
 _symmetry_equiv_pos_site_id
 _symmetry_equiv_pos_as_xyz
  1  'x, y, z'
loop_
 _atom_site_type_symbol
 _atom_site_label
 _atom_site_symmetry_multiplicity
 _atom_site_fract_x
 _atom_site_fract_y
 _atom_site_fract_z
 _atom_site_occupancy
  Nd  Nd0  1  0.994929  0.678204  0.248036  1
  Nd  Nd1  1  0.005071  0.321796  0.751964  1
  Nd  Nd2  1  0.678204  0.994929  0.248036  1
  Nd  Nd3  1  0.321796  0.005071  0.751964  1
  Al  Al4  1  0.141084  0.141084  0.262297  1
  Al  Al5  1  0.858916  0.858916  0.737703  1
  Al  Al6  1  0.004481  0.349548  0.078943  1
  Al  Al7  1  0.995519  0.650452  0.921057  1
  Al  Al8  1  0.000172  0.663671  0.567638  1
  Al  Al9  1  0.336329  0.999828  0.432362  1
  Al  Al10  1  0.999828  0.336329  0.432362  1
  Al  Al11  1  0.663671  0.000172  0.567638  1
  Al  Al12  1  0.650452  0.995519  0.921057  1
  Al  Al13  1  0.349548  0.004481  0.078943  1
  Al  Al14  1  0.333464  0.333464  0.546391  1
  Al  Al15  1  0.666536  0.666536  0.453609  1
  Al  Al16  1  0.651474  0.651474  0.060122  1
  Al  Al17  1  0.348526  0.348526  0.939878  1
  Al  Al18  1  0.337656  0.549271  0.252642  1
  Al  Al19  1  0.662344  0.450729  0.747358  1
  Al  Al20  1  0.549271  0.337656  0.252642  1
  Al  Al21  1  0.450729  0.662344  0.747358  1
  Ga  Ga22  1  0.000000  0.000000  0.000000  1
  Ir  Ir23  1  0.670806  0.329194  0.000000  1
  Ir  Ir24  1  0.329194  0.670806  0.000000  1
  Ir  Ir25  1  0.329820  0.670180  0.500000  1
  Ir  Ir26  1  0.670180  0.329820  0.500000  1
  Ir  Ir27  1  0.000000  0.000000  0.500000  1
