# generated using pymatgen
data_Ba3AlBi2Sb
_symmetry_space_group_name_H-M   'P 1'
_cell_length_a   11.44567131
_cell_length_b   11.44567185
_cell_length_c   14.45261700
_cell_angle_alpha   90.00000000
_cell_angle_beta   90.00000000
_cell_angle_gamma   142.39448664
_symmetry_Int_Tables_number   1
_chemical_formula_structural   Ba3AlBi2Sb
_chemical_formula_sum   'Ba12 Al4 Bi8 Sb4'
_cell_volume   1155.35776670
_cell_formula_units_Z   4
loop_
 _symmetry_equiv_pos_site_id
 _symmetry_equiv_pos_as_xyz
  1  'x, y, z'
loop_
 _atom_site_type_symbol
 _atom_site_label
 _atom_site_symmetry_multiplicity
 _atom_site_fract_x
 _atom_site_fract_y
 _atom_site_fract_z
 _atom_site_occupancy
  Ba  Ba0  1  0.127323  0.474018  0.872915  1
  Ba  Ba1  1  0.974018  0.627323  0.627085  1
  Ba  Ba2  1  0.372677  0.025982  0.372915  1
  Ba  Ba3  1  0.525982  0.872677  0.127085  1
  Ba  Ba4  1  0.872677  0.525982  0.127085  1
  Ba  Ba5  1  0.025982  0.372677  0.372915  1
  Ba  Ba6  1  0.627323  0.974018  0.627085  1
  Ba  Ba7  1  0.474018  0.127323  0.872915  1
  Ba  Ba8  1  0.183040  0.183040  0.648006  1
  Ba  Ba9  1  0.683040  0.683040  0.851994  1
  Ba  Ba10  1  0.316960  0.316960  0.148006  1
  Ba  Ba11  1  0.816960  0.816960  0.351994  1
  Al  Al12  1  0.582472  0.417528  0.500000  1
  Al  Al13  1  0.917528  0.082472  0.000000  1
  Al  Al14  1  0.417528  0.582472  0.500000  1
  Al  Al15  1  0.082472  0.917528  0.000000  1
  Bi  Bi16  1  0.637063  0.954956  0.878107  1
  Bi  Bi17  1  0.454956  0.137063  0.621893  1
  Bi  Bi18  1  0.862937  0.545044  0.378107  1
  Bi  Bi19  1  0.045044  0.362937  0.121893  1
  Bi  Bi20  1  0.362937  0.045044  0.121893  1
  Bi  Bi21  1  0.545044  0.862937  0.378107  1
  Bi  Bi22  1  0.137063  0.454956  0.621893  1
  Bi  Bi23  1  0.954956  0.637063  0.878107  1
  Sb  Sb24  1  0.295926  0.295926  0.398032  1
  Sb  Sb25  1  0.795926  0.795926  0.101968  1
  Sb  Sb26  1  0.204074  0.204074  0.898032  1
  Sb  Sb27  1  0.704074  0.704074  0.601968  1
