# generated using pymatgen
data_YCoRe2C
_symmetry_space_group_name_H-M   'P 1'
_cell_length_a   5.67823038
_cell_length_b   5.67823103
_cell_length_c   7.48776400
_cell_angle_alpha   90.00000000
_cell_angle_beta   90.00000000
_cell_angle_gamma   140.31022515
_symmetry_Int_Tables_number   1
_chemical_formula_structural   YCoRe2C
_chemical_formula_sum   'Y2 Co2 Re4 C2'
_cell_volume   154.17993915
_cell_formula_units_Z   2
loop_
 _symmetry_equiv_pos_site_id
 _symmetry_equiv_pos_as_xyz
  1  'x, y, z'
loop_
 _atom_site_type_symbol
 _atom_site_label
 _atom_site_symmetry_multiplicity
 _atom_site_fract_x
 _atom_site_fract_y
 _atom_site_fract_z
 _atom_site_occupancy
  Y  Y0  1  0.534403  0.465597  0.250000  1
  Y  Y1  1  0.465597  0.534403  0.750000  1
  Co  Co2  1  0.259542  0.740458  0.250000  1
  Co  Co3  1  0.740458  0.259542  0.750000  1
  Re  Re4  1  0.822543  0.177457  0.065491  1
  Re  Re5  1  0.177457  0.822543  0.934509  1
  Re  Re6  1  0.177457  0.822543  0.565491  1
  Re  Re7  1  0.822543  0.177457  0.434509  1
  C  C8  1  0.000000  0.000000  0.000000  1
  C  C9  1  0.000000  0.000000  0.500000  1
