# generated using pymatgen
data_Ce3Mn10N11
_symmetry_space_group_name_H-M   'P 1'
_cell_length_a   8.76505449
_cell_length_b   8.76505427
_cell_length_c   8.76505400
_cell_angle_alpha   60.00000101
_cell_angle_beta   60.00000186
_cell_angle_gamma   60.00000256
_symmetry_Int_Tables_number   1
_chemical_formula_structural   Ce3Mn10N11
_chemical_formula_sum   'Ce6 Mn20 N22'
_cell_volume   476.15554462
_cell_formula_units_Z   2
loop_
 _symmetry_equiv_pos_site_id
 _symmetry_equiv_pos_as_xyz
  1  'x, y, z'
loop_
 _atom_site_type_symbol
 _atom_site_label
 _atom_site_symmetry_multiplicity
 _atom_site_fract_x
 _atom_site_fract_y
 _atom_site_fract_z
 _atom_site_occupancy
  Ce  Ce0  1  0.697985  0.302015  0.302015  1
  Ce  Ce1  1  0.302015  0.697985  0.697985  1
  Ce  Ce2  1  0.302015  0.697985  0.302015  1
  Ce  Ce3  1  0.697985  0.302015  0.697985  1
  Ce  Ce4  1  0.302015  0.302015  0.697985  1
  Ce  Ce5  1  0.697985  0.697985  0.302015  1
  Mn  Mn6  1  0.096459  0.096459  0.096459  1
  Mn  Mn7  1  0.903541  0.903541  0.903541  1
  Mn  Mn8  1  0.096459  0.096459  0.710625  1
  Mn  Mn9  1  0.096459  0.710625  0.096459  1
  Mn  Mn10  1  0.903541  0.903541  0.289375  1
  Mn  Mn11  1  0.903541  0.289375  0.903541  1
  Mn  Mn12  1  0.710625  0.096459  0.096459  1
  Mn  Mn13  1  0.289375  0.903541  0.903541  1
  Mn  Mn14  1  0.396087  0.103913  0.103913  1
  Mn  Mn15  1  0.603913  0.896087  0.896087  1
  Mn  Mn16  1  0.103913  0.396087  0.396087  1
  Mn  Mn17  1  0.103913  0.396087  0.103913  1
  Mn  Mn18  1  0.603913  0.896087  0.603913  1
  Mn  Mn19  1  0.896087  0.603913  0.603913  1
  Mn  Mn20  1  0.896087  0.603913  0.896087  1
  Mn  Mn21  1  0.396087  0.103913  0.396087  1
  Mn  Mn22  1  0.103913  0.103913  0.396087  1
  Mn  Mn23  1  0.896087  0.896087  0.603913  1
  Mn  Mn24  1  0.396087  0.396087  0.103913  1
  Mn  Mn25  1  0.603913  0.603913  0.896087  1
  N  N26  1  0.345707  0.000000  0.000000  1
  N  N27  1  0.654293  0.000000  0.000000  1
  N  N28  1  0.000000  0.345707  0.654293  1
  N  N29  1  0.000000  0.654293  0.345707  1
  N  N30  1  0.000000  0.345707  0.000000  1
  N  N31  1  0.654293  0.000000  0.345707  1
  N  N32  1  0.000000  0.654293  0.000000  1
  N  N33  1  0.345707  0.000000  0.654293  1
  N  N34  1  0.000000  0.000000  0.345707  1
  N  N35  1  0.000000  0.000000  0.654293  1
  N  N36  1  0.654293  0.345707  0.000000  1
  N  N37  1  0.345707  0.654293  0.000000  1
  N  N38  1  0.359538  0.359538  0.359538  1
  N  N39  1  0.640462  0.640462  0.640462  1
  N  N40  1  0.359538  0.359538  0.921387  1
  N  N41  1  0.359538  0.921387  0.359538  1
  N  N42  1  0.640462  0.640462  0.078613  1
  N  N43  1  0.640462  0.078613  0.640462  1
  N  N44  1  0.921387  0.359538  0.359538  1
  N  N45  1  0.078613  0.640462  0.640462  1
  N  N46  1  0.500000  0.500000  0.500000  1
  N  N47  1  0.000000  0.000000  0.000000  1
