# generated using pymatgen
data_Zr5Bi3Pt
_symmetry_space_group_name_H-M   'P 1'
_cell_length_a   8.95930700
_cell_length_b   8.95930722
_cell_length_c   5.89303400
_cell_angle_alpha   90.00000000
_cell_angle_beta   90.00000000
_cell_angle_gamma   119.99999551
_symmetry_Int_Tables_number   1
_chemical_formula_structural   Zr5Bi3Pt
_chemical_formula_sum   'Zr10 Bi6 Pt2'
_cell_volume   409.65517488
_cell_formula_units_Z   2
loop_
 _symmetry_equiv_pos_site_id
 _symmetry_equiv_pos_as_xyz
  1  'x, y, z'
loop_
 _atom_site_type_symbol
 _atom_site_label
 _atom_site_symmetry_multiplicity
 _atom_site_fract_x
 _atom_site_fract_y
 _atom_site_fract_z
 _atom_site_occupancy
  Zr  Zr0  1  0.734658  0.000000  0.250000  1
  Zr  Zr1  1  0.000000  0.734658  0.250000  1
  Zr  Zr2  1  0.265342  0.265342  0.250000  1
  Zr  Zr3  1  0.265342  0.000000  0.750000  1
  Zr  Zr4  1  0.000000  0.265342  0.750000  1
  Zr  Zr5  1  0.734658  0.734658  0.750000  1
  Zr  Zr6  1  0.333333  0.666667  0.500000  1
  Zr  Zr7  1  0.666667  0.333333  0.500000  1
  Zr  Zr8  1  0.666667  0.333333  0.000000  1
  Zr  Zr9  1  0.333333  0.666667  0.000000  1
  Bi  Bi10  1  0.386820  0.000000  0.250000  1
  Bi  Bi11  1  0.000000  0.386820  0.250000  1
  Bi  Bi12  1  0.613180  0.613180  0.250000  1
  Bi  Bi13  1  0.613180  0.000000  0.750000  1
  Bi  Bi14  1  0.000000  0.613180  0.750000  1
  Bi  Bi15  1  0.386820  0.386820  0.750000  1
  Pt  Pt16  1  0.000000  0.000000  0.500000  1
  Pt  Pt17  1  0.000000  0.000000  0.000000  1
