# generated using pymatgen
data_Ac4PrIn11Ni6
_symmetry_space_group_name_H-M   'P 1'
_cell_length_a   10.62701745
_cell_length_b   10.66149102
_cell_length_c   4.53153000
_cell_angle_alpha   90.00000000
_cell_angle_beta   90.00000000
_cell_angle_gamma   90.42670191
_symmetry_Int_Tables_number   1
_chemical_formula_structural   Ac4PrIn11Ni6
_chemical_formula_sum   'Ac4 Pr1 In11 Ni6'
_cell_volume   513.40743638
_cell_formula_units_Z   1
loop_
 _symmetry_equiv_pos_site_id
 _symmetry_equiv_pos_as_xyz
  1  'x, y, z'
loop_
 _atom_site_type_symbol
 _atom_site_label
 _atom_site_symmetry_multiplicity
 _atom_site_fract_x
 _atom_site_fract_y
 _atom_site_fract_z
 _atom_site_occupancy
  Ac  Ac0  1  0.034538  0.687374  0.000000  1
  Ac  Ac1  1  0.313528  0.966582  0.000000  1
  Ac  Ac2  1  0.686075  0.035674  0.000000  1
  Ac  Ac3  1  0.500171  0.498686  0.500000  1
  Pr  Pr4  1  0.966573  0.311579  0.000000  1
  In  In5  1  0.302899  0.307255  0.000000  1
  In  In6  1  0.693253  0.690930  0.000000  1
  In  In7  1  0.731432  0.275254  0.500000  1
  In  In8  1  0.845373  0.531757  0.500000  1
  In  In9  1  0.158311  0.165284  0.500000  1
  In  In10  1  0.837186  0.837118  0.500000  1
  In  In11  1  0.153624  0.461240  0.500000  1
  In  In12  1  0.274681  0.724278  0.500000  1
  In  In13  1  0.537305  0.839027  0.500000  1
  In  In14  1  0.999763  0.004553  0.000000  1
  In  In15  1  0.463229  0.162887  0.500000  1
  Ni  Ni16  1  0.910222  0.090922  0.500000  1
  Ni  Ni17  1  0.555326  0.280556  0.000000  1
  Ni  Ni18  1  0.443249  0.721222  0.000000  1
  Ni  Ni19  1  0.089731  0.911155  0.500000  1
  Ni  Ni20  1  0.726693  0.442054  0.000000  1
  Ni  Ni21  1  0.276838  0.554613  0.000000  1
