# generated using pymatgen
data_CeNdU2(ReB6)2
_symmetry_space_group_name_H-M   'P 1'
_cell_length_a   3.69400700
_cell_length_b   9.37199874
_cell_length_c   11.49805991
_cell_angle_alpha   89.95444114
_cell_angle_beta   90.00000000
_cell_angle_gamma   90.00000000
_symmetry_Int_Tables_number   1
_chemical_formula_structural   CeNdU2(ReB6)2
_chemical_formula_sum   'Ce2 Nd2 U4 Re4 B24'
_cell_volume   398.06534070
_cell_formula_units_Z   2
loop_
 _symmetry_equiv_pos_site_id
 _symmetry_equiv_pos_as_xyz
  1  'x, y, z'
loop_
 _atom_site_type_symbol
 _atom_site_label
 _atom_site_symmetry_multiplicity
 _atom_site_fract_x
 _atom_site_fract_y
 _atom_site_fract_z
 _atom_site_occupancy
  Ce  Ce0  1  0.000000  0.336027  0.408053  1
  Ce  Ce1  1  0.000000  0.663973  0.591947  1
  Nd  Nd2  1  0.000000  0.837053  0.091682  1
  Nd  Nd3  1  0.000000  0.162947  0.908318  1
  U  U4  1  0.000000  0.957938  0.396758  1
  U  U5  1  0.000000  0.042062  0.603242  1
  U  U6  1  0.000000  0.457785  0.103266  1
  U  U7  1  0.000000  0.542215  0.896734  1
  Re  Re8  1  0.000000  0.645810  0.319733  1
  Re  Re9  1  0.000000  0.354190  0.680267  1
  Re  Re10  1  0.000000  0.149040  0.184328  1
  Re  Re11  1  0.000000  0.850960  0.815672  1
  B  B12  1  0.500000  0.553711  0.429800  1
  B  B13  1  0.500000  0.446289  0.570200  1
  B  B14  1  0.500000  0.055779  0.072282  1
  B  B15  1  0.500000  0.944221  0.927718  1
  B  B16  1  0.500000  0.744376  0.422103  1
  B  B17  1  0.500000  0.255624  0.577897  1
  B  B18  1  0.500000  0.245738  0.079140  1
  B  B19  1  0.500000  0.754262  0.920860  1
  B  B20  1  0.500000  0.802234  0.275667  1
  B  B21  1  0.500000  0.197766  0.724333  1
  B  B22  1  0.500000  0.303579  0.226240  1
  B  B23  1  0.500000  0.696421  0.773760  1
  B  B24  1  0.500000  0.643853  0.188699  1
  B  B25  1  0.500000  0.356147  0.811301  1
  B  B26  1  0.500000  0.145164  0.312699  1
  B  B27  1  0.500000  0.854836  0.687301  1
  B  B28  1  0.500000  0.992086  0.221173  1
  B  B29  1  0.500000  0.007914  0.778827  1
  B  B30  1  0.500000  0.490660  0.280377  1
  B  B31  1  0.500000  0.509340  0.719623  1
  B  B32  1  0.500000  0.636086  0.037473  1
  B  B33  1  0.500000  0.363914  0.962527  1
  B  B34  1  0.500000  0.139150  0.462236  1
  B  B35  1  0.500000  0.860850  0.537764  1
