# generated using pymatgen
data_SrH5Ir
_symmetry_space_group_name_H-M   'P 1'
_cell_length_a   4.68978000
_cell_length_b   5.06023800
_cell_length_c   12.39687100
_cell_angle_alpha   90.00000000
_cell_angle_beta   90.00000000
_cell_angle_gamma   90.00000000
_symmetry_Int_Tables_number   1
_chemical_formula_structural   SrH5Ir
_chemical_formula_sum   'Sr4 H20 Ir4'
_cell_volume   294.19514124
_cell_formula_units_Z   4
loop_
 _symmetry_equiv_pos_site_id
 _symmetry_equiv_pos_as_xyz
  1  'x, y, z'
loop_
 _atom_site_type_symbol
 _atom_site_label
 _atom_site_symmetry_multiplicity
 _atom_site_fract_x
 _atom_site_fract_y
 _atom_site_fract_z
 _atom_site_occupancy
  Sr  Sr0  1  0.254354  0.188067  0.635977  1
  Sr  Sr1  1  0.754354  0.311933  0.364023  1
  Sr  Sr2  1  0.245646  0.811933  0.135977  1
  Sr  Sr3  1  0.745646  0.688067  0.864023  1
  H  H4  1  0.688642  0.374195  0.556942  1
  H  H5  1  0.188642  0.125805  0.443058  1
  H  H6  1  0.811358  0.625805  0.056942  1
  H  H7  1  0.311358  0.874195  0.943058  1
  H  H8  1  0.045603  0.100294  0.815931  1
  H  H9  1  0.545603  0.399706  0.184069  1
  H  H10  1  0.454397  0.899706  0.315931  1
  H  H11  1  0.954397  0.600294  0.684069  1
  H  H12  1  0.231796  0.497728  0.862672  1
  H  H13  1  0.731796  0.002272  0.137328  1
  H  H14  1  0.268204  0.502272  0.362672  1
  H  H15  1  0.768204  0.997728  0.637328  1
  H  H16  1  0.538166  0.172407  0.826094  1
  H  H17  1  0.038166  0.327593  0.173906  1
  H  H18  1  0.961834  0.827593  0.326094  1
  H  H19  1  0.461834  0.672407  0.673906  1
  H  H20  1  0.959010  0.140604  0.988777  1
  H  H21  1  0.459010  0.359396  0.011223  1
  H  H22  1  0.540990  0.859396  0.488777  1
  H  H23  1  0.040990  0.640604  0.511223  1
  Ir  Ir24  1  0.269144  0.190934  0.909202  1
  Ir  Ir25  1  0.769144  0.309066  0.090798  1
  Ir  Ir26  1  0.230856  0.809066  0.409202  1
  Ir  Ir27  1  0.730856  0.690934  0.590798  1
