# generated using pymatgen
data_Dy4MgFe6P12Rh13
_symmetry_space_group_name_H-M   'P 1'
_cell_length_a   3.83878700
_cell_length_b   10.68803011
_cell_length_c   12.42616227
_cell_angle_alpha   90.25100756
_cell_angle_beta   90.00000000
_cell_angle_gamma   90.00000000
_symmetry_Int_Tables_number   1
_chemical_formula_structural   Dy4MgFe6P12Rh13
_chemical_formula_sum   'Dy4 Mg1 Fe6 P12 Rh13'
_cell_volume   509.82900213
_cell_formula_units_Z   1
loop_
 _symmetry_equiv_pos_site_id
 _symmetry_equiv_pos_as_xyz
  1  'x, y, z'
loop_
 _atom_site_type_symbol
 _atom_site_label
 _atom_site_symmetry_multiplicity
 _atom_site_fract_x
 _atom_site_fract_y
 _atom_site_fract_z
 _atom_site_occupancy
  Dy  Dy0  1  0.250000  0.578796  0.708718  1
  Dy  Dy1  1  0.250000  0.925018  0.211901  1
  Dy  Dy2  1  0.750000  0.415806  0.289826  1
  Dy  Dy3  1  0.750000  0.083801  0.790653  1
  Mg  Mg4  1  0.750000  0.294416  0.008876  1
  Fe  Fe5  1  0.750000  0.120911  0.306357  1
  Fe  Fe6  1  0.750000  0.376416  0.798990  1
  Fe  Fe7  1  0.250000  0.464185  0.931179  1
  Fe  Fe8  1  0.250000  0.039666  0.435666  1
  Fe  Fe9  1  0.750000  0.541626  0.063961  1
  Fe  Fe10  1  0.750000  0.959617  0.566170  1
  P  P11  1  0.250000  0.431517  0.107248  1
  P  P12  1  0.250000  0.069099  0.607451  1
  P  P13  1  0.750000  0.558606  0.886953  1
  P  P14  1  0.750000  0.939918  0.390019  1
  P  P15  1  0.250000  0.275230  0.858533  1
  P  P16  1  0.250000  0.224117  0.363526  1
  P  P17  1  0.750000  0.731657  0.131571  1
  P  P18  1  0.750000  0.768752  0.631422  1
  P  P19  1  0.250000  0.600393  0.389158  1
  P  P20  1  0.250000  0.899865  0.891940  1
  P  P21  1  0.750000  0.397811  0.617564  1
  P  P22  1  0.750000  0.097972  0.124334  1
  Rh  Rh23  1  0.250000  0.712637  0.991037  1
  Rh  Rh24  1  0.250000  0.783775  0.492061  1
  Rh  Rh25  1  0.750000  0.212851  0.509639  1
  Rh  Rh26  1  0.250000  0.405553  0.475833  1
  Rh  Rh27  1  0.250000  0.095351  0.976381  1
  Rh  Rh28  1  0.750000  0.589375  0.519241  1
  Rh  Rh29  1  0.750000  0.907064  0.021120  1
  Rh  Rh30  1  0.250000  0.223876  0.175544  1
  Rh  Rh31  1  0.250000  0.273352  0.670409  1
  Rh  Rh32  1  0.750000  0.765169  0.826597  1
  Rh  Rh33  1  0.750000  0.734972  0.326310  1
  Rh  Rh34  1  0.250000  0.880451  0.702235  1
  Rh  Rh35  1  0.250000  0.620379  0.201573  1
