# generated using pymatgen
data_Li3Ca4Al5
_symmetry_space_group_name_H-M   'P 1'
_cell_length_a   5.70658915
_cell_length_b   5.78003008
_cell_length_c   9.96688251
_cell_angle_alpha   72.99182962
_cell_angle_beta   73.48818633
_cell_angle_gamma   60.23002748
_symmetry_Int_Tables_number   1
_chemical_formula_structural   Li3Ca4Al5
_chemical_formula_sum   'Li3 Ca4 Al5'
_cell_volume   269.03070209
_cell_formula_units_Z   1
loop_
 _symmetry_equiv_pos_site_id
 _symmetry_equiv_pos_as_xyz
  1  'x, y, z'
loop_
 _atom_site_type_symbol
 _atom_site_label
 _atom_site_symmetry_multiplicity
 _atom_site_fract_x
 _atom_site_fract_y
 _atom_site_fract_z
 _atom_site_occupancy
  Li  Li0  1  0.611243  0.094806  0.230523  1
  Li  Li1  1  0.605240  0.595641  0.729700  1
  Li  Li2  1  0.111761  0.092856  0.230450  1
  Ca  Ca3  1  0.666747  0.666235  0.033268  1
  Ca  Ca4  1  0.548532  0.522599  0.426621  1
  Ca  Ca5  1  0.172960  0.162608  0.546652  1
  Ca  Ca6  1  0.039594  0.027770  0.913459  1
  Al  Al7  1  0.104426  0.595122  0.730137  1
  Al  Al8  1  0.604741  0.095076  0.730595  1
  Al  Al9  1  0.864970  0.842304  0.483571  1
  Al  Al10  1  0.109170  0.594371  0.227906  1
  Al  Al11  1  0.349795  0.346957  0.975989  1
