# generated using pymatgen
data_Ho10Th6Mg4MnRu3
_symmetry_space_group_name_H-M   'P 1'
_cell_length_a   9.67254398
_cell_length_b   9.77175940
_cell_length_c   9.77175905
_cell_angle_alpha   59.46124355
_cell_angle_beta   60.19983690
_cell_angle_gamma   60.19983263
_symmetry_Int_Tables_number   1
_chemical_formula_structural   Ho10Th6Mg4MnRu3
_chemical_formula_sum   'Ho10 Th6 Mg4 Mn1 Ru3'
_cell_volume   652.32857559
_cell_formula_units_Z   1
loop_
 _symmetry_equiv_pos_site_id
 _symmetry_equiv_pos_as_xyz
  1  'x, y, z'
loop_
 _atom_site_type_symbol
 _atom_site_label
 _atom_site_symmetry_multiplicity
 _atom_site_fract_x
 _atom_site_fract_y
 _atom_site_fract_z
 _atom_site_occupancy
  Ho  Ho0  1  0.189449  0.813609  0.188699  1
  Ho  Ho1  1  0.810231  0.188350  0.811486  1
  Ho  Ho2  1  0.189449  0.188699  0.813609  1
  Ho  Ho3  1  0.810231  0.811486  0.188350  1
  Ho  Ho4  1  0.932214  0.567699  0.567699  1
  Ho  Ho5  1  0.566578  0.932982  0.932982  1
  Ho  Ho6  1  0.562390  0.938616  0.562313  1
  Ho  Ho7  1  0.937555  0.560107  0.937980  1
  Ho  Ho8  1  0.562390  0.562313  0.938616  1
  Ho  Ho9  1  0.937555  0.937980  0.560107  1
  Th  Th10  1  0.343951  0.347818  0.347818  1
  Th  Th11  1  0.344895  0.338729  0.962848  1
  Th  Th12  1  0.344895  0.962848  0.338729  1
  Th  Th13  1  0.962593  0.346168  0.346168  1
  Th  Th14  1  0.826659  0.183455  0.183455  1
  Th  Th15  1  0.183455  0.816628  0.816628  1
  Mg  Mg16  1  0.582096  0.578551  0.578551  1
  Mg  Mg17  1  0.578794  0.582118  0.258230  1
  Mg  Mg18  1  0.578794  0.258230  0.582118  1
  Mg  Mg19  1  0.259939  0.577648  0.577648  1
  Mn  Mn20  1  0.118717  0.153073  0.153073  1
  Ru  Ru21  1  0.149926  0.127970  0.575969  1
  Ru  Ru22  1  0.149926  0.575969  0.127970  1
  Ru  Ru23  1  0.577317  0.148953  0.148953  1
