# generated using pymatgen
data_Ce4Y4Ti7Si16W5
_symmetry_space_group_name_H-M   'P 1'
_cell_length_a   6.99240785
_cell_length_b   6.98512643
_cell_length_c   12.96892251
_cell_angle_alpha   89.84757715
_cell_angle_beta   90.16906655
_cell_angle_gamma   89.75958773
_symmetry_Int_Tables_number   1
_chemical_formula_structural   Ce4Y4Ti7Si16W5
_chemical_formula_sum   'Ce4 Y4 Ti7 Si16 W5'
_cell_volume   633.42857823
_cell_formula_units_Z   1
loop_
 _symmetry_equiv_pos_site_id
 _symmetry_equiv_pos_as_xyz
  1  'x, y, z'
loop_
 _atom_site_type_symbol
 _atom_site_label
 _atom_site_symmetry_multiplicity
 _atom_site_fract_x
 _atom_site_fract_y
 _atom_site_fract_z
 _atom_site_occupancy
  Ce  Ce0  1  0.162805  0.500340  0.781667  1
  Ce  Ce1  1  0.665478  0.994465  0.968547  1
  Ce  Ce2  1  0.003166  0.337480  0.533613  1
  Ce  Ce3  1  0.993528  0.665910  0.030529  1
  Y  Y4  1  0.339234  0.001732  0.467567  1
  Y  Y5  1  0.498545  0.838927  0.718726  1
  Y  Y6  1  0.498294  0.160436  0.218026  1
  Y  Y7  1  0.839272  0.499389  0.282326  1
  Ti  Ti8  1  0.489105  0.657856  0.127137  1
  Ti  Ti9  1  0.503148  0.345502  0.626642  1
  Ti  Ti10  1  0.656438  0.491036  0.872842  1
  Ti  Ti11  1  0.344286  0.509576  0.373634  1
  Ti  Ti12  1  0.845293  0.994158  0.377290  1
  Ti  Ti13  1  0.005501  0.153379  0.124382  1
  Ti  Ti14  1  0.990889  0.842233  0.622222  1
  Si  Si15  1  0.200848  0.124487  0.686296  1
  Si  Si16  1  0.374037  0.702689  0.934446  1
  Si  Si17  1  0.628147  0.301536  0.435300  1
  Si  Si18  1  0.696288  0.371767  0.065621  1
  Si  Si19  1  0.303086  0.630663  0.563435  1
  Si  Si20  1  0.799514  0.871995  0.187926  1
  Si  Si21  1  0.128989  0.199180  0.314164  1
  Si  Si22  1  0.873151  0.800622  0.812851  1
  Si  Si23  1  0.292652  0.959280  0.065239  1
  Si  Si24  1  0.544450  0.792589  0.316507  1
  Si  Si25  1  0.456193  0.207152  0.815709  1
  Si  Si26  1  0.788752  0.543943  0.683591  1
  Si  Si27  1  0.207119  0.454962  0.184455  1
  Si  Si28  1  0.707241  0.044326  0.565623  1
  Si  Si29  1  0.958616  0.289359  0.934986  1
  Si  Si30  1  0.044708  0.709449  0.433395  1
  W  W31  1  0.326928  0.329139  0.999683  1
  W  W32  1  0.171037  0.828421  0.249209  1
  W  W33  1  0.832797  0.169742  0.750471  1
  W  W34  1  0.673670  0.671355  0.499643  1
  W  W35  1  0.156799  0.004925  0.876299  1
