# generated using pymatgen
data_Tb2HoCu6Ni7B2
_symmetry_space_group_name_H-M   'P 1'
_cell_length_a   5.01496746
_cell_length_b   5.02140723
_cell_length_c   10.93714200
_cell_angle_alpha   90.00000000
_cell_angle_beta   90.00000000
_cell_angle_gamma   120.04247324
_symmetry_Int_Tables_number   1
_chemical_formula_structural   Tb2HoCu6Ni7B2
_chemical_formula_sum   'Tb2 Ho1 Cu6 Ni7 B2'
_cell_volume   238.41963189
_cell_formula_units_Z   1
loop_
 _symmetry_equiv_pos_site_id
 _symmetry_equiv_pos_as_xyz
  1  'x, y, z'
loop_
 _atom_site_type_symbol
 _atom_site_label
 _atom_site_symmetry_multiplicity
 _atom_site_fract_x
 _atom_site_fract_y
 _atom_site_fract_z
 _atom_site_occupancy
  Tb  Tb0  1  0.000000  0.000000  0.679008  1
  Tb  Tb1  1  0.000000  0.000000  0.320992  1
  Ho  Ho2  1  0.000000  0.000000  0.000000  1
  Cu  Cu3  1  0.500000  0.500000  0.500000  1
  Cu  Cu4  1  0.500000  0.000000  0.500000  1
  Cu  Cu5  1  0.669695  0.334847  0.684806  1
  Cu  Cu6  1  0.330305  0.665153  0.684806  1
  Cu  Cu7  1  0.330305  0.665153  0.315194  1
  Cu  Cu8  1  0.669695  0.334847  0.315194  1
  Ni  Ni9  1  0.000000  0.500000  0.500000  1
  Ni  Ni10  1  0.500000  0.500000  0.870568  1
  Ni  Ni11  1  0.500000  0.000000  0.870568  1
  Ni  Ni12  1  0.000000  0.500000  0.870644  1
  Ni  Ni13  1  0.500000  0.500000  0.129432  1
  Ni  Ni14  1  0.500000  0.000000  0.129432  1
  Ni  Ni15  1  0.000000  0.500000  0.129356  1
  B  B16  1  0.666313  0.333157  0.000000  1
  B  B17  1  0.333687  0.666843  0.000000  1
