# generated using pymatgen
data_Sm3P6Ru2Rh7
_symmetry_space_group_name_H-M   'P 1'
_cell_length_a   3.95827700
_cell_length_b   11.29031100
_cell_length_c   12.79284300
_cell_angle_alpha   90.00000000
_cell_angle_beta   90.00000000
_cell_angle_gamma   90.00000000
_symmetry_Int_Tables_number   1
_chemical_formula_structural   Sm3P6Ru2Rh7
_chemical_formula_sum   'Sm6 P12 Ru4 Rh14'
_cell_volume   571.71443533
_cell_formula_units_Z   2
loop_
 _symmetry_equiv_pos_site_id
 _symmetry_equiv_pos_as_xyz
  1  'x, y, z'
loop_
 _atom_site_type_symbol
 _atom_site_label
 _atom_site_symmetry_multiplicity
 _atom_site_fract_x
 _atom_site_fract_y
 _atom_site_fract_z
 _atom_site_occupancy
  Sm  Sm0  1  0.000000  0.500000  0.520225  1
  Sm  Sm1  1  0.500000  0.000000  0.479775  1
  Sm  Sm2  1  0.500000  0.818006  0.204426  1
  Sm  Sm3  1  0.500000  0.181994  0.204426  1
  Sm  Sm4  1  0.000000  0.681994  0.795574  1
  Sm  Sm5  1  0.000000  0.318006  0.795574  1
  P  P6  1  0.500000  0.500000  0.882978  1
  P  P7  1  0.000000  0.000000  0.117022  1
  P  P8  1  0.500000  0.500000  0.345201  1
  P  P9  1  0.000000  0.000000  0.654799  1
  P  P10  1  0.500000  0.313253  0.618341  1
  P  P11  1  0.500000  0.686747  0.618341  1
  P  P12  1  0.000000  0.186747  0.381659  1
  P  P13  1  0.000000  0.813253  0.381659  1
  P  P14  1  0.500000  0.848057  0.892610  1
  P  P15  1  0.500000  0.151943  0.892610  1
  P  P16  1  0.000000  0.651943  0.107390  1
  P  P17  1  0.000000  0.348057  0.107390  1
  Ru  Ru18  1  0.500000  0.500000  0.160754  1
  Ru  Ru19  1  0.000000  0.000000  0.839246  1
  Ru  Ru20  1  0.000000  0.500000  0.990390  1
  Ru  Ru21  1  0.500000  0.000000  0.009610  1
  Rh  Rh22  1  0.500000  0.500000  0.702045  1
  Rh  Rh23  1  0.000000  0.000000  0.297955  1
  Rh  Rh24  1  0.500000  0.331381  0.990221  1
  Rh  Rh25  1  0.500000  0.668619  0.990221  1
  Rh  Rh26  1  0.000000  0.168619  0.009779  1
  Rh  Rh27  1  0.000000  0.831381  0.009779  1
  Rh  Rh28  1  0.500000  0.294297  0.430139  1
  Rh  Rh29  1  0.500000  0.705703  0.430139  1
  Rh  Rh30  1  0.000000  0.205703  0.569861  1
  Rh  Rh31  1  0.000000  0.794297  0.569861  1
  Rh  Rh32  1  0.500000  0.875696  0.711911  1
  Rh  Rh33  1  0.500000  0.124304  0.711911  1
  Rh  Rh34  1  0.000000  0.624304  0.288089  1
  Rh  Rh35  1  0.000000  0.375696  0.288089  1
