# generated using pymatgen
data_Sc6B4Ir7RuRh2
_symmetry_space_group_name_H-M   'P 1'
_cell_length_a   3.07297500
_cell_length_b   9.61024068
_cell_length_c   9.58097759
_cell_angle_alpha   90.43393979
_cell_angle_beta   90.00000000
_cell_angle_gamma   90.00000000
_symmetry_Int_Tables_number   1
_chemical_formula_structural   Sc6B4Ir7RuRh2
_chemical_formula_sum   'Sc6 B4 Ir7 Ru1 Rh2'
_cell_volume   282.93759654
_cell_formula_units_Z   1
loop_
 _symmetry_equiv_pos_site_id
 _symmetry_equiv_pos_as_xyz
  1  'x, y, z'
loop_
 _atom_site_type_symbol
 _atom_site_label
 _atom_site_symmetry_multiplicity
 _atom_site_fract_x
 _atom_site_fract_y
 _atom_site_fract_z
 _atom_site_occupancy
  Sc  Sc0  1  0.000000  0.172806  0.673469  1
  Sc  Sc1  1  0.000000  0.825600  0.327892  1
  Sc  Sc2  1  0.000000  0.324328  0.176449  1
  Sc  Sc3  1  0.000000  0.676663  0.823748  1
  Sc  Sc4  1  0.000000  0.000894  0.002333  1
  Sc  Sc5  1  0.000000  0.499732  0.499967  1
  B  B6  1  0.000000  0.623423  0.122868  1
  B  B7  1  0.000000  0.376401  0.876435  1
  B  B8  1  0.000000  0.880670  0.619679  1
  B  B9  1  0.000000  0.120195  0.381580  1
  Ir  Ir10  1  0.500000  0.928781  0.778696  1
  Ir  Ir11  1  0.500000  0.776765  0.070184  1
  Ir  Ir12  1  0.500000  0.429664  0.722441  1
  Ir  Ir13  1  0.500000  0.222757  0.928663  1
  Ir  Ir14  1  0.500000  0.570681  0.277146  1
  Ir  Ir15  1  0.500000  0.721881  0.571157  1
  Ir  Ir16  1  0.500000  0.277770  0.426747  1
  Ru  Ru17  1  0.500000  0.000172  0.498980  1
  Rh  Rh18  1  0.500000  0.071524  0.221524  1
  Rh  Rh19  1  0.500000  0.499294  0.000045  1
