# generated using pymatgen
data_Nb12Al9V(NiC2)2
_symmetry_space_group_name_H-M   'P 1'
_cell_length_a   8.36152644
_cell_length_b   8.31897302
_cell_length_c   8.31077200
_cell_angle_alpha   60.03260536
_cell_angle_beta   60.20059158
_cell_angle_gamma   60.29923828
_symmetry_Int_Tables_number   1
_chemical_formula_structural   Nb12Al9V(NiC2)2
_chemical_formula_sum   'Nb12 Al9 V1 Ni2 C4'
_cell_volume   410.41096768
_cell_formula_units_Z   1
loop_
 _symmetry_equiv_pos_site_id
 _symmetry_equiv_pos_as_xyz
  1  'x, y, z'
loop_
 _atom_site_type_symbol
 _atom_site_label
 _atom_site_symmetry_multiplicity
 _atom_site_fract_x
 _atom_site_fract_y
 _atom_site_fract_z
 _atom_site_occupancy
  Nb  Nb0  1  0.815201  0.815506  0.184647  1
  Nb  Nb1  1  0.186396  0.196644  0.808480  1
  Nb  Nb2  1  0.814550  0.183595  0.811849  1
  Nb  Nb3  1  0.180543  0.811155  0.198625  1
  Nb  Nb4  1  0.180543  0.811155  0.809677  1
  Nb  Nb5  1  0.814550  0.183595  0.190005  1
  Nb  Nb6  1  0.434799  0.434494  0.065353  1
  Nb  Nb7  1  0.063604  0.053356  0.441520  1
  Nb  Nb8  1  0.435450  0.066405  0.438151  1
  Nb  Nb9  1  0.069457  0.438845  0.051375  1
  Nb  Nb10  1  0.069457  0.438845  0.440323  1
  Nb  Nb11  1  0.435450  0.066405  0.059995  1
  Al  Al12  1  0.625000  0.125000  0.625000  1
  Al  Al13  1  0.757713  0.429383  0.406452  1
  Al  Al14  1  0.423691  0.752306  0.412003  1
  Al  Al15  1  0.419436  0.427917  0.748187  1
  Al  Al16  1  0.419436  0.427917  0.404461  1
  Al  Al17  1  0.492287  0.820617  0.843548  1
  Al  Al18  1  0.826309  0.497694  0.837997  1
  Al  Al19  1  0.830564  0.822083  0.501813  1
  Al  Al20  1  0.830564  0.822083  0.845539  1
  V  V21  1  0.125000  0.625000  0.625000  1
  Ni  Ni22  1  0.625000  0.625000  0.125000  1
  Ni  Ni23  1  0.625000  0.625000  0.625000  1
  C  C24  1  0.625000  0.125000  0.125000  1
  C  C25  1  0.125000  0.625000  0.125000  1
  C  C26  1  0.125000  0.125000  0.625000  1
  C  C27  1  0.125000  0.125000  0.125000  1
