# generated using pymatgen
data_Li2CePr(PO3)8
_symmetry_space_group_name_H-M   'P 1'
_cell_length_a   7.21965814
_cell_length_b   9.10004770
_cell_length_c   9.10919072
_cell_angle_alpha   95.23902824
_cell_angle_beta   113.34608655
_cell_angle_gamma   113.37093510
_symmetry_Int_Tables_number   1
_chemical_formula_structural   Li2CePr(PO3)8
_chemical_formula_sum   'Li2 Ce1 Pr1 P8 O24'
_cell_volume   481.96330645
_cell_formula_units_Z   1
loop_
 _symmetry_equiv_pos_site_id
 _symmetry_equiv_pos_as_xyz
  1  'x, y, z'
loop_
 _atom_site_type_symbol
 _atom_site_label
 _atom_site_symmetry_multiplicity
 _atom_site_fract_x
 _atom_site_fract_y
 _atom_site_fract_z
 _atom_site_occupancy
  Li  Li0  1  0.449379  0.250000  0.250000  1
  Li  Li1  1  0.550645  0.750000  0.750000  1
  Ce  Ce2  1  0.052504  0.750000  0.750000  1
  Pr  Pr3  1  0.948309  0.250000  0.250000  1
  P  P4  1  0.611619  0.799157  0.097294  1
  P  P5  1  0.083878  0.886513  0.163746  1
  P  P6  1  0.533620  0.613487  0.336253  1
  P  P7  1  0.215168  0.700843  0.402705  1
  P  P8  1  0.784650  0.299035  0.597008  1
  P  P9  1  0.465972  0.386338  0.663560  1
  P  P10  1  0.916076  0.113662  0.836441  1
  P  P11  1  0.388609  0.200965  0.902993  1
  O  O12  1  0.151782  0.820455  0.047556  1
  O  O13  1  0.554326  0.233284  0.082180  1
  O  O14  1  0.813687  0.767467  0.090452  1
  O  O15  1  0.492074  0.644340  0.156794  1
  O  O16  1  0.144675  0.069682  0.203593  1
  O  O17  1  0.712183  0.964031  0.222442  1
  O  O18  1  0.025708  0.535969  0.277559  1
  O  O19  1  0.371402  0.430318  0.296407  1
  O  O20  1  0.190939  0.855660  0.343206  1
  O  O21  1  0.455768  0.732534  0.409548  1
  O  O22  1  0.738862  0.266716  0.417820  1
  O  O23  1  0.783771  0.679545  0.452444  1
  O  O24  1  0.215883  0.320098  0.547297  1
  O  O25  1  0.261598  0.733355  0.581998  1
  O  O26  1  0.544283  0.267438  0.590340  1
  O  O27  1  0.809244  0.144533  0.656862  1
  O  O28  1  0.627924  0.569388  0.703497  1
  O  O29  1  0.973949  0.464239  0.722322  1
  O  O30  1  0.287387  0.035761  0.777677  1
  O  O31  1  0.855038  0.930611  0.796502  1
  O  O32  1  0.507849  0.355467  0.843139  1
  O  O33  1  0.186504  0.232562  0.909660  1
  O  O34  1  0.446245  0.766645  0.918002  1
  O  O35  1  0.848487  0.179902  0.952702  1
