# generated using pymatgen
data_Ca2AlRuO6
_symmetry_space_group_name_H-M   'P 1'
_cell_length_a   5.44182000
_cell_length_b   5.35198506
_cell_length_c   9.30103926
_cell_angle_alpha   54.86258172
_cell_angle_beta   90.00000000
_cell_angle_gamma   90.00000000
_symmetry_Int_Tables_number   1
_chemical_formula_structural   Ca2AlRuO6
_chemical_formula_sum   'Ca4 Al2 Ru2 O12'
_cell_volume   221.52556521
_cell_formula_units_Z   2
loop_
 _symmetry_equiv_pos_site_id
 _symmetry_equiv_pos_as_xyz
  1  'x, y, z'
loop_
 _atom_site_type_symbol
 _atom_site_label
 _atom_site_symmetry_multiplicity
 _atom_site_fract_x
 _atom_site_fract_y
 _atom_site_fract_z
 _atom_site_occupancy
  Ca  Ca0  1  0.455353  0.758465  0.750945  1
  Ca  Ca1  1  0.955353  0.241535  0.749055  1
  Ca  Ca2  1  0.544647  0.241535  0.249055  1
  Ca  Ca3  1  0.044647  0.758465  0.250945  1
  Al  Al4  1  0.500000  0.500000  0.500000  1
  Al  Al5  1  0.000000  0.500000  0.000000  1
  Ru  Ru6  1  0.500000  0.000000  0.000000  1
  Ru  Ru7  1  0.000000  0.000000  0.500000  1
  O  O8  1  0.516428  0.331056  0.745664  1
  O  O9  1  0.016428  0.668944  0.754336  1
  O  O10  1  0.483572  0.668944  0.254336  1
  O  O11  1  0.983572  0.331056  0.245664  1
  O  O12  1  0.706712  0.172230  0.540173  1
  O  O13  1  0.206712  0.827770  0.959827  1
  O  O14  1  0.286324  0.255295  0.039833  1
  O  O15  1  0.786324  0.744705  0.460167  1
  O  O16  1  0.293288  0.827770  0.459827  1
  O  O17  1  0.793288  0.172230  0.040173  1
  O  O18  1  0.713676  0.744705  0.960167  1
  O  O19  1  0.213676  0.255295  0.539833  1
