# generated using pymatgen
data_HoTm9(In2Bi)2
_symmetry_space_group_name_H-M   'P 1'
_cell_length_a   6.55155000
_cell_length_b   8.92181602
_cell_length_c   8.89094124
_cell_angle_alpha   119.73746757
_cell_angle_beta   90.00012540
_cell_angle_gamma   90.00000550
_symmetry_Int_Tables_number   1
_chemical_formula_structural   HoTm9(In2Bi)2
_chemical_formula_sum   'Ho1 Tm9 In4 Bi2'
_cell_volume   451.25136801
_cell_formula_units_Z   1
loop_
 _symmetry_equiv_pos_site_id
 _symmetry_equiv_pos_as_xyz
  1  'x, y, z'
loop_
 _atom_site_type_symbol
 _atom_site_label
 _atom_site_symmetry_multiplicity
 _atom_site_fract_x
 _atom_site_fract_y
 _atom_site_fract_z
 _atom_site_occupancy
  Ho  Ho0  1  0.749999  0.227896  0.991011  1
  Tm  Tm1  1  0.492418  0.328682  0.667407  1
  Tm  Tm2  1  0.492617  0.671651  0.339124  1
  Tm  Tm3  1  0.007384  0.671645  0.339120  1
  Tm  Tm4  1  0.007583  0.328682  0.667410  1
  Tm  Tm5  1  0.749999  0.771656  0.761521  1
  Tm  Tm6  1  0.749999  0.999596  0.237212  1
  Tm  Tm7  1  0.250001  0.766024  0.000796  1
  Tm  Tm8  1  0.250000  0.233660  0.234642  1
  Tm  Tm9  1  0.250001  0.999951  0.763534  1
  In  In10  1  0.749999  0.999920  0.594490  1
  In  In11  1  0.249999  0.398599  0.004098  1
  In  In12  1  0.250000  0.600566  0.604278  1
  In  In13  1  0.250001  0.000292  0.398064  1
  Bi  Bi14  1  0.750001  0.604325  0.999880  1
  Bi  Bi15  1  0.749997  0.396854  0.397417  1
