# generated using pymatgen
data_Zr3Ta(SiRh5)2
_symmetry_space_group_name_H-M   'P 1'
_cell_length_a   5.58787639
_cell_length_b   5.58787726
_cell_length_c   7.95084607
_cell_angle_alpha   89.99007610
_cell_angle_beta   89.99007268
_cell_angle_gamma   98.46123504
_symmetry_Int_Tables_number   1
_chemical_formula_structural   Zr3Ta(SiRh5)2
_chemical_formula_sum   'Zr3 Ta1 Si2 Rh10'
_cell_volume   245.55797768
_cell_formula_units_Z   1
loop_
 _symmetry_equiv_pos_site_id
 _symmetry_equiv_pos_as_xyz
  1  'x, y, z'
loop_
 _atom_site_type_symbol
 _atom_site_label
 _atom_site_symmetry_multiplicity
 _atom_site_fract_x
 _atom_site_fract_y
 _atom_site_fract_z
 _atom_site_occupancy
  Zr  Zr0  1  0.217589  0.782411  0.000000  1
  Zr  Zr1  1  0.218754  0.781246  0.500000  1
  Zr  Zr2  1  0.783472  0.216528  0.000000  1
  Ta  Ta3  1  0.785962  0.214038  0.500000  1
  Si  Si4  1  0.510667  0.506387  0.749764  1
  Si  Si5  1  0.493613  0.489333  0.250236  1
  Rh  Rh6  1  0.705071  0.706795  0.004608  1
  Rh  Rh7  1  0.704297  0.703543  0.495422  1
  Rh  Rh8  1  0.293205  0.294929  0.995392  1
  Rh  Rh9  1  0.296457  0.295703  0.504578  1
  Rh  Rh10  1  0.503814  0.001702  0.745845  1
  Rh  Rh11  1  0.503147  0.010377  0.254298  1
  Rh  Rh12  1  0.997909  0.001879  0.255212  1
  Rh  Rh13  1  0.998121  0.002091  0.744788  1
  Rh  Rh14  1  0.989623  0.496853  0.745702  1
  Rh  Rh15  1  0.998298  0.496186  0.254155  1
