# generated using pymatgen
data_Hf8Fe3Co5Si13As
_symmetry_space_group_name_H-M   'P 1'
_cell_length_a   9.44835160
_cell_length_b   9.44140344
_cell_length_c   9.43381308
_cell_angle_alpha   94.15164200
_cell_angle_beta   94.16094994
_cell_angle_gamma   148.79080705
_symmetry_Int_Tables_number   1
_chemical_formula_structural   Hf8Fe3Co5Si13As
_chemical_formula_sum   'Hf8 Fe3 Co5 Si13 As1'
_cell_volume   419.93480651
_cell_formula_units_Z   1
loop_
 _symmetry_equiv_pos_site_id
 _symmetry_equiv_pos_as_xyz
  1  'x, y, z'
loop_
 _atom_site_type_symbol
 _atom_site_label
 _atom_site_symmetry_multiplicity
 _atom_site_fract_x
 _atom_site_fract_y
 _atom_site_fract_z
 _atom_site_occupancy
  Hf  Hf0  1  0.692843  0.496310  0.196201  1
  Hf  Hf1  1  0.497867  0.695520  0.198769  1
  Hf  Hf2  1  0.497858  0.300527  0.803290  1
  Hf  Hf3  1  0.297522  0.495905  0.800741  1
  Hf  Hf4  1  0.863206  0.863123  0.721909  1
  Hf  Hf5  1  0.141044  0.863805  0.999787  1
  Hf  Hf6  1  0.863560  0.141368  0.000081  1
  Hf  Hf7  1  0.141428  0.141528  0.277808  1
  Fe  Fe8  1  0.397104  0.897745  0.796405  1
  Fe  Fe9  1  0.900409  0.105000  0.502738  1
  Fe  Fe10  1  0.398731  0.600794  0.497692  1
  Co  Co11  1  0.100837  0.898140  0.500067  1
  Co  Co12  1  0.898866  0.397650  0.795887  1
  Co  Co13  1  0.601633  0.102355  0.204937  1
  Co  Co14  1  0.102292  0.601090  0.202846  1
  Co  Co15  1  0.601631  0.396923  0.500085  1
  Si  Si16  1  0.249961  0.250269  0.999840  1
  Si  Si17  1  0.098491  0.506937  0.589384  1
  Si  Si18  1  0.496079  0.087430  0.593060  1
  Si  Si19  1  0.504077  0.910885  0.411065  1
  Si  Si20  1  0.907919  0.500958  0.407357  1
  Si  Si21  1  0.694402  0.995551  0.698615  1
  Si  Si22  1  0.000355  0.698393  0.699079  1
  Si  Si23  1  0.711423  0.711669  0.419916  1
  Si  Si24  1  0.292344  0.711752  0.999630  1
  Si  Si25  1  0.298709  0.997411  0.301176  1
  Si  Si26  1  0.709581  0.289665  0.999614  1
  Si  Si27  1  0.291136  0.291353  0.580243  1
  Si  Si28  1  0.998918  0.299612  0.302030  1
  As  As29  1  0.749774  0.750334  0.999747  1
