# generated using pymatgen
data_Dy3Y(Ga2Ag)4
_symmetry_space_group_name_H-M   'P 1'
_cell_length_a   4.37762600
_cell_length_b   6.95690805
_cell_length_c   10.25583812
_cell_angle_alpha   90.02283737
_cell_angle_beta   90.00000000
_cell_angle_gamma   90.00000000
_symmetry_Int_Tables_number   1
_chemical_formula_structural   Dy3Y(Ga2Ag)4
_chemical_formula_sum   'Dy3 Y1 Ga8 Ag4'
_cell_volume   312.33887453
_cell_formula_units_Z   1
loop_
 _symmetry_equiv_pos_site_id
 _symmetry_equiv_pos_as_xyz
  1  'x, y, z'
loop_
 _atom_site_type_symbol
 _atom_site_label
 _atom_site_symmetry_multiplicity
 _atom_site_fract_x
 _atom_site_fract_y
 _atom_site_fract_z
 _atom_site_occupancy
  Dy  Dy0  1  0.250000  0.779542  0.824833  1
  Dy  Dy1  1  0.750000  0.220357  0.175276  1
  Dy  Dy2  1  0.750000  0.720393  0.324590  1
  Y  Y3  1  0.250000  0.279664  0.675611  1
  Ga  Ga4  1  0.250000  0.928084  0.154323  1
  Ga  Ga5  1  0.750000  0.071400  0.845882  1
  Ga  Ga6  1  0.750000  0.572379  0.654443  1
  Ga  Ga7  1  0.250000  0.428528  0.345355  1
  Ga  Ga8  1  0.250000  0.701294  0.535794  1
  Ga  Ga9  1  0.750000  0.299040  0.463899  1
  Ga  Ga10  1  0.750000  0.798885  0.036021  1
  Ga  Ga11  1  0.250000  0.200753  0.964478  1
  Ag  Ag12  1  0.250000  0.544562  0.095663  1
  Ag  Ag13  1  0.750000  0.455402  0.904446  1
  Ag  Ag14  1  0.750000  0.955238  0.595477  1
  Ag  Ag15  1  0.250000  0.044478  0.403914  1
