# generated using pymatgen
data_CaSmNpO6
_symmetry_space_group_name_H-M   'P 1'
_cell_length_a   5.49714700
_cell_length_b   9.41299200
_cell_length_c   10.41115100
_cell_angle_alpha   90.00000000
_cell_angle_beta   90.00000000
_cell_angle_gamma   90.00000000
_symmetry_Int_Tables_number   1
_chemical_formula_structural   CaSmNpO6
_chemical_formula_sum   'Ca4 Sm4 Np4 O24'
_cell_volume   538.72085167
_cell_formula_units_Z   4
loop_
 _symmetry_equiv_pos_site_id
 _symmetry_equiv_pos_as_xyz
  1  'x, y, z'
loop_
 _atom_site_type_symbol
 _atom_site_label
 _atom_site_symmetry_multiplicity
 _atom_site_fract_x
 _atom_site_fract_y
 _atom_site_fract_z
 _atom_site_occupancy
  Ca  Ca0  1  0.471593  0.602962  0.535090  1
  Ca  Ca1  1  0.971593  0.897038  0.464910  1
  Ca  Ca2  1  0.528407  0.102962  0.964910  1
  Ca  Ca3  1  0.028407  0.397038  0.035090  1
  Sm  Sm4  1  0.960580  0.783180  0.872419  1
  Sm  Sm5  1  0.460580  0.716820  0.127581  1
  Sm  Sm6  1  0.039420  0.283180  0.627581  1
  Sm  Sm7  1  0.539420  0.216820  0.372419  1
  Np  Np8  1  0.458631  0.993407  0.650695  1
  Np  Np9  1  0.958631  0.506593  0.349305  1
  Np  Np10  1  0.541369  0.493407  0.849305  1
  Np  Np11  1  0.041369  0.006593  0.150695  1
  O  O12  1  0.251138  0.087851  0.506835  1
  O  O13  1  0.751138  0.412149  0.493165  1
  O  O14  1  0.748862  0.587851  0.993165  1
  O  O15  1  0.248862  0.912149  0.006835  1
  O  O16  1  0.727856  0.120519  0.567487  1
  O  O17  1  0.227856  0.379481  0.432513  1
  O  O18  1  0.272144  0.620519  0.932513  1
  O  O19  1  0.772144  0.879481  0.067487  1
  O  O20  1  0.582700  0.844420  0.536561  1
  O  O21  1  0.082700  0.655580  0.463439  1
  O  O22  1  0.417300  0.344420  0.963439  1
  O  O23  1  0.917300  0.155580  0.036561  1
  O  O24  1  0.185668  0.858768  0.260113  1
  O  O25  1  0.685668  0.641232  0.739887  1
  O  O26  1  0.814332  0.358768  0.239887  1
  O  O27  1  0.314332  0.141232  0.760113  1
  O  O28  1  0.824769  0.048234  0.302571  1
  O  O29  1  0.324769  0.451766  0.697429  1
  O  O30  1  0.175231  0.548234  0.197429  1
  O  O31  1  0.675231  0.951766  0.802571  1
  O  O32  1  0.328048  0.138329  0.187478  1
  O  O33  1  0.828048  0.361671  0.812522  1
  O  O34  1  0.671952  0.638329  0.312522  1
  O  O35  1  0.171952  0.861671  0.687478  1
