# generated using pymatgen
data_Tb7YIn3Co
_symmetry_space_group_name_H-M   'P 1'
_cell_length_a   10.44817300
_cell_length_b   10.44817441
_cell_length_c   7.04059900
_cell_angle_alpha   90.00000000
_cell_angle_beta   90.00000000
_cell_angle_gamma   120.00000504
_symmetry_Int_Tables_number   1
_chemical_formula_structural   Tb7YIn3Co
_chemical_formula_sum   'Tb14 Y2 In6 Co2'
_cell_volume   665.61176198
_cell_formula_units_Z   2
loop_
 _symmetry_equiv_pos_site_id
 _symmetry_equiv_pos_as_xyz
  1  'x, y, z'
loop_
 _atom_site_type_symbol
 _atom_site_label
 _atom_site_symmetry_multiplicity
 _atom_site_fract_x
 _atom_site_fract_y
 _atom_site_fract_z
 _atom_site_occupancy
  Tb  Tb0  1  0.464230  0.535770  0.483130  1
  Tb  Tb1  1  0.071541  0.535770  0.483130  1
  Tb  Tb2  1  0.464230  0.928459  0.483130  1
  Tb  Tb3  1  0.535770  0.464230  0.983130  1
  Tb  Tb4  1  0.928459  0.464230  0.983130  1
  Tb  Tb5  1  0.535770  0.071541  0.983130  1
  Tb  Tb6  1  0.822288  0.177712  0.275256  1
  Tb  Tb7  1  0.355424  0.177712  0.275256  1
  Tb  Tb8  1  0.822288  0.644576  0.275256  1
  Tb  Tb9  1  0.177712  0.822288  0.775256  1
  Tb  Tb10  1  0.644576  0.822288  0.775256  1
  Tb  Tb11  1  0.177712  0.355424  0.775256  1
  Tb  Tb12  1  0.333333  0.666667  0.093008  1
  Tb  Tb13  1  0.666667  0.333333  0.593008  1
  Y  Y14  1  0.000000  0.000000  0.494973  1
  Y  Y15  1  0.000000  0.000000  0.994973  1
  In  In16  1  0.162453  0.837547  0.234276  1
  In  In17  1  0.675093  0.837547  0.234276  1
  In  In18  1  0.162453  0.324907  0.234276  1
  In  In19  1  0.837547  0.162453  0.734276  1
  In  In20  1  0.324907  0.162453  0.734276  1
  In  In21  1  0.837547  0.675093  0.734276  1
  Co  Co22  1  0.333333  0.666667  0.706309  1
  Co  Co23  1  0.666667  0.333333  0.206309  1
