# generated using pymatgen
data_Li4NbN3
_symmetry_space_group_name_H-M   'P 1'
_cell_length_a   4.91589288
_cell_length_b   8.94626124
_cell_length_c   8.94624987
_cell_angle_alpha   104.87655163
_cell_angle_beta   105.94859037
_cell_angle_gamma   105.94854386
_symmetry_Int_Tables_number   1
_chemical_formula_structural   Li4NbN3
_chemical_formula_sum   'Li16 Nb4 N12'
_cell_volume   339.44058553
_cell_formula_units_Z   4
loop_
 _symmetry_equiv_pos_site_id
 _symmetry_equiv_pos_as_xyz
  1  'x, y, z'
loop_
 _atom_site_type_symbol
 _atom_site_label
 _atom_site_symmetry_multiplicity
 _atom_site_fract_x
 _atom_site_fract_y
 _atom_site_fract_z
 _atom_site_occupancy
  Li  Li0  1  0.750000  0.475084  0.024915  1
  Li  Li1  1  0.438623  0.881076  0.049988  1
  Li  Li2  1  0.007543  0.950007  0.118956  1
  Li  Li3  1  0.410618  0.749989  0.250008  1
  Li  Li4  1  0.910618  0.750007  0.249989  1
  Li  Li5  1  0.938623  0.549988  0.381077  1
  Li  Li6  1  0.507540  0.618955  0.450007  1
  Li  Li7  1  0.250001  0.024900  0.475101  1
  Li  Li8  1  0.749999  0.975102  0.524898  1
  Li  Li9  1  0.492459  0.381044  0.549993  1
  Li  Li10  1  0.061377  0.450012  0.618923  1
  Li  Li11  1  0.089380  0.249992  0.750010  1
  Li  Li12  1  0.589380  0.250011  0.749992  1
  Li  Li13  1  0.992458  0.049993  0.881044  1
  Li  Li14  1  0.561377  0.118923  0.950012  1
  Li  Li15  1  0.249999  0.524914  0.975085  1
  Nb  Nb16  1  0.249999  0.331434  0.168566  1
  Nb  Nb17  1  0.750001  0.168561  0.331440  1
  Nb  Nb18  1  0.250000  0.831440  0.668559  1
  Nb  Nb19  1  0.750001  0.668564  0.831435  1
  N  N20  1  0.058741  0.710727  0.040211  1
  N  N21  1  0.380721  0.130735  0.130730  1
  N  N22  1  0.558746  0.540212  0.210728  1
  N  N23  1  0.807810  0.959804  0.289280  1
  N  N24  1  0.119279  0.369271  0.369266  1
  N  N25  1  0.307810  0.789280  0.459804  1
  N  N26  1  0.692190  0.210720  0.540196  1
  N  N27  1  0.880721  0.630731  0.630734  1
  N  N28  1  0.192191  0.040195  0.710719  1
  N  N29  1  0.441258  0.459790  0.789273  1
  N  N30  1  0.619278  0.869266  0.869269  1
  N  N31  1  0.941253  0.289272  0.959787  1
