# generated using pymatgen
data_Ce2Zr3(In2Ir)2
_symmetry_space_group_name_H-M   'P 1'
_cell_length_a   3.58493300
_cell_length_b   7.85865600
_cell_length_c   17.71763300
_cell_angle_alpha   90.00000000
_cell_angle_beta   90.00000000
_cell_angle_gamma   90.00000000
_symmetry_Int_Tables_number   1
_chemical_formula_structural   Ce2Zr3(In2Ir)2
_chemical_formula_sum   'Ce4 Zr6 In8 Ir4'
_cell_volume   499.15453776
_cell_formula_units_Z   2
loop_
 _symmetry_equiv_pos_site_id
 _symmetry_equiv_pos_as_xyz
  1  'x, y, z'
loop_
 _atom_site_type_symbol
 _atom_site_label
 _atom_site_symmetry_multiplicity
 _atom_site_fract_x
 _atom_site_fract_y
 _atom_site_fract_z
 _atom_site_occupancy
  Ce  Ce0  1  0.000000  0.749005  0.280336  1
  Ce  Ce1  1  0.000000  0.250995  0.719664  1
  Ce  Ce2  1  0.000000  0.750995  0.780336  1
  Ce  Ce3  1  0.000000  0.249005  0.219664  1
  Zr  Zr4  1  0.000000  0.500000  0.500000  1
  Zr  Zr5  1  0.000000  0.000000  0.000000  1
  Zr  Zr6  1  0.000000  0.622586  0.082372  1
  Zr  Zr7  1  0.000000  0.377414  0.917628  1
  Zr  Zr8  1  0.000000  0.877414  0.582372  1
  Zr  Zr9  1  0.000000  0.122586  0.417628  1
  In  In10  1  0.500000  0.700167  0.941499  1
  In  In11  1  0.500000  0.299833  0.058501  1
  In  In12  1  0.500000  0.799833  0.441499  1
  In  In13  1  0.500000  0.200167  0.558501  1
  In  In14  1  0.500000  0.576239  0.643334  1
  In  In15  1  0.500000  0.423761  0.356666  1
  In  In16  1  0.500000  0.923761  0.143334  1
  In  In17  1  0.500000  0.076239  0.856666  1
  Ir  Ir18  1  0.500000  0.534485  0.192308  1
  Ir  Ir19  1  0.500000  0.465515  0.807692  1
  Ir  Ir20  1  0.500000  0.965515  0.692308  1
  Ir  Ir21  1  0.500000  0.034485  0.307692  1
