# generated using pymatgen
data_YHo2Zr(Al8Pt3)3
_symmetry_space_group_name_H-M   'P 1'
_cell_length_a   7.51975369
_cell_length_b   7.52760161
_cell_length_c   13.10182900
_cell_angle_alpha   84.55223645
_cell_angle_beta   79.03043690
_cell_angle_gamma   59.90829155
_symmetry_Int_Tables_number   1
_chemical_formula_structural   YHo2Zr(Al8Pt3)3
_chemical_formula_sum   'Y1 Ho2 Zr1 Al24 Pt9'
_cell_volume   629.95860410
_cell_formula_units_Z   1
loop_
 _symmetry_equiv_pos_site_id
 _symmetry_equiv_pos_as_xyz
  1  'x, y, z'
loop_
 _atom_site_type_symbol
 _atom_site_label
 _atom_site_symmetry_multiplicity
 _atom_site_fract_x
 _atom_site_fract_y
 _atom_site_fract_z
 _atom_site_occupancy
  Y  Y0  1  0.606392  0.831669  0.192026  1
  Ho  Ho1  1  0.733975  0.498671  0.807501  1
  Ho  Ho2  1  0.266361  0.501329  0.192341  1
  Zr  Zr3  1  0.393365  0.168246  0.809202  1
  Al  Al4  1  0.682123  0.836300  0.942036  1
  Al  Al5  1  0.316537  0.166541  0.054209  1
  Al  Al6  1  0.146422  0.832749  0.562277  1
  Al  Al7  1  0.853281  0.167235  0.438203  1
  Al  Al8  1  0.479729  0.166784  0.560589  1
  Al  Al9  1  0.519548  0.833782  0.441192  1
  Al  Al10  1  0.217234  0.165475  0.329737  1
  Al  Al11  1  0.779655  0.836887  0.672599  1
  Al  Al12  1  0.436061  0.504517  0.672900  1
  Al  Al13  1  0.562544  0.493474  0.329228  1
  Al  Al14  1  0.111192  0.159671  0.671825  1
  Al  Al15  1  0.890451  0.839834  0.330443  1
  Al  Al16  1  0.353837  0.496681  0.942164  1
  Al  Al17  1  0.647439  0.500224  0.055445  1
  Al  Al18  1  0.018612  0.167984  0.950571  1
  Al  Al19  1  0.984647  0.832518  0.046860  1
  Al  Al20  1  0.186817  0.499260  0.441175  1
  Al  Al21  1  0.813606  0.500425  0.558957  1
  Al  Al22  1  0.733761  0.164023  0.183542  1
  Al  Al23  1  0.266258  0.840977  0.816364  1
  Al  Al24  1  0.066014  0.626443  0.815049  1
  Al  Al25  1  0.939158  0.368325  0.184445  1
  Al  Al26  1  0.850817  0.041649  0.815621  1
  Al  Al27  1  0.144647  0.958588  0.183836  1
  Pt  Pt28  1  0.119489  0.491017  0.639313  1
  Pt  Pt29  1  0.879463  0.508466  0.361338  1
  Pt  Pt30  1  0.657451  0.171958  0.998865  1
  Pt  Pt31  1  0.343783  0.827807  0.999350  1
  Pt  Pt32  1  0.537410  0.166784  0.361733  1
  Pt  Pt33  1  0.463237  0.832562  0.639219  1
  Pt  Pt34  1  0.778103  0.176378  0.637892  1
  Pt  Pt35  1  0.220875  0.824552  0.362946  1
  Pt  Pt36  1  0.999703  0.500216  0.999006  1
