# generated using pymatgen
data_Ba3NaAgO6
_symmetry_space_group_name_H-M   'P 1'
_cell_length_a   7.20113272
_cell_length_b   7.20113245
_cell_length_c   7.20113180
_cell_angle_alpha   91.30021125
_cell_angle_beta   91.30020845
_cell_angle_gamma   91.30021411
_symmetry_Int_Tables_number   1
_chemical_formula_structural   Ba3NaAgO6
_chemical_formula_sum   'Ba6 Na2 Ag2 O12'
_cell_volume   373.13124468
_cell_formula_units_Z   2
loop_
 _symmetry_equiv_pos_site_id
 _symmetry_equiv_pos_as_xyz
  1  'x, y, z'
loop_
 _atom_site_type_symbol
 _atom_site_label
 _atom_site_symmetry_multiplicity
 _atom_site_fract_x
 _atom_site_fract_y
 _atom_site_fract_z
 _atom_site_occupancy
  Ba  Ba0  1  0.750000  0.393214  0.106786  1
  Ba  Ba1  1  0.106786  0.750000  0.393214  1
  Ba  Ba2  1  0.393214  0.106786  0.750000  1
  Ba  Ba3  1  0.250000  0.606786  0.893214  1
  Ba  Ba4  1  0.893214  0.250000  0.606786  1
  Ba  Ba5  1  0.606786  0.893214  0.250000  1
  Na  Na6  1  0.250000  0.250000  0.250000  1
  Na  Na7  1  0.750000  0.750000  0.750000  1
  Ag  Ag8  1  0.000000  0.000000  0.000000  1
  Ag  Ag9  1  0.500000  0.500000  0.500000  1
  O  O10  1  0.447027  0.773512  0.584318  1
  O  O11  1  0.584318  0.447027  0.773512  1
  O  O12  1  0.773512  0.584318  0.447027  1
  O  O13  1  0.052973  0.915682  0.726488  1
  O  O14  1  0.726488  0.052973  0.915682  1
  O  O15  1  0.915682  0.726488  0.052973  1
  O  O16  1  0.552973  0.226488  0.415682  1
  O  O17  1  0.415682  0.552973  0.226488  1
  O  O18  1  0.226488  0.415682  0.552973  1
  O  O19  1  0.947027  0.084318  0.273512  1
  O  O20  1  0.084318  0.273512  0.947027  1
  O  O21  1  0.273512  0.947027  0.084318  1
