# generated using pymatgen
data_CsBa2CoH12Pt
_symmetry_space_group_name_H-M   'P 1'
_cell_length_a   5.74611200
_cell_length_b   5.74611203
_cell_length_c   8.97413300
_cell_angle_alpha   90.00000000
_cell_angle_beta   90.00000000
_cell_angle_gamma   119.99999983
_symmetry_Int_Tables_number   1
_chemical_formula_structural   CsBa2CoH12Pt
_chemical_formula_sum   'Cs1 Ba2 Co1 H12 Pt1'
_cell_volume   256.60866066
_cell_formula_units_Z   1
loop_
 _symmetry_equiv_pos_site_id
 _symmetry_equiv_pos_as_xyz
  1  'x, y, z'
loop_
 _atom_site_type_symbol
 _atom_site_label
 _atom_site_symmetry_multiplicity
 _atom_site_fract_x
 _atom_site_fract_y
 _atom_site_fract_z
 _atom_site_occupancy
  Cs  Cs0  1  0.000000  0.000000  0.974304  1
  Ba  Ba1  1  0.666667  0.333333  0.373818  1
  Ba  Ba2  1  0.333333  0.666667  0.669498  1
  Co  Co3  1  0.666667  0.333333  0.734417  1
  H  H4  1  0.193840  0.806160  0.365066  1
  H  H5  1  0.612321  0.806160  0.365066  1
  H  H6  1  0.193840  0.387679  0.365066  1
  H  H7  1  0.800593  0.199407  0.638747  1
  H  H8  1  0.398814  0.199407  0.638747  1
  H  H9  1  0.800593  0.601186  0.638747  1
  H  H10  1  0.548190  0.096378  0.843937  1
  H  H11  1  0.548190  0.451810  0.843937  1
  H  H12  1  0.903622  0.451810  0.843937  1
  H  H13  1  0.462123  0.924246  0.147913  1
  H  H14  1  0.462123  0.537877  0.147913  1
  H  H15  1  0.075754  0.537877  0.147913  1
  Pt  Pt16  1  0.333333  0.666667  0.260969  1
