# generated using pymatgen
data_HoAl6ZnCu5
_symmetry_space_group_name_H-M   'P 1'
_cell_length_a   5.16658190
_cell_length_b   6.62874426
_cell_length_c   6.62874428
_cell_angle_alpha   99.30975966
_cell_angle_beta   112.93649906
_cell_angle_gamma   67.06350800
_symmetry_Int_Tables_number   1
_chemical_formula_structural   HoAl6ZnCu5
_chemical_formula_sum   'Ho1 Al6 Zn1 Cu5'
_cell_volume   192.52913331
_cell_formula_units_Z   1
loop_
 _symmetry_equiv_pos_site_id
 _symmetry_equiv_pos_as_xyz
  1  'x, y, z'
loop_
 _atom_site_type_symbol
 _atom_site_label
 _atom_site_symmetry_multiplicity
 _atom_site_fract_x
 _atom_site_fract_y
 _atom_site_fract_z
 _atom_site_occupancy
  Ho  Ho0  1  0.000000  0.000932  0.000932  1
  Al  Al1  1  0.652800  0.341784  0.647384  1
  Al  Al2  1  0.347200  0.647384  0.341784  1
  Al  Al3  1  0.000000  0.345613  0.345613  1
  Al  Al4  1  0.000000  0.651945  0.651945  1
  Al  Al5  1  0.707546  0.796819  0.211911  1
  Al  Al6  1  0.292454  0.211911  0.796819  1
  Zn  Zn7  1  0.500000  0.773843  0.773843  1
  Cu  Cu8  1  0.499690  0.999582  0.501414  1
  Cu  Cu9  1  0.002142  0.999582  0.501414  1
  Cu  Cu10  1  0.500310  0.501414  0.999582  1
  Cu  Cu11  1  0.997858  0.501414  0.999582  1
  Cu  Cu12  1  0.500000  0.227777  0.227777  1
