# generated using pymatgen
data_DyEr3Al4(PtRh)2
_symmetry_space_group_name_H-M   'P 1'
_cell_length_a   4.35006500
_cell_length_b   6.78092371
_cell_length_c   7.82887937
_cell_angle_alpha   90.18618443
_cell_angle_beta   90.00000000
_cell_angle_gamma   90.00000000
_symmetry_Int_Tables_number   1
_chemical_formula_structural   DyEr3Al4(PtRh)2
_chemical_formula_sum   'Dy1 Er3 Al4 Pt2 Rh2'
_cell_volume   230.93082822
_cell_formula_units_Z   1
loop_
 _symmetry_equiv_pos_site_id
 _symmetry_equiv_pos_as_xyz
  1  'x, y, z'
loop_
 _atom_site_type_symbol
 _atom_site_label
 _atom_site_symmetry_multiplicity
 _atom_site_fract_x
 _atom_site_fract_y
 _atom_site_fract_z
 _atom_site_occupancy
  Dy  Dy0  1  0.250000  0.467762  0.182830  1
  Er  Er1  1  0.750000  0.532346  0.816949  1
  Er  Er2  1  0.750000  0.029733  0.678432  1
  Er  Er3  1  0.250000  0.970090  0.321946  1
  Al  Al4  1  0.250000  0.856802  0.937011  1
  Al  Al5  1  0.750000  0.143017  0.062421  1
  Al  Al6  1  0.750000  0.639015  0.438151  1
  Al  Al7  1  0.250000  0.361164  0.562998  1
  Pt  Pt8  1  0.750000  0.769447  0.118700  1
  Pt  Pt9  1  0.250000  0.230966  0.880285  1
  Rh  Rh10  1  0.250000  0.736350  0.616525  1
  Rh  Rh11  1  0.750000  0.263309  0.383752  1
