# generated using pymatgen
data_Ti2VP2Pd
_symmetry_space_group_name_H-M   'P 1'
_cell_length_a   3.49937900
_cell_length_b   6.35894710
_cell_length_c   7.59521699
_cell_angle_alpha   89.55750791
_cell_angle_beta   90.00000000
_cell_angle_gamma   90.00000000
_symmetry_Int_Tables_number   1
_chemical_formula_structural   Ti2VP2Pd
_chemical_formula_sum   'Ti4 V2 P4 Pd2'
_cell_volume   169.00650780
_cell_formula_units_Z   2
loop_
 _symmetry_equiv_pos_site_id
 _symmetry_equiv_pos_as_xyz
  1  'x, y, z'
loop_
 _atom_site_type_symbol
 _atom_site_label
 _atom_site_symmetry_multiplicity
 _atom_site_fract_x
 _atom_site_fract_y
 _atom_site_fract_z
 _atom_site_occupancy
  Ti  Ti0  1  0.250000  0.543899  0.161941  1
  Ti  Ti1  1  0.750000  0.456101  0.838059  1
  Ti  Ti2  1  0.750000  0.972474  0.668815  1
  Ti  Ti3  1  0.250000  0.027526  0.331185  1
  V  V4  1  0.750000  0.866089  0.060097  1
  V  V5  1  0.250000  0.133911  0.939903  1
  P  P6  1  0.250000  0.757865  0.867981  1
  P  P7  1  0.750000  0.242135  0.132019  1
  P  P8  1  0.750000  0.748952  0.358892  1
  P  P9  1  0.250000  0.251048  0.641108  1
  Pd  Pd10  1  0.250000  0.649091  0.567086  1
  Pd  Pd11  1  0.750000  0.350909  0.432914  1
