# generated using pymatgen
data_Dy5Zr2P12Ir3Rh14
_symmetry_space_group_name_H-M   'P 1'
_cell_length_a   12.71829202
_cell_length_b   12.89241208
_cell_length_c   3.93707300
_cell_angle_alpha   90.00000000
_cell_angle_beta   90.00000000
_cell_angle_gamma   119.54776904
_symmetry_Int_Tables_number   1
_chemical_formula_structural   Dy5Zr2P12Ir3Rh14
_chemical_formula_sum   'Dy5 Zr2 P12 Ir3 Rh14'
_cell_volume   561.60136919
_cell_formula_units_Z   1
loop_
 _symmetry_equiv_pos_site_id
 _symmetry_equiv_pos_as_xyz
  1  'x, y, z'
loop_
 _atom_site_type_symbol
 _atom_site_label
 _atom_site_symmetry_multiplicity
 _atom_site_fract_x
 _atom_site_fract_y
 _atom_site_fract_z
 _atom_site_occupancy
  Dy  Dy0  1  0.329838  0.661305  0.500000  1
  Dy  Dy1  1  0.668498  0.338657  0.500000  1
  Dy  Dy2  1  0.999966  0.813778  0.000000  1
  Dy  Dy3  1  0.186151  0.186235  0.000000  1
  Dy  Dy4  1  0.810418  0.000044  0.000000  1
  Zr  Zr5  1  0.997996  0.444516  0.500000  1
  Zr  Zr6  1  0.552630  0.554853  0.500000  1
  P  P7  1  0.004968  0.649347  0.500000  1
  P  P8  1  0.355190  0.350229  0.500000  1
  P  P9  1  0.638759  0.000186  0.500000  1
  P  P10  1  0.514885  0.685983  0.000000  1
  P  P11  1  0.313272  0.828939  0.000000  1
  P  P12  1  0.165258  0.481091  0.000000  1
  P  P13  1  0.484421  0.170795  0.000000  1
  P  P14  1  0.684490  0.519225  0.000000  1
  P  P15  1  0.828811  0.313868  0.000000  1
  P  P16  1  0.999100  0.174193  0.500000  1
  P  P17  1  0.825342  0.826297  0.500000  1
  P  P18  1  0.183533  0.000072  0.500000  1
  Ir  Ir19  1  0.721935  0.725266  0.000000  1
  Ir  Ir20  1  0.286675  0.000051  0.000000  1
  Ir  Ir21  1  0.005138  0.000113  0.500000  1
  Rh  Rh22  1  0.507622  0.865461  0.000000  1
  Rh  Rh23  1  0.126487  0.646137  0.000000  1
  Rh  Rh24  1  0.353960  0.489421  0.000000  1
  Rh  Rh25  1  0.480922  0.354116  0.000000  1
  Rh  Rh26  1  0.864406  0.510222  0.000000  1
  Rh  Rh27  1  0.642330  0.134351  0.000000  1
  Rh  Rh28  1  0.458023  0.999988  0.500000  1
  Rh  Rh29  1  0.996715  0.275093  0.000000  1
  Rh  Rh30  1  0.625083  0.808652  0.500000  1
  Rh  Rh31  1  0.204758  0.824699  0.500000  1
  Rh  Rh32  1  0.176671  0.368203  0.500000  1
  Rh  Rh33  1  0.379976  0.175373  0.500000  1
  Rh  Rh34  1  0.808724  0.631357  0.500000  1
  Rh  Rh35  1  0.817051  0.191883  0.500000  1
