# generated using pymatgen
data_Tb3Dy17Ir7Ru5
_symmetry_space_group_name_H-M   'P 1'
_cell_length_a   10.85124905
_cell_length_b   10.85096458
_cell_length_c   6.40442902
_cell_angle_alpha   89.96536338
_cell_angle_beta   89.97912456
_cell_angle_gamma   90.01107020
_symmetry_Int_Tables_number   1
_chemical_formula_structural   Tb3Dy17Ir7Ru5
_chemical_formula_sum   'Tb3 Dy17 Ir7 Ru5'
_cell_volume   754.09902232
_cell_formula_units_Z   1
loop_
 _symmetry_equiv_pos_site_id
 _symmetry_equiv_pos_as_xyz
  1  'x, y, z'
loop_
 _atom_site_type_symbol
 _atom_site_label
 _atom_site_symmetry_multiplicity
 _atom_site_fract_x
 _atom_site_fract_y
 _atom_site_fract_z
 _atom_site_occupancy
  Tb  Tb0  1  0.293446  0.086721  0.378923  1
  Tb  Tb1  1  0.292838  0.913146  0.879060  1
  Tb  Tb2  1  0.707399  0.087085  0.879432  1
  Dy  Dy3  1  0.706872  0.913519  0.378355  1
  Dy  Dy4  1  0.586815  0.793538  0.879201  1
  Dy  Dy5  1  0.587611  0.206638  0.379384  1
  Dy  Dy6  1  0.413315  0.793421  0.379205  1
  Dy  Dy7  1  0.413101  0.206422  0.878597  1
  Dy  Dy8  1  0.206296  0.413305  0.620857  1
  Dy  Dy9  1  0.206407  0.586747  0.120852  1
  Dy  Dy10  1  0.793479  0.412496  0.120669  1
  Dy  Dy11  1  0.793792  0.586892  0.621445  1
  Dy  Dy12  1  0.913357  0.706395  0.120921  1
  Dy  Dy13  1  0.913018  0.292845  0.620429  1
  Dy  Dy14  1  0.086662  0.706919  0.620750  1
  Dy  Dy15  1  0.086355  0.293211  0.121609  1
  Dy  Dy16  1  0.999431  0.000990  0.499413  1
  Dy  Dy17  1  0.998952  0.000458  0.000616  1
  Dy  Dy18  1  0.500166  0.500080  0.000168  1
  Dy  Dy19  1  0.499940  0.499855  0.499847  1
  Ir  Ir20  1  0.846957  0.846474  0.749693  1
  Ir  Ir21  1  0.153220  0.153317  0.750461  1
  Ir  Ir22  1  0.152891  0.846735  0.250244  1
  Ir  Ir23  1  0.652013  0.348111  0.749907  1
  Ir  Ir24  1  0.652999  0.652706  0.249788  1
  Ir  Ir25  1  0.347319  0.347191  0.250135  1
  Ir  Ir26  1  0.347437  0.652429  0.749896  1
  Ru  Ru27  1  0.847864  0.152274  0.250222  1
  Ru  Ru28  1  0.500266  0.000150  0.123696  1
  Ru  Ru29  1  0.499979  0.000013  0.623492  1
  Ru  Ru30  1  0.999966  0.500114  0.876324  1
  Ru  Ru31  1  0.999836  0.499804  0.376410  1
