# generated using pymatgen
data_InSiSbPd6
_symmetry_space_group_name_H-M   'P 1'
_cell_length_a   7.03659100
_cell_length_b   7.03659026
_cell_length_c   3.51446400
_cell_angle_alpha   90.00000000
_cell_angle_beta   90.00000000
_cell_angle_gamma   119.99999876
_symmetry_Int_Tables_number   1
_chemical_formula_structural   InSiSbPd6
_chemical_formula_sum   'In1 Si1 Sb1 Pd6'
_cell_volume   150.70036621
_cell_formula_units_Z   1
loop_
 _symmetry_equiv_pos_site_id
 _symmetry_equiv_pos_as_xyz
  1  'x, y, z'
loop_
 _atom_site_type_symbol
 _atom_site_label
 _atom_site_symmetry_multiplicity
 _atom_site_fract_x
 _atom_site_fract_y
 _atom_site_fract_z
 _atom_site_occupancy
  In  In0  1  0.333333  0.666667  0.500000  1
  Si  Si1  1  0.000000  0.000000  0.000000  1
  Sb  Sb2  1  0.666667  0.333333  0.500000  1
  Pd  Pd3  1  0.245119  0.002375  0.500000  1
  Pd  Pd4  1  0.997625  0.242744  0.500000  1
  Pd  Pd5  1  0.757256  0.754881  0.500000  1
  Pd  Pd6  1  0.622891  0.005767  0.000000  1
  Pd  Pd7  1  0.994233  0.617124  0.000000  1
  Pd  Pd8  1  0.382876  0.377109  0.000000  1
