# generated using pymatgen
data_Tb3In3Cu2Hg
_symmetry_space_group_name_H-M   'P 1'
_cell_length_a   7.69570676
_cell_length_b   7.70041230
_cell_length_c   3.95844400
_cell_angle_alpha   90.00000000
_cell_angle_beta   90.00000000
_cell_angle_gamma   120.03059112
_symmetry_Int_Tables_number   1
_chemical_formula_structural   Tb3In3Cu2Hg
_chemical_formula_sum   'Tb3 In3 Cu2 Hg1'
_cell_volume   203.08772285
_cell_formula_units_Z   1
loop_
 _symmetry_equiv_pos_site_id
 _symmetry_equiv_pos_as_xyz
  1  'x, y, z'
loop_
 _atom_site_type_symbol
 _atom_site_label
 _atom_site_symmetry_multiplicity
 _atom_site_fract_x
 _atom_site_fract_y
 _atom_site_fract_z
 _atom_site_occupancy
  Tb  Tb0  1  0.985095  0.587370  0.500000  1
  Tb  Tb1  1  0.412691  0.397689  0.500000  1
  Tb  Tb2  1  0.602334  0.014832  0.500000  1
  In  In3  1  0.756494  0.746438  0.000000  1
  In  In4  1  0.990335  0.243817  0.000000  1
  In  In5  1  0.253510  0.009606  0.000000  1
  Cu  Cu6  1  0.999846  0.000095  0.500000  1
  Cu  Cu7  1  0.666283  0.333424  0.000000  1
  Hg  Hg8  1  0.333411  0.666729  0.000000  1
