# generated using pymatgen
data_Yb2Dy17YIr12
_symmetry_space_group_name_H-M   'P 1'
_cell_length_a   10.89324532
_cell_length_b   10.89667434
_cell_length_c   6.36368407
_cell_angle_alpha   90.01337295
_cell_angle_beta   90.01145044
_cell_angle_gamma   90.02507915
_symmetry_Int_Tables_number   1
_chemical_formula_structural   Yb2Dy17YIr12
_chemical_formula_sum   'Yb2 Dy17 Y1 Ir12'
_cell_volume   755.37012494
_cell_formula_units_Z   1
loop_
 _symmetry_equiv_pos_site_id
 _symmetry_equiv_pos_as_xyz
  1  'x, y, z'
loop_
 _atom_site_type_symbol
 _atom_site_label
 _atom_site_symmetry_multiplicity
 _atom_site_fract_x
 _atom_site_fract_y
 _atom_site_fract_z
 _atom_site_occupancy
  Yb  Yb0  1  0.999848  0.999933  0.500230  1
  Yb  Yb1  1  0.999930  0.999898  0.000264  1
  Dy  Dy2  1  0.290727  0.912045  0.883490  1
  Dy  Dy3  1  0.709871  0.088012  0.882873  1
  Dy  Dy4  1  0.709466  0.912147  0.383065  1
  Dy  Dy5  1  0.589017  0.790699  0.881936  1
  Dy  Dy6  1  0.588799  0.208631  0.382161  1
  Dy  Dy7  1  0.411121  0.791172  0.382045  1
  Dy  Dy8  1  0.411252  0.208876  0.882477  1
  Dy  Dy9  1  0.208930  0.411067  0.617982  1
  Dy  Dy10  1  0.208972  0.588839  0.117624  1
  Dy  Dy11  1  0.791009  0.411188  0.117873  1
  Dy  Dy12  1  0.791099  0.588887  0.617687  1
  Dy  Dy13  1  0.912192  0.709481  0.116622  1
  Dy  Dy14  1  0.912280  0.290553  0.616708  1
  Dy  Dy15  1  0.087806  0.709560  0.617025  1
  Dy  Dy16  1  0.087417  0.291114  0.117165  1
  Dy  Dy17  1  0.500154  0.500175  0.999778  1
  Dy  Dy18  1  0.499986  0.499994  0.499956  1
  Y  Y19  1  0.289763  0.087828  0.382593  1
  Ir  Ir20  1  0.841380  0.158489  0.250212  1
  Ir  Ir21  1  0.841472  0.841387  0.749876  1
  Ir  Ir22  1  0.157963  0.158776  0.752164  1
  Ir  Ir23  1  0.157970  0.840760  0.249315  1
  Ir  Ir24  1  0.653161  0.346823  0.749858  1
  Ir  Ir25  1  0.653252  0.653092  0.250093  1
  Ir  Ir26  1  0.346691  0.347956  0.249083  1
  Ir  Ir27  1  0.346855  0.653299  0.749856  1
  Ir  Ir28  1  0.500919  0.999614  0.123472  1
  Ir  Ir29  1  0.500892  0.999517  0.625688  1
  Ir  Ir30  1  0.999873  0.500085  0.875273  1
  Ir  Ir31  1  0.999932  0.500102  0.375558  1
