# generated using pymatgen
data_Sr8Bi5I
_symmetry_space_group_name_H-M   'P 1'
_cell_length_a   8.89529496
_cell_length_b   8.89529520
_cell_length_c   8.89529504
_cell_angle_alpha   109.53174899
_cell_angle_beta   109.35023109
_cell_angle_gamma   109.53174539
_symmetry_Int_Tables_number   1
_chemical_formula_structural   Sr8Bi5I
_chemical_formula_sum   'Sr8 Bi5 I1'
_cell_volume   541.82339778
_cell_formula_units_Z   1
loop_
 _symmetry_equiv_pos_site_id
 _symmetry_equiv_pos_as_xyz
  1  'x, y, z'
loop_
 _atom_site_type_symbol
 _atom_site_label
 _atom_site_symmetry_multiplicity
 _atom_site_fract_x
 _atom_site_fract_y
 _atom_site_fract_z
 _atom_site_occupancy
  Sr  Sr0  1  0.483263  0.990435  0.618908  1
  Sr  Sr1  1  0.152577  0.508124  0.998058  1
  Sr  Sr2  1  0.381092  0.364356  0.371527  1
  Sr  Sr3  1  0.007171  0.135644  0.516737  1
  Sr  Sr4  1  0.855545  0.845480  0.847423  1
  Sr  Sr5  1  0.001942  0.654520  0.510066  1
  Sr  Sr6  1  0.489934  0.991876  0.144455  1
  Sr  Sr7  1  0.628473  0.509565  0.992829  1
  Bi  Bi8  1  0.112103  0.867363  0.241746  1
  Bi  Bi9  1  0.374382  0.632637  0.744740  1
  Bi  Bi10  1  0.255260  0.129644  0.887897  1
  Bi  Bi11  1  0.758254  0.370356  0.625618  1
  Bi  Bi12  1  0.625000  0.750000  0.375000  1
  I  I13  1  0.875000  0.250000  0.125000  1
