# generated using pymatgen
data_ErLu(Bi3O7)2
_symmetry_space_group_name_H-M   'P 1'
_cell_length_a   6.61759159
_cell_length_b   6.82249810
_cell_length_c   7.80781599
_cell_angle_alpha   106.73565718
_cell_angle_beta   89.43452314
_cell_angle_gamma   99.28056157
_symmetry_Int_Tables_number   1
_chemical_formula_structural   ErLu(Bi3O7)2
_chemical_formula_sum   'Er1 Lu1 Bi6 O14'
_cell_volume   332.91182664
_cell_formula_units_Z   1
loop_
 _symmetry_equiv_pos_site_id
 _symmetry_equiv_pos_as_xyz
  1  'x, y, z'
loop_
 _atom_site_type_symbol
 _atom_site_label
 _atom_site_symmetry_multiplicity
 _atom_site_fract_x
 _atom_site_fract_y
 _atom_site_fract_z
 _atom_site_occupancy
  Er  Er0  1  0.537070  0.995701  0.750072  1
  Lu  Lu1  1  0.462578  0.004602  0.250019  1
  Bi  Bi2  1  0.000182  0.000179  0.499721  1
  Bi  Bi3  1  0.999997  0.000203  0.001199  1
  Bi  Bi4  1  0.260726  0.521632  0.880054  1
  Bi  Bi5  1  0.737989  0.479824  0.119953  1
  Bi  Bi6  1  0.723202  0.461573  0.607934  1
  Bi  Bi7  1  0.275970  0.536944  0.389272  1
  O  O8  1  0.465021  0.666300  0.185177  1
  O  O9  1  0.535724  0.338612  0.816335  1
  O  O10  1  0.306824  0.944539  0.954100  1
  O  O11  1  0.693702  0.053810  0.050478  1
  O  O12  1  0.300532  0.921815  0.512445  1
  O  O13  1  0.699868  0.077802  0.483425  1
  O  O14  1  0.527900  0.344796  0.348695  1
  O  O15  1  0.469404  0.651270  0.648926  1
  O  O16  1  0.917967  0.673129  0.958201  1
  O  O17  1  0.082621  0.327005  0.042286  1
  O  O18  1  0.093520  0.326553  0.624163  1
  O  O19  1  0.904934  0.673586  0.376777  1
  O  O20  1  0.874778  0.935071  0.733980  1
  O  O21  1  0.129494  0.065055  0.266787  1
