# generated using pymatgen
data_Sm2InAgRh
_symmetry_space_group_name_H-M   'P 1'
_cell_length_a   7.89633208
_cell_length_b   7.89633226
_cell_length_c   3.86480200
_cell_angle_alpha   90.00000000
_cell_angle_beta   90.00000000
_cell_angle_gamma   89.72592333
_symmetry_Int_Tables_number   1
_chemical_formula_structural   Sm2InAgRh
_chemical_formula_sum   'Sm4 In2 Ag2 Rh2'
_cell_volume   240.97561601
_cell_formula_units_Z   2
loop_
 _symmetry_equiv_pos_site_id
 _symmetry_equiv_pos_as_xyz
  1  'x, y, z'
loop_
 _atom_site_type_symbol
 _atom_site_label
 _atom_site_symmetry_multiplicity
 _atom_site_fract_x
 _atom_site_fract_y
 _atom_site_fract_z
 _atom_site_occupancy
  Sm  Sm0  1  0.659084  0.159084  0.500000  1
  Sm  Sm1  1  0.340916  0.840916  0.500000  1
  Sm  Sm2  1  0.192475  0.307525  0.500000  1
  Sm  Sm3  1  0.807525  0.692475  0.500000  1
  In  In4  1  0.000000  0.000000  0.000000  1
  In  In5  1  0.500000  0.500000  0.000000  1
  Ag  Ag6  1  0.125317  0.625317  0.000000  1
  Ag  Ag7  1  0.874683  0.374683  0.000000  1
  Rh  Rh8  1  0.628126  0.871874  0.000000  1
  Rh  Rh9  1  0.371874  0.128126  0.000000  1
