# generated using pymatgen
data_Nd3In3Ag2Pt
_symmetry_space_group_name_H-M   'P 1'
_cell_length_a   7.89736300
_cell_length_b   7.89736140
_cell_length_c   4.11506900
_cell_angle_alpha   90.00000000
_cell_angle_beta   90.00000000
_cell_angle_gamma   119.99999413
_symmetry_Int_Tables_number   1
_chemical_formula_structural   Nd3In3Ag2Pt
_chemical_formula_sum   'Nd3 In3 Ag2 Pt1'
_cell_volume   222.26541589
_cell_formula_units_Z   1
loop_
 _symmetry_equiv_pos_site_id
 _symmetry_equiv_pos_as_xyz
  1  'x, y, z'
loop_
 _atom_site_type_symbol
 _atom_site_label
 _atom_site_symmetry_multiplicity
 _atom_site_fract_x
 _atom_site_fract_y
 _atom_site_fract_z
 _atom_site_occupancy
  Nd  Nd0  1  0.015827  0.593329  0.500000  1
  Nd  Nd1  1  0.577503  0.984173  0.500000  1
  Nd  Nd2  1  0.406671  0.422497  0.500000  1
  In  In3  1  0.997793  0.253572  0.000000  1
  In  In4  1  0.255779  0.002207  0.000000  1
  In  In5  1  0.746428  0.744221  0.000000  1
  Ag  Ag6  1  0.000000  0.000000  0.500000  1
  Ag  Ag7  1  0.666667  0.333333  0.000000  1
  Pt  Pt8  1  0.333333  0.666667  0.000000  1
