# generated using pymatgen
data_TbY2Er3(Co3P2)6
_symmetry_space_group_name_H-M   'P 1'
_cell_length_a   3.69244300
_cell_length_b   10.50233000
_cell_length_c   12.16508000
_cell_angle_alpha   89.99709819
_cell_angle_beta   90.00000000
_cell_angle_gamma   90.00000000
_symmetry_Int_Tables_number   1
_chemical_formula_structural   TbY2Er3(Co3P2)6
_chemical_formula_sum   'Tb1 Y2 Er3 Co18 P12'
_cell_volume   471.75273780
_cell_formula_units_Z   1
loop_
 _symmetry_equiv_pos_site_id
 _symmetry_equiv_pos_as_xyz
  1  'x, y, z'
loop_
 _atom_site_type_symbol
 _atom_site_label
 _atom_site_symmetry_multiplicity
 _atom_site_fract_x
 _atom_site_fract_y
 _atom_site_fract_z
 _atom_site_occupancy
  Tb  Tb0  1  0.750000  0.250038  0.477794  1
  Y  Y1  1  0.250000  0.750002  0.521883  1
  Y  Y2  1  0.250000  0.932598  0.794190  1
  Er  Er3  1  0.250000  0.567249  0.794222  1
  Er  Er4  1  0.750000  0.067328  0.205737  1
  Er  Er5  1  0.750000  0.432602  0.205758  1
  Co  Co6  1  0.250000  0.250210  0.841575  1
  Co  Co7  1  0.750000  0.749924  0.158710  1
  Co  Co8  1  0.250000  0.250061  0.295956  1
  Co  Co9  1  0.750000  0.749027  0.703737  1
  Co  Co10  1  0.750000  0.250380  0.014388  1
  Co  Co11  1  0.250000  0.749595  0.986226  1
  Co  Co12  1  0.250000  0.416844  0.005602  1
  Co  Co13  1  0.250000  0.083527  0.006008  1
  Co  Co14  1  0.750000  0.582961  0.994661  1
  Co  Co15  1  0.750000  0.916649  0.994979  1
  Co  Co16  1  0.250000  0.453048  0.569709  1
  Co  Co17  1  0.250000  0.047146  0.569144  1
  Co  Co18  1  0.750000  0.547190  0.430236  1
  Co  Co19  1  0.750000  0.952738  0.429903  1
  Co  Co20  1  0.250000  0.871032  0.289719  1
  Co  Co21  1  0.250000  0.628944  0.289809  1
  Co  Co22  1  0.750000  0.129643  0.709754  1
  Co  Co23  1  0.750000  0.371273  0.710258  1
  P  P24  1  0.250000  0.250135  0.117861  1
  P  P25  1  0.750000  0.749169  0.882622  1
  P  P26  1  0.250000  0.250044  0.656649  1
  P  P27  1  0.750000  0.749999  0.343437  1
  P  P28  1  0.250000  0.439678  0.383290  1
  P  P29  1  0.250000  0.060447  0.383085  1
  P  P30  1  0.750000  0.560367  0.616617  1
  P  P31  1  0.750000  0.939389  0.615750  1
  P  P32  1  0.250000  0.902807  0.107046  1
  P  P33  1  0.250000  0.597056  0.107172  1
  P  P34  1  0.750000  0.097977  0.893503  1
  P  P35  1  0.750000  0.402924  0.893009  1
