# generated using pymatgen
data_CeYB4(IrOs)2
_symmetry_space_group_name_H-M   'P 1'
_cell_length_a   6.82355185
_cell_length_b   6.02266255
_cell_length_c   5.58399529
_cell_angle_alpha   71.90340832
_cell_angle_beta   57.03140914
_cell_angle_gamma   51.06520139
_symmetry_Int_Tables_number   1
_chemical_formula_structural   CeYB4(IrOs)2
_chemical_formula_sum   'Ce1 Y1 B4 Ir2 Os2'
_cell_volume   149.58576373
_cell_formula_units_Z   1
loop_
 _symmetry_equiv_pos_site_id
 _symmetry_equiv_pos_as_xyz
  1  'x, y, z'
loop_
 _atom_site_type_symbol
 _atom_site_label
 _atom_site_symmetry_multiplicity
 _atom_site_fract_x
 _atom_site_fract_y
 _atom_site_fract_z
 _atom_site_occupancy
  Ce  Ce0  1  0.750000  0.750000  0.750000  1
  Y  Y1  1  0.500000  0.500000  0.500000  1
  B  B2  1  0.182552  0.817448  0.182552  1
  B  B3  1  0.062771  0.437229  0.062771  1
  B  B4  1  0.817448  0.182552  0.817448  1
  B  B5  1  0.437229  0.062771  0.437229  1
  Ir  Ir6  1  0.386210  0.386210  0.113790  1
  Ir  Ir7  1  0.113790  0.113790  0.386210  1
  Os  Os8  1  0.864421  0.864421  0.135579  1
  Os  Os9  1  0.135579  0.135579  0.864421  1
