# generated using pymatgen
data_Ho3Er(LuPb)6
_symmetry_space_group_name_H-M   'P 1'
_cell_length_a   6.49497200
_cell_length_b   8.93818220
_cell_length_c   8.94688906
_cell_angle_alpha   119.97761585
_cell_angle_beta   89.99991668
_cell_angle_gamma   90.00099733
_symmetry_Int_Tables_number   1
_chemical_formula_structural   Ho3Er(LuPb)6
_chemical_formula_sum   'Ho3 Er1 Lu6 Pb6'
_cell_volume   449.91148983
_cell_formula_units_Z   1
loop_
 _symmetry_equiv_pos_site_id
 _symmetry_equiv_pos_as_xyz
  1  'x, y, z'
loop_
 _atom_site_type_symbol
 _atom_site_label
 _atom_site_symmetry_multiplicity
 _atom_site_fract_x
 _atom_site_fract_y
 _atom_site_fract_z
 _atom_site_occupancy
  Ho  Ho0  1  0.750045  0.236712  0.000042  1
  Ho  Ho1  1  0.749993  0.762840  0.762567  1
  Ho  Ho2  1  0.250025  0.763348  0.000031  1
  Er  Er3  1  0.749996  0.000310  0.237481  1
  Lu  Lu4  1  0.249995  0.236826  0.236704  1
  Lu  Lu5  1  0.249992  0.000148  0.763266  1
  Lu  Lu6  1  0.499815  0.333301  0.666677  1
  Lu  Lu7  1  0.499819  0.666632  0.333302  1
  Lu  Lu8  1  0.000165  0.666674  0.333302  1
  Lu  Lu9  1  0.000174  0.333319  0.666668  1
  Pb  Pb10  1  0.750016  0.604506  0.000107  1
  Pb  Pb11  1  0.750027  0.395678  0.395827  1
  Pb  Pb12  1  0.750038  0.999982  0.604040  1
  Pb  Pb13  1  0.249966  0.393859  0.999990  1
  Pb  Pb14  1  0.249961  0.604949  0.604031  1
  Pb  Pb15  1  0.249974  0.000914  0.395965  1
