# generated using pymatgen
data_Ba2Tc6S11
_symmetry_space_group_name_H-M   'P 1'
_cell_length_a   12.04867549
_cell_length_b   12.04867618
_cell_length_c   12.04867545
_cell_angle_alpha   45.22717510
_cell_angle_beta   45.22717307
_cell_angle_gamma   45.22717679
_symmetry_Int_Tables_number   1
_chemical_formula_structural   Ba2Tc6S11
_chemical_formula_sum   'Ba4 Tc12 S22'
_cell_volume   802.70269536
_cell_formula_units_Z   2
loop_
 _symmetry_equiv_pos_site_id
 _symmetry_equiv_pos_as_xyz
  1  'x, y, z'
loop_
 _atom_site_type_symbol
 _atom_site_label
 _atom_site_symmetry_multiplicity
 _atom_site_fract_x
 _atom_site_fract_y
 _atom_site_fract_z
 _atom_site_occupancy
  Ba  Ba0  1  0.311542  0.311542  0.311542  1
  Ba  Ba1  1  0.188458  0.188458  0.188458  1
  Ba  Ba2  1  0.688458  0.688458  0.688458  1
  Ba  Ba3  1  0.811542  0.811542  0.811542  1
  Tc  Tc4  1  0.616816  0.293205  0.489119  1
  Tc  Tc5  1  0.489119  0.616816  0.293205  1
  Tc  Tc6  1  0.793205  0.116816  0.989119  1
  Tc  Tc7  1  0.989119  0.793205  0.116816  1
  Tc  Tc8  1  0.116816  0.989119  0.793205  1
  Tc  Tc9  1  0.706795  0.510881  0.383184  1
  Tc  Tc10  1  0.383184  0.706795  0.510881  1
  Tc  Tc11  1  0.510881  0.383184  0.706795  1
  Tc  Tc12  1  0.293205  0.489119  0.616816  1
  Tc  Tc13  1  0.883184  0.010881  0.206795  1
  Tc  Tc14  1  0.010881  0.206795  0.883184  1
  Tc  Tc15  1  0.206795  0.883184  0.010881  1
  S  S16  1  0.089982  0.089982  0.089982  1
  S  S17  1  0.410018  0.410018  0.410018  1
  S  S18  1  0.910018  0.910018  0.910018  1
  S  S19  1  0.589982  0.589982  0.589982  1
  S  S20  1  0.250000  0.983433  0.516567  1
  S  S21  1  0.516567  0.250000  0.983433  1
  S  S22  1  0.983433  0.516567  0.250000  1
  S  S23  1  0.750000  0.016567  0.483433  1
  S  S24  1  0.483433  0.750000  0.016567  1
  S  S25  1  0.016567  0.483433  0.750000  1
  S  S26  1  0.072646  0.710673  0.306963  1
  S  S27  1  0.306963  0.072646  0.710673  1
  S  S28  1  0.710673  0.306963  0.072646  1
  S  S29  1  0.427354  0.193037  0.789327  1
  S  S30  1  0.789327  0.427354  0.193037  1
  S  S31  1  0.193037  0.789327  0.427354  1
  S  S32  1  0.806963  0.210673  0.572646  1
  S  S33  1  0.210673  0.572646  0.806963  1
  S  S34  1  0.572646  0.806963  0.210673  1
  S  S35  1  0.289327  0.693037  0.927354  1
  S  S36  1  0.693037  0.927354  0.289327  1
  S  S37  1  0.927354  0.289327  0.693037  1
