# generated using pymatgen
data_Ho13Tm7(Bi2Ru)4
_symmetry_space_group_name_H-M   'P 1'
_cell_length_a   7.91608508
_cell_length_b   8.97288410
_cell_length_c   12.40414814
_cell_angle_alpha   89.98675222
_cell_angle_beta   90.01111150
_cell_angle_gamma   90.01136543
_symmetry_Int_Tables_number   1
_chemical_formula_structural   Ho13Tm7(Bi2Ru)4
_chemical_formula_sum   'Ho13 Tm7 Bi8 Ru4'
_cell_volume   881.06799843
_cell_formula_units_Z   1
loop_
 _symmetry_equiv_pos_site_id
 _symmetry_equiv_pos_as_xyz
  1  'x, y, z'
loop_
 _atom_site_type_symbol
 _atom_site_label
 _atom_site_symmetry_multiplicity
 _atom_site_fract_x
 _atom_site_fract_y
 _atom_site_fract_z
 _atom_site_occupancy
  Ho  Ho0  1  0.840223  0.750089  0.792510  1
  Ho  Ho1  1  0.159619  0.249979  0.207495  1
  Ho  Ho2  1  0.340430  0.249959  0.707334  1
  Ho  Ho3  1  0.659622  0.750012  0.292565  1
  Ho  Ho4  1  0.375699  0.750032  0.689956  1
  Ho  Ho5  1  0.624277  0.249972  0.310042  1
  Ho  Ho6  1  0.875516  0.249913  0.809939  1
  Ho  Ho7  1  0.124271  0.750149  0.190126  1
  Ho  Ho8  1  0.945604  0.750018  0.504357  1
  Ho  Ho9  1  0.054377  0.249998  0.495615  1
  Ho  Ho10  1  0.445784  0.249847  0.995679  1
  Ho  Ho11  1  0.554557  0.750103  0.004367  1
  Ho  Ho12  1  0.174295  0.541755  0.935276  1
  Tm  Tm13  1  0.673506  0.041846  0.564625  1
  Tm  Tm14  1  0.326526  0.958145  0.435372  1
  Tm  Tm15  1  0.173551  0.958215  0.935364  1
  Tm  Tm16  1  0.326519  0.541862  0.435374  1
  Tm  Tm17  1  0.826583  0.041846  0.064605  1
  Tm  Tm18  1  0.673498  0.458170  0.564620  1
  Tm  Tm19  1  0.826189  0.458063  0.064742  1
  Bi  Bi20  1  0.567135  0.493236  0.827278  1
  Bi  Bi21  1  0.433027  0.506727  0.172637  1
  Bi  Bi22  1  0.066865  0.506739  0.672541  1
  Bi  Bi23  1  0.433089  0.993291  0.172639  1
  Bi  Bi24  1  0.933072  0.493250  0.327397  1
  Bi  Bi25  1  0.566912  0.006738  0.827371  1
  Bi  Bi26  1  0.933063  0.006752  0.327400  1
  Bi  Bi27  1  0.066932  0.993266  0.672604  1
  Ru  Ru28  1  0.573462  0.749980  0.509889  1
  Ru  Ru29  1  0.426568  0.250011  0.490121  1
  Ru  Ru30  1  0.073242  0.249657  0.990152  1
  Ru  Ru31  1  0.925989  0.750382  0.010007  1
