# generated using pymatgen
data_YLuP7Ru12
_symmetry_space_group_name_H-M   'P 1'
_cell_length_a   9.40033400
_cell_length_b   9.40033346
_cell_length_c   3.95142500
_cell_angle_alpha   90.00000000
_cell_angle_beta   90.00000000
_cell_angle_gamma   119.99999487
_symmetry_Int_Tables_number   1
_chemical_formula_structural   YLuP7Ru12
_chemical_formula_sum   'Y1 Lu1 P7 Ru12'
_cell_volume   302.39244857
_cell_formula_units_Z   1
loop_
 _symmetry_equiv_pos_site_id
 _symmetry_equiv_pos_as_xyz
  1  'x, y, z'
loop_
 _atom_site_type_symbol
 _atom_site_label
 _atom_site_symmetry_multiplicity
 _atom_site_fract_x
 _atom_site_fract_y
 _atom_site_fract_z
 _atom_site_occupancy
  Y  Y0  1  0.333333  0.666667  0.000000  1
  Lu  Lu1  1  0.666667  0.333333  0.500000  1
  P  P2  1  0.600935  0.718879  0.500000  1
  P  P3  1  0.000000  0.000000  0.000000  1
  P  P4  1  0.281121  0.882056  0.500000  1
  P  P5  1  0.117944  0.399065  0.500000  1
  P  P6  1  0.884328  0.572595  0.000000  1
  P  P7  1  0.427405  0.311733  0.000000  1
  P  P8  1  0.688267  0.115672  0.000000  1
  Ru  Ru9  1  0.556923  0.951623  0.500000  1
  Ru  Ru10  1  0.394702  0.443077  0.500000  1
  Ru  Ru11  1  0.914853  0.121641  0.500000  1
  Ru  Ru12  1  0.206788  0.085147  0.500000  1
  Ru  Ru13  1  0.878359  0.793212  0.500000  1
  Ru  Ru14  1  0.727439  0.892272  0.000000  1
  Ru  Ru15  1  0.107728  0.835166  0.000000  1
  Ru  Ru16  1  0.164834  0.272561  0.000000  1
  Ru  Ru17  1  0.424481  0.068158  0.000000  1
  Ru  Ru18  1  0.931842  0.356325  0.000000  1
  Ru  Ru19  1  0.643675  0.575519  0.000000  1
  Ru  Ru20  1  0.048377  0.605298  0.500000  1
