# generated using pymatgen
data_Eu2Ni2Br
_symmetry_space_group_name_H-M   'P 1'
_cell_length_a   4.07083200
_cell_length_b   4.07083256
_cell_length_c   16.83520400
_cell_angle_alpha   90.00000000
_cell_angle_beta   90.00000000
_cell_angle_gamma   120.00001167
_symmetry_Int_Tables_number   1
_chemical_formula_structural   Eu2Ni2Br
_chemical_formula_sum   'Eu4 Ni4 Br2'
_cell_volume   241.61026605
_cell_formula_units_Z   2
loop_
 _symmetry_equiv_pos_site_id
 _symmetry_equiv_pos_as_xyz
  1  'x, y, z'
loop_
 _atom_site_type_symbol
 _atom_site_label
 _atom_site_symmetry_multiplicity
 _atom_site_fract_x
 _atom_site_fract_y
 _atom_site_fract_z
 _atom_site_occupancy
  Eu  Eu0  1  0.000000  0.000000  0.113486  1
  Eu  Eu1  1  0.000000  0.000000  0.386514  1
  Eu  Eu2  1  0.000000  0.000000  0.613486  1
  Eu  Eu3  1  0.000000  0.000000  0.886514  1
  Ni  Ni4  1  0.333334  0.666668  0.001341  1
  Ni  Ni5  1  0.333334  0.666668  0.498659  1
  Ni  Ni6  1  0.666666  0.333332  0.501341  1
  Ni  Ni7  1  0.666666  0.333332  0.998659  1
  Br  Br8  1  0.666666  0.333332  0.250000  1
  Br  Br9  1  0.333334  0.666668  0.750000  1
