# generated using pymatgen
data_Li6IrO6
_symmetry_space_group_name_H-M   'P 1'
_cell_length_a   5.12653371
_cell_length_b   5.12653384
_cell_length_c   5.12653433
_cell_angle_alpha   100.76038165
_cell_angle_beta   100.76037741
_cell_angle_gamma   100.76039631
_symmetry_Int_Tables_number   1
_chemical_formula_structural   Li6IrO6
_chemical_formula_sum   'Li6 Ir1 O6'
_cell_volume   126.56305945
_cell_formula_units_Z   1
loop_
 _symmetry_equiv_pos_site_id
 _symmetry_equiv_pos_as_xyz
  1  'x, y, z'
loop_
 _atom_site_type_symbol
 _atom_site_label
 _atom_site_symmetry_multiplicity
 _atom_site_fract_x
 _atom_site_fract_y
 _atom_site_fract_z
 _atom_site_occupancy
  Li  Li0  1  0.911444  0.707435  0.405863  1
  Li  Li1  1  0.292565  0.594137  0.088556  1
  Li  Li2  1  0.594137  0.088556  0.292565  1
  Li  Li3  1  0.088556  0.292565  0.594137  1
  Li  Li4  1  0.707435  0.405863  0.911444  1
  Li  Li5  1  0.405863  0.911444  0.707435  1
  Ir  Ir6  1  0.000000  0.000000  0.000000  1
  O  O7  1  0.673245  0.775995  0.065147  1
  O  O8  1  0.224005  0.934853  0.326755  1
  O  O9  1  0.934853  0.326755  0.224005  1
  O  O10  1  0.326755  0.224005  0.934853  1
  O  O11  1  0.775995  0.065147  0.673245  1
  O  O12  1  0.065147  0.673245  0.775995  1
