# generated using pymatgen
data_Nd(NbSe2)5
_symmetry_space_group_name_H-M   'P 1'
_cell_length_a   6.11666794
_cell_length_b   8.37678071
_cell_length_c   9.13679891
_cell_angle_alpha   115.83120768
_cell_angle_beta   96.61444327
_cell_angle_gamma   103.86210456
_symmetry_Int_Tables_number   1
_chemical_formula_structural   Nd(NbSe2)5
_chemical_formula_sum   'Nd1 Nb5 Se10'
_cell_volume   395.97613175
_cell_formula_units_Z   1
loop_
 _symmetry_equiv_pos_site_id
 _symmetry_equiv_pos_as_xyz
  1  'x, y, z'
loop_
 _atom_site_type_symbol
 _atom_site_label
 _atom_site_symmetry_multiplicity
 _atom_site_fract_x
 _atom_site_fract_y
 _atom_site_fract_z
 _atom_site_occupancy
  Nd  Nd0  1  0.667398  0.508560  0.994175  1
  Nb  Nb1  1  0.002429  0.995845  0.000599  1
  Nb  Nb2  1  0.598915  0.206235  0.201951  1
  Nb  Nb3  1  0.196408  0.399437  0.398145  1
  Nb  Nb4  1  0.798226  0.599162  0.603322  1
  Nb  Nb5  1  0.403329  0.795288  0.798676  1
  Se  Se6  1  0.237825  0.065641  0.290741  1
  Se  Se7  1  0.051544  0.660072  0.891399  1
  Se  Se8  1  0.834608  0.263140  0.488013  1
  Se  Se9  1  0.636729  0.875381  0.101389  1
  Se  Se10  1  0.424470  0.449046  0.679159  1
  Se  Se11  1  0.899796  0.545611  0.316550  1
  Se  Se12  1  0.698806  0.130717  0.906628  1
  Se  Se13  1  0.496794  0.735113  0.511278  1
  Se  Se14  1  0.286743  0.335886  0.107169  1
  Se  Se15  1  0.098780  0.932463  0.712406  1
