# generated using pymatgen
data_CrGaS3
_symmetry_space_group_name_H-M   'P 1'
_cell_length_a   3.60229300
_cell_length_b   9.81558600
_cell_length_c   11.91126500
_cell_angle_alpha   90.00000000
_cell_angle_beta   90.00000000
_cell_angle_gamma   90.00000000
_symmetry_Int_Tables_number   1
_chemical_formula_structural   CrGaS3
_chemical_formula_sum   'Cr4 Ga4 S12'
_cell_volume   421.16585401
_cell_formula_units_Z   4
loop_
 _symmetry_equiv_pos_site_id
 _symmetry_equiv_pos_as_xyz
  1  'x, y, z'
loop_
 _atom_site_type_symbol
 _atom_site_label
 _atom_site_symmetry_multiplicity
 _atom_site_fract_x
 _atom_site_fract_y
 _atom_site_fract_z
 _atom_site_occupancy
  Cr  Cr0  1  0.250000  0.404891  0.609539  1
  Cr  Cr1  1  0.750000  0.595109  0.390461  1
  Cr  Cr2  1  0.250000  0.904891  0.890461  1
  Cr  Cr3  1  0.750000  0.095109  0.109539  1
  Ga  Ga4  1  0.750000  0.266538  0.795074  1
  Ga  Ga5  1  0.250000  0.733462  0.204926  1
  Ga  Ga6  1  0.750000  0.766538  0.704926  1
  Ga  Ga7  1  0.250000  0.233462  0.295074  1
  S  S8  1  0.250000  0.927459  0.094715  1
  S  S9  1  0.750000  0.072541  0.905285  1
  S  S10  1  0.250000  0.427459  0.405285  1
  S  S11  1  0.750000  0.572541  0.594715  1
  S  S12  1  0.750000  0.090937  0.316253  1
  S  S13  1  0.250000  0.909063  0.683747  1
  S  S14  1  0.750000  0.590937  0.183747  1
  S  S15  1  0.250000  0.409063  0.816253  1
  S  S16  1  0.250000  0.259474  0.105263  1
  S  S17  1  0.750000  0.740526  0.894737  1
  S  S18  1  0.250000  0.759474  0.394737  1
  S  S19  1  0.750000  0.240526  0.605263  1
