# generated using pymatgen
data_Ca6Sb7PPd16
_symmetry_space_group_name_H-M   'P 1'
_cell_length_a   9.35216211
_cell_length_b   9.35216187
_cell_length_c   9.35216200
_cell_angle_alpha   59.99999953
_cell_angle_beta   60.00000039
_cell_angle_gamma   59.99999735
_symmetry_Int_Tables_number   1
_chemical_formula_structural   Ca6Sb7PPd16
_chemical_formula_sum   'Ca6 Sb7 P1 Pd16'
_cell_volume   578.39037276
_cell_formula_units_Z   1
loop_
 _symmetry_equiv_pos_site_id
 _symmetry_equiv_pos_as_xyz
  1  'x, y, z'
loop_
 _atom_site_type_symbol
 _atom_site_label
 _atom_site_symmetry_multiplicity
 _atom_site_fract_x
 _atom_site_fract_y
 _atom_site_fract_z
 _atom_site_occupancy
  Ca  Ca0  1  0.709086  0.290914  0.290914  1
  Ca  Ca1  1  0.290914  0.709086  0.709086  1
  Ca  Ca2  1  0.290914  0.709086  0.290914  1
  Ca  Ca3  1  0.709086  0.290914  0.709086  1
  Ca  Ca4  1  0.290914  0.290914  0.709086  1
  Ca  Ca5  1  0.709086  0.709086  0.290914  1
  Sb  Sb6  1  0.000000  0.000000  0.000000  1
  Sb  Sb7  1  0.500000  0.000000  0.000000  1
  Sb  Sb8  1  0.000000  0.500000  0.500000  1
  Sb  Sb9  1  0.000000  0.500000  0.000000  1
  Sb  Sb10  1  0.500000  0.000000  0.500000  1
  Sb  Sb11  1  0.000000  0.000000  0.500000  1
  Sb  Sb12  1  0.500000  0.500000  0.000000  1
  P  P13  1  0.500000  0.500000  0.500000  1
  Pd  Pd14  1  0.118967  0.118967  0.118967  1
  Pd  Pd15  1  0.881033  0.881033  0.881033  1
  Pd  Pd16  1  0.118967  0.118967  0.643098  1
  Pd  Pd17  1  0.118967  0.643098  0.118967  1
  Pd  Pd18  1  0.881033  0.881033  0.356902  1
  Pd  Pd19  1  0.881033  0.356902  0.881033  1
  Pd  Pd20  1  0.643098  0.118967  0.118967  1
  Pd  Pd21  1  0.356902  0.881033  0.881033  1
  Pd  Pd22  1  0.330130  0.330130  0.330130  1
  Pd  Pd23  1  0.669870  0.669870  0.669870  1
  Pd  Pd24  1  0.330130  0.330130  0.009612  1
  Pd  Pd25  1  0.330130  0.009612  0.330130  1
  Pd  Pd26  1  0.669870  0.669870  0.990388  1
  Pd  Pd27  1  0.669870  0.990388  0.669870  1
  Pd  Pd28  1  0.009612  0.330130  0.330130  1
  Pd  Pd29  1  0.990388  0.669870  0.669870  1
