# generated using pymatgen
data_CsHo(CO3)2
_symmetry_space_group_name_H-M   'P 1'
_cell_length_a   6.51970725
_cell_length_b   6.51970732
_cell_length_c   7.43175674
_cell_angle_alpha   74.86833120
_cell_angle_beta   74.86833063
_cell_angle_gamma   91.96604520
_symmetry_Int_Tables_number   1
_chemical_formula_structural   CsHo(CO3)2
_chemical_formula_sum   'Cs2 Ho2 C4 O12'
_cell_volume   292.58856586
_cell_formula_units_Z   2
loop_
 _symmetry_equiv_pos_site_id
 _symmetry_equiv_pos_as_xyz
  1  'x, y, z'
loop_
 _atom_site_type_symbol
 _atom_site_label
 _atom_site_symmetry_multiplicity
 _atom_site_fract_x
 _atom_site_fract_y
 _atom_site_fract_z
 _atom_site_occupancy
  Cs  Cs0  1  0.604724  0.395276  0.750000  1
  Cs  Cs1  1  0.395276  0.604724  0.250000  1
  Ho  Ho2  1  0.098221  0.901779  0.750000  1
  Ho  Ho3  1  0.901779  0.098221  0.250000  1
  C  C4  1  0.653631  0.902232  0.735436  1
  C  C5  1  0.346369  0.097768  0.264564  1
  C  C6  1  0.097768  0.346369  0.764564  1
  C  C7  1  0.902232  0.653631  0.235436  1
  O  O8  1  0.452626  0.888743  0.752308  1
  O  O9  1  0.547374  0.111257  0.247692  1
  O  O10  1  0.111257  0.547374  0.747692  1
  O  O11  1  0.888743  0.452626  0.252308  1
  O  O12  1  0.732330  0.785168  0.866087  1
  O  O13  1  0.267670  0.214832  0.133913  1
  O  O14  1  0.214832  0.267670  0.633913  1
  O  O15  1  0.785168  0.732330  0.366087  1
  O  O16  1  0.794389  0.036977  0.587625  1
  O  O17  1  0.205611  0.963023  0.412375  1
  O  O18  1  0.963023  0.205611  0.912375  1
  O  O19  1  0.036977  0.794389  0.087625  1
