# generated using pymatgen
data_Li3Ho3InGeAs
_symmetry_space_group_name_H-M   'P 1'
_cell_length_a   7.15108600
_cell_length_b   7.15108624
_cell_length_c   4.25669300
_cell_angle_alpha   90.00000000
_cell_angle_beta   90.00000000
_cell_angle_gamma   119.99998962
_symmetry_Int_Tables_number   1
_chemical_formula_structural   Li3Ho3InGeAs
_chemical_formula_sum   'Li3 Ho3 In1 Ge1 As1'
_cell_volume   188.51548213
_cell_formula_units_Z   1
loop_
 _symmetry_equiv_pos_site_id
 _symmetry_equiv_pos_as_xyz
  1  'x, y, z'
loop_
 _atom_site_type_symbol
 _atom_site_label
 _atom_site_symmetry_multiplicity
 _atom_site_fract_x
 _atom_site_fract_y
 _atom_site_fract_z
 _atom_site_occupancy
  Li  Li0  1  0.248310  0.998319  0.500000  1
  Li  Li1  1  0.750008  0.751690  0.500000  1
  Li  Li2  1  0.001681  0.249992  0.500000  1
  Ho  Ho3  1  0.994972  0.559627  0.000000  1
  Ho  Ho4  1  0.564654  0.005028  0.000000  1
  Ho  Ho5  1  0.440373  0.435346  0.000000  1
  In  In6  1  0.000000  0.000000  0.000000  1
  Ge  Ge7  1  0.666667  0.333333  0.500000  1
  As  As8  1  0.333333  0.666667  0.500000  1
