# generated using pymatgen
data_Pr7Nd9Cd4Ir3Os
_symmetry_space_group_name_H-M   'P 1'
_cell_length_a   10.00748573
_cell_length_b   10.00748592
_cell_length_c   10.00271370
_cell_angle_alpha   59.74269878
_cell_angle_beta   59.74269758
_cell_angle_gamma   59.76411295
_symmetry_Int_Tables_number   1
_chemical_formula_structural   Pr7Nd9Cd4Ir3Os
_chemical_formula_sum   'Pr7 Nd9 Cd4 Ir3 Os1'
_cell_volume   704.33397847
_cell_formula_units_Z   1
loop_
 _symmetry_equiv_pos_site_id
 _symmetry_equiv_pos_as_xyz
  1  'x, y, z'
loop_
 _atom_site_type_symbol
 _atom_site_label
 _atom_site_symmetry_multiplicity
 _atom_site_fract_x
 _atom_site_fract_y
 _atom_site_fract_z
 _atom_site_occupancy
  Pr  Pr0  1  0.808973  0.808973  0.190481  1
  Pr  Pr1  1  0.939109  0.561006  0.561347  1
  Pr  Pr2  1  0.557587  0.940644  0.940493  1
  Pr  Pr3  1  0.561006  0.939109  0.561347  1
  Pr  Pr4  1  0.940644  0.557587  0.940493  1
  Pr  Pr5  1  0.561214  0.561214  0.939032  1
  Pr  Pr6  1  0.940532  0.940532  0.557752  1
  Nd  Nd7  1  0.347646  0.347646  0.347710  1
  Nd  Nd8  1  0.346818  0.346818  0.957407  1
  Nd  Nd9  1  0.346593  0.957470  0.346897  1
  Nd  Nd10  1  0.957470  0.346593  0.346897  1
  Nd  Nd11  1  0.810847  0.190623  0.190223  1
  Nd  Nd12  1  0.190709  0.809062  0.808805  1
  Nd  Nd13  1  0.190623  0.810847  0.190223  1
  Nd  Nd14  1  0.809062  0.190709  0.808805  1
  Nd  Nd15  1  0.190331  0.190331  0.810872  1
  Cd  Cd16  1  0.579252  0.579252  0.579436  1
  Cd  Cd17  1  0.579457  0.579457  0.260583  1
  Cd  Cd18  1  0.579531  0.260560  0.579522  1
  Cd  Cd19  1  0.260560  0.579531  0.579522  1
  Ir  Ir20  1  0.142132  0.142132  0.577326  1
  Ir  Ir21  1  0.142540  0.576980  0.142159  1
  Ir  Ir22  1  0.576980  0.142540  0.142159  1
  Os  Os23  1  0.140385  0.140385  0.140507  1
