# generated using pymatgen
data_ErTa8MoN12
_symmetry_space_group_name_H-M   'P 1'
_cell_length_a   5.25428419
_cell_length_b   5.24937445
_cell_length_c   10.55600504
_cell_angle_alpha   90.05771564
_cell_angle_beta   90.00776472
_cell_angle_gamma   120.06048235
_symmetry_Int_Tables_number   1
_chemical_formula_structural   ErTa8MoN12
_chemical_formula_sum   'Er1 Ta8 Mo1 N12'
_cell_volume   251.99155422
_cell_formula_units_Z   1
loop_
 _symmetry_equiv_pos_site_id
 _symmetry_equiv_pos_as_xyz
  1  'x, y, z'
loop_
 _atom_site_type_symbol
 _atom_site_label
 _atom_site_symmetry_multiplicity
 _atom_site_fract_x
 _atom_site_fract_y
 _atom_site_fract_z
 _atom_site_occupancy
  Er  Er0  1  0.667143  0.335526  0.998708  1
  Ta  Ta1  1  0.323598  0.000216  0.746260  1
  Ta  Ta2  1  0.996706  0.321742  0.746116  1
  Ta  Ta3  1  0.326415  0.323320  0.254412  1
  Ta  Ta4  1  0.677858  0.003622  0.254425  1
  Ta  Ta5  1  0.998192  0.674912  0.254389  1
  Ta  Ta6  1  0.333680  0.667218  0.004571  1
  Ta  Ta7  1  0.335665  0.666108  0.497527  1
  Ta  Ta8  1  0.665238  0.336139  0.498656  1
  Mo  Mo9  1  0.673931  0.671520  0.744820  1
  N  N10  1  0.663001  0.663361  0.380830  1
  N  N11  1  0.340052  0.000628  0.381350  1
  N  N12  1  0.000754  0.340343  0.381385  1
  N  N13  1  0.337776  0.338299  0.620571  1
  N  N14  1  0.655829  0.001845  0.620465  1
  N  N15  1  0.002314  0.656461  0.620845  1
  N  N16  1  0.330650  0.347262  0.869257  1
  N  N17  1  0.649043  0.984152  0.868831  1
  N  N18  1  0.020089  0.665143  0.869171  1
  N  N19  1  0.651332  0.667570  0.128976  1
  N  N20  1  0.334514  0.984972  0.129205  1
  N  N21  1  0.016221  0.349642  0.129231  1
