# generated using pymatgen
data_La3TbHoIn3Br
_symmetry_space_group_name_H-M   'P 1'
_cell_length_a   9.61920100
_cell_length_b   9.61920088
_cell_length_c   6.82162400
_cell_angle_alpha   90.00000000
_cell_angle_beta   90.00000000
_cell_angle_gamma   120.00000386
_symmetry_Int_Tables_number   1
_chemical_formula_structural   La3TbHoIn3Br
_chemical_formula_sum   'La6 Tb2 Ho2 In6 Br2'
_cell_volume   546.63368008
_cell_formula_units_Z   2
loop_
 _symmetry_equiv_pos_site_id
 _symmetry_equiv_pos_as_xyz
  1  'x, y, z'
loop_
 _atom_site_type_symbol
 _atom_site_label
 _atom_site_symmetry_multiplicity
 _atom_site_fract_x
 _atom_site_fract_y
 _atom_site_fract_z
 _atom_site_occupancy
  La  La0  1  0.731608  0.731608  0.250279  1
  La  La1  1  0.000000  0.731608  0.749721  1
  La  La2  1  0.731608  0.000000  0.749721  1
  La  La3  1  0.268392  0.268392  0.749721  1
  La  La4  1  0.000000  0.268392  0.250279  1
  La  La5  1  0.268392  0.000000  0.250279  1
  Tb  Tb6  1  0.333333  0.666667  0.000000  1
  Tb  Tb7  1  0.666667  0.333333  0.000000  1
  Ho  Ho8  1  0.333333  0.666667  0.500000  1
  Ho  Ho9  1  0.666667  0.333333  0.500000  1
  In  In10  1  0.394401  0.000000  0.749796  1
  In  In11  1  0.000000  0.605599  0.250204  1
  In  In12  1  0.605599  0.000000  0.250204  1
  In  In13  1  0.000000  0.394401  0.749796  1
  In  In14  1  0.394401  0.394401  0.250204  1
  In  In15  1  0.605599  0.605599  0.749796  1
  Br  Br16  1  0.000000  0.000000  0.500000  1
  Br  Br17  1  0.000000  0.000000  0.000000  1
