# generated using pymatgen
data_Ac2La4OsRuI6
_symmetry_space_group_name_H-M   'P 1'
_cell_length_a   4.47201800
_cell_length_b   9.89368471
_cell_length_c   12.59221800
_cell_angle_alpha   86.34100967
_cell_angle_beta   90.00000000
_cell_angle_gamma   90.00000000
_symmetry_Int_Tables_number   1
_chemical_formula_structural   Ac2La4OsRuI6
_chemical_formula_sum   'Ac2 La4 Os1 Ru1 I6'
_cell_volume   556.00366276
_cell_formula_units_Z   1
loop_
 _symmetry_equiv_pos_site_id
 _symmetry_equiv_pos_as_xyz
  1  'x, y, z'
loop_
 _atom_site_type_symbol
 _atom_site_label
 _atom_site_symmetry_multiplicity
 _atom_site_fract_x
 _atom_site_fract_y
 _atom_site_fract_z
 _atom_site_occupancy
  Ac  Ac0  1  0.250000  0.315756  0.879124  1
  Ac  Ac1  1  0.750000  0.681561  0.121671  1
  La  La2  1  0.750000  0.115718  0.667003  1
  La  La3  1  0.250000  0.884983  0.329139  1
  La  La4  1  0.750000  0.094024  0.101625  1
  La  La5  1  0.250000  0.907975  0.895014  1
  Os  Os6  1  0.750000  0.108181  0.872677  1
  Ru  Ru7  1  0.250000  0.889258  0.134469  1
  I  I8  1  0.750000  0.123970  0.377847  1
  I  I9  1  0.250000  0.877505  0.620992  1
  I  I10  1  0.250000  0.357032  0.610856  1
  I  I11  1  0.750000  0.642968  0.388397  1
  I  I12  1  0.750000  0.613748  0.857983  1
  I  I13  1  0.250000  0.387321  0.143205  1
