# generated using pymatgen
data_Dy2Y(SnPt)3
_symmetry_space_group_name_H-M   'P 1'
_cell_length_a   7.54903051
_cell_length_b   7.54903025
_cell_length_c   4.01755000
_cell_angle_alpha   90.00000000
_cell_angle_beta   90.00000000
_cell_angle_gamma   120.07237903
_symmetry_Int_Tables_number   1
_chemical_formula_structural   Dy2Y(SnPt)3
_chemical_formula_sum   'Dy2 Y1 Sn3 Pt3'
_cell_volume   198.13311062
_cell_formula_units_Z   1
loop_
 _symmetry_equiv_pos_site_id
 _symmetry_equiv_pos_as_xyz
  1  'x, y, z'
loop_
 _atom_site_type_symbol
 _atom_site_label
 _atom_site_symmetry_multiplicity
 _atom_site_fract_x
 _atom_site_fract_y
 _atom_site_fract_z
 _atom_site_occupancy
  Dy  Dy0  1  0.594172  0.000009  0.500000  1
  Dy  Dy1  1  0.000009  0.594172  0.500000  1
  Y  Y2  1  0.405673  0.405673  0.500000  1
  Sn  Sn3  1  0.741586  0.741586  0.000000  1
  Sn  Sn4  1  0.258552  0.999904  0.000000  1
  Sn  Sn5  1  0.999904  0.258552  0.000000  1
  Pt  Pt6  1  0.667075  0.333289  0.000000  1
  Pt  Pt7  1  0.333289  0.667075  0.000000  1
  Pt  Pt8  1  0.999741  0.999741  0.500000  1
