# generated using pymatgen
data_Tb3Nd3Al24Ir5Ru3
_symmetry_space_group_name_H-M   'P 1'
_cell_length_a   8.87040603
_cell_length_b   8.83448309
_cell_length_c   9.62744629
_cell_angle_alpha   89.99999979
_cell_angle_beta   89.89125767
_cell_angle_gamma   119.86612598
_symmetry_Int_Tables_number   1
_chemical_formula_structural   Tb3Nd3Al24Ir5Ru3
_chemical_formula_sum   'Tb3 Nd3 Al24 Ir5 Ru3'
_cell_volume   654.25887860
_cell_formula_units_Z   1
loop_
 _symmetry_equiv_pos_site_id
 _symmetry_equiv_pos_as_xyz
  1  'x, y, z'
loop_
 _atom_site_type_symbol
 _atom_site_label
 _atom_site_symmetry_multiplicity
 _atom_site_fract_x
 _atom_site_fract_y
 _atom_site_fract_z
 _atom_site_occupancy
  Tb  Tb0  1  0.614724  0.807362  0.750035  1
  Tb  Tb1  1  0.191039  0.806116  0.750184  1
  Tb  Tb2  1  0.191039  0.384923  0.750184  1
  Nd  Nd3  1  0.382164  0.191082  0.249958  1
  Nd  Nd4  1  0.810441  0.191627  0.249999  1
  Nd  Nd5  1  0.810441  0.618814  0.249999  1
  Al  Al6  1  0.437323  0.872921  0.250184  1
  Al  Al7  1  0.126840  0.563420  0.248683  1
  Al  Al8  1  0.437323  0.564402  0.250184  1
  Al  Al9  1  0.561073  0.124023  0.749824  1
  Al  Al10  1  0.876153  0.438077  0.751107  1
  Al  Al11  1  0.561073  0.437050  0.749824  1
  Al  Al12  1  0.164892  0.836645  0.427363  1
  Al  Al13  1  0.164892  0.328249  0.427363  1
  Al  Al14  1  0.672846  0.836424  0.427601  1
  Al  Al15  1  0.836209  0.162052  0.578689  1
  Al  Al16  1  0.836209  0.674155  0.578689  1
  Al  Al17  1  0.324775  0.162387  0.578297  1
  Al  Al18  1  0.838006  0.164131  0.921398  1
  Al  Al19  1  0.838006  0.673873  0.921398  1
  Al  Al20  1  0.325631  0.162816  0.922541  1
  Al  Al21  1  0.163356  0.834791  0.072457  1
  Al  Al22  1  0.163356  0.328568  0.072457  1
  Al  Al23  1  0.672042  0.836021  0.071460  1
  Al  Al24  1  0.332866  0.666434  0.530165  1
  Al  Al25  1  0.667265  0.333631  0.478801  1
  Al  Al26  1  0.669297  0.334648  0.020985  1
  Al  Al27  1  0.330784  0.665392  0.970252  1
  Al  Al28  1  0.002184  0.001092  0.250073  1
  Al  Al29  1  0.997990  0.998995  0.750040  1
  Ir  Ir30  1  0.499060  0.998234  0.502336  1
  Ir  Ir31  1  0.001743  0.500871  0.502403  1
  Ir  Ir32  1  0.499060  0.500826  0.502336  1
  Ir  Ir33  1  0.499143  0.998216  0.997615  1
  Ir  Ir34  1  0.499143  0.500927  0.997615  1
  Ru  Ru35  1  0.000022  0.000011  0.500883  1
  Ru  Ru36  1  0.000091  0.000046  0.999102  1
  Ru  Ru37  1  0.001498  0.500749  0.997516  1
