# generated using pymatgen
data_NaLi3(IrN)2
_symmetry_space_group_name_H-M   'P 1'
_cell_length_a   3.21518400
_cell_length_b   3.77677136
_cell_length_c   9.74335882
_cell_angle_alpha   67.25434031
_cell_angle_beta   90.00000000
_cell_angle_gamma   90.00000000
_symmetry_Int_Tables_number   1
_chemical_formula_structural   NaLi3(IrN)2
_chemical_formula_sum   'Na1 Li3 Ir2 N2'
_cell_volume   109.11252170
_cell_formula_units_Z   1
loop_
 _symmetry_equiv_pos_site_id
 _symmetry_equiv_pos_as_xyz
  1  'x, y, z'
loop_
 _atom_site_type_symbol
 _atom_site_label
 _atom_site_symmetry_multiplicity
 _atom_site_fract_x
 _atom_site_fract_y
 _atom_site_fract_z
 _atom_site_occupancy
  Na  Na0  1  0.500000  0.296775  0.863828  1
  Li  Li1  1  0.500000  0.626472  0.529276  1
  Li  Li2  1  0.000000  0.309740  0.361871  1
  Li  Li3  1  0.000000  0.601895  0.079047  1
  Ir  Ir4  1  0.000000  0.988221  0.663365  1
  Ir  Ir5  1  0.500000  0.973645  0.209286  1
  N  N6  1  0.500000  0.471204  0.212132  1
  N  N7  1  0.000000  0.488049  0.663196  1
