# generated using pymatgen
data_Y6AlSn5Pd6
_symmetry_space_group_name_H-M   'P 1'
_cell_length_a   7.62185700
_cell_length_b   7.67816541
_cell_length_c   7.71721905
_cell_angle_alpha   89.98405098
_cell_angle_beta   90.00000000
_cell_angle_gamma   119.75769803
_symmetry_Int_Tables_number   1
_chemical_formula_structural   Y6AlSn5Pd6
_chemical_formula_sum   'Y6 Al1 Sn5 Pd6'
_cell_volume   392.07116115
_cell_formula_units_Z   1
loop_
 _symmetry_equiv_pos_site_id
 _symmetry_equiv_pos_as_xyz
  1  'x, y, z'
loop_
 _atom_site_type_symbol
 _atom_site_label
 _atom_site_symmetry_multiplicity
 _atom_site_fract_x
 _atom_site_fract_y
 _atom_site_fract_z
 _atom_site_occupancy
  Y  Y0  1  0.407214  0.002266  0.246112  1
  Y  Y1  1  0.598214  0.598963  0.248071  1
  Y  Y2  1  0.995054  0.399156  0.247754  1
  Y  Y3  1  0.404947  0.997734  0.753888  1
  Y  Y4  1  0.595897  0.600844  0.752246  1
  Y  Y5  1  0.999252  0.401037  0.751929  1
  Al  Al6  1  0.743336  0.000000  0.000000  1
  Sn  Sn7  1  0.261837  0.260807  0.500046  1
  Sn  Sn8  1  0.001029  0.739193  0.499954  1
  Sn  Sn9  1  0.996063  0.736822  0.999920  1
  Sn  Sn10  1  0.259241  0.263178  0.000080  1
  Sn  Sn11  1  0.736453  0.000000  0.500000  1
  Pd  Pd12  1  0.346866  0.678275  0.003530  1
  Pd  Pd13  1  0.332856  0.665522  0.495797  1
  Pd  Pd14  1  0.668592  0.321725  0.996470  1
  Pd  Pd15  1  0.667336  0.334478  0.504203  1
  Pd  Pd16  1  0.992993  0.000172  0.246038  1
  Pd  Pd17  1  0.992821  0.999828  0.753962  1
