# generated using pymatgen
data_Tb5Ho3Th4(ZnAu5)4
_symmetry_space_group_name_H-M   'P 1'
_cell_length_a   8.48662315
_cell_length_b   8.48662309
_cell_length_c   13.58689320
_cell_angle_alpha   90.01761068
_cell_angle_beta   89.98238915
_cell_angle_gamma   127.23040701
_symmetry_Int_Tables_number   1
_chemical_formula_structural   Tb5Ho3Th4(ZnAu5)4
_chemical_formula_sum   'Tb5 Ho3 Th4 Zn4 Au20'
_cell_volume   779.14272491
_cell_formula_units_Z   1
loop_
 _symmetry_equiv_pos_site_id
 _symmetry_equiv_pos_as_xyz
  1  'x, y, z'
loop_
 _atom_site_type_symbol
 _atom_site_label
 _atom_site_symmetry_multiplicity
 _atom_site_fract_x
 _atom_site_fract_y
 _atom_site_fract_z
 _atom_site_occupancy
  Tb  Tb0  1  0.369389  0.630611  0.960528  1
  Tb  Tb1  1  0.882017  0.117983  0.951848  1
  Tb  Tb2  1  0.117860  0.882140  0.048199  1
  Tb  Tb3  1  0.881956  0.118044  0.548132  1
  Tb  Tb4  1  0.118035  0.881965  0.451821  1
  Ho  Ho5  1  0.630488  0.369512  0.460727  1
  Ho  Ho6  1  0.369493  0.630507  0.539210  1
  Ho  Ho7  1  0.630630  0.369370  0.039248  1
  Th  Th8  1  0.930478  0.069522  0.250081  1
  Th  Th9  1  0.069437  0.930563  0.749883  1
  Th  Th10  1  0.319612  0.680388  0.250176  1
  Th  Th11  1  0.680307  0.319693  0.749901  1
  Zn  Zn12  1  0.718708  0.281292  0.250107  1
  Zn  Zn13  1  0.281053  0.718947  0.749760  1
  Zn  Zn14  1  0.534394  0.465606  0.250011  1
  Zn  Zn15  1  0.465740  0.534260  0.749839  1
  Au  Au16  1  0.318498  0.065086  0.250040  1
  Au  Au17  1  0.065068  0.318358  0.750037  1
  Au  Au18  1  0.681642  0.934932  0.750037  1
  Au  Au19  1  0.934914  0.681502  0.250040  1
  Au  Au20  1  0.570275  0.005511  0.398348  1
  Au  Au21  1  0.005517  0.570326  0.601647  1
  Au  Au22  1  0.570504  0.005944  0.101889  1
  Au  Au23  1  0.004375  0.569984  0.898082  1
  Au  Au24  1  0.429674  0.994483  0.601647  1
  Au  Au25  1  0.994489  0.429725  0.398348  1
  Au  Au26  1  0.430016  0.995625  0.898082  1
  Au  Au27  1  0.994056  0.429496  0.101889  1
  Au  Au28  1  0.683268  0.738849  0.396736  1
  Au  Au29  1  0.738790  0.683146  0.603222  1
  Au  Au30  1  0.684206  0.739226  0.103668  1
  Au  Au31  1  0.739675  0.683343  0.896594  1
  Au  Au32  1  0.316854  0.261210  0.603222  1
  Au  Au33  1  0.261151  0.316732  0.396736  1
  Au  Au34  1  0.316657  0.260325  0.896594  1
  Au  Au35  1  0.260774  0.315794  0.103668  1
