# generated using pymatgen
data_TbNd(CdIn2)2
_symmetry_space_group_name_H-M   'P 1'
_cell_length_a   6.58054654
_cell_length_b   6.58054710
_cell_length_c   9.35589300
_cell_angle_alpha   90.00000000
_cell_angle_beta   90.00000000
_cell_angle_gamma   90.88223203
_symmetry_Int_Tables_number   1
_chemical_formula_structural   TbNd(CdIn2)2
_chemical_formula_sum   'Tb2 Nd2 Cd4 In8'
_cell_volume   405.09578759
_cell_formula_units_Z   2
loop_
 _symmetry_equiv_pos_site_id
 _symmetry_equiv_pos_as_xyz
  1  'x, y, z'
loop_
 _atom_site_type_symbol
 _atom_site_label
 _atom_site_symmetry_multiplicity
 _atom_site_fract_x
 _atom_site_fract_y
 _atom_site_fract_z
 _atom_site_occupancy
  Tb  Tb0  1  0.996548  0.996547  0.250000  1
  Tb  Tb1  1  0.003453  0.003452  0.750000  1
  Nd  Nd2  1  0.503403  0.503403  0.250000  1
  Nd  Nd3  1  0.496597  0.496597  0.750000  1
  Cd  Cd4  1  0.246994  0.753006  0.500000  1
  Cd  Cd5  1  0.246994  0.753006  0.000000  1
  Cd  Cd6  1  0.753006  0.246994  0.500000  1
  Cd  Cd7  1  0.753006  0.246994  0.000000  1
  In  In8  1  0.247066  0.247066  0.002392  1
  In  In9  1  0.752934  0.752934  0.997608  1
  In  In10  1  0.247066  0.247066  0.497608  1
  In  In11  1  0.752934  0.752934  0.502392  1
  In  In12  1  0.496829  0.002934  0.250000  1
  In  In13  1  0.997066  0.503171  0.750000  1
  In  In14  1  0.503171  0.997066  0.750000  1
  In  In15  1  0.002934  0.496829  0.250000  1
