# generated using pymatgen
data_Ho5Lu5In8Pt3Rh
_symmetry_space_group_name_H-M   'P 1'
_cell_length_a   3.61973700
_cell_length_b   8.05460253
_cell_length_c   18.03954656
_cell_angle_alpha   89.92473533
_cell_angle_beta   90.00000000
_cell_angle_gamma   90.00000000
_symmetry_Int_Tables_number   1
_chemical_formula_structural   Ho5Lu5In8Pt3Rh
_chemical_formula_sum   'Ho5 Lu5 In8 Pt3 Rh1'
_cell_volume   525.95231782
_cell_formula_units_Z   1
loop_
 _symmetry_equiv_pos_site_id
 _symmetry_equiv_pos_as_xyz
  1  'x, y, z'
loop_
 _atom_site_type_symbol
 _atom_site_label
 _atom_site_symmetry_multiplicity
 _atom_site_fract_x
 _atom_site_fract_y
 _atom_site_fract_z
 _atom_site_occupancy
  Ho  Ho0  1  0.000000  0.757335  0.779633  1
  Ho  Ho1  1  0.000000  0.257237  0.719976  1
  Ho  Ho2  1  0.000000  0.748072  0.279727  1
  Ho  Ho3  1  0.000000  0.999184  0.000209  1
  Ho  Ho4  1  0.000000  0.501184  0.499233  1
  Lu  Lu5  1  0.000000  0.115935  0.410939  1
  Lu  Lu6  1  0.000000  0.883388  0.585713  1
  Lu  Lu7  1  0.000000  0.383453  0.914322  1
  Lu  Lu8  1  0.000000  0.615606  0.088389  1
  Lu  Lu9  1  0.000000  0.240054  0.221844  1
  In  In10  1  0.500000  0.419984  0.351399  1
  In  In11  1  0.500000  0.578075  0.648049  1
  In  In12  1  0.500000  0.077637  0.851790  1
  In  In13  1  0.500000  0.927578  0.149530  1
  In  In14  1  0.500000  0.293251  0.065998  1
  In  In15  1  0.500000  0.705206  0.935887  1
  In  In16  1  0.500000  0.204727  0.563500  1
  In  In17  1  0.500000  0.798212  0.432919  1
  Pt  Pt18  1  0.500000  0.974640  0.694805  1
  Pt  Pt19  1  0.500000  0.474167  0.805798  1
  Pt  Pt20  1  0.500000  0.518682  0.195789  1
  Rh  Rh21  1  0.500000  0.026393  0.304552  1
