# generated using pymatgen
data_Nd6Dy3ErPb6
_symmetry_space_group_name_H-M   'P 1'
_cell_length_a   9.27364900
_cell_length_b   9.27364958
_cell_length_c   6.77221700
_cell_angle_alpha   90.00000000
_cell_angle_beta   90.00000000
_cell_angle_gamma   120.00000150
_symmetry_Int_Tables_number   1
_chemical_formula_structural   Nd6Dy3ErPb6
_chemical_formula_sum   'Nd6 Dy3 Er1 Pb6'
_cell_volume   504.38577083
_cell_formula_units_Z   1
loop_
 _symmetry_equiv_pos_site_id
 _symmetry_equiv_pos_as_xyz
  1  'x, y, z'
loop_
 _atom_site_type_symbol
 _atom_site_label
 _atom_site_symmetry_multiplicity
 _atom_site_fract_x
 _atom_site_fract_y
 _atom_site_fract_z
 _atom_site_occupancy
  Nd  Nd0  1  0.759575  0.759508  0.749932  1
  Nd  Nd1  1  0.240492  0.000067  0.749932  1
  Nd  Nd2  1  0.999933  0.240425  0.749932  1
  Nd  Nd3  1  0.240492  0.240425  0.250068  1
  Nd  Nd4  1  0.759575  0.000067  0.250068  1
  Nd  Nd5  1  0.999933  0.759508  0.250068  1
  Dy  Dy6  1  0.666667  0.333333  0.000000  1
  Dy  Dy7  1  0.333333  0.666667  0.000000  1
  Dy  Dy8  1  0.333333  0.666667  0.500000  1
  Er  Er9  1  0.666667  0.333333  0.500000  1
  Pb  Pb10  1  0.397728  0.397522  0.749836  1
  Pb  Pb11  1  0.602478  0.000206  0.749836  1
  Pb  Pb12  1  0.999794  0.602272  0.749836  1
  Pb  Pb13  1  0.602478  0.602272  0.250164  1
  Pb  Pb14  1  0.397728  0.000206  0.250164  1
  Pb  Pb15  1  0.999794  0.397522  0.250164  1
