# generated using pymatgen
data_Ho10In5BiBr2
_symmetry_space_group_name_H-M   'P 1'
_cell_length_a   9.16963717
_cell_length_b   9.16963717
_cell_length_c   6.72518500
_cell_angle_alpha   90.00000000
_cell_angle_beta   90.00000000
_cell_angle_gamma   120.11815437
_symmetry_Int_Tables_number   1
_chemical_formula_structural   Ho10In5BiBr2
_chemical_formula_sum   'Ho10 In5 Bi1 Br2'
_cell_volume   489.12613234
_cell_formula_units_Z   1
loop_
 _symmetry_equiv_pos_site_id
 _symmetry_equiv_pos_as_xyz
  1  'x, y, z'
loop_
 _atom_site_type_symbol
 _atom_site_label
 _atom_site_symmetry_multiplicity
 _atom_site_fract_x
 _atom_site_fract_y
 _atom_site_fract_z
 _atom_site_occupancy
  Ho  Ho0  1  0.268882  0.002338  0.750000  1
  Ho  Ho1  1  0.736396  0.006422  0.250000  1
  Ho  Ho2  1  0.002338  0.268882  0.750000  1
  Ho  Ho3  1  0.006422  0.736396  0.250000  1
  Ho  Ho4  1  0.734013  0.734013  0.750000  1
  Ho  Ho5  1  0.261716  0.261716  0.250000  1
  Ho  Ho6  1  0.329198  0.666836  0.502954  1
  Ho  Ho7  1  0.666836  0.329198  0.502954  1
  Ho  Ho8  1  0.666836  0.329198  0.997046  1
  Ho  Ho9  1  0.329198  0.666836  0.997046  1
  In  In10  1  0.609515  0.999397  0.750000  1
  In  In11  1  0.392457  0.000988  0.250000  1
  In  In12  1  0.999397  0.609515  0.750000  1
  In  In13  1  0.000988  0.392457  0.250000  1
  In  In14  1  0.389313  0.389313  0.750000  1
  Bi  Bi15  1  0.610196  0.610196  0.250000  1
  Br  Br16  1  0.998149  0.998149  0.499384  1
  Br  Br17  1  0.998149  0.998149  0.000616  1
