# generated using pymatgen
data_Nd9YSi16Ge
_symmetry_space_group_name_H-M   'P 1'
_cell_length_a   11.31437851
_cell_length_b   11.30111922
_cell_length_c   11.31426600
_cell_angle_alpha   144.76126701
_cell_angle_beta   135.78258462
_cell_angle_gamma   57.78358504
_symmetry_Int_Tables_number   1
_chemical_formula_structural   Nd9YSi16Ge
_chemical_formula_sum   'Nd9 Y1 Si16 Ge1'
_cell_volume   577.19374283
_cell_formula_units_Z   1
loop_
 _symmetry_equiv_pos_site_id
 _symmetry_equiv_pos_as_xyz
  1  'x, y, z'
loop_
 _atom_site_type_symbol
 _atom_site_label
 _atom_site_symmetry_multiplicity
 _atom_site_fract_x
 _atom_site_fract_y
 _atom_site_fract_z
 _atom_site_occupancy
  Nd  Nd0  1  0.447692  0.964531  0.014027  1
  Nd  Nd1  1  0.848174  0.366599  0.015774  1
  Nd  Nd2  1  0.951723  0.965752  0.517461  1
  Nd  Nd3  1  0.151774  0.166481  0.517478  1
  Nd  Nd4  1  0.350255  0.366384  0.518566  1
  Nd  Nd5  1  0.244588  0.761195  0.006153  1
  Nd  Nd6  1  0.548586  0.561764  0.510180  1
  Nd  Nd7  1  0.052711  0.562471  0.013144  1
  Nd  Nd8  1  0.648453  0.165679  0.014225  1
  Y  Y9  1  0.754934  0.760086  0.515438  1
  Si  Si10  1  0.198516  0.594838  0.395696  1
  Si  Si11  1  0.996899  0.083983  0.080728  1
  Si  Si12  1  0.699013  0.291031  0.592512  1
  Si  Si13  1  0.800542  0.196322  0.395226  1
  Si  Si14  1  0.894731  0.503798  0.603893  1
  Si  Si15  1  0.416255  0.860694  0.449559  1
  Si  Si16  1  0.099997  0.709848  0.604960  1
  Si  Si17  1  0.301318  0.895796  0.595138  1
  Si  Si18  1  0.588030  0.034165  0.451349  1
  Si  Si19  1  0.997824  0.430885  0.428986  1
  Si  Si20  1  0.885645  0.837977  0.950521  1
  Si  Si21  1  0.402314  0.501696  0.103102  1
  Si  Si22  1  0.112861  0.067388  0.952802  1
  Si  Si23  1  0.291993  0.238371  0.947573  1
  Si  Si24  1  0.501350  0.403376  0.905185  1
  Si  Si25  1  0.600642  0.702521  0.106063  1
  Ge  Ge26  1  0.713181  0.667867  0.955763  1
