# generated using pymatgen
data_RhSeF34
_symmetry_space_group_name_H-M   'P 1'
_cell_length_a   8.78419464
_cell_length_b   8.60796713
_cell_length_c   10.16945429
_cell_angle_alpha   79.49336104
_cell_angle_beta   86.69477125
_cell_angle_gamma   65.96480485
_symmetry_Int_Tables_number   1
_chemical_formula_structural   RhSeF34
_chemical_formula_sum   'Rh1 Se1 F34'
_cell_volume   690.38909840
_cell_formula_units_Z   1
loop_
 _symmetry_equiv_pos_site_id
 _symmetry_equiv_pos_as_xyz
  1  'x, y, z'
loop_
 _atom_site_type_symbol
 _atom_site_label
 _atom_site_symmetry_multiplicity
 _atom_site_fract_x
 _atom_site_fract_y
 _atom_site_fract_z
 _atom_site_occupancy
  Rh  Rh0  1  0.133892  0.749930  0.242921  1
  Se  Se1  1  0.863244  0.248946  0.761045  1
  F  F2  1  0.616257  0.201288  0.477044  1
  F  F3  1  0.393120  0.785535  0.524085  1
  F  F4  1  0.828660  0.705887  0.715818  1
  F  F5  1  0.172337  0.304985  0.281001  1
  F  F6  1  0.095313  0.745587  0.866123  1
  F  F7  1  0.914728  0.237864  0.139875  1
  F  F8  1  0.559161  0.143250  0.374543  1
  F  F9  1  0.437564  0.860678  0.621891  1
  F  F10  1  0.659170  0.324067  0.702510  1
  F  F11  1  0.353127  0.668921  0.307520  1
  F  F12  1  0.923543  0.083106  0.668677  1
  F  F13  1  0.065578  0.925584  0.345813  1
  F  F14  1  0.905664  0.379019  0.625724  1
  F  F15  1  0.087871  0.607506  0.386841  1
  F  F16  1  0.859294  0.813158  0.602752  1
  F  F17  1  0.153907  0.182717  0.388594  1
  F  F18  1  0.803802  0.415423  0.853118  1
  F  F19  1  0.198814  0.571979  0.141929  1
  F  F20  1  0.214607  0.687731  0.765670  1
  F  F21  1  0.786010  0.314859  0.228885  1
  F  F22  1  0.916426  0.831171  0.175220  1
  F  F23  1  0.066202  0.174053  0.821249  1
  F  F24  1  0.819486  0.118368  0.895775  1
  F  F25  1  0.181806  0.893363  0.100052  1
  F  F26  1  0.489898  0.590928  0.987395  1
  F  F27  1  0.510206  0.415169  0.012544  1
  F  F28  1  0.448699  0.090900  0.866006  1
  F  F29  1  0.538791  0.916222  0.134982  1
  F  F30  1  0.287267  0.260544  0.603116  1
  F  F31  1  0.714669  0.738732  0.392159  1
  F  F32  1  0.259335  0.398616  0.673505  1
  F  F33  1  0.743671  0.599617  0.322724  1
  F  F34  1  0.557345  0.928215  0.832731  1
  F  F35  1  0.440538  0.086084  0.160166  1
