# generated using pymatgen
data_Yb3Pa(CrB4)4
_symmetry_space_group_name_H-M   'P 1'
_cell_length_a   3.43417900
_cell_length_b   5.94373648
_cell_length_c   11.50517143
_cell_angle_alpha   89.83710221
_cell_angle_beta   90.00000000
_cell_angle_gamma   90.00000000
_symmetry_Int_Tables_number   1
_chemical_formula_structural   Yb3Pa(CrB4)4
_chemical_formula_sum   'Yb3 Pa1 Cr4 B16'
_cell_volume   234.84094173
_cell_formula_units_Z   1
loop_
 _symmetry_equiv_pos_site_id
 _symmetry_equiv_pos_as_xyz
  1  'x, y, z'
loop_
 _atom_site_type_symbol
 _atom_site_label
 _atom_site_symmetry_multiplicity
 _atom_site_fract_x
 _atom_site_fract_y
 _atom_site_fract_z
 _atom_site_occupancy
  Yb  Yb0  1  0.500000  0.624810  0.846475  1
  Yb  Yb1  1  0.500000  0.124048  0.651441  1
  Yb  Yb2  1  0.500000  0.877536  0.351066  1
  Pa  Pa3  1  0.500000  0.373778  0.151617  1
  Cr  Cr4  1  0.500000  0.378236  0.418143  1
  Cr  Cr5  1  0.500000  0.623012  0.578712  1
  Cr  Cr6  1  0.500000  0.124541  0.920333  1
  Cr  Cr7  1  0.500000  0.876368  0.082421  1
  B  B8  1  0.000000  0.111299  0.046608  1
  B  B9  1  0.000000  0.885936  0.952676  1
  B  B10  1  0.000000  0.385785  0.546764  1
  B  B11  1  0.000000  0.614435  0.453643  1
  B  B12  1  0.000000  0.137461  0.467359  1
  B  B13  1  0.000000  0.862292  0.533727  1
  B  B14  1  0.000000  0.360114  0.966295  1
  B  B15  1  0.000000  0.637759  0.033083  1
  B  B16  1  0.000000  0.024126  0.190889  1
  B  B17  1  0.000000  0.977626  0.808452  1
  B  B18  1  0.000000  0.478345  0.691027  1
  B  B19  1  0.000000  0.523265  0.309865  1
  B  B20  1  0.000000  0.218565  0.316810  1
  B  B21  1  0.000000  0.781819  0.683850  1
  B  B22  1  0.000000  0.279817  0.815357  1
  B  B23  1  0.000000  0.719025  0.183388  1
