# generated using pymatgen
data_Rb8Er4Tm2BeBr20
_symmetry_space_group_name_H-M   'P 1'
_cell_length_a   12.28714445
_cell_length_b   12.28729011
_cell_length_c   12.28980001
_cell_angle_alpha   60.00308182
_cell_angle_beta   60.00296118
_cell_angle_gamma   60.02330359
_symmetry_Int_Tables_number   1
_chemical_formula_structural   Rb8Er4Tm2BeBr20
_chemical_formula_sum   'Rb8 Er4 Tm2 Be1 Br20'
_cell_volume   1312.30010105
_cell_formula_units_Z   1
loop_
 _symmetry_equiv_pos_site_id
 _symmetry_equiv_pos_as_xyz
  1  'x, y, z'
loop_
 _atom_site_type_symbol
 _atom_site_label
 _atom_site_symmetry_multiplicity
 _atom_site_fract_x
 _atom_site_fract_y
 _atom_site_fract_z
 _atom_site_occupancy
  Rb  Rb0  1  0.358930  0.358933  0.358931  1
  Rb  Rb1  1  0.641070  0.641067  0.641069  1
  Rb  Rb2  1  0.358915  0.358929  0.923230  1
  Rb  Rb3  1  0.358921  0.923224  0.358925  1
  Rb  Rb4  1  0.641085  0.641071  0.076770  1
  Rb  Rb5  1  0.641079  0.076776  0.641075  1
  Rb  Rb6  1  0.923229  0.358923  0.358918  1
  Rb  Rb7  1  0.076771  0.641077  0.641082  1
  Er  Er8  1  0.846505  0.153513  0.153506  1
  Er  Er9  1  0.153495  0.846487  0.846494  1
  Er  Er10  1  0.153513  0.846501  0.153510  1
  Er  Er11  1  0.846487  0.153499  0.846490  1
  Tm  Tm12  1  0.153453  0.153453  0.846557  1
  Tm  Tm13  1  0.846547  0.846547  0.153443  1
  Be  Be14  1  0.000000  0.000000  0.000000  1
  Br  Br15  1  0.329171  0.000178  0.999826  1
  Br  Br16  1  0.670829  0.999822  0.000174  1
  Br  Br17  1  0.000175  0.329158  0.670843  1
  Br  Br18  1  0.999825  0.670842  0.329157  1
  Br  Br19  1  0.000182  0.329168  0.999826  1
  Br  Br20  1  0.670843  0.999826  0.329156  1
  Br  Br21  1  0.999818  0.670832  0.000174  1
  Br  Br22  1  0.329157  0.000174  0.670844  1
  Br  Br23  1  0.000001  0.000004  0.329317  1
  Br  Br24  1  0.999999  0.999996  0.670683  1
  Br  Br25  1  0.670696  0.329304  0.000003  1
  Br  Br26  1  0.329304  0.670696  0.999997  1
  Br  Br27  1  0.681730  0.318283  0.318283  1
  Br  Br28  1  0.318270  0.681717  0.681717  1
  Br  Br29  1  0.318285  0.681729  0.318282  1
  Br  Br30  1  0.681715  0.318271  0.681718  1
  Br  Br31  1  0.318060  0.318059  0.681955  1
  Br  Br32  1  0.681940  0.681941  0.318045  1
  Br  Br33  1  0.249999  0.249994  0.250000  1
  Br  Br34  1  0.750001  0.750006  0.750000  1
