# generated using pymatgen
data_Er7TmRe3B24Ru
_symmetry_space_group_name_H-M   'P 1'
_cell_length_a   3.65125300
_cell_length_b   9.11987963
_cell_length_c   11.49630900
_cell_angle_alpha   89.90130346
_cell_angle_beta   90.00000000
_cell_angle_gamma   90.00000000
_symmetry_Int_Tables_number   1
_chemical_formula_structural   Er7TmRe3B24Ru
_chemical_formula_sum   'Er7 Tm1 Re3 B24 Ru1'
_cell_volume   382.81488605
_cell_formula_units_Z   1
loop_
 _symmetry_equiv_pos_site_id
 _symmetry_equiv_pos_as_xyz
  1  'x, y, z'
loop_
 _atom_site_type_symbol
 _atom_site_label
 _atom_site_symmetry_multiplicity
 _atom_site_fract_x
 _atom_site_fract_y
 _atom_site_fract_z
 _atom_site_occupancy
  Er  Er0  1  0.000000  0.323026  0.413610  1
  Er  Er1  1  0.000000  0.675366  0.584254  1
  Er  Er2  1  0.000000  0.822385  0.087680  1
  Er  Er3  1  0.000000  0.178468  0.914123  1
  Er  Er4  1  0.000000  0.943116  0.371198  1
  Er  Er5  1  0.000000  0.056778  0.630238  1
  Er  Er6  1  0.000000  0.443721  0.128904  1
  Tm  Tm7  1  0.000000  0.558214  0.869922  1
  Re  Re8  1  0.000000  0.638275  0.320769  1
  Re  Re9  1  0.000000  0.361829  0.679881  1
  Re  Re10  1  0.000000  0.137904  0.178212  1
  B  B11  1  0.500000  0.552730  0.433145  1
  B  B12  1  0.500000  0.446870  0.566607  1
  B  B13  1  0.500000  0.052723  0.066416  1
  B  B14  1  0.500000  0.946159  0.932905  1
  B  B15  1  0.500000  0.749003  0.419310  1
  B  B16  1  0.500000  0.250252  0.580953  1
  B  B17  1  0.500000  0.249737  0.080581  1
  B  B18  1  0.500000  0.751123  0.918909  1
  B  B19  1  0.500000  0.792395  0.265675  1
  B  B20  1  0.500000  0.207844  0.735273  1
  B  B21  1  0.500000  0.292321  0.234351  1
  B  B22  1  0.500000  0.708684  0.765367  1
  B  B23  1  0.500000  0.631185  0.185144  1
  B  B24  1  0.500000  0.369368  0.815437  1
  B  B25  1  0.500000  0.130534  0.314461  1
  B  B26  1  0.500000  0.868537  0.685468  1
  B  B27  1  0.500000  0.981253  0.212082  1
  B  B28  1  0.500000  0.016991  0.788215  1
  B  B29  1  0.500000  0.481683  0.287569  1
  B  B30  1  0.500000  0.518444  0.712127  1
  B  B31  1  0.500000  0.602492  0.027817  1
  B  B32  1  0.500000  0.399917  0.971330  1
  B  B33  1  0.500000  0.101243  0.472226  1
  B  B34  1  0.500000  0.898078  0.528894  1
  Ru  Ru35  1  0.000000  0.861347  0.820948  1
