# generated using pymatgen
data_Tb3Th(Ga3Rh)6
_symmetry_space_group_name_H-M   'P 1'
_cell_length_a   7.61236522
_cell_length_b   7.62243633
_cell_length_c   9.52755200
_cell_angle_alpha   90.00000000
_cell_angle_beta   90.00000000
_cell_angle_gamma   119.65848276
_symmetry_Int_Tables_number   1
_chemical_formula_structural   Tb3Th(Ga3Rh)6
_chemical_formula_sum   'Tb3 Th1 Ga18 Rh6'
_cell_volume   480.40738923
_cell_formula_units_Z   1
loop_
 _symmetry_equiv_pos_site_id
 _symmetry_equiv_pos_as_xyz
  1  'x, y, z'
loop_
 _atom_site_type_symbol
 _atom_site_label
 _atom_site_symmetry_multiplicity
 _atom_site_fract_x
 _atom_site_fract_y
 _atom_site_fract_z
 _atom_site_occupancy
  Tb  Tb0  1  0.002301  0.330947  0.750000  1
  Tb  Tb1  1  0.670203  0.997121  0.250000  1
  Tb  Tb2  1  0.330343  0.002233  0.750000  1
  Th  Th3  1  0.997350  0.669184  0.250000  1
  Ga  Ga4  1  0.127989  0.129852  0.250000  1
  Ga  Ga5  1  0.874895  0.876727  0.750000  1
  Ga  Ga6  1  0.000428  0.329352  0.076897  1
  Ga  Ga7  1  0.999200  0.664987  0.914928  1
  Ga  Ga8  1  0.999200  0.664987  0.585072  1
  Ga  Ga9  1  0.340219  0.005313  0.423016  1
  Ga  Ga10  1  0.000428  0.329352  0.423103  1
  Ga  Ga11  1  0.665196  0.000505  0.580082  1
  Ga  Ga12  1  0.665196  0.000505  0.919918  1
  Ga  Ga13  1  0.340219  0.005313  0.076984  1
  Ga  Ga14  1  0.331931  0.331891  0.565343  1
  Ga  Ga15  1  0.662739  0.667417  0.440906  1
  Ga  Ga16  1  0.662739  0.667417  0.059094  1
  Ga  Ga17  1  0.331931  0.331891  0.934657  1
  Ga  Ga18  1  0.342454  0.547450  0.250000  1
  Ga  Ga19  1  0.659743  0.450870  0.750000  1
  Ga  Ga20  1  0.543488  0.336123  0.250000  1
  Ga  Ga21  1  0.451746  0.661746  0.750000  1
  Rh  Rh22  1  0.673555  0.331028  0.000645  1
  Rh  Rh23  1  0.326022  0.670696  0.000525  1
  Rh  Rh24  1  0.326022  0.670696  0.499475  1
  Rh  Rh25  1  0.673555  0.331028  0.499355  1
  Rh  Rh26  1  0.000453  0.997684  0.000775  1
  Rh  Rh27  1  0.000453  0.997684  0.499225  1
