# generated using pymatgen
data_ErTi2(Nb2Sn3)2
_symmetry_space_group_name_H-M   'P 1'
_cell_length_a   5.74682100
_cell_length_b   5.74844291
_cell_length_c   9.67942200
_cell_angle_alpha   90.00000000
_cell_angle_beta   90.00000000
_cell_angle_gamma   119.99066130
_symmetry_Int_Tables_number   1
_chemical_formula_structural   ErTi2(Nb2Sn3)2
_chemical_formula_sum   'Er1 Ti2 Nb4 Sn6'
_cell_volume   276.94836761
_cell_formula_units_Z   1
loop_
 _symmetry_equiv_pos_site_id
 _symmetry_equiv_pos_as_xyz
  1  'x, y, z'
loop_
 _atom_site_type_symbol
 _atom_site_label
 _atom_site_symmetry_multiplicity
 _atom_site_fract_x
 _atom_site_fract_y
 _atom_site_fract_z
 _atom_site_occupancy
  Er  Er0  1  0.000000  0.000000  0.000000  1
  Ti  Ti1  1  0.500000  0.000000  0.751251  1
  Ti  Ti2  1  0.500000  0.000000  0.248749  1
  Nb  Nb3  1  0.000000  0.500000  0.752100  1
  Nb  Nb4  1  0.500000  0.500000  0.752100  1
  Nb  Nb5  1  0.000000  0.500000  0.247900  1
  Nb  Nb6  1  0.500000  0.500000  0.247900  1
  Sn  Sn7  1  0.664978  0.329956  0.500000  1
  Sn  Sn8  1  0.335022  0.670044  0.500000  1
  Sn  Sn9  1  0.664070  0.328139  0.000000  1
  Sn  Sn10  1  0.335930  0.671861  0.000000  1
  Sn  Sn11  1  0.000000  0.000000  0.681905  1
  Sn  Sn12  1  0.000000  0.000000  0.318095  1
