# generated using pymatgen
data_Nd2Er3In3Sn
_symmetry_space_group_name_H-M   'P 1'
_cell_length_a   8.01490400
_cell_length_b   8.42003100
_cell_length_c   15.91888200
_cell_angle_alpha   90.00000000
_cell_angle_beta   90.00000000
_cell_angle_gamma   90.00000000
_symmetry_Int_Tables_number   1
_chemical_formula_structural   Nd2Er3In3Sn
_chemical_formula_sum   'Nd8 Er12 In12 Sn4'
_cell_volume   1074.29753400
_cell_formula_units_Z   4
loop_
 _symmetry_equiv_pos_site_id
 _symmetry_equiv_pos_as_xyz
  1  'x, y, z'
loop_
 _atom_site_type_symbol
 _atom_site_label
 _atom_site_symmetry_multiplicity
 _atom_site_fract_x
 _atom_site_fract_y
 _atom_site_fract_z
 _atom_site_occupancy
  Nd  Nd0  1  0.502075  0.683974  0.594334  1
  Nd  Nd1  1  0.002075  0.816026  0.905666  1
  Nd  Nd2  1  0.497925  0.316026  0.094334  1
  Nd  Nd3  1  0.997925  0.183974  0.405666  1
  Nd  Nd4  1  0.502255  0.317977  0.405042  1
  Nd  Nd5  1  0.002255  0.182023  0.094958  1
  Nd  Nd6  1  0.497745  0.682023  0.905042  1
  Nd  Nd7  1  0.997745  0.817977  0.594958  1
  Er  Er8  1  0.661960  0.166286  0.624877  1
  Er  Er9  1  0.161960  0.333714  0.875123  1
  Er  Er10  1  0.338040  0.833714  0.124877  1
  Er  Er11  1  0.838040  0.666286  0.375123  1
  Er  Er12  1  0.343661  0.830373  0.375290  1
  Er  Er13  1  0.843661  0.669627  0.124710  1
  Er  Er14  1  0.656339  0.169627  0.875290  1
  Er  Er15  1  0.156339  0.330373  0.624710  1
  Er  Er16  1  0.823093  0.502233  0.749645  1
  Er  Er17  1  0.323093  0.997767  0.750355  1
  Er  Er18  1  0.176907  0.497767  0.249645  1
  Er  Er19  1  0.676907  0.002233  0.250355  1
  In  In20  1  0.678074  0.962069  0.459015  1
  In  In21  1  0.178074  0.537931  0.040985  1
  In  In22  1  0.321926  0.037931  0.959015  1
  In  In23  1  0.821926  0.462069  0.540985  1
  In  In24  1  0.459106  0.385698  0.746884  1
  In  In25  1  0.959106  0.114302  0.753116  1
  In  In26  1  0.540894  0.614302  0.246884  1
  In  In27  1  0.040894  0.885698  0.253116  1
  In  In28  1  0.699321  0.865254  0.750655  1
  In  In29  1  0.199321  0.634746  0.749345  1
  In  In30  1  0.300679  0.134746  0.250655  1
  In  In31  1  0.800679  0.365254  0.249345  1
  Sn  Sn32  1  0.323431  0.036688  0.540039  1
  Sn  Sn33  1  0.823431  0.463312  0.959961  1
  Sn  Sn34  1  0.676569  0.963312  0.040039  1
  Sn  Sn35  1  0.176569  0.536688  0.459961  1
