# generated using pymatgen
data_Er4Si10RuPt5
_symmetry_space_group_name_H-M   'P 1'
_cell_length_a   8.13865546
_cell_length_b   8.13865536
_cell_length_c   8.13865627
_cell_angle_alpha   137.03854062
_cell_angle_beta   104.02870407
_cell_angle_gamma   91.47722938
_symmetry_Int_Tables_number   1
_chemical_formula_structural   Er4Si10RuPt5
_chemical_formula_sum   'Er4 Si10 Ru1 Pt5'
_cell_volume   339.18665680
_cell_formula_units_Z   1
loop_
 _symmetry_equiv_pos_site_id
 _symmetry_equiv_pos_as_xyz
  1  'x, y, z'
loop_
 _atom_site_type_symbol
 _atom_site_label
 _atom_site_symmetry_multiplicity
 _atom_site_fract_x
 _atom_site_fract_y
 _atom_site_fract_z
 _atom_site_occupancy
  Er  Er0  1  0.901891  0.128919  0.768953  1
  Er  Er1  1  0.098109  0.867061  0.227027  1
  Er  Er2  1  0.640033  0.371081  0.272973  1
  Er  Er3  1  0.359967  0.632939  0.731047  1
  Si  Si4  1  0.000000  0.750000  0.750000  1
  Si  Si5  1  0.000000  0.250000  0.250000  1
  Si  Si6  1  0.727700  0.477700  0.750000  1
  Si  Si7  1  0.272300  0.022300  0.750000  1
  Si  Si8  1  0.276258  0.526258  0.250000  1
  Si  Si9  1  0.723742  0.973742  0.250000  1
  Si  Si10  1  0.241723  0.400564  0.854614  1
  Si  Si11  1  0.545949  0.887108  0.645386  1
  Si  Si12  1  0.454051  0.099436  0.341159  1
  Si  Si13  1  0.758277  0.612892  0.158841  1
  Ru  Ru14  1  0.500000  0.750000  0.250000  1
  Pt  Pt15  1  0.746606  0.863828  0.887427  1
  Pt  Pt16  1  0.500000  0.250000  0.750000  1
  Pt  Pt17  1  0.976401  0.359180  0.612573  1
  Pt  Pt18  1  0.023599  0.636172  0.382779  1
  Pt  Pt19  1  0.253394  0.140820  0.117221  1
