# generated using pymatgen
data_PrCd3Ir3RhO14
_symmetry_space_group_name_H-M   'P 1'
_cell_length_a   7.25061412
_cell_length_b   7.33391896
_cell_length_c   7.25061483
_cell_angle_alpha   60.44115788
_cell_angle_beta   60.06616829
_cell_angle_gamma   60.44115685
_symmetry_Int_Tables_number   1
_chemical_formula_structural   PrCd3Ir3RhO14
_chemical_formula_sum   'Pr1 Cd3 Ir3 Rh1 O14'
_cell_volume   274.57073652
_cell_formula_units_Z   1
loop_
 _symmetry_equiv_pos_site_id
 _symmetry_equiv_pos_as_xyz
  1  'x, y, z'
loop_
 _atom_site_type_symbol
 _atom_site_label
 _atom_site_symmetry_multiplicity
 _atom_site_fract_x
 _atom_site_fract_y
 _atom_site_fract_z
 _atom_site_occupancy
  Pr  Pr0  1  0.125000  0.625000  0.125000  1
  Cd  Cd1  1  0.125000  0.125000  0.625000  1
  Cd  Cd2  1  0.125000  0.125000  0.125000  1
  Cd  Cd3  1  0.625000  0.125000  0.125000  1
  Ir  Ir4  1  0.125000  0.625000  0.625000  1
  Ir  Ir5  1  0.625000  0.125000  0.625000  1
  Ir  Ir6  1  0.625000  0.625000  0.125000  1
  Rh  Rh7  1  0.625000  0.625000  0.625000  1
  O  O8  1  0.957168  0.544493  0.546763  1
  O  O9  1  0.304448  0.305982  0.700191  1
  O  O10  1  0.952036  0.544763  0.952036  1
  O  O11  1  0.700191  0.305982  0.304448  1
  O  O12  1  0.546763  0.544493  0.957168  1
  O  O13  1  0.551014  0.952329  0.551014  1
  O  O14  1  0.549809  0.944018  0.945552  1
  O  O15  1  0.256018  0.231376  0.256018  1
  O  O16  1  0.292832  0.705507  0.703237  1
  O  O17  1  0.698986  0.297671  0.698986  1
  O  O18  1  0.993982  0.018624  0.993982  1
  O  O19  1  0.945552  0.944018  0.549809  1
  O  O20  1  0.297964  0.705237  0.297964  1
  O  O21  1  0.703237  0.705507  0.292832  1
