# generated using pymatgen
data_Er7TmLu8(Ga3Co)2
_symmetry_space_group_name_H-M   'P 1'
_cell_length_a   9.83490900
_cell_length_b   9.83308406
_cell_length_c   6.89053501
_cell_angle_alpha   89.99964787
_cell_angle_beta   90.00000000
_cell_angle_gamma   120.00613615
_symmetry_Int_Tables_number   1
_chemical_formula_structural   Er7TmLu8(Ga3Co)2
_chemical_formula_sum   'Er7 Tm1 Lu8 Ga6 Co2'
_cell_volume   577.05447902
_cell_formula_units_Z   1
loop_
 _symmetry_equiv_pos_site_id
 _symmetry_equiv_pos_as_xyz
  1  'x, y, z'
loop_
 _atom_site_type_symbol
 _atom_site_label
 _atom_site_symmetry_multiplicity
 _atom_site_fract_x
 _atom_site_fract_y
 _atom_site_fract_z
 _atom_site_occupancy
  Er  Er0  1  0.927777  0.463730  0.792031  1
  Er  Er1  1  0.535955  0.463730  0.792031  1
  Er  Er2  1  0.464005  0.928011  0.291761  1
  Er  Er3  1  0.072202  0.535950  0.291764  1
  Er  Er4  1  0.463746  0.535950  0.291764  1
  Er  Er5  1  0.000162  0.000324  0.767694  1
  Er  Er6  1  0.999843  0.999686  0.267859  1
  Tm  Tm7  1  0.536286  0.072572  0.792216  1
  Lu  Lu8  1  0.826051  0.652103  0.487826  1
  Lu  Lu9  1  0.347746  0.173748  0.488057  1
  Lu  Lu10  1  0.826000  0.173748  0.488057  1
  Lu  Lu11  1  0.173855  0.347709  0.987722  1
  Lu  Lu12  1  0.652080  0.826295  0.987348  1
  Lu  Lu13  1  0.174217  0.826295  0.987348  1
  Lu  Lu14  1  0.666557  0.333113  0.173127  1
  Lu  Lu15  1  0.333490  0.666980  0.673216  1
  Ga  Ga16  1  0.836532  0.673065  0.043466  1
  Ga  Ga17  1  0.327267  0.163561  0.043126  1
  Ga  Ga18  1  0.836293  0.163561  0.043126  1
  Ga  Ga19  1  0.163516  0.327030  0.543298  1
  Ga  Ga20  1  0.673046  0.836445  0.543122  1
  Ga  Ga21  1  0.163401  0.836445  0.543122  1
  Co  Co22  1  0.666610  0.333219  0.553838  1
  Co  Co23  1  0.333363  0.666728  0.053151  1
