# generated using pymatgen
data_HoEr9CuRhPb6
_symmetry_space_group_name_H-M   'P 1'
_cell_length_a   9.14940600
_cell_length_b   9.14940598
_cell_length_c   6.71035800
_cell_angle_alpha   90.00000000
_cell_angle_beta   90.00000000
_cell_angle_gamma   120.00000008
_symmetry_Int_Tables_number   1
_chemical_formula_structural   HoEr9CuRhPb6
_chemical_formula_sum   'Ho1 Er9 Cu1 Rh1 Pb6'
_cell_volume   486.47678477
_cell_formula_units_Z   1
loop_
 _symmetry_equiv_pos_site_id
 _symmetry_equiv_pos_as_xyz
  1  'x, y, z'
loop_
 _atom_site_type_symbol
 _atom_site_label
 _atom_site_symmetry_multiplicity
 _atom_site_fract_x
 _atom_site_fract_y
 _atom_site_fract_z
 _atom_site_occupancy
  Ho  Ho0  1  0.333333  0.666667  0.000000  1
  Er  Er1  1  0.244802  0.000074  0.739089  1
  Er  Er2  1  0.755272  0.000074  0.260911  1
  Er  Er3  1  0.999926  0.244728  0.739089  1
  Er  Er4  1  0.999926  0.755198  0.260911  1
  Er  Er5  1  0.755272  0.755198  0.739089  1
  Er  Er6  1  0.244802  0.244728  0.260911  1
  Er  Er7  1  0.333333  0.666667  0.500000  1
  Er  Er8  1  0.666667  0.333333  0.500000  1
  Er  Er9  1  0.666667  0.333333  0.000000  1
  Cu  Cu10  1  0.000000  0.000000  0.000000  1
  Rh  Rh11  1  0.000000  0.000000  0.500000  1
  Pb  Pb12  1  0.603630  0.000347  0.751344  1
  Pb  Pb13  1  0.396717  0.000347  0.248656  1
  Pb  Pb14  1  0.999653  0.603283  0.751344  1
  Pb  Pb15  1  0.999653  0.396370  0.248656  1
  Pb  Pb16  1  0.396717  0.396370  0.751344  1
  Pb  Pb17  1  0.603630  0.603283  0.248656  1
