# generated using pymatgen
data_TbHo11Si11Au
_symmetry_space_group_name_H-M   'P 1'
_cell_length_a   3.84193900
_cell_length_b   5.68020297
_cell_length_c   23.65664900
_cell_angle_alpha   82.76052153
_cell_angle_beta   90.00000000
_cell_angle_gamma   90.00000000
_symmetry_Int_Tables_number   1
_chemical_formula_structural   TbHo11Si11Au
_chemical_formula_sum   'Tb1 Ho11 Si11 Au1'
_cell_volume   512.14333243
_cell_formula_units_Z   1
loop_
 _symmetry_equiv_pos_site_id
 _symmetry_equiv_pos_as_xyz
  1  'x, y, z'
loop_
 _atom_site_type_symbol
 _atom_site_label
 _atom_site_symmetry_multiplicity
 _atom_site_fract_x
 _atom_site_fract_y
 _atom_site_fract_z
 _atom_site_occupancy
  Tb  Tb0  1  0.750000  0.170348  0.892277  1
  Ho  Ho1  1  0.750000  0.359274  0.058283  1
  Ho  Ho2  1  0.250000  0.660718  0.938737  1
  Ho  Ho3  1  0.750000  0.529978  0.227854  1
  Ho  Ho4  1  0.250000  0.468453  0.772624  1
  Ho  Ho5  1  0.750000  0.168066  0.394011  1
  Ho  Ho6  1  0.250000  0.824512  0.606497  1
  Ho  Ho7  1  0.750000  0.349596  0.559533  1
  Ho  Ho8  1  0.250000  0.642224  0.440858  1
  Ho  Ho9  1  0.750000  0.993106  0.725819  1
  Ho  Ho10  1  0.250000  0.996963  0.275742  1
  Ho  Ho11  1  0.250000  0.840014  0.106722  1
  Si  Si12  1  0.750000  0.872905  0.011975  1
  Si  Si13  1  0.250000  0.146569  0.986487  1
  Si  Si14  1  0.750000  0.031493  0.182665  1
  Si  Si15  1  0.250000  0.956024  0.819638  1
  Si  Si16  1  0.750000  0.707193  0.347322  1
  Si  Si17  1  0.250000  0.285915  0.653645  1
  Si  Si18  1  0.750000  0.860146  0.512835  1
  Si  Si19  1  0.250000  0.131839  0.487436  1
  Si  Si20  1  0.750000  0.531395  0.678851  1
  Si  Si21  1  0.250000  0.460632  0.322420  1
  Si  Si22  1  0.750000  0.683021  0.844605  1
  Au  Au23  1  0.250000  0.329617  0.153164  1
