# generated using pymatgen
data_CsTb3S5
_symmetry_space_group_name_H-M   'P 1'
_cell_length_a   4.04124700
_cell_length_b   12.07511200
_cell_length_c   21.56280000
_cell_angle_alpha   90.00000000
_cell_angle_beta   90.00000000
_cell_angle_gamma   90.00000000
_symmetry_Int_Tables_number   1
_chemical_formula_structural   CsTb3S5
_chemical_formula_sum   'Cs4 Tb12 S20'
_cell_volume   1052.23251455
_cell_formula_units_Z   4
loop_
 _symmetry_equiv_pos_site_id
 _symmetry_equiv_pos_as_xyz
  1  'x, y, z'
loop_
 _atom_site_type_symbol
 _atom_site_label
 _atom_site_symmetry_multiplicity
 _atom_site_fract_x
 _atom_site_fract_y
 _atom_site_fract_z
 _atom_site_occupancy
  Cs  Cs0  1  0.250000  0.853561  0.093277  1
  Cs  Cs1  1  0.750000  0.146439  0.906723  1
  Cs  Cs2  1  0.750000  0.353561  0.406723  1
  Cs  Cs3  1  0.250000  0.646439  0.593277  1
  Tb  Tb4  1  0.750000  0.797432  0.825535  1
  Tb  Tb5  1  0.250000  0.202568  0.174465  1
  Tb  Tb6  1  0.250000  0.297432  0.674465  1
  Tb  Tb7  1  0.750000  0.702568  0.325535  1
  Tb  Tb8  1  0.250000  0.957976  0.697383  1
  Tb  Tb9  1  0.750000  0.042024  0.302617  1
  Tb  Tb10  1  0.750000  0.457976  0.802617  1
  Tb  Tb11  1  0.250000  0.542024  0.197383  1
  Tb  Tb12  1  0.750000  0.390945  0.052893  1
  Tb  Tb13  1  0.250000  0.609055  0.947107  1
  Tb  Tb14  1  0.250000  0.890945  0.447107  1
  Tb  Tb15  1  0.750000  0.109055  0.552893  1
  S  S16  1  0.250000  0.951370  0.568720  1
  S  S17  1  0.750000  0.048630  0.431280  1
  S  S18  1  0.750000  0.451370  0.931280  1
  S  S19  1  0.250000  0.548630  0.068720  1
  S  S20  1  0.750000  0.761543  0.951431  1
  S  S21  1  0.250000  0.238457  0.048569  1
  S  S22  1  0.250000  0.261543  0.548569  1
  S  S23  1  0.750000  0.738457  0.451431  1
  S  S24  1  0.250000  0.946258  0.824265  1
  S  S25  1  0.750000  0.053742  0.175735  1
  S  S26  1  0.750000  0.446258  0.675735  1
  S  S27  1  0.250000  0.553742  0.324265  1
  S  S28  1  0.750000  0.125966  0.682598  1
  S  S29  1  0.250000  0.874034  0.317402  1
  S  S30  1  0.250000  0.625966  0.817402  1
  S  S31  1  0.750000  0.374034  0.182598  1
  S  S32  1  0.750000  0.689647  0.198822  1
  S  S33  1  0.250000  0.310353  0.801178  1
  S  S34  1  0.250000  0.189647  0.301178  1
  S  S35  1  0.750000  0.810353  0.698822  1
