# generated using pymatgen
data_Pr8Er12Ga15Ge
_symmetry_space_group_name_H-M   'P 1'
_cell_length_a   7.67665427
_cell_length_b   7.98177791
_cell_length_c   15.16414100
_cell_angle_alpha   90.02493032
_cell_angle_beta   89.79472709
_cell_angle_gamma   90.03089848
_symmetry_Int_Tables_number   1
_chemical_formula_structural   Pr8Er12Ga15Ge
_chemical_formula_sum   'Pr8 Er12 Ga15 Ge1'
_cell_volume   929.15152516
_cell_formula_units_Z   1
loop_
 _symmetry_equiv_pos_site_id
 _symmetry_equiv_pos_as_xyz
  1  'x, y, z'
loop_
 _atom_site_type_symbol
 _atom_site_label
 _atom_site_symmetry_multiplicity
 _atom_site_fract_x
 _atom_site_fract_y
 _atom_site_fract_z
 _atom_site_occupancy
  Pr  Pr0  1  0.017996  0.179975  0.405429  1
  Pr  Pr1  1  0.517903  0.318718  0.405674  1
  Pr  Pr2  1  0.481210  0.678077  0.905661  1
  Pr  Pr3  1  0.481814  0.678570  0.594407  1
  Pr  Pr4  1  0.981231  0.820378  0.594763  1
  Pr  Pr5  1  0.980739  0.821472  0.905391  1
  Pr  Pr6  1  0.518947  0.321019  0.094729  1
  Pr  Pr7  1  0.019445  0.178577  0.094445  1
  Er  Er8  1  0.323849  0.176168  0.622187  1
  Er  Er9  1  0.674602  0.826107  0.376844  1
  Er  Er10  1  0.660224  0.990699  0.750330  1
  Er  Er11  1  0.175146  0.675386  0.378334  1
  Er  Er12  1  0.825032  0.325074  0.876814  1
  Er  Er13  1  0.826465  0.324201  0.622763  1
  Er  Er14  1  0.840306  0.489674  0.249302  1
  Er  Er15  1  0.339358  0.010686  0.249981  1
  Er  Er16  1  0.324812  0.176021  0.876853  1
  Er  Er17  1  0.174894  0.675457  0.123136  1
  Er  Er18  1  0.675039  0.824171  0.123085  1
  Er  Er19  1  0.160909  0.510865  0.749711  1
  Ga  Ga20  1  0.275708  0.877866  0.749594  1
  Ga  Ga21  1  0.470177  0.611941  0.251321  1
  Ga  Ga22  1  0.030350  0.112216  0.749414  1
  Ga  Ga23  1  0.530389  0.387260  0.749387  1
  Ga  Ga24  1  0.970151  0.887534  0.249767  1
  Ga  Ga25  1  0.725223  0.121769  0.250152  1
  Ga  Ga26  1  0.847152  0.531412  0.040736  1
  Ga  Ga27  1  0.347935  0.967395  0.040619  1
  Ga  Ga28  1  0.152242  0.468570  0.959103  1
  Ga  Ga29  1  0.652876  0.031584  0.541087  1
  Ga  Ga30  1  0.347013  0.968027  0.459478  1
  Ga  Ga31  1  0.844849  0.532431  0.459185  1
  Ga  Ga32  1  0.775672  0.621763  0.749305  1
  Ga  Ga33  1  0.223971  0.378871  0.250561  1
  Ga  Ga34  1  0.652716  0.032264  0.959303  1
  Ge  Ge35  1  0.153654  0.467803  0.541149  1
