# generated using pymatgen
data_LaTh2CoSn3Ir2
_symmetry_space_group_name_H-M   'P 1'
_cell_length_a   7.60209117
_cell_length_b   7.57951069
_cell_length_c   4.06430800
_cell_angle_alpha   90.00000000
_cell_angle_beta   90.00000000
_cell_angle_gamma   119.90178434
_symmetry_Int_Tables_number   1
_chemical_formula_structural   LaTh2CoSn3Ir2
_chemical_formula_sum   'La1 Th2 Co1 Sn3 Ir2'
_cell_volume   203.01141205
_cell_formula_units_Z   1
loop_
 _symmetry_equiv_pos_site_id
 _symmetry_equiv_pos_as_xyz
  1  'x, y, z'
loop_
 _atom_site_type_symbol
 _atom_site_label
 _atom_site_symmetry_multiplicity
 _atom_site_fract_x
 _atom_site_fract_y
 _atom_site_fract_z
 _atom_site_occupancy
  La  La0  1  0.000000  0.587858  0.500000  1
  Th  Th1  1  0.412472  0.411753  0.500000  1
  Th  Th2  1  0.587528  0.999281  0.500000  1
  Co  Co3  1  0.000000  0.011126  0.500000  1
  Sn  Sn4  1  0.762118  0.758361  0.000000  1
  Sn  Sn5  1  0.000000  0.246491  0.000000  1
  Sn  Sn6  1  0.237882  0.996243  0.000000  1
  Ir  Ir7  1  0.350018  0.669453  0.000000  1
  Ir  Ir8  1  0.649982  0.319434  0.000000  1
