# generated using pymatgen
data_DyEr3MoOsC4
_symmetry_space_group_name_H-M   'P 1'
_cell_length_a   5.06498200
_cell_length_b   6.57107854
_cell_length_c   9.84254925
_cell_angle_alpha   89.03194887
_cell_angle_beta   90.00000000
_cell_angle_gamma   90.00000000
_symmetry_Int_Tables_number   1
_chemical_formula_structural   DyEr3MoOsC4
_chemical_formula_sum   'Dy2 Er6 Mo2 Os2 C8'
_cell_volume   327.53685181
_cell_formula_units_Z   2
loop_
 _symmetry_equiv_pos_site_id
 _symmetry_equiv_pos_as_xyz
  1  'x, y, z'
loop_
 _atom_site_type_symbol
 _atom_site_label
 _atom_site_symmetry_multiplicity
 _atom_site_fract_x
 _atom_site_fract_y
 _atom_site_fract_z
 _atom_site_occupancy
  Dy  Dy0  1  0.750000  0.967897  0.715395  1
  Dy  Dy1  1  0.250000  0.032103  0.284605  1
  Er  Er2  1  0.250000  0.676355  0.558129  1
  Er  Er3  1  0.750000  0.323645  0.441871  1
  Er  Er4  1  0.750000  0.826383  0.058440  1
  Er  Er5  1  0.250000  0.173617  0.941560  1
  Er  Er6  1  0.250000  0.539047  0.218763  1
  Er  Er7  1  0.750000  0.460953  0.781237  1
  Mo  Mo8  1  0.250000  0.714440  0.868616  1
  Mo  Mo9  1  0.750000  0.285560  0.131384  1
  Os  Os10  1  0.750000  0.780488  0.367479  1
  Os  Os11  1  0.250000  0.219512  0.632521  1
  C  C12  1  0.250000  0.447472  0.757638  1
  C  C13  1  0.750000  0.552528  0.242362  1
  C  C14  1  0.750000  0.048358  0.260405  1
  C  C15  1  0.250000  0.951642  0.739595  1
  C  C16  1  0.250000  0.824635  0.053426  1
  C  C17  1  0.750000  0.175365  0.946574  1
  C  C18  1  0.750000  0.673446  0.550182  1
  C  C19  1  0.250000  0.326554  0.449818  1
