# generated using pymatgen
data_Er8Ta2Ti9Si16Rh
_symmetry_space_group_name_H-M   'P 1'
_cell_length_a   7.00947385
_cell_length_b   7.00947441
_cell_length_c   12.83637704
_cell_angle_alpha   90.15666979
_cell_angle_beta   89.84333346
_cell_angle_gamma   89.69632846
_symmetry_Int_Tables_number   1
_chemical_formula_structural   Er8Ta2Ti9Si16Rh
_chemical_formula_sum   'Er8 Ta2 Ti9 Si16 Rh1'
_cell_volume   630.67261712
_cell_formula_units_Z   1
loop_
 _symmetry_equiv_pos_site_id
 _symmetry_equiv_pos_as_xyz
  1  'x, y, z'
loop_
 _atom_site_type_symbol
 _atom_site_label
 _atom_site_symmetry_multiplicity
 _atom_site_fract_x
 _atom_site_fract_y
 _atom_site_fract_z
 _atom_site_occupancy
  Er  Er0  1  0.340902  0.003346  0.467111  1
  Er  Er1  1  0.497298  0.842500  0.718205  1
  Er  Er2  1  0.501162  0.158117  0.215286  1
  Er  Er3  1  0.842500  0.497298  0.281795  1
  Er  Er4  1  0.158117  0.501162  0.784714  1
  Er  Er5  1  0.657676  0.999065  0.968297  1
  Er  Er6  1  0.003346  0.340902  0.532889  1
  Er  Er7  1  0.999065  0.657676  0.031703  1
  Ta  Ta8  1  0.174855  0.826290  0.248285  1
  Ta  Ta9  1  0.826290  0.174855  0.751715  1
  Ti  Ti10  1  0.673599  0.673599  0.500000  1
  Ti  Ti11  1  0.148344  0.003040  0.874994  1
  Ti  Ti12  1  0.493251  0.656494  0.125064  1
  Ti  Ti13  1  0.507578  0.348327  0.627898  1
  Ti  Ti14  1  0.656494  0.493251  0.874936  1
  Ti  Ti15  1  0.348327  0.507578  0.372102  1
  Ti  Ti16  1  0.849889  0.993458  0.373694  1
  Ti  Ti17  1  0.003040  0.148344  0.125006  1
  Ti  Ti18  1  0.993458  0.849889  0.626306  1
  Si  Si19  1  0.202923  0.133378  0.684357  1
  Si  Si20  1  0.371558  0.703499  0.933315  1
  Si  Si21  1  0.631355  0.295687  0.433421  1
  Si  Si22  1  0.703499  0.371558  0.066685  1
  Si  Si23  1  0.295687  0.631355  0.566579  1
  Si  Si24  1  0.796169  0.867528  0.183324  1
  Si  Si25  1  0.133378  0.202923  0.315643  1
  Si  Si26  1  0.867528  0.796169  0.816676  1
  Si  Si27  1  0.288193  0.951826  0.062151  1
  Si  Si28  1  0.547391  0.792171  0.315449  1
  Si  Si29  1  0.449024  0.209351  0.817321  1
  Si  Si30  1  0.792171  0.547391  0.684551  1
  Si  Si31  1  0.209351  0.449024  0.182679  1
  Si  Si32  1  0.707072  0.046941  0.564837  1
  Si  Si33  1  0.951826  0.288193  0.937849  1
  Si  Si34  1  0.046941  0.707072  0.435163  1
  Rh  Rh35  1  0.330742  0.330742  0.000000  1
