# generated using pymatgen
data_Tb2Dy3Rh5
_symmetry_space_group_name_H-M   'P 1'
_cell_length_a   3.43834500
_cell_length_b   3.43834500
_cell_length_c   17.18392500
_cell_angle_alpha   90.00000000
_cell_angle_beta   90.00000000
_cell_angle_gamma   90.00000000
_symmetry_Int_Tables_number   1
_chemical_formula_structural   Tb2Dy3Rh5
_chemical_formula_sum   'Tb2 Dy3 Rh5'
_cell_volume   203.15207890
_cell_formula_units_Z   1
loop_
 _symmetry_equiv_pos_site_id
 _symmetry_equiv_pos_as_xyz
  1  'x, y, z'
loop_
 _atom_site_type_symbol
 _atom_site_label
 _atom_site_symmetry_multiplicity
 _atom_site_fract_x
 _atom_site_fract_y
 _atom_site_fract_z
 _atom_site_occupancy
  Tb  Tb0  1  0.000000  0.000000  0.000145  1
  Tb  Tb1  1  0.000000  0.000000  0.799818  1
  Dy  Dy2  1  0.000000  0.000000  0.200169  1
  Dy  Dy3  1  0.000000  0.000000  0.400000  1
  Dy  Dy4  1  0.000000  0.000000  0.599817  1
  Rh  Rh5  1  0.500000  0.500000  0.100629  1
  Rh  Rh6  1  0.500000  0.500000  0.299998  1
  Rh  Rh7  1  0.500000  0.500000  0.499973  1
  Rh  Rh8  1  0.500000  0.500000  0.699276  1
  Rh  Rh9  1  0.500000  0.500000  0.900174  1
