# generated using pymatgen
data_CaNi2(B2Ru)2
_symmetry_space_group_name_H-M   'P 1'
_cell_length_a   7.21814700
_cell_length_b   7.21814700
_cell_length_c   3.97072200
_cell_angle_alpha   90.00000000
_cell_angle_beta   90.00000000
_cell_angle_gamma   90.00000000
_symmetry_Int_Tables_number   1
_chemical_formula_structural   CaNi2(B2Ru)2
_chemical_formula_sum   'Ca2 Ni4 B8 Ru4'
_cell_volume   206.88115246
_cell_formula_units_Z   2
loop_
 _symmetry_equiv_pos_site_id
 _symmetry_equiv_pos_as_xyz
  1  'x, y, z'
loop_
 _atom_site_type_symbol
 _atom_site_label
 _atom_site_symmetry_multiplicity
 _atom_site_fract_x
 _atom_site_fract_y
 _atom_site_fract_z
 _atom_site_occupancy
  Ca  Ca0  1  0.000000  0.000000  0.084469  1
  Ca  Ca1  1  0.500000  0.500000  0.584469  1
  Ni  Ni2  1  0.624000  0.118743  0.376571  1
  Ni  Ni3  1  0.376000  0.881257  0.376571  1
  Ni  Ni4  1  0.618743  0.876000  0.876571  1
  Ni  Ni5  1  0.381257  0.124000  0.876571  1
  B  B6  1  0.337239  0.813203  0.880955  1
  B  B7  1  0.662761  0.186797  0.880955  1
  B  B8  1  0.313203  0.162761  0.380955  1
  B  B9  1  0.686797  0.837239  0.380955  1
  B  B10  1  0.168755  0.721423  0.599018  1
  B  B11  1  0.831245  0.278577  0.599018  1
  B  B12  1  0.221423  0.331245  0.099018  1
  B  B13  1  0.778577  0.668755  0.099018  1
  Ru  Ru14  1  0.842901  0.382045  0.101221  1
  Ru  Ru15  1  0.157099  0.617955  0.101221  1
  Ru  Ru16  1  0.882045  0.657099  0.601221  1
  Ru  Ru17  1  0.117955  0.342901  0.601221  1
