# generated using pymatgen
data_Y4Zn4In3Sn
_symmetry_space_group_name_H-M   'P 1'
_cell_length_a   4.65435500
_cell_length_b   4.65435504
_cell_length_c   14.85314300
_cell_angle_alpha   90.00000000
_cell_angle_beta   90.00000000
_cell_angle_gamma   119.99999263
_symmetry_Int_Tables_number   1
_chemical_formula_structural   Y4Zn4In3Sn
_chemical_formula_sum   'Y4 Zn4 In3 Sn1'
_cell_volume   278.65576968
_cell_formula_units_Z   1
loop_
 _symmetry_equiv_pos_site_id
 _symmetry_equiv_pos_as_xyz
  1  'x, y, z'
loop_
 _atom_site_type_symbol
 _atom_site_label
 _atom_site_symmetry_multiplicity
 _atom_site_fract_x
 _atom_site_fract_y
 _atom_site_fract_z
 _atom_site_occupancy
  Y  Y0  1  0.000000  0.000000  0.252468  1
  Y  Y1  1  0.000000  0.000000  0.746845  1
  Y  Y2  1  0.000000  0.000000  0.003717  1
  Y  Y3  1  0.000000  0.000000  0.498885  1
  Zn  Zn4  1  0.333333  0.666667  0.110745  1
  Zn  Zn5  1  0.666667  0.333333  0.840549  1
  Zn  Zn6  1  0.666667  0.333333  0.647984  1
  Zn  Zn7  1  0.333333  0.666667  0.397074  1
  In  In8  1  0.333333  0.666667  0.609304  1
  In  In9  1  0.666667  0.333333  0.365808  1
  In  In10  1  0.666667  0.333333  0.138094  1
  Sn  Sn11  1  0.333333  0.666667  0.888528  1
