# generated using pymatgen
data_YbCdGaAg3
_symmetry_space_group_name_H-M   'P 1'
_cell_length_a   5.64779220
_cell_length_b   5.46001503
_cell_length_c   5.64779200
_cell_angle_alpha   58.85565948
_cell_angle_beta   59.99998945
_cell_angle_gamma   58.85566316
_symmetry_Int_Tables_number   1
_chemical_formula_structural   YbCdGaAg3
_chemical_formula_sum   'Yb1 Cd1 Ga1 Ag3'
_cell_volume   120.97724594
_cell_formula_units_Z   1
loop_
 _symmetry_equiv_pos_site_id
 _symmetry_equiv_pos_as_xyz
  1  'x, y, z'
loop_
 _atom_site_type_symbol
 _atom_site_label
 _atom_site_symmetry_multiplicity
 _atom_site_fract_x
 _atom_site_fract_y
 _atom_site_fract_z
 _atom_site_occupancy
  Yb  Yb0  1  0.750718  0.747846  0.750718  1
  Cd  Cd1  1  0.002988  0.991035  0.002988  1
  Ga  Ga2  1  0.373896  0.878312  0.373896  1
  Ag  Ag3  1  0.373603  0.377603  0.373603  1
  Ag  Ag4  1  0.875192  0.377603  0.373603  1
  Ag  Ag5  1  0.373603  0.377603  0.875192  1
