# generated using pymatgen
data_Sc8Ti8NbRe3Si16
_symmetry_space_group_name_H-M   'P 1'
_cell_length_a   6.60100293
_cell_length_b   6.77809774
_cell_length_c   12.90967800
_cell_angle_alpha   90.00000000
_cell_angle_beta   90.00000000
_cell_angle_gamma   89.99646814
_symmetry_Int_Tables_number   1
_chemical_formula_structural   Sc8Ti8NbRe3Si16
_chemical_formula_sum   'Sc8 Ti8 Nb1 Re3 Si16'
_cell_volume   577.60794947
_cell_formula_units_Z   1
loop_
 _symmetry_equiv_pos_site_id
 _symmetry_equiv_pos_as_xyz
  1  'x, y, z'
loop_
 _atom_site_type_symbol
 _atom_site_label
 _atom_site_symmetry_multiplicity
 _atom_site_fract_x
 _atom_site_fract_y
 _atom_site_fract_z
 _atom_site_occupancy
  Sc  Sc0  1  0.499152  0.672705  0.594857  1
  Sc  Sc1  1  0.000708  0.826402  0.905227  1
  Sc  Sc2  1  0.499294  0.326511  0.094284  1
  Sc  Sc3  1  0.997803  0.173359  0.406127  1
  Sc  Sc4  1  0.499294  0.326511  0.405716  1
  Sc  Sc5  1  0.997803  0.173359  0.093873  1
  Sc  Sc6  1  0.499152  0.672705  0.905143  1
  Sc  Sc7  1  0.000708  0.826402  0.594773  1
  Ti  Ti8  1  0.669960  0.169410  0.627524  1
  Ti  Ti9  1  0.169161  0.331182  0.873604  1
  Ti  Ti10  1  0.332219  0.828831  0.125348  1
  Ti  Ti11  1  0.831768  0.670902  0.374341  1
  Ti  Ti12  1  0.332219  0.828831  0.374652  1
  Ti  Ti13  1  0.831768  0.670902  0.125659  1
  Ti  Ti14  1  0.669960  0.169410  0.872476  1
  Ti  Ti15  1  0.169161  0.331182  0.626396  1
  Nb  Nb16  1  0.660146  0.993408  0.250000  1
  Re  Re17  1  0.840364  0.491708  0.750000  1
  Re  Re18  1  0.341136  0.006728  0.750000  1
  Re  Re19  1  0.159158  0.507484  0.250000  1
  Si  Si20  1  0.665280  0.963718  0.461335  1
  Si  Si21  1  0.165618  0.536616  0.042114  1
  Si  Si22  1  0.334182  0.036436  0.956857  1
  Si  Si23  1  0.833442  0.463524  0.542485  1
  Si  Si24  1  0.334182  0.036436  0.543143  1
  Si  Si25  1  0.833442  0.463524  0.957515  1
  Si  Si26  1  0.665280  0.963718  0.038665  1
  Si  Si27  1  0.165618  0.536616  0.457886  1
  Si  Si28  1  0.467705  0.383848  0.750000  1
  Si  Si29  1  0.970226  0.114614  0.750000  1
  Si  Si30  1  0.531579  0.614354  0.250000  1
  Si  Si31  1  0.037194  0.882653  0.250000  1
  Si  Si32  1  0.703769  0.858512  0.750000  1
  Si  Si33  1  0.202977  0.639906  0.750000  1
  Si  Si34  1  0.290845  0.142553  0.250000  1
  Si  Si35  1  0.797724  0.365039  0.250000  1
