# generated using pymatgen
data_NdY6Co4Sn23Ir2
_symmetry_space_group_name_H-M   'P 1'
_cell_length_a   9.82088500
_cell_length_b   9.79627997
_cell_length_c   10.02940202
_cell_angle_alpha   90.03453257
_cell_angle_beta   90.00000000
_cell_angle_gamma   120.08313037
_symmetry_Int_Tables_number   1
_chemical_formula_structural   NdY6Co4Sn23Ir2
_chemical_formula_sum   'Nd1 Y6 Co4 Sn23 Ir2'
_cell_volume   834.93558741
_cell_formula_units_Z   1
loop_
 _symmetry_equiv_pos_site_id
 _symmetry_equiv_pos_as_xyz
  1  'x, y, z'
loop_
 _atom_site_type_symbol
 _atom_site_label
 _atom_site_symmetry_multiplicity
 _atom_site_fract_x
 _atom_site_fract_y
 _atom_site_fract_z
 _atom_site_occupancy
  Nd  Nd0  1  0.997595  0.995190  0.993598  1
  Y  Y1  1  0.043282  0.520846  0.309010  1
  Y  Y2  1  0.478288  0.956577  0.307968  1
  Y  Y3  1  0.477564  0.520846  0.309010  1
  Y  Y4  1  0.957519  0.479362  0.691696  1
  Y  Y5  1  0.521599  0.043197  0.693130  1
  Y  Y6  1  0.521844  0.479362  0.691696  1
  Co  Co7  1  0.168712  0.337424  0.804055  1
  Co  Co8  1  0.833438  0.170079  0.198934  1
  Co  Co9  1  0.336641  0.170079  0.198934  1
  Co  Co10  1  0.832275  0.664548  0.199983  1
  Sn  Sn11  1  0.000129  0.000257  0.498937  1
  Sn  Sn12  1  0.117244  0.884381  0.274230  1
  Sn  Sn13  1  0.767136  0.884381  0.274230  1
  Sn  Sn14  1  0.117351  0.234704  0.273743  1
  Sn  Sn15  1  0.888018  0.125048  0.720859  1
  Sn  Sn16  1  0.237030  0.125048  0.720859  1
  Sn  Sn17  1  0.880596  0.761191  0.713897  1
  Sn  Sn18  1  0.353210  0.006098  0.006084  1
  Sn  Sn19  1  0.650615  0.644661  0.005662  1
  Sn  Sn20  1  0.000455  0.346566  0.000885  1
  Sn  Sn21  1  0.346111  0.346566  0.000885  1
  Sn  Sn22  1  0.994047  0.644661  0.005662  1
  Sn  Sn23  1  0.652889  0.006098  0.006084  1
  Sn  Sn24  1  0.781366  0.562731  0.450845  1
  Sn  Sn25  1  0.781592  0.216599  0.451107  1
  Sn  Sn26  1  0.435008  0.216599  0.451107  1
  Sn  Sn27  1  0.217989  0.435979  0.548713  1
  Sn  Sn28  1  0.220584  0.780908  0.542413  1
  Sn  Sn29  1  0.560324  0.780908  0.542413  1
  Sn  Sn30  1  0.666969  0.333936  0.181025  1
  Sn  Sn31  1  0.330546  0.661094  0.824163  1
  Sn  Sn32  1  0.667539  0.335078  0.885938  1
  Sn  Sn33  1  0.332412  0.664825  0.116565  1
  Ir  Ir34  1  0.169394  0.832086  0.802839  1
  Ir  Ir35  1  0.662692  0.832086  0.802839  1
