# generated using pymatgen
data_Sc4Tc2B8MoRu7
_symmetry_space_group_name_H-M   'P 1'
_cell_length_a   3.03891700
_cell_length_b   8.58237493
_cell_length_c   10.02496832
_cell_angle_alpha   90.02968348
_cell_angle_beta   90.00000000
_cell_angle_gamma   90.00000000
_symmetry_Int_Tables_number   1
_chemical_formula_structural   Sc4Tc2B8MoRu7
_chemical_formula_sum   'Sc4 Tc2 B8 Mo1 Ru7'
_cell_volume   261.46241736
_cell_formula_units_Z   1
loop_
 _symmetry_equiv_pos_site_id
 _symmetry_equiv_pos_as_xyz
  1  'x, y, z'
loop_
 _atom_site_type_symbol
 _atom_site_label
 _atom_site_symmetry_multiplicity
 _atom_site_fract_x
 _atom_site_fract_y
 _atom_site_fract_z
 _atom_site_occupancy
  Sc  Sc0  1  0.500000  0.839798  0.180193  1
  Sc  Sc1  1  0.500000  0.157824  0.820215  1
  Sc  Sc2  1  0.500000  0.657017  0.682405  1
  Sc  Sc3  1  0.500000  0.341171  0.315762  1
  Tc  Tc4  1  0.000000  0.659577  0.952244  1
  Tc  Tc5  1  0.000000  0.339439  0.046628  1
  B  B6  1  0.500000  0.967747  0.589308  1
  B  B7  1  0.500000  0.037990  0.412725  1
  B  B8  1  0.500000  0.849969  0.901373  1
  B  B9  1  0.500000  0.152273  0.099127  1
  B  B10  1  0.500000  0.648102  0.398864  1
  B  B11  1  0.500000  0.351678  0.600285  1
  B  B12  1  0.500000  0.465010  0.912526  1
  B  B13  1  0.500000  0.534937  0.086494  1
  Mo  Mo14  1  0.000000  0.841453  0.453734  1
  Ru  Ru15  1  0.000000  0.162955  0.549170  1
  Ru  Ru16  1  0.000000  0.000103  0.000598  1
  Ru  Ru17  1  0.000000  0.403180  0.760312  1
  Ru  Ru18  1  0.000000  0.593544  0.238084  1
  Ru  Ru19  1  0.000000  0.497163  0.499504  1
  Ru  Ru20  1  0.000000  0.904599  0.738976  1
  Ru  Ru21  1  0.000000  0.094470  0.261473  1
