# generated using pymatgen
data_LiEr8CdCo2
_symmetry_space_group_name_H-M   'P 1'
_cell_length_a   9.43762473
_cell_length_b   9.43762618
_cell_length_c   9.44206800
_cell_angle_alpha   59.98442979
_cell_angle_beta   59.98442472
_cell_angle_gamma   59.87519828
_symmetry_Int_Tables_number   1
_chemical_formula_structural   LiEr8CdCo2
_chemical_formula_sum   'Li2 Er16 Cd2 Co4'
_cell_volume   593.96961975
_cell_formula_units_Z   2
loop_
 _symmetry_equiv_pos_site_id
 _symmetry_equiv_pos_as_xyz
  1  'x, y, z'
loop_
 _atom_site_type_symbol
 _atom_site_label
 _atom_site_symmetry_multiplicity
 _atom_site_fract_x
 _atom_site_fract_y
 _atom_site_fract_z
 _atom_site_occupancy
  Li  Li0  1  0.821864  0.821864  0.530179  1
  Li  Li1  1  0.821864  0.821864  0.826090  1
  Er  Er2  1  0.439233  0.439233  0.060767  1
  Er  Er3  1  0.595479  0.595479  0.597957  1
  Er  Er4  1  0.187083  0.812309  0.813374  1
  Er  Er5  1  0.066414  0.066414  0.433586  1
  Er  Er6  1  0.436645  0.064330  0.061690  1
  Er  Er7  1  0.812309  0.187083  0.813374  1
  Er  Er8  1  0.436645  0.064330  0.437335  1
  Er  Er9  1  0.592715  0.219004  0.594141  1
  Er  Er10  1  0.810473  0.810473  0.189527  1
  Er  Er11  1  0.219004  0.592715  0.594141  1
  Er  Er12  1  0.812309  0.187083  0.187234  1
  Er  Er13  1  0.064330  0.436645  0.437335  1
  Er  Er14  1  0.187083  0.812309  0.187234  1
  Er  Er15  1  0.595479  0.595479  0.211085  1
  Er  Er16  1  0.185930  0.185930  0.814070  1
  Er  Er17  1  0.064330  0.436645  0.061690  1
  Cd  Cd18  1  0.508529  0.833717  0.828876  1
  Cd  Cd19  1  0.833717  0.508529  0.828876  1
  Co  Co20  1  0.392964  0.392964  0.387567  1
  Co  Co21  1  0.827863  0.394776  0.388681  1
  Co  Co22  1  0.394776  0.827863  0.388681  1
  Co  Co23  1  0.392964  0.392964  0.826507  1
