# generated using pymatgen
data_Yb2Fe2IrN3
_symmetry_space_group_name_H-M   'P 1'
_cell_length_a   6.18424018
_cell_length_b   6.18423998
_cell_length_c   6.15574148
_cell_angle_alpha   89.35509322
_cell_angle_beta   89.35509613
_cell_angle_gamma   115.92858292
_symmetry_Int_Tables_number   1
_chemical_formula_structural   Yb2Fe2IrN3
_chemical_formula_sum   'Yb4 Fe4 Ir2 N6'
_cell_volume   211.67962608
_cell_formula_units_Z   2
loop_
 _symmetry_equiv_pos_site_id
 _symmetry_equiv_pos_as_xyz
  1  'x, y, z'
loop_
 _atom_site_type_symbol
 _atom_site_label
 _atom_site_symmetry_multiplicity
 _atom_site_fract_x
 _atom_site_fract_y
 _atom_site_fract_z
 _atom_site_occupancy
  Yb  Yb0  1  0.832129  0.674763  0.893455  1
  Yb  Yb1  1  0.325237  0.167871  0.606545  1
  Yb  Yb2  1  0.167871  0.325237  0.106545  1
  Yb  Yb3  1  0.674763  0.832129  0.393455  1
  Fe  Fe4  1  0.562541  0.171235  0.105988  1
  Fe  Fe5  1  0.437459  0.828765  0.894012  1
  Fe  Fe6  1  0.828765  0.437459  0.394012  1
  Fe  Fe7  1  0.171235  0.562541  0.605988  1
  Ir  Ir8  1  0.819217  0.180783  0.750000  1
  Ir  Ir9  1  0.180783  0.819217  0.250000  1
  N  N10  1  0.425097  0.574903  0.750000  1
  N  N11  1  0.574903  0.425097  0.250000  1
  N  N12  1  0.997813  0.735642  0.528156  1
  N  N13  1  0.735642  0.997813  0.028156  1
  N  N14  1  0.002187  0.264358  0.471844  1
  N  N15  1  0.264358  0.002187  0.971844  1
