# generated using pymatgen
data_La4Tb6CoRu3
_symmetry_space_group_name_H-M   'P 1'
_cell_length_a   8.86754393
_cell_length_b   8.84911062
_cell_length_c   7.09449500
_cell_angle_alpha   85.03848106
_cell_angle_beta   84.98902161
_cell_angle_gamma   42.81990620
_symmetry_Int_Tables_number   1
_chemical_formula_structural   La4Tb6CoRu3
_chemical_formula_sum   'La4 Tb6 Co1 Ru3'
_cell_volume   376.73680513
_cell_formula_units_Z   1
loop_
 _symmetry_equiv_pos_site_id
 _symmetry_equiv_pos_as_xyz
  1  'x, y, z'
loop_
 _atom_site_type_symbol
 _atom_site_label
 _atom_site_symmetry_multiplicity
 _atom_site_fract_x
 _atom_site_fract_y
 _atom_site_fract_z
 _atom_site_occupancy
  La  La0  1  0.023532  0.783772  0.899415  1
  La  La1  1  0.211522  0.981432  0.588318  1
  La  La2  1  0.980317  0.211111  0.089037  1
  La  La3  1  0.797130  0.011663  0.409086  1
  Tb  Tb4  1  0.354633  0.214322  0.816621  1
  Tb  Tb5  1  0.784470  0.644479  0.686429  1
  Tb  Tb6  1  0.641353  0.792168  0.184787  1
  Tb  Tb7  1  0.210115  0.362290  0.323830  1
  Tb  Tb8  1  0.570036  0.427316  0.747232  1
  Tb  Tb9  1  0.426907  0.571312  0.251418  1
  Co  Co10  1  0.173797  0.599999  0.585129  1
  Ru  Ru11  1  0.395269  0.828715  0.920200  1
  Ru  Ru12  1  0.827608  0.399660  0.420155  1
  Ru  Ru13  1  0.603314  0.171761  0.078344  1
