# generated using pymatgen
data_Fe2CoMo6PtN2
_symmetry_space_group_name_H-M   'P 1'
_cell_length_a   6.75007733
_cell_length_b   6.74756271
_cell_length_c   6.75346688
_cell_angle_alpha   89.91430242
_cell_angle_beta   90.00971163
_cell_angle_gamma   89.97481470
_symmetry_Int_Tables_number   1
_chemical_formula_structural   Fe2CoMo6PtN2
_chemical_formula_sum   'Fe4 Co2 Mo12 Pt2 N4'
_cell_volume   307.59687446
_cell_formula_units_Z   2
loop_
 _symmetry_equiv_pos_site_id
 _symmetry_equiv_pos_as_xyz
  1  'x, y, z'
loop_
 _atom_site_type_symbol
 _atom_site_label
 _atom_site_symmetry_multiplicity
 _atom_site_fract_x
 _atom_site_fract_y
 _atom_site_fract_z
 _atom_site_occupancy
  Fe  Fe0  1  0.069709  0.565584  0.332947  1
  Fe  Fe1  1  0.427040  0.078724  0.194395  1
  Fe  Fe2  1  0.569436  0.434352  0.667376  1
  Fe  Fe3  1  0.927260  0.921383  0.805267  1
  Co  Co4  1  0.816538  0.680392  0.565964  1
  Co  Co5  1  0.316983  0.319557  0.433963  1
  Mo  Mo6  1  0.622822  0.047261  0.541168  1
  Mo  Mo7  1  0.122495  0.952856  0.459144  1
  Mo  Mo8  1  0.877024  0.552091  0.953577  1
  Mo  Mo9  1  0.377549  0.447961  0.046112  1
  Mo  Mo10  1  0.206593  0.619005  0.697647  1
  Mo  Mo11  1  0.293154  0.126192  0.796449  1
  Mo  Mo12  1  0.793167  0.873962  0.203293  1
  Mo  Mo13  1  0.706550  0.380988  0.302451  1
  Mo  Mo14  1  0.052433  0.210238  0.131403  1
  Mo  Mo15  1  0.951518  0.295166  0.624847  1
  Mo  Mo16  1  0.552366  0.789669  0.868831  1
  Mo  Mo17  1  0.451607  0.704577  0.375137  1
  Pt  Pt18  1  0.684306  0.184076  0.934246  1
  Pt  Pt19  1  0.184007  0.815860  0.065976  1
  N  N20  1  0.373761  0.873807  0.626092  1
  N  N21  1  0.873916  0.126362  0.373839  1
  N  N22  1  0.124873  0.374906  0.876987  1
  N  N23  1  0.624895  0.625029  0.122886  1
