# generated using pymatgen
data_Tb2HoPa(Al8Pt3)3
_symmetry_space_group_name_H-M   'P 1'
_cell_length_a   7.55633035
_cell_length_b   7.56630156
_cell_length_c   13.14529909
_cell_angle_alpha   84.50793688
_cell_angle_beta   78.95312022
_cell_angle_gamma   59.92368097
_symmetry_Int_Tables_number   1
_chemical_formula_structural   Tb2HoPa(Al8Pt3)3
_chemical_formula_sum   'Tb2 Ho1 Pa1 Al24 Pt9'
_cell_volume   638.32007838
_cell_formula_units_Z   1
loop_
 _symmetry_equiv_pos_site_id
 _symmetry_equiv_pos_as_xyz
  1  'x, y, z'
loop_
 _atom_site_type_symbol
 _atom_site_label
 _atom_site_symmetry_multiplicity
 _atom_site_fract_x
 _atom_site_fract_y
 _atom_site_fract_z
 _atom_site_occupancy
  Tb  Tb0  1  0.606215  0.831483  0.192019  1
  Tb  Tb1  1  0.733597  0.498710  0.808083  1
  Ho  Ho2  1  0.266393  0.501271  0.192526  1
  Pa  Pa3  1  0.395232  0.168382  0.804753  1
  Al  Al4  1  0.684466  0.833437  0.944560  1
  Al  Al5  1  0.315137  0.166643  0.055603  1
  Al  Al6  1  0.146629  0.832738  0.560960  1
  Al  Al7  1  0.854465  0.167269  0.437880  1
  Al  Al8  1  0.480668  0.166676  0.558003  1
  Al  Al9  1  0.519946  0.832250  0.440922  1
  Al  Al10  1  0.217303  0.165571  0.330460  1
  Al  Al11  1  0.785376  0.832456  0.669389  1
  Al  Al12  1  0.437359  0.509183  0.669698  1
  Al  Al13  1  0.562258  0.493329  0.329800  1
  Al  Al14  1  0.107892  0.159472  0.668158  1
  Al  Al15  1  0.890325  0.839731  0.331062  1
  Al  Al16  1  0.352309  0.500089  0.944709  1
  Al  Al17  1  0.646915  0.500289  0.056188  1
  Al  Al18  1  0.015004  0.167589  0.953573  1
  Al  Al19  1  0.984478  0.832435  0.047671  1
  Al  Al20  1  0.185818  0.500383  0.440956  1
  Al  Al21  1  0.813589  0.500455  0.558420  1
  Al  Al22  1  0.734275  0.164141  0.183597  1
  Al  Al23  1  0.263592  0.837915  0.817223  1
  Al  Al24  1  0.063083  0.631456  0.815937  1
  Al  Al25  1  0.938956  0.368647  0.184753  1
  Al  Al26  1  0.855804  0.039698  0.816667  1
  Al  Al27  1  0.144408  0.958209  0.184047  1
  Pt  Pt28  1  0.120457  0.490962  0.640021  1
  Pt  Pt29  1  0.880024  0.507946  0.361364  1
  Pt  Pt30  1  0.656620  0.171953  0.999233  1
  Pt  Pt31  1  0.343403  0.828185  0.999554  1
  Pt  Pt32  1  0.537308  0.166859  0.361764  1
  Pt  Pt33  1  0.462119  0.833919  0.639730  1
  Pt  Pt34  1  0.777898  0.175281  0.638624  1
  Pt  Pt35  1  0.220840  0.824804  0.362703  1
  Pt  Pt36  1  0.999838  0.500184  0.999393  1
