# generated using pymatgen
data_BaSr4Al7Ga2
_symmetry_space_group_name_H-M   'P 1'
_cell_length_a   12.30343108
_cell_length_b   12.30343110
_cell_length_c   12.30343254
_cell_angle_alpha   27.64007259
_cell_angle_beta   27.64006981
_cell_angle_gamma   27.64007056
_symmetry_Int_Tables_number   1
_chemical_formula_structural   BaSr4Al7Ga2
_chemical_formula_sum   'Ba1 Sr4 Al7 Ga2'
_cell_volume   353.85124873
_cell_formula_units_Z   1
loop_
 _symmetry_equiv_pos_site_id
 _symmetry_equiv_pos_as_xyz
  1  'x, y, z'
loop_
 _atom_site_type_symbol
 _atom_site_label
 _atom_site_symmetry_multiplicity
 _atom_site_fract_x
 _atom_site_fract_y
 _atom_site_fract_z
 _atom_site_occupancy
  Ba  Ba0  1  0.500000  0.500000  0.500000  1
  Sr  Sr1  1  0.216535  0.216535  0.216535  1
  Sr  Sr2  1  0.783465  0.783465  0.783465  1
  Sr  Sr3  1  0.317772  0.317772  0.317772  1
  Sr  Sr4  1  0.682228  0.682228  0.682228  1
  Al  Al5  1  0.000000  0.000000  0.000000  1
  Al  Al6  1  0.722152  0.238830  0.238830  1
  Al  Al7  1  0.238830  0.238830  0.722152  1
  Al  Al8  1  0.238830  0.722152  0.238830  1
  Al  Al9  1  0.761170  0.277848  0.761170  1
  Al  Al10  1  0.277848  0.761170  0.761170  1
  Al  Al11  1  0.761170  0.761170  0.277848  1
  Ga  Ga12  1  0.124106  0.124106  0.124106  1
  Ga  Ga13  1  0.875894  0.875894  0.875894  1
