# generated using pymatgen
data_Nd3In3PtAu2
_symmetry_space_group_name_H-M   'P 1'
_cell_length_a   7.83560800
_cell_length_b   7.83560836
_cell_length_c   4.13588100
_cell_angle_alpha   90.00000000
_cell_angle_beta   90.00000000
_cell_angle_gamma   119.99999847
_symmetry_Int_Tables_number   1
_chemical_formula_structural   Nd3In3PtAu2
_chemical_formula_sum   'Nd3 In3 Pt1 Au2'
_cell_volume   219.90955254
_cell_formula_units_Z   1
loop_
 _symmetry_equiv_pos_site_id
 _symmetry_equiv_pos_as_xyz
  1  'x, y, z'
loop_
 _atom_site_type_symbol
 _atom_site_label
 _atom_site_symmetry_multiplicity
 _atom_site_fract_x
 _atom_site_fract_y
 _atom_site_fract_z
 _atom_site_occupancy
  Nd  Nd0  1  0.009354  0.591270  0.500000  1
  Nd  Nd1  1  0.581916  0.990646  0.500000  1
  Nd  Nd2  1  0.408730  0.418084  0.500000  1
  In  In3  1  0.002838  0.256981  0.000000  1
  In  In4  1  0.254143  0.997162  0.000000  1
  In  In5  1  0.743019  0.745857  0.000000  1
  Pt  Pt6  1  0.333333  0.666667  0.000000  1
  Au  Au7  1  0.000000  0.000000  0.500000  1
  Au  Au8  1  0.666667  0.333333  0.000000  1
