# generated using pymatgen
data_CaCo3As3Rh2
_symmetry_space_group_name_H-M   'P 1'
_cell_length_a   3.83347800
_cell_length_b   10.96864300
_cell_length_c   12.53537200
_cell_angle_alpha   90.00000000
_cell_angle_beta   90.00000000
_cell_angle_gamma   90.00000000
_symmetry_Int_Tables_number   1
_chemical_formula_structural   CaCo3As3Rh2
_chemical_formula_sum   'Ca4 Co12 As12 Rh8'
_cell_volume   527.08796906
_cell_formula_units_Z   4
loop_
 _symmetry_equiv_pos_site_id
 _symmetry_equiv_pos_as_xyz
  1  'x, y, z'
loop_
 _atom_site_type_symbol
 _atom_site_label
 _atom_site_symmetry_multiplicity
 _atom_site_fract_x
 _atom_site_fract_y
 _atom_site_fract_z
 _atom_site_occupancy
  Ca  Ca0  1  0.250000  0.584561  0.707395  1
  Ca  Ca1  1  0.250000  0.915439  0.207395  1
  Ca  Ca2  1  0.750000  0.415439  0.292605  1
  Ca  Ca3  1  0.750000  0.084561  0.792605  1
  Co  Co4  1  0.250000  0.216925  0.177957  1
  Co  Co5  1  0.250000  0.283075  0.677957  1
  Co  Co6  1  0.750000  0.783075  0.822043  1
  Co  Co7  1  0.750000  0.716925  0.322043  1
  Co  Co8  1  0.250000  0.883721  0.694457  1
  Co  Co9  1  0.250000  0.616279  0.194457  1
  Co  Co10  1  0.750000  0.116279  0.305543  1
  Co  Co11  1  0.750000  0.383721  0.805543  1
  Co  Co12  1  0.250000  0.465072  0.933244  1
  Co  Co13  1  0.250000  0.034928  0.433244  1
  Co  Co14  1  0.750000  0.534928  0.066756  1
  Co  Co15  1  0.750000  0.965072  0.566756  1
  As  As16  1  0.250000  0.418751  0.112897  1
  As  As17  1  0.250000  0.081249  0.612897  1
  As  As18  1  0.750000  0.581249  0.887103  1
  As  As19  1  0.750000  0.918751  0.387103  1
  As  As20  1  0.250000  0.273632  0.864235  1
  As  As21  1  0.250000  0.226368  0.364235  1
  As  As22  1  0.750000  0.726368  0.135765  1
  As  As23  1  0.750000  0.773632  0.635765  1
  As  As24  1  0.250000  0.602107  0.379531  1
  As  As25  1  0.250000  0.897893  0.879531  1
  As  As26  1  0.750000  0.397893  0.620469  1
  As  As27  1  0.750000  0.102107  0.120469  1
  Rh  Rh28  1  0.250000  0.710828  0.987837  1
  Rh  Rh29  1  0.250000  0.789172  0.487837  1
  Rh  Rh30  1  0.750000  0.289172  0.012163  1
  Rh  Rh31  1  0.750000  0.210828  0.512163  1
  Rh  Rh32  1  0.250000  0.406274  0.484408  1
  Rh  Rh33  1  0.250000  0.093726  0.984408  1
  Rh  Rh34  1  0.750000  0.593726  0.515592  1
  Rh  Rh35  1  0.750000  0.906274  0.015592  1
