# generated using pymatgen
data_Li2CeSmAs4
_symmetry_space_group_name_H-M   'P 1'
_cell_length_a   3.97835500
_cell_length_b   3.97835500
_cell_length_c   10.42159900
_cell_angle_alpha   90.00000000
_cell_angle_beta   90.00000000
_cell_angle_gamma   90.00000000
_symmetry_Int_Tables_number   1
_chemical_formula_structural   Li2CeSmAs4
_chemical_formula_sum   'Li2 Ce1 Sm1 As4'
_cell_volume   164.94586250
_cell_formula_units_Z   1
loop_
 _symmetry_equiv_pos_site_id
 _symmetry_equiv_pos_as_xyz
  1  'x, y, z'
loop_
 _atom_site_type_symbol
 _atom_site_label
 _atom_site_symmetry_multiplicity
 _atom_site_fract_x
 _atom_site_fract_y
 _atom_site_fract_z
 _atom_site_occupancy
  Li  Li0  1  0.500000  0.500000  0.498147  1
  Li  Li1  1  0.000000  0.000000  0.498147  1
  Ce  Ce2  1  0.000000  0.500000  0.772718  1
  Sm  Sm3  1  0.500000  0.000000  0.227617  1
  As  As4  1  0.000000  0.000000  0.998222  1
  As  As5  1  0.500000  0.500000  0.998222  1
  As  As6  1  0.000000  0.500000  0.340243  1
  As  As7  1  0.500000  0.000000  0.666680  1
