# generated using pymatgen
data_CeNd(GaCu)2
_symmetry_space_group_name_H-M   'P 1'
_cell_length_a   7.49993400
_cell_length_b   4.57867700
_cell_length_c   7.30328300
_cell_angle_alpha   90.00000000
_cell_angle_beta   90.00000000
_cell_angle_gamma   90.00000000
_symmetry_Int_Tables_number   1
_chemical_formula_structural   CeNd(GaCu)2
_chemical_formula_sum   'Ce2 Nd2 Ga4 Cu4'
_cell_volume   250.79309723
_cell_formula_units_Z   2
loop_
 _symmetry_equiv_pos_site_id
 _symmetry_equiv_pos_as_xyz
  1  'x, y, z'
loop_
 _atom_site_type_symbol
 _atom_site_label
 _atom_site_symmetry_multiplicity
 _atom_site_fract_x
 _atom_site_fract_y
 _atom_site_fract_z
 _atom_site_occupancy
  Ce  Ce0  1  0.517280  0.750001  0.206182  1
  Ce  Ce1  1  0.017279  0.750001  0.293819  1
  Nd  Nd2  1  0.983847  0.250000  0.705456  1
  Nd  Nd3  1  0.483847  0.250000  0.794543  1
  Ga  Ga4  1  0.809307  0.250000  0.095662  1
  Ga  Ga5  1  0.309306  0.250000  0.404339  1
  Ga  Ga6  1  0.693318  0.750001  0.592317  1
  Ga  Ga7  1  0.193317  0.750001  0.907682  1
  Cu  Cu8  1  0.181184  0.250000  0.080747  1
  Cu  Cu9  1  0.681183  0.250000  0.419254  1
  Cu  Cu10  1  0.315065  0.750001  0.575987  1
  Cu  Cu11  1  0.815064  0.750001  0.924012  1
