# generated using pymatgen
data_Cs2SmY(SiSe4)2
_symmetry_space_group_name_H-M   'P 1'
_cell_length_a   7.11595808
_cell_length_b   6.76707978
_cell_length_c   9.86299220
_cell_angle_alpha   72.18145972
_cell_angle_beta   90.08543761
_cell_angle_gamma   90.12782172
_symmetry_Int_Tables_number   1
_chemical_formula_structural   Cs2SmY(SiSe4)2
_chemical_formula_sum   'Cs2 Sm1 Y1 Si2 Se8'
_cell_volume   452.16085045
_cell_formula_units_Z   1
loop_
 _symmetry_equiv_pos_site_id
 _symmetry_equiv_pos_as_xyz
  1  'x, y, z'
loop_
 _atom_site_type_symbol
 _atom_site_label
 _atom_site_symmetry_multiplicity
 _atom_site_fract_x
 _atom_site_fract_y
 _atom_site_fract_z
 _atom_site_occupancy
  Cs  Cs0  1  0.978618  0.735540  0.064114  1
  Cs  Cs1  1  0.478617  0.264346  0.935912  1
  Sm  Sm2  1  0.498747  0.227870  0.455098  1
  Y  Y3  1  0.000552  0.770539  0.545365  1
  Si  Si4  1  0.462399  0.782166  0.337194  1
  Si  Si5  1  0.962248  0.217912  0.662732  1
  Se  Se6  1  0.469579  0.584197  0.188029  1
  Se  Se7  1  0.227302  0.026703  0.293548  1
  Se  Se8  1  0.731711  0.980148  0.312662  1
  Se  Se9  1  0.899639  0.427071  0.437175  1
  Se  Se10  1  0.396608  0.578365  0.563765  1
  Se  Se11  1  0.227526  0.015607  0.688171  1
  Se  Se12  1  0.730412  0.969322  0.707106  1
  Se  Se13  1  0.970042  0.420214  0.809128  1
