# generated using pymatgen
data_Ac6SiSnI6
_symmetry_space_group_name_H-M   'P 1'
_cell_length_a   11.63160290
_cell_length_b   11.63151373
_cell_length_c   11.50767976
_cell_angle_alpha   109.46400324
_cell_angle_beta   109.46425620
_cell_angle_gamma   109.91755633
_symmetry_Int_Tables_number   1
_chemical_formula_structural   Ac6SiSnI6
_chemical_formula_sum   'Ac12 Si2 Sn2 I12'
_cell_volume   1192.05647830
_cell_formula_units_Z   2
loop_
 _symmetry_equiv_pos_site_id
 _symmetry_equiv_pos_as_xyz
  1  'x, y, z'
loop_
 _atom_site_type_symbol
 _atom_site_label
 _atom_site_symmetry_multiplicity
 _atom_site_fract_x
 _atom_site_fract_y
 _atom_site_fract_z
 _atom_site_occupancy
  Ac  Ac0  1  0.470686  0.493228  0.228679  1
  Ac  Ac1  1  0.764550  0.242006  0.271321  1
  Ac  Ac2  1  0.763821  0.021491  0.494068  1
  Ac  Ac3  1  0.230245  0.472578  0.494067  1
  Ac  Ac4  1  0.257991  0.735448  0.228676  1
  Ac  Ac5  1  0.027422  0.269755  0.005933  1
  Ac  Ac6  1  0.006768  0.029312  0.271320  1
  Ac  Ac7  1  0.478512  0.736180  0.005931  1
  Ac  Ac8  1  0.491639  0.241637  0.483276  1
  Ac  Ac9  1  0.018675  0.481323  0.750000  1
  Ac  Ac10  1  0.258366  0.008366  0.016728  1
  Ac  Ac11  1  0.231324  0.268674  0.749998  1
  Si  Si12  1  0.000541  0.250541  0.501083  1
  Si  Si13  1  0.249458  0.499459  0.998915  1
  Sn  Sn14  1  0.249989  0.250012  0.250001  1
  Sn  Sn15  1  0.500011  0.999986  0.249999  1
  I  I16  1  0.249629  0.756564  0.742122  1
  I  I17  1  0.514441  0.507506  0.757877  1
  I  I18  1  0.986864  0.743037  0.993334  1
  I  I19  1  0.743436  0.250371  0.757878  1
  I  I20  1  0.992495  0.985559  0.742124  1
  I  I21  1  0.249704  0.993531  0.506667  1
  I  I22  1  0.756964  0.513136  0.506667  1
  I  I23  1  0.506469  0.250298  0.993334  1
  I  I24  1  0.757427  0.742573  0.250002  1
  I  I25  1  0.743562  0.993563  0.987124  1
  I  I26  1  0.992572  0.507427  0.250000  1
  I  I27  1  0.506438  0.756438  0.512876  1
