# generated using pymatgen
data_YbYGaIr2
_symmetry_space_group_name_H-M   'P 1'
_cell_length_a   5.70494891
_cell_length_b   5.70494793
_cell_length_c   7.72118987
_cell_angle_alpha   102.21186770
_cell_angle_beta   102.21186725
_cell_angle_gamma   58.11325757
_symmetry_Int_Tables_number   1
_chemical_formula_structural   YbYGaIr2
_chemical_formula_sum   'Yb2 Y2 Ga2 Ir4'
_cell_volume   207.03353215
_cell_formula_units_Z   2
loop_
 _symmetry_equiv_pos_site_id
 _symmetry_equiv_pos_as_xyz
  1  'x, y, z'
loop_
 _atom_site_type_symbol
 _atom_site_label
 _atom_site_symmetry_multiplicity
 _atom_site_fract_x
 _atom_site_fract_y
 _atom_site_fract_z
 _atom_site_occupancy
  Yb  Yb0  1  0.499957  0.790873  0.645309  1
  Yb  Yb1  1  0.209127  0.500043  0.854691  1
  Y  Y2  1  0.792367  0.497415  0.144644  1
  Y  Y3  1  0.502585  0.207633  0.355355  1
  Ga  Ga4  1  0.118095  0.881905  0.249999  1
  Ga  Ga5  1  0.891235  0.108765  0.750000  1
  Ir  Ir6  1  0.288158  0.996044  0.016403  1
  Ir  Ir7  1  0.003955  0.711842  0.483597  1
  Ir  Ir8  1  0.980949  0.286427  0.508341  1
  Ir  Ir9  1  0.713572  0.019050  0.991660  1
