# generated using pymatgen
data_SrY3P7Ir8
_symmetry_space_group_name_H-M   'P 1'
_cell_length_a   3.97479400
_cell_length_b   12.77476769
_cell_length_c   13.12606879
_cell_angle_alpha   81.41922942
_cell_angle_beta   90.00000000
_cell_angle_gamma   90.00000000
_symmetry_Int_Tables_number   1
_chemical_formula_structural   SrY3P7Ir8
_chemical_formula_sum   'Sr2 Y6 P14 Ir16'
_cell_volume   659.04281626
_cell_formula_units_Z   2
loop_
 _symmetry_equiv_pos_site_id
 _symmetry_equiv_pos_as_xyz
  1  'x, y, z'
loop_
 _atom_site_type_symbol
 _atom_site_label
 _atom_site_symmetry_multiplicity
 _atom_site_fract_x
 _atom_site_fract_y
 _atom_site_fract_z
 _atom_site_occupancy
  Sr  Sr0  1  0.250000  0.107825  0.789118  1
  Sr  Sr1  1  0.750000  0.892175  0.210882  1
  Y  Y2  1  0.250000  0.280374  0.102158  1
  Y  Y3  1  0.750000  0.719626  0.897842  1
  Y  Y4  1  0.250000  0.520344  0.293925  1
  Y  Y5  1  0.750000  0.479656  0.706075  1
  Y  Y6  1  0.250000  0.209173  0.440425  1
  Y  Y7  1  0.750000  0.790827  0.559575  1
  P  P8  1  0.250000  0.056475  0.098750  1
  P  P9  1  0.750000  0.943525  0.901250  1
  P  P10  1  0.250000  0.317481  0.685635  1
  P  P11  1  0.750000  0.682519  0.314365  1
  P  P12  1  0.250000  0.608660  0.566813  1
  P  P13  1  0.750000  0.391340  0.433187  1
  P  P14  1  0.250000  0.842254  0.718478  1
  P  P15  1  0.750000  0.157746  0.281522  1
  P  P16  1  0.750000  0.259691  0.921416  1
  P  P17  1  0.250000  0.740309  0.078584  1
  P  P18  1  0.750000  0.092938  0.586951  1
  P  P19  1  0.250000  0.907062  0.413049  1
  P  P20  1  0.750000  0.472503  0.129133  1
  P  P21  1  0.250000  0.527497  0.870867  1
  Ir  Ir22  1  0.250000  0.987258  0.576132  1
  Ir  Ir23  1  0.750000  0.012742  0.423868  1
  Ir  Ir24  1  0.250000  0.662289  0.732652  1
  Ir  Ir25  1  0.750000  0.337711  0.267348  1
  Ir  Ir26  1  0.250000  0.554413  0.045361  1
  Ir  Ir27  1  0.750000  0.445587  0.954639  1
  Ir  Ir28  1  0.250000  0.067040  0.272681  1
  Ir  Ir29  1  0.750000  0.932960  0.727319  1
  Ir  Ir30  1  0.250000  0.423805  0.522481  1
  Ir  Ir31  1  0.750000  0.576195  0.477519  1
  Ir  Ir32  1  0.250000  0.915763  0.996546  1
  Ir  Ir33  1  0.750000  0.084237  0.003454  1
  Ir  Ir34  1  0.250000  0.726685  0.400380  1
  Ir  Ir35  1  0.750000  0.273315  0.599620  1
  Ir  Ir36  1  0.250000  0.344293  0.857802  1
  Ir  Ir37  1  0.750000  0.655707  0.142198  1
