# generated using pymatgen
data_Nd4CdPb11
_symmetry_space_group_name_H-M   'P 1'
_cell_length_a   9.84923600
_cell_length_b   6.95080418
_cell_length_c   6.95195012
_cell_angle_alpha   89.93460143
_cell_angle_beta   90.00000000
_cell_angle_gamma   90.00000000
_symmetry_Int_Tables_number   1
_chemical_formula_structural   Nd4CdPb11
_chemical_formula_sum   'Nd4 Cd1 Pb11'
_cell_volume   475.93096520
_cell_formula_units_Z   1
loop_
 _symmetry_equiv_pos_site_id
 _symmetry_equiv_pos_as_xyz
  1  'x, y, z'
loop_
 _atom_site_type_symbol
 _atom_site_label
 _atom_site_symmetry_multiplicity
 _atom_site_fract_x
 _atom_site_fract_y
 _atom_site_fract_z
 _atom_site_occupancy
  Nd  Nd0  1  0.250000  0.002905  0.001367  1
  Nd  Nd1  1  0.250000  0.498398  0.501885  1
  Nd  Nd2  1  0.750000  0.998049  0.999129  1
  Nd  Nd3  1  0.750000  0.501673  0.498735  1
  Cd  Cd4  1  0.750000  0.496753  0.997848  1
  Pb  Pb5  1  0.995661  0.250001  0.750015  1
  Pb  Pb6  1  0.505407  0.254556  0.245507  1
  Pb  Pb7  1  0.503626  0.749384  0.249491  1
  Pb  Pb8  1  0.995310  0.745463  0.754646  1
  Pb  Pb9  1  0.996374  0.749384  0.249491  1
  Pb  Pb10  1  0.504690  0.745463  0.754646  1
  Pb  Pb11  1  0.504339  0.250001  0.750015  1
  Pb  Pb12  1  0.994593  0.254556  0.245507  1
  Pb  Pb13  1  0.250000  0.998790  0.500641  1
  Pb  Pb14  1  0.250000  0.502681  0.001665  1
  Pb  Pb15  1  0.750000  0.001940  0.499413  1
