# generated using pymatgen
data_Lu2Co5Si14Rh
_symmetry_space_group_name_H-M   'P 1'
_cell_length_a   7.68927789
_cell_length_b   7.67193321
_cell_length_c   7.67193195
_cell_angle_alpha   57.48166914
_cell_angle_beta   57.30350940
_cell_angle_gamma   57.30350575
_symmetry_Int_Tables_number   1
_chemical_formula_structural   Lu2Co5Si14Rh
_chemical_formula_sum   'Lu2 Co5 Si14 Rh1'
_cell_volume   300.59642984
_cell_formula_units_Z   1
loop_
 _symmetry_equiv_pos_site_id
 _symmetry_equiv_pos_as_xyz
  1  'x, y, z'
loop_
 _atom_site_type_symbol
 _atom_site_label
 _atom_site_symmetry_multiplicity
 _atom_site_fract_x
 _atom_site_fract_y
 _atom_site_fract_z
 _atom_site_occupancy
  Lu  Lu0  1  0.000850  0.998904  0.000613  1
  Lu  Lu1  1  0.499150  0.499387  0.501096  1
  Co  Co2  1  0.070832  0.428676  0.750818  1
  Co  Co3  1  0.250000  0.927853  0.572147  1
  Co  Co4  1  0.570482  0.250734  0.928251  1
  Co  Co5  1  0.929518  0.571749  0.249266  1
  Co  Co6  1  0.429168  0.749182  0.071324  1
  Si  Si7  1  0.750000  0.739905  0.760095  1
  Si  Si8  1  0.250000  0.250708  0.249292  1
  Si  Si9  1  0.855800  0.072739  0.671774  1
  Si  Si10  1  0.666419  0.850219  0.072316  1
  Si  Si11  1  0.074823  0.666004  0.850035  1
  Si  Si12  1  0.644200  0.828226  0.427261  1
  Si  Si13  1  0.425177  0.649965  0.833996  1
  Si  Si14  1  0.833581  0.427684  0.649781  1
  Si  Si15  1  0.163920  0.574784  0.350994  1
  Si  Si16  1  0.567387  0.358789  0.158340  1
  Si  Si17  1  0.339856  0.168335  0.575603  1
  Si  Si18  1  0.932613  0.341660  0.141211  1
  Si  Si19  1  0.336080  0.149006  0.925216  1
  Si  Si20  1  0.160144  0.924397  0.331665  1
  Rh  Rh21  1  0.750000  0.071094  0.428906  1
