# generated using pymatgen
data_Ti13Al9(OsPt)4
_symmetry_space_group_name_H-M   'P 1'
_cell_length_a   8.78897456
_cell_length_b   8.78897437
_cell_length_c   8.78729905
_cell_angle_alpha   59.64893685
_cell_angle_beta   59.64893739
_cell_angle_gamma   59.63331698
_symmetry_Int_Tables_number   1
_chemical_formula_structural   Ti13Al9(OsPt)4
_chemical_formula_sum   'Ti13 Al9 Os4 Pt4'
_cell_volume   476.08739752
_cell_formula_units_Z   1
loop_
 _symmetry_equiv_pos_site_id
 _symmetry_equiv_pos_as_xyz
  1  'x, y, z'
loop_
 _atom_site_type_symbol
 _atom_site_label
 _atom_site_symmetry_multiplicity
 _atom_site_fract_x
 _atom_site_fract_y
 _atom_site_fract_z
 _atom_site_occupancy
  Ti  Ti0  1  0.211491  0.211491  0.785476  1
  Ti  Ti1  1  0.784455  0.212531  0.213883  1
  Ti  Ti2  1  0.212531  0.784455  0.213883  1
  Ti  Ti3  1  0.796999  0.796999  0.196020  1
  Ti  Ti4  1  0.192221  0.800257  0.796443  1
  Ti  Ti5  1  0.800257  0.192221  0.796443  1
  Ti  Ti6  1  0.376533  0.376533  0.382850  1
  Ti  Ti7  1  0.381785  0.864134  0.382497  1
  Ti  Ti8  1  0.864134  0.381785  0.382497  1
  Ti  Ti9  1  0.381088  0.381088  0.862480  1
  Ti  Ti10  1  0.847878  0.465908  0.841621  1
  Ti  Ti11  1  0.465908  0.847878  0.841621  1
  Ti  Ti12  1  0.843368  0.843368  0.467657  1
  Al  Al13  1  0.151060  0.151060  0.151227  1
  Al  Al14  1  0.155222  0.531966  0.161116  1
  Al  Al15  1  0.531966  0.155222  0.161116  1
  Al  Al16  1  0.160892  0.160892  0.526203  1
  Al  Al17  1  0.622335  0.622335  0.614988  1
  Al  Al18  1  0.617351  0.143406  0.616141  1
  Al  Al19  1  0.143406  0.617351  0.616141  1
  Al  Al20  1  0.619475  0.619475  0.143357  1
  Al  Al21  1  0.829048  0.829048  0.828626  1
  Os  Os22  1  0.999638  0.499699  0.501568  1
  Os  Os23  1  0.499699  0.999638  0.501568  1
  Os  Os24  1  0.500598  0.500598  0.501113  1
  Os  Os25  1  0.004324  0.004324  0.006399  1
  Pt  Pt26  1  0.004456  0.004456  0.498832  1
  Pt  Pt27  1  0.498707  0.005513  0.003270  1
  Pt  Pt28  1  0.005513  0.498707  0.003270  1
  Pt  Pt29  1  0.497656  0.497656  0.001694  1
