# generated using pymatgen
data_Sm2TmHf3(SnRh)6
_symmetry_space_group_name_H-M   'P 1'
_cell_length_a   7.49174002
_cell_length_b   7.48258655
_cell_length_c   7.57301100
_cell_angle_alpha   90.00000000
_cell_angle_beta   90.00000000
_cell_angle_gamma   120.04870366
_symmetry_Int_Tables_number   1
_chemical_formula_structural   Sm2TmHf3(SnRh)6
_chemical_formula_sum   'Sm2 Tm1 Hf3 Sn6 Rh6'
_cell_volume   367.46867043
_cell_formula_units_Z   1
loop_
 _symmetry_equiv_pos_site_id
 _symmetry_equiv_pos_as_xyz
  1  'x, y, z'
loop_
 _atom_site_type_symbol
 _atom_site_label
 _atom_site_symmetry_multiplicity
 _atom_site_fract_x
 _atom_site_fract_y
 _atom_site_fract_z
 _atom_site_occupancy
  Sm  Sm0  1  0.999907  0.407183  0.750000  1
  Sm  Sm1  1  0.592743  0.592727  0.750000  1
  Tm  Tm2  1  0.404688  0.000162  0.750000  1
  Hf  Hf3  1  0.998991  0.393003  0.250000  1
  Hf  Hf4  1  0.606637  0.606345  0.250000  1
  Hf  Hf5  1  0.394635  0.000628  0.250000  1
  Sn  Sn6  1  0.266102  0.265255  0.490439  1
  Sn  Sn7  1  0.001843  0.735296  0.490499  1
  Sn  Sn8  1  0.001843  0.735296  0.009501  1
  Sn  Sn9  1  0.732605  0.999619  0.493613  1
  Sn  Sn10  1  0.732605  0.999619  0.006387  1
  Sn  Sn11  1  0.266102  0.265255  0.009561  1
  Rh  Rh12  1  0.333545  0.668084  0.456963  1
  Rh  Rh13  1  0.665343  0.331766  0.457951  1
  Rh  Rh14  1  0.333545  0.668084  0.043037  1
  Rh  Rh15  1  0.004883  0.999969  0.750000  1
  Rh  Rh16  1  0.998637  0.999944  0.250000  1
  Rh  Rh17  1  0.665343  0.331766  0.042049  1
