# generated using pymatgen
data_Ho2Tm3Ir2
_symmetry_space_group_name_H-M   'P 1'
_cell_length_a   6.41641634
_cell_length_b   7.16212076
_cell_length_c   8.43398478
_cell_angle_alpha   96.68543893
_cell_angle_beta   112.35786969
_cell_angle_gamma   89.99999885
_symmetry_Int_Tables_number   1
_chemical_formula_structural   Ho2Tm3Ir2
_chemical_formula_sum   'Ho4 Tm6 Ir4'
_cell_volume   355.59735481
_cell_formula_units_Z   2
loop_
 _symmetry_equiv_pos_site_id
 _symmetry_equiv_pos_as_xyz
  1  'x, y, z'
loop_
 _atom_site_type_symbol
 _atom_site_label
 _atom_site_symmetry_multiplicity
 _atom_site_fract_x
 _atom_site_fract_y
 _atom_site_fract_z
 _atom_site_occupancy
  Ho  Ho0  1  0.971565  0.918896  0.184372  1
  Ho  Ho1  1  0.787192  0.581104  0.815628  1
  Ho  Ho2  1  0.028435  0.081104  0.815628  1
  Ho  Ho3  1  0.212808  0.418896  0.184372  1
  Tm  Tm4  1  0.652601  0.817584  0.440952  1
  Tm  Tm5  1  0.211649  0.682416  0.559048  1
  Tm  Tm6  1  0.347399  0.182416  0.559048  1
  Tm  Tm7  1  0.788351  0.317584  0.440952  1
  Tm  Tm8  1  0.427674  0.750000  0.000000  1
  Tm  Tm9  1  0.572326  0.250000  0.000000  1
  Ir  Ir10  1  0.824371  0.573065  0.219520  1
  Ir  Ir11  1  0.604852  0.926935  0.780480  1
  Ir  Ir12  1  0.175630  0.426935  0.780480  1
  Ir  Ir13  1  0.395148  0.073065  0.219520  1
