# generated using pymatgen
data_Tb10SiSn6Au
_symmetry_space_group_name_H-M   'P 1'
_cell_length_a   9.20028100
_cell_length_b   9.20028119
_cell_length_c   6.76404400
_cell_angle_alpha   90.00000000
_cell_angle_beta   90.00000000
_cell_angle_gamma   120.00000291
_symmetry_Int_Tables_number   1
_chemical_formula_structural   Tb10SiSn6Au
_chemical_formula_sum   'Tb10 Si1 Sn6 Au1'
_cell_volume   495.83734795
_cell_formula_units_Z   1
loop_
 _symmetry_equiv_pos_site_id
 _symmetry_equiv_pos_as_xyz
  1  'x, y, z'
loop_
 _atom_site_type_symbol
 _atom_site_label
 _atom_site_symmetry_multiplicity
 _atom_site_fract_x
 _atom_site_fract_y
 _atom_site_fract_z
 _atom_site_occupancy
  Tb  Tb0  1  0.254550  0.000000  0.733009  1
  Tb  Tb1  1  0.745450  0.000000  0.266991  1
  Tb  Tb2  1  0.000000  0.254550  0.733009  1
  Tb  Tb3  1  0.000000  0.745450  0.266991  1
  Tb  Tb4  1  0.745450  0.745450  0.733009  1
  Tb  Tb5  1  0.254550  0.254550  0.266991  1
  Tb  Tb6  1  0.333333  0.666667  0.500000  1
  Tb  Tb7  1  0.666667  0.333333  0.500000  1
  Tb  Tb8  1  0.666667  0.333333  0.000000  1
  Tb  Tb9  1  0.333333  0.666667  0.000000  1
  Si  Si10  1  0.000000  0.000000  0.500000  1
  Sn  Sn11  1  0.605953  0.000000  0.749922  1
  Sn  Sn12  1  0.394047  0.000000  0.250078  1
  Sn  Sn13  1  0.000000  0.605953  0.749922  1
  Sn  Sn14  1  0.000000  0.394047  0.250078  1
  Sn  Sn15  1  0.394047  0.394047  0.749922  1
  Sn  Sn16  1  0.605953  0.605953  0.250078  1
  Au  Au17  1  0.000000  0.000000  0.000000  1
