# generated using pymatgen
data_Nd4Zn4IrPdRh2
_symmetry_space_group_name_H-M   'P 1'
_cell_length_a   4.03330200
_cell_length_b   7.39810725
_cell_length_c   16.72707019
_cell_angle_alpha   89.99325589
_cell_angle_beta   90.00000000
_cell_angle_gamma   90.00000000
_symmetry_Int_Tables_number   1
_chemical_formula_structural   Nd4Zn4IrPdRh2
_chemical_formula_sum   'Nd8 Zn8 Ir2 Pd2 Rh4'
_cell_volume   499.11571132
_cell_formula_units_Z   2
loop_
 _symmetry_equiv_pos_site_id
 _symmetry_equiv_pos_as_xyz
  1  'x, y, z'
loop_
 _atom_site_type_symbol
 _atom_site_label
 _atom_site_symmetry_multiplicity
 _atom_site_fract_x
 _atom_site_fract_y
 _atom_site_fract_z
 _atom_site_occupancy
  Nd  Nd0  1  0.250000  0.170106  0.937924  1
  Nd  Nd1  1  0.250000  0.669776  0.566980  1
  Nd  Nd2  1  0.750000  0.328751  0.444587  1
  Nd  Nd3  1  0.750000  0.944677  0.279148  1
  Nd  Nd4  1  0.750000  0.829964  0.058459  1
  Nd  Nd5  1  0.750000  0.451598  0.212176  1
  Nd  Nd6  1  0.250000  0.050948  0.716314  1
  Nd  Nd7  1  0.250000  0.548532  0.786562  1
  Zn  Zn8  1  0.750000  0.004202  0.564300  1
  Zn  Zn9  1  0.250000  0.622742  0.345602  1
  Zn  Zn10  1  0.750000  0.380777  0.652998  1
  Zn  Zn11  1  0.250000  0.498082  0.058504  1
  Zn  Zn12  1  0.750000  0.500953  0.939774  1
  Zn  Zn13  1  0.250000  0.998377  0.440626  1
  Zn  Zn14  1  0.250000  0.120261  0.148055  1
  Zn  Zn15  1  0.750000  0.879751  0.848768  1
  Ir  Ir16  1  0.750000  0.253309  0.814102  1
  Ir  Ir17  1  0.750000  0.755464  0.686217  1
  Pd  Pd18  1  0.750000  0.756139  0.433576  1
  Pd  Pd19  1  0.250000  0.243690  0.313785  1
  Rh  Rh20  1  0.250000  0.245996  0.563826  1
  Rh  Rh21  1  0.250000  0.743976  0.186683  1
  Rh  Rh22  1  0.750000  0.256419  0.065831  1
  Rh  Rh23  1  0.250000  0.745509  0.935203  1
