# generated using pymatgen
data_Tb6HoEr9(In3Co)2
_symmetry_space_group_name_H-M   'P 1'
_cell_length_a   10.33344300
_cell_length_b   10.33344399
_cell_length_c   6.98471500
_cell_angle_alpha   90.00000000
_cell_angle_beta   90.00000000
_cell_angle_gamma   120.00000003
_symmetry_Int_Tables_number   1
_chemical_formula_structural   Tb6HoEr9(In3Co)2
_chemical_formula_sum   'Tb6 Ho1 Er9 In6 Co2'
_cell_volume   645.90620945
_cell_formula_units_Z   1
loop_
 _symmetry_equiv_pos_site_id
 _symmetry_equiv_pos_as_xyz
  1  'x, y, z'
loop_
 _atom_site_type_symbol
 _atom_site_label
 _atom_site_symmetry_multiplicity
 _atom_site_fract_x
 _atom_site_fract_y
 _atom_site_fract_z
 _atom_site_occupancy
  Tb  Tb0  1  0.534675  0.069351  0.504363  1
  Tb  Tb1  1  0.930649  0.465325  0.504363  1
  Tb  Tb2  1  0.534675  0.465325  0.504363  1
  Tb  Tb3  1  0.465328  0.930657  0.004381  1
  Tb  Tb4  1  0.069343  0.534672  0.004381  1
  Tb  Tb5  1  0.465328  0.534672  0.004381  1
  Ho  Ho6  1  0.000000  0.000000  0.994228  1
  Er  Er7  1  0.178138  0.356274  0.712228  1
  Er  Er8  1  0.643726  0.821862  0.712228  1
  Er  Er9  1  0.178138  0.821862  0.712228  1
  Er  Er10  1  0.821836  0.643672  0.212415  1
  Er  Er11  1  0.356328  0.178164  0.212415  1
  Er  Er12  1  0.821836  0.178164  0.212415  1
  Er  Er13  1  0.666667  0.333333  0.896962  1
  Er  Er14  1  0.333333  0.666667  0.397022  1
  Er  Er15  1  0.000000  0.000000  0.494160  1
  In  In16  1  0.837438  0.674876  0.752165  1
  In  In17  1  0.325124  0.162562  0.752165  1
  In  In18  1  0.837438  0.162562  0.752165  1
  In  In19  1  0.162563  0.325127  0.252347  1
  In  In20  1  0.674873  0.837437  0.252347  1
  In  In21  1  0.162563  0.837437  0.252347  1
  Co  Co22  1  0.666667  0.333333  0.280925  1
  Co  Co23  1  0.333333  0.666667  0.781055  1
