# generated using pymatgen
data_TbPr6PBr12
_symmetry_space_group_name_H-M   'P 1'
_cell_length_a   9.53251213
_cell_length_b   9.53251178
_cell_length_c   9.53251115
_cell_angle_alpha   107.63328293
_cell_angle_beta   107.63327923
_cell_angle_gamma   107.63327102
_symmetry_Int_Tables_number   1
_chemical_formula_structural   TbPr6PBr12
_chemical_formula_sum   'Tb1 Pr6 P1 Br12'
_cell_volume   708.55473802
_cell_formula_units_Z   1
loop_
 _symmetry_equiv_pos_site_id
 _symmetry_equiv_pos_as_xyz
  1  'x, y, z'
loop_
 _atom_site_type_symbol
 _atom_site_label
 _atom_site_symmetry_multiplicity
 _atom_site_fract_x
 _atom_site_fract_y
 _atom_site_fract_z
 _atom_site_occupancy
  Tb  Tb0  1  0.500000  0.500000  0.500000  1
  Pr  Pr1  1  0.105369  0.315253  0.028621  1
  Pr  Pr2  1  0.315253  0.028622  0.105368  1
  Pr  Pr3  1  0.028622  0.105368  0.315254  1
  Pr  Pr4  1  0.971379  0.894632  0.684747  1
  Pr  Pr5  1  0.684747  0.971379  0.894632  1
  Pr  Pr6  1  0.894631  0.684747  0.971379  1
  P  P7  1  0.000000  0.000000  0.000000  1
  Br  Br8  1  0.223970  0.685716  0.074600  1
  Br  Br9  1  0.468394  0.389817  0.172651  1
  Br  Br10  1  0.685717  0.074600  0.223970  1
  Br  Br11  1  0.925401  0.776030  0.314284  1
  Br  Br12  1  0.172651  0.468394  0.389817  1
  Br  Br13  1  0.389817  0.172651  0.468394  1
  Br  Br14  1  0.610183  0.827349  0.531607  1
  Br  Br15  1  0.827350  0.531606  0.610183  1
  Br  Br16  1  0.074600  0.223970  0.685717  1
  Br  Br17  1  0.314284  0.925401  0.776030  1
  Br  Br18  1  0.531606  0.610183  0.827350  1
  Br  Br19  1  0.776030  0.314284  0.925400  1
