# generated using pymatgen
data_RbPr6RuI12
_symmetry_space_group_name_H-M   'P 1'
_cell_length_a   10.17892980
_cell_length_b   10.17892976
_cell_length_c   10.17893005
_cell_angle_alpha   105.01045892
_cell_angle_beta   105.01045716
_cell_angle_gamma   105.01044606
_symmetry_Int_Tables_number   1
_chemical_formula_structural   RbPr6RuI12
_chemical_formula_sum   'Rb1 Pr6 Ru1 I12'
_cell_volume   921.84571145
_cell_formula_units_Z   1
loop_
 _symmetry_equiv_pos_site_id
 _symmetry_equiv_pos_as_xyz
  1  'x, y, z'
loop_
 _atom_site_type_symbol
 _atom_site_label
 _atom_site_symmetry_multiplicity
 _atom_site_fract_x
 _atom_site_fract_y
 _atom_site_fract_z
 _atom_site_occupancy
  Rb  Rb0  1  0.500000  0.500000  0.500000  1
  Pr  Pr1  1  0.091815  0.295989  0.015544  1
  Pr  Pr2  1  0.295989  0.015545  0.091814  1
  Pr  Pr3  1  0.015545  0.091814  0.295990  1
  Pr  Pr4  1  0.984456  0.908186  0.704011  1
  Pr  Pr5  1  0.704011  0.984456  0.908186  1
  Pr  Pr6  1  0.908185  0.704011  0.984456  1
  Ru  Ru7  1  0.000000  0.000000  0.000000  1
  I  I8  1  0.223764  0.676579  0.076696  1
  I  I9  1  0.428828  0.344657  0.110062  1
  I  I10  1  0.676580  0.076696  0.223764  1
  I  I11  1  0.923305  0.776236  0.323421  1
  I  I12  1  0.110062  0.428828  0.344657  1
  I  I13  1  0.344657  0.110062  0.428828  1
  I  I14  1  0.655343  0.889938  0.571173  1
  I  I15  1  0.889939  0.571172  0.655343  1
  I  I16  1  0.076696  0.223764  0.676580  1
  I  I17  1  0.323421  0.923305  0.776236  1
  I  I18  1  0.571172  0.655343  0.889939  1
  I  I19  1  0.776236  0.323421  0.923304  1
