# generated using pymatgen
data_Be3Si3Ir5Ru
_symmetry_space_group_name_H-M   'P 1'
_cell_length_a   4.07371400
_cell_length_b   5.77158100
_cell_length_c   12.24750300
_cell_angle_alpha   90.00000000
_cell_angle_beta   90.00042617
_cell_angle_gamma   90.00000000
_symmetry_Int_Tables_number   1
_chemical_formula_structural   Be3Si3Ir5Ru
_chemical_formula_sum   'Be6 Si6 Ir10 Ru2'
_cell_volume   287.96047755
_cell_formula_units_Z   2
loop_
 _symmetry_equiv_pos_site_id
 _symmetry_equiv_pos_as_xyz
  1  'x, y, z'
loop_
 _atom_site_type_symbol
 _atom_site_label
 _atom_site_symmetry_multiplicity
 _atom_site_fract_x
 _atom_site_fract_y
 _atom_site_fract_z
 _atom_site_occupancy
  Be  Be0  1  0.999999  0.500001  0.995857  1
  Be  Be1  1  0.499675  0.000000  0.165018  1
  Be  Be2  1  0.999676  0.500001  0.333327  1
  Be  Be3  1  0.500001  0.000000  0.501654  1
  Be  Be4  1  0.000337  0.500001  0.670820  1
  Be  Be5  1  0.500329  0.000001  0.833327  1
  Si  Si6  1  0.000000  0.000000  0.993054  1
  Si  Si7  1  0.499787  0.500000  0.165690  1
  Si  Si8  1  0.999796  0.000001  0.333334  1
  Si  Si9  1  0.500001  0.500000  0.500975  1
  Si  Si10  1  0.000215  0.000001  0.673614  1
  Si  Si11  1  0.500199  0.500000  0.833334  1
  Ir  Ir12  1  0.499995  0.249687  0.002512  1
  Ir  Ir13  1  0.499995  0.750313  0.002512  1
  Ir  Ir14  1  0.999844  0.249279  0.167736  1
  Ir  Ir15  1  0.999844  0.750721  0.167736  1
  Ir  Ir16  1  0.499848  0.250442  0.333332  1
  Ir  Ir17  1  0.499848  0.749559  0.333332  1
  Ir  Ir18  1  0.000002  0.249280  0.498930  1
  Ir  Ir19  1  0.000002  0.750720  0.498930  1
  Ir  Ir20  1  0.500159  0.249690  0.664154  1
  Ir  Ir21  1  0.500158  0.750311  0.664154  1
  Ru  Ru22  1  0.000147  0.251642  0.833334  1
  Ru  Ru23  1  0.000146  0.748358  0.833334  1
