# generated using pymatgen
data_Er11TmInCo4Cu
_symmetry_space_group_name_H-M   'P 1'
_cell_length_a   8.22740659
_cell_length_b   8.22864660
_cell_length_c   8.22740764
_cell_angle_alpha   111.12333117
_cell_angle_beta   110.78016940
_cell_angle_gamma   106.54347937
_symmetry_Int_Tables_number   1
_chemical_formula_structural   Er11TmInCo4Cu
_chemical_formula_sum   'Er11 Tm1 In1 Co4 Cu1'
_cell_volume   427.97203480
_cell_formula_units_Z   1
loop_
 _symmetry_equiv_pos_site_id
 _symmetry_equiv_pos_as_xyz
  1  'x, y, z'
loop_
 _atom_site_type_symbol
 _atom_site_label
 _atom_site_symmetry_multiplicity
 _atom_site_fract_x
 _atom_site_fract_y
 _atom_site_fract_z
 _atom_site_occupancy
  Er  Er0  1  0.418205  0.218075  0.199650  1
  Er  Er1  1  0.582235  0.781777  0.800565  1
  Er  Er2  1  0.018424  0.218075  0.799869  1
  Er  Er3  1  0.981212  0.781777  0.199542  1
  Er  Er4  1  0.185851  0.290431  0.476704  1
  Er  Er5  1  0.813795  0.709526  0.522899  1
  Er  Er6  1  0.186626  0.709526  0.895732  1
  Er  Er7  1  0.813727  0.290431  0.104578  1
  Er  Er8  1  0.315031  0.619302  0.304271  1
  Er  Er9  1  0.684560  0.380216  0.695655  1
  Er  Er10  1  0.315116  0.010433  0.695318  1
  Tm  Tm11  1  0.684592  0.989100  0.304507  1
  In  In12  1  0.500196  0.500604  0.000407  1
  Co  Co13  1  0.377143  0.999736  0.376398  1
  Co  Co14  1  0.623338  0.999736  0.622592  1
  Co  Co15  1  0.112669  0.612764  0.500095  1
  Co  Co16  1  0.886656  0.386470  0.499814  1
  Cu  Cu17  1  0.000623  0.002023  0.001400  1
