# generated using pymatgen
data_LuSc4SiSn3
_symmetry_space_group_name_H-M   'P 1'
_cell_length_a   8.80234823
_cell_length_b   8.80234827
_cell_length_c   6.06912800
_cell_angle_alpha   90.00000000
_cell_angle_beta   90.00000000
_cell_angle_gamma   120.16595367
_symmetry_Int_Tables_number   1
_chemical_formula_structural   LuSc4SiSn3
_chemical_formula_sum   'Lu2 Sc8 Si2 Sn6'
_cell_volume   406.56064587
_cell_formula_units_Z   2
loop_
 _symmetry_equiv_pos_site_id
 _symmetry_equiv_pos_as_xyz
  1  'x, y, z'
loop_
 _atom_site_type_symbol
 _atom_site_label
 _atom_site_symmetry_multiplicity
 _atom_site_fract_x
 _atom_site_fract_y
 _atom_site_fract_z
 _atom_site_occupancy
  Lu  Lu0  1  0.751981  0.997928  0.250000  1
  Lu  Lu1  1  0.997928  0.751981  0.250000  1
  Sc  Sc2  1  0.666355  0.332750  0.999415  1
  Sc  Sc3  1  0.332750  0.666355  0.999415  1
  Sc  Sc4  1  0.332750  0.666355  0.500585  1
  Sc  Sc5  1  0.666355  0.332750  0.500585  1
  Sc  Sc6  1  0.740151  0.740151  0.750000  1
  Sc  Sc7  1  0.264225  0.999851  0.750000  1
  Sc  Sc8  1  0.999851  0.264225  0.750000  1
  Sc  Sc9  1  0.243594  0.243594  0.250000  1
  Si  Si10  1  0.004599  0.004599  0.966497  1
  Si  Si11  1  0.004599  0.004599  0.533503  1
  Sn  Sn12  1  0.391340  0.391340  0.750000  1
  Sn  Sn13  1  0.608648  0.000063  0.750000  1
  Sn  Sn14  1  0.000063  0.608648  0.750000  1
  Sn  Sn15  1  0.597493  0.597493  0.250000  1
  Sn  Sn16  1  0.395084  0.002234  0.250000  1
  Sn  Sn17  1  0.002234  0.395084  0.250000  1
