# generated using pymatgen
data_Pr16Lu4Si15Pd
_symmetry_space_group_name_H-M   'P 1'
_cell_length_a   7.84899237
_cell_length_b   7.82873286
_cell_length_c   15.26532700
_cell_angle_alpha   89.89099592
_cell_angle_beta   89.78092630
_cell_angle_gamma   90.22519427
_symmetry_Int_Tables_number   1
_chemical_formula_structural   Pr16Lu4Si15Pd
_chemical_formula_sum   'Pr16 Lu4 Si15 Pd1'
_cell_volume   938.00286610
_cell_formula_units_Z   1
loop_
 _symmetry_equiv_pos_site_id
 _symmetry_equiv_pos_as_xyz
  1  'x, y, z'
loop_
 _atom_site_type_symbol
 _atom_site_label
 _atom_site_symmetry_multiplicity
 _atom_site_fract_x
 _atom_site_fract_y
 _atom_site_fract_z
 _atom_site_occupancy
  Pr  Pr0  1  0.375684  0.012429  0.446285  1
  Pr  Pr1  1  0.489366  0.874224  0.696908  1
  Pr  Pr2  1  0.512647  0.121208  0.195230  1
  Pr  Pr3  1  0.878033  0.485430  0.302619  1
  Pr  Pr4  1  0.120051  0.512343  0.802582  1
  Pr  Pr5  1  0.626114  0.987362  0.947903  1
  Pr  Pr6  1  0.002898  0.378265  0.552972  1
  Pr  Pr7  1  0.987436  0.623584  0.054860  1
  Pr  Pr8  1  0.133849  0.984084  0.876593  1
  Pr  Pr9  1  0.522737  0.629623  0.127449  1
  Pr  Pr10  1  0.472510  0.367788  0.630065  1
  Pr  Pr11  1  0.626469  0.522995  0.872580  1
  Pr  Pr12  1  0.372373  0.477123  0.371263  1
  Pr  Pr13  1  0.875424  0.024544  0.378790  1
  Pr  Pr14  1  0.978023  0.124223  0.122069  1
  Pr  Pr15  1  0.023495  0.877976  0.620503  1
  Lu  Lu16  1  0.310449  0.309786  0.999927  1
  Lu  Lu17  1  0.189240  0.809750  0.250266  1
  Lu  Lu18  1  0.809084  0.188204  0.750938  1
  Lu  Lu19  1  0.688435  0.686884  0.499946  1
  Si  Si20  1  0.327165  0.687462  0.955801  1
  Si  Si21  1  0.666987  0.312410  0.457756  1
  Si  Si22  1  0.690164  0.330612  0.044191  1
  Si  Si23  1  0.312894  0.671620  0.542415  1
  Si  Si24  1  0.813875  0.827680  0.209404  1
  Si  Si25  1  0.173625  0.186380  0.291301  1
  Si  Si26  1  0.831527  0.813502  0.792731  1
  Si  Si27  1  0.285438  0.921628  0.063423  1
  Si  Si28  1  0.580422  0.783419  0.314877  1
  Si  Si29  1  0.434451  0.208702  0.816985  1
  Si  Si30  1  0.781994  0.582478  0.685510  1
  Si  Si31  1  0.214531  0.422606  0.185520  1
  Si  Si32  1  0.708934  0.076195  0.562882  1
  Si  Si33  1  0.920985  0.287121  0.936940  1
  Si  Si34  1  0.080044  0.715275  0.435997  1
  Pd  Pd35  1  0.182648  0.175084  0.704520  1
