# generated using pymatgen
data_Hf6Si3Ge2AsOs6
_symmetry_space_group_name_H-M   'P 1'
_cell_length_a   7.65346769
_cell_length_b   7.66111049
_cell_length_c   7.65617511
_cell_angle_alpha   127.93846012
_cell_angle_beta   121.64283142
_cell_angle_gamma   82.01054245
_symmetry_Int_Tables_number   1
_chemical_formula_structural   Hf6Si3Ge2AsOs6
_chemical_formula_sum   'Hf6 Si3 Ge2 As1 Os6'
_cell_volume   289.92856926
_cell_formula_units_Z   1
loop_
 _symmetry_equiv_pos_site_id
 _symmetry_equiv_pos_as_xyz
  1  'x, y, z'
loop_
 _atom_site_type_symbol
 _atom_site_label
 _atom_site_symmetry_multiplicity
 _atom_site_fract_x
 _atom_site_fract_y
 _atom_site_fract_z
 _atom_site_occupancy
  Hf  Hf0  1  0.550641  0.099280  0.048116  1
  Hf  Hf1  1  0.445786  0.487316  0.542563  1
  Hf  Hf2  1  0.972998  0.489147  0.023080  1
  Hf  Hf3  1  0.034808  0.053450  0.529757  1
  Hf  Hf4  1  0.759354  0.918055  0.669652  1
  Hf  Hf5  1  0.247308  0.914737  0.162097  1
  Si  Si6  1  0.175170  0.163825  0.004535  1
  Si  Si7  1  0.774209  0.533961  0.254891  1
  Si  Si8  1  0.220947  0.477850  0.750153  1
  Ge  Ge9  1  0.663838  0.162139  0.491678  1
  Ge  Ge10  1  0.829206  0.828759  0.994773  1
  As  As11  1  0.343278  0.828885  0.503125  1
  Os  Os12  1  0.147792  0.748996  0.650866  1
  Os  Os13  1  0.850683  0.497225  0.589007  1
  Os  Os14  1  0.589972  0.738627  0.089513  1
  Os  Os15  1  0.398187  0.488497  0.138470  1
  Os  Os16  1  0.498289  0.254698  0.755017  1
  Os  Os17  1  0.997531  0.258554  0.246705  1
