# generated using pymatgen
data_Tb2ErTm(NiAs)4
_symmetry_space_group_name_H-M   'P 1'
_cell_length_a   4.03898100
_cell_length_b   4.03898112
_cell_length_c   15.47809400
_cell_angle_alpha   90.00000000
_cell_angle_beta   90.00000000
_cell_angle_gamma   120.00000722
_symmetry_Int_Tables_number   1
_chemical_formula_structural   Tb2ErTm(NiAs)4
_chemical_formula_sum   'Tb2 Er1 Tm1 Ni4 As4'
_cell_volume   218.67126288
_cell_formula_units_Z   1
loop_
 _symmetry_equiv_pos_site_id
 _symmetry_equiv_pos_as_xyz
  1  'x, y, z'
loop_
 _atom_site_type_symbol
 _atom_site_label
 _atom_site_symmetry_multiplicity
 _atom_site_fract_x
 _atom_site_fract_y
 _atom_site_fract_z
 _atom_site_occupancy
  Tb  Tb0  1  0.000000  0.000000  0.999883  1
  Tb  Tb1  1  0.000000  0.000000  0.500130  1
  Er  Er2  1  0.000000  0.000000  0.249992  1
  Tm  Tm3  1  0.000000  0.000000  0.749994  1
  Ni  Ni4  1  0.333333  0.666667  0.136681  1
  Ni  Ni5  1  0.666667  0.333333  0.862616  1
  Ni  Ni6  1  0.666667  0.333333  0.637382  1
  Ni  Ni7  1  0.333333  0.666667  0.363310  1
  As  As8  1  0.333333  0.666667  0.622003  1
  As  As9  1  0.666667  0.333333  0.378301  1
  As  As10  1  0.666667  0.333333  0.121712  1
  As  As11  1  0.333333  0.666667  0.877997  1
