# generated using pymatgen
data_TlGa2FeF9
_symmetry_space_group_name_H-M   'P 1'
_cell_length_a   7.38705681
_cell_length_b   7.45050449
_cell_length_c   7.60157000
_cell_angle_alpha   89.63941240
_cell_angle_beta   89.79601823
_cell_angle_gamma   59.71844626
_symmetry_Int_Tables_number   1
_chemical_formula_structural   TlGa2FeF9
_chemical_formula_sum   'Tl2 Ga4 Fe2 F18'
_cell_volume   361.27944661
_cell_formula_units_Z   2
loop_
 _symmetry_equiv_pos_site_id
 _symmetry_equiv_pos_as_xyz
  1  'x, y, z'
loop_
 _atom_site_type_symbol
 _atom_site_label
 _atom_site_symmetry_multiplicity
 _atom_site_fract_x
 _atom_site_fract_y
 _atom_site_fract_z
 _atom_site_occupancy
  Tl  Tl0  1  0.997169  0.500930  0.250054  1
  Tl  Tl1  1  0.001565  0.498917  0.750141  1
  Ga  Ga2  1  0.499425  0.500224  0.999709  1
  Ga  Ga3  1  0.999259  0.000101  0.499601  1
  Ga  Ga4  1  0.999317  0.000149  0.999640  1
  Ga  Ga5  1  0.499220  0.000084  0.499388  1
  Fe  Fe6  1  0.499226  0.000125  0.999477  1
  Fe  Fe7  1  0.499229  0.500210  0.499733  1
  F  F8  1  0.578314  0.498395  0.759083  1
  F  F9  1  0.420513  0.077434  0.258896  1
  F  F10  1  0.825013  0.287762  0.459713  1
  F  F11  1  0.217714  0.057787  0.555755  1
  F  F12  1  0.780725  0.276161  0.056138  1
  F  F13  1  0.173535  0.113538  0.959662  1
  F  F14  1  0.399789  0.283706  0.550697  1
  F  F15  1  0.598581  0.716709  0.448228  1
  F  F16  1  0.078947  0.960227  0.249577  1
  F  F17  1  0.919342  0.040222  0.749598  1
  F  F18  1  0.399956  0.316066  0.948423  1
  F  F19  1  0.598732  0.684277  0.050723  1
  F  F20  1  0.780680  0.942723  0.443005  1
  F  F21  1  0.173421  0.712542  0.539522  1
  F  F22  1  0.825100  0.886636  0.039246  1
  F  F23  1  0.217867  0.724063  0.943087  1
  F  F24  1  0.578065  0.922949  0.740037  1
  F  F25  1  0.420424  0.501848  0.240260  1
