# generated using pymatgen
data_Tb9Y7MgNi4Hg3
_symmetry_space_group_name_H-M   'P 1'
_cell_length_a   9.56815513
_cell_length_b   9.58113281
_cell_length_c   9.58113265
_cell_angle_alpha   60.21149212
_cell_angle_beta   60.17665178
_cell_angle_gamma   60.17664651
_symmetry_Int_Tables_number   1
_chemical_formula_structural   Tb9Y7MgNi4Hg3
_chemical_formula_sum   'Tb9 Y7 Mg1 Ni4 Hg3'
_cell_volume   623.72681103
_cell_formula_units_Z   1
loop_
 _symmetry_equiv_pos_site_id
 _symmetry_equiv_pos_as_xyz
  1  'x, y, z'
loop_
 _atom_site_type_symbol
 _atom_site_label
 _atom_site_symmetry_multiplicity
 _atom_site_fract_x
 _atom_site_fract_y
 _atom_site_fract_z
 _atom_site_occupancy
  Tb  Tb0  1  0.435772  0.063662  0.063662  1
  Tb  Tb1  1  0.436754  0.063756  0.440428  1
  Tb  Tb2  1  0.058826  0.441175  0.061086  1
  Tb  Tb3  1  0.436754  0.440428  0.063756  1
  Tb  Tb4  1  0.058826  0.061086  0.441175  1
  Tb  Tb5  1  0.595143  0.594910  0.594910  1
  Tb  Tb6  1  0.601220  0.599561  0.201233  1
  Tb  Tb7  1  0.601220  0.201233  0.599561  1
  Tb  Tb8  1  0.194605  0.602689  0.602689  1
  Y  Y9  1  0.185784  0.815007  0.815007  1
  Y  Y10  1  0.810782  0.187757  0.187757  1
  Y  Y11  1  0.812291  0.187596  0.814723  1
  Y  Y12  1  0.186390  0.813207  0.187683  1
  Y  Y13  1  0.812291  0.814723  0.187596  1
  Y  Y14  1  0.186390  0.187683  0.813207  1
  Y  Y15  1  0.057999  0.442847  0.442847  1
  Mg  Mg16  1  0.535969  0.819189  0.819189  1
  Ni  Ni17  1  0.393350  0.394508  0.394508  1
  Ni  Ni18  1  0.389242  0.391450  0.822888  1
  Ni  Ni19  1  0.389242  0.822888  0.391450  1
  Ni  Ni20  1  0.821640  0.390815  0.390815  1
  Hg  Hg21  1  0.833106  0.835806  0.835806  1
  Hg  Hg22  1  0.833204  0.835999  0.492025  1
  Hg  Hg23  1  0.833204  0.492025  0.835999  1
