# generated using pymatgen
data_Nd4Mn(NiSb4)2
_symmetry_space_group_name_H-M   'P 1'
_cell_length_a   10.81764987
_cell_length_b   10.81764956
_cell_length_c   10.81765025
_cell_angle_alpha   146.45462115
_cell_angle_beta   146.45461793
_cell_angle_gamma   48.17199242
_symmetry_Int_Tables_number   1
_chemical_formula_structural   Nd4Mn(NiSb4)2
_chemical_formula_sum   'Nd4 Mn1 Ni2 Sb8'
_cell_volume   384.96115996
_cell_formula_units_Z   1
loop_
 _symmetry_equiv_pos_site_id
 _symmetry_equiv_pos_as_xyz
  1  'x, y, z'
loop_
 _atom_site_type_symbol
 _atom_site_label
 _atom_site_symmetry_multiplicity
 _atom_site_fract_x
 _atom_site_fract_y
 _atom_site_fract_z
 _atom_site_occupancy
  Nd  Nd0  1  0.631854  0.631854  0.501159  1
  Nd  Nd1  1  0.130694  0.130694  0.498841  1
  Nd  Nd2  1  0.368146  0.869306  0.000000  1
  Nd  Nd3  1  0.869306  0.368146  0.000000  1
  Mn  Mn4  1  0.000000  0.000000  0.000000  1
  Ni  Ni5  1  0.000000  0.500000  0.500000  1
  Ni  Ni6  1  0.500000  0.000000  0.500000  1
  Sb  Sb7  1  0.324577  0.324577  0.519910  1
  Sb  Sb8  1  0.804667  0.804667  0.480090  1
  Sb  Sb9  1  0.675423  0.195333  0.000000  1
  Sb  Sb10  1  0.195333  0.675423  0.000000  1
  Sb  Sb11  1  0.249938  0.249938  0.000000  1
  Sb  Sb12  1  0.750062  0.750062  0.000000  1
  Sb  Sb13  1  0.750000  0.250000  0.500000  1
  Sb  Sb14  1  0.250000  0.750000  0.500000  1
