# generated using pymatgen
data_Tb3Y5Re2(B12Ir)2
_symmetry_space_group_name_H-M   'P 1'
_cell_length_a   3.67995700
_cell_length_b   9.18921311
_cell_length_c   11.57980616
_cell_angle_alpha   89.67072071
_cell_angle_beta   90.00000000
_cell_angle_gamma   90.00000000
_symmetry_Int_Tables_number   1
_chemical_formula_structural   Tb3Y5Re2(B12Ir)2
_chemical_formula_sum   'Tb3 Y5 Re2 B24 Ir2'
_cell_volume   391.57520609
_cell_formula_units_Z   1
loop_
 _symmetry_equiv_pos_site_id
 _symmetry_equiv_pos_as_xyz
  1  'x, y, z'
loop_
 _atom_site_type_symbol
 _atom_site_label
 _atom_site_symmetry_multiplicity
 _atom_site_fract_x
 _atom_site_fract_y
 _atom_site_fract_z
 _atom_site_occupancy
  Tb  Tb0  1  0.000000  0.817864  0.090176  1
  Tb  Tb1  1  0.000000  0.182137  0.909832  1
  Tb  Tb2  1  0.000000  0.326742  0.417418  1
  Y  Y3  1  0.000000  0.673353  0.582398  1
  Y  Y4  1  0.000000  0.446033  0.127577  1
  Y  Y5  1  0.000000  0.554015  0.872423  1
  Y  Y6  1  0.000000  0.941615  0.374381  1
  Y  Y7  1  0.000000  0.058335  0.625661  1
  Re  Re8  1  0.000000  0.638118  0.320471  1
  Re  Re9  1  0.000000  0.361983  0.679492  1
  B  B10  1  0.500000  0.054054  0.066442  1
  B  B11  1  0.500000  0.945924  0.933572  1
  B  B12  1  0.500000  0.553246  0.432443  1
  B  B13  1  0.500000  0.446757  0.567539  1
  B  B14  1  0.500000  0.248731  0.078927  1
  B  B15  1  0.500000  0.751281  0.921088  1
  B  B16  1  0.500000  0.747023  0.419241  1
  B  B17  1  0.500000  0.253004  0.580848  1
  B  B18  1  0.500000  0.290224  0.233546  1
  B  B19  1  0.500000  0.709713  0.766424  1
  B  B20  1  0.500000  0.791604  0.266167  1
  B  B21  1  0.500000  0.208410  0.733885  1
  B  B22  1  0.500000  0.131750  0.315532  1
  B  B23  1  0.500000  0.868160  0.684447  1
  B  B24  1  0.500000  0.631780  0.185739  1
  B  B25  1  0.500000  0.368248  0.814265  1
  B  B26  1  0.500000  0.483302  0.287025  1
  B  B27  1  0.500000  0.516843  0.712986  1
  B  B28  1  0.500000  0.982824  0.212730  1
  B  B29  1  0.500000  0.017153  0.787270  1
  B  B30  1  0.500000  0.108288  0.469561  1
  B  B31  1  0.500000  0.891513  0.530493  1
  B  B32  1  0.500000  0.608934  0.029582  1
  B  B33  1  0.500000  0.391071  0.970415  1
  Ir  Ir34  1  0.000000  0.136465  0.177689  1
  Ir  Ir35  1  0.000000  0.863503  0.822313  1
