# generated using pymatgen
data_Np3Pa3Sb8
_symmetry_space_group_name_H-M   'P 1'
_cell_length_a   7.98121639
_cell_length_b   8.00535455
_cell_length_c   7.98121600
_cell_angle_alpha   109.67597102
_cell_angle_beta   109.29301842
_cell_angle_gamma   109.32227029
_symmetry_Int_Tables_number   1
_chemical_formula_structural   Np3Pa3Sb8
_chemical_formula_sum   'Np3 Pa3 Sb8'
_cell_volume   393.13945722
_cell_formula_units_Z   1
loop_
 _symmetry_equiv_pos_site_id
 _symmetry_equiv_pos_as_xyz
  1  'x, y, z'
loop_
 _atom_site_type_symbol
 _atom_site_label
 _atom_site_symmetry_multiplicity
 _atom_site_fract_x
 _atom_site_fract_y
 _atom_site_fract_z
 _atom_site_occupancy
  Np  Np0  1  0.752914  0.877474  0.127501  1
  Np  Np1  1  0.375182  0.250000  0.625182  1
  Np  Np2  1  0.250027  0.622526  0.375440  1
  Pa  Pa3  1  0.871066  0.123833  0.748315  1
  Pa  Pa4  1  0.624482  0.376167  0.247233  1
  Pa  Pa5  1  0.126705  0.750000  0.876705  1
  Sb  Sb6  1  0.662917  0.659293  0.658136  1
  Sb  Sb7  1  0.841810  0.500435  0.999557  1
  Sb  Sb8  1  0.499122  0.999565  0.841375  1
  Sb  Sb9  1  0.340209  0.500680  0.001271  1
  Sb  Sb10  1  0.998843  0.840707  0.503625  1
  Sb  Sb11  1  0.995706  0.341583  0.502010  1
  Sb  Sb12  1  0.500591  0.999320  0.339530  1
  Sb  Sb13  1  0.160428  0.158417  0.154125  1
