# generated using pymatgen
data_La3Mn10N11
_symmetry_space_group_name_H-M   'P 1'
_cell_length_a   9.09844345
_cell_length_b   9.09844350
_cell_length_c   9.09844300
_cell_angle_alpha   59.99999819
_cell_angle_beta   59.99999799
_cell_angle_gamma   60.00000096
_symmetry_Int_Tables_number   1
_chemical_formula_structural   La3Mn10N11
_chemical_formula_sum   'La6 Mn20 N22'
_cell_volume   532.58174214
_cell_formula_units_Z   2
loop_
 _symmetry_equiv_pos_site_id
 _symmetry_equiv_pos_as_xyz
  1  'x, y, z'
loop_
 _atom_site_type_symbol
 _atom_site_label
 _atom_site_symmetry_multiplicity
 _atom_site_fract_x
 _atom_site_fract_y
 _atom_site_fract_z
 _atom_site_occupancy
  La  La0  1  0.696740  0.303260  0.303260  1
  La  La1  1  0.303260  0.696740  0.696740  1
  La  La2  1  0.303260  0.696740  0.303260  1
  La  La3  1  0.696740  0.303260  0.696740  1
  La  La4  1  0.303260  0.303260  0.696740  1
  La  La5  1  0.696740  0.696740  0.303260  1
  Mn  Mn6  1  0.096566  0.096566  0.096566  1
  Mn  Mn7  1  0.903434  0.903434  0.903434  1
  Mn  Mn8  1  0.096566  0.096566  0.710303  1
  Mn  Mn9  1  0.096566  0.710303  0.096566  1
  Mn  Mn10  1  0.903434  0.903434  0.289697  1
  Mn  Mn11  1  0.903434  0.289697  0.903434  1
  Mn  Mn12  1  0.710303  0.096566  0.096566  1
  Mn  Mn13  1  0.289697  0.903434  0.903434  1
  Mn  Mn14  1  0.396699  0.103301  0.103301  1
  Mn  Mn15  1  0.603301  0.896699  0.896699  1
  Mn  Mn16  1  0.103301  0.396699  0.396699  1
  Mn  Mn17  1  0.103301  0.396699  0.103301  1
  Mn  Mn18  1  0.603301  0.896699  0.603301  1
  Mn  Mn19  1  0.896699  0.603301  0.603301  1
  Mn  Mn20  1  0.896699  0.603301  0.896699  1
  Mn  Mn21  1  0.396699  0.103301  0.396699  1
  Mn  Mn22  1  0.103301  0.103301  0.396699  1
  Mn  Mn23  1  0.896699  0.896699  0.603301  1
  Mn  Mn24  1  0.396699  0.396699  0.103301  1
  Mn  Mn25  1  0.603301  0.603301  0.896699  1
  N  N26  1  0.342828  0.000000  0.000000  1
  N  N27  1  0.657172  0.000000  0.000000  1
  N  N28  1  0.000000  0.342828  0.657172  1
  N  N29  1  0.000000  0.657172  0.342828  1
  N  N30  1  0.000000  0.342828  0.000000  1
  N  N31  1  0.657172  0.000000  0.342828  1
  N  N32  1  0.000000  0.657172  0.000000  1
  N  N33  1  0.342828  0.000000  0.657172  1
  N  N34  1  0.000000  0.000000  0.342828  1
  N  N35  1  0.000000  0.000000  0.657172  1
  N  N36  1  0.657172  0.342828  0.000000  1
  N  N37  1  0.342828  0.657172  0.000000  1
  N  N38  1  0.354899  0.354899  0.354899  1
  N  N39  1  0.645101  0.645101  0.645101  1
  N  N40  1  0.354899  0.354899  0.935301  1
  N  N41  1  0.354899  0.935301  0.354899  1
  N  N42  1  0.645101  0.645101  0.064699  1
  N  N43  1  0.645101  0.064699  0.645101  1
  N  N44  1  0.935301  0.354899  0.354899  1
  N  N45  1  0.064699  0.645101  0.645101  1
  N  N46  1  0.500000  0.500000  0.500000  1
  N  N47  1  0.000000  0.000000  0.000000  1
