# generated using pymatgen
data_Ba5Na3(In4Au3)4
_symmetry_space_group_name_H-M   'P 1'
_cell_length_a   15.20977900
_cell_length_b   15.20977838
_cell_length_c   4.75656700
_cell_angle_alpha   90.00000000
_cell_angle_beta   90.00000000
_cell_angle_gamma   120.00000351
_symmetry_Int_Tables_number   1
_chemical_formula_structural   Ba5Na3(In4Au3)4
_chemical_formula_sum   'Ba5 Na3 In16 Au12'
_cell_volume   952.94980325
_cell_formula_units_Z   1
loop_
 _symmetry_equiv_pos_site_id
 _symmetry_equiv_pos_as_xyz
  1  'x, y, z'
loop_
 _atom_site_type_symbol
 _atom_site_label
 _atom_site_symmetry_multiplicity
 _atom_site_fract_x
 _atom_site_fract_y
 _atom_site_fract_z
 _atom_site_occupancy
  Ba  Ba0  1  0.333333  0.666667  0.000000  1
  Ba  Ba1  1  0.666667  0.333333  0.000000  1
  Ba  Ba2  1  0.817267  0.000000  0.500000  1
  Ba  Ba3  1  0.000000  0.817267  0.500000  1
  Ba  Ba4  1  0.182733  0.182733  0.500000  1
  Na  Na5  1  0.448058  0.000000  0.000000  1
  Na  Na6  1  0.000000  0.448058  0.000000  1
  Na  Na7  1  0.551942  0.551942  0.000000  1
  In  In8  1  0.183030  0.381550  0.000000  1
  In  In9  1  0.618450  0.801482  0.000000  1
  In  In10  1  0.381550  0.183030  0.000000  1
  In  In11  1  0.198518  0.816970  0.000000  1
  In  In12  1  0.801482  0.618450  0.000000  1
  In  In13  1  0.816970  0.198518  0.000000  1
  In  In14  1  0.283415  0.000000  0.500000  1
  In  In15  1  0.000000  0.283415  0.500000  1
  In  In16  1  0.716585  0.716585  0.500000  1
  In  In17  1  0.355894  0.477158  0.500000  1
  In  In18  1  0.522842  0.878736  0.500000  1
  In  In19  1  0.477158  0.355894  0.500000  1
  In  In20  1  0.121264  0.644106  0.500000  1
  In  In21  1  0.878736  0.522842  0.500000  1
  In  In22  1  0.644106  0.121264  0.500000  1
  In  In23  1  0.000000  0.000000  0.000000  1
  Au  Au24  1  0.169485  0.485385  0.500000  1
  Au  Au25  1  0.514615  0.684100  0.500000  1
  Au  Au26  1  0.485385  0.169485  0.500000  1
  Au  Au27  1  0.315900  0.830515  0.500000  1
  Au  Au28  1  0.684100  0.514615  0.500000  1
  Au  Au29  1  0.830515  0.315900  0.500000  1
  Au  Au30  1  0.182513  0.000000  0.000000  1
  Au  Au31  1  0.000000  0.182513  0.000000  1
  Au  Au32  1  0.817487  0.817487  0.000000  1
  Au  Au33  1  0.645667  0.000000  0.000000  1
  Au  Au34  1  0.000000  0.645667  0.000000  1
  Au  Au35  1  0.354333  0.354333  0.000000  1
