# generated using pymatgen
data_LiEr2Tm14In3Rh4
_symmetry_space_group_name_H-M   'P 1'
_cell_length_a   9.51604668
_cell_length_b   9.54061850
_cell_length_c   9.51273202
_cell_angle_alpha   60.08731188
_cell_angle_beta   59.90953365
_cell_angle_gamma   60.08375549
_symmetry_Int_Tables_number   1
_chemical_formula_structural   LiEr2Tm14In3Rh4
_chemical_formula_sum   'Li1 Er2 Tm14 In3 Rh4'
_cell_volume   611.06168403
_cell_formula_units_Z   1
loop_
 _symmetry_equiv_pos_site_id
 _symmetry_equiv_pos_as_xyz
  1  'x, y, z'
loop_
 _atom_site_type_symbol
 _atom_site_label
 _atom_site_symmetry_multiplicity
 _atom_site_fract_x
 _atom_site_fract_y
 _atom_site_fract_z
 _atom_site_occupancy
  Li  Li0  1  0.427510  0.718237  0.427468  1
  Er  Er1  1  0.436419  0.435558  0.063510  1
  Er  Er2  1  0.186509  0.814215  0.186663  1
  Tm  Tm3  1  0.189976  0.191605  0.809219  1
  Tm  Tm4  1  0.438084  0.060055  0.062603  1
  Tm  Tm5  1  0.435777  0.062149  0.436082  1
  Tm  Tm6  1  0.063105  0.436782  0.063570  1
  Tm  Tm7  1  0.648035  0.053425  0.647933  1
  Tm  Tm8  1  0.188150  0.813351  0.812192  1
  Tm  Tm9  1  0.062610  0.060518  0.438078  1
  Tm  Tm10  1  0.809488  0.191493  0.189898  1
  Tm  Tm11  1  0.812381  0.813085  0.188245  1
  Tm  Tm12  1  0.651647  0.648382  0.046662  1
  Tm  Tm13  1  0.653212  0.651300  0.653204  1
  Tm  Tm14  1  0.062930  0.435653  0.437017  1
  Tm  Tm15  1  0.046816  0.648489  0.651451  1
  Tm  Tm16  1  0.809826  0.191803  0.809448  1
  In  In17  1  0.416150  0.421588  0.746387  1
  In  In18  1  0.746735  0.421673  0.416098  1
  In  In19  1  0.415996  0.420930  0.416140  1
  Rh  Rh20  1  0.858069  0.427826  0.857606  1
  Rh  Rh21  1  0.856270  0.860454  0.428014  1
  Rh  Rh22  1  0.427949  0.860699  0.856162  1
  Rh  Rh23  1  0.856354  0.860734  0.856348  1
