# generated using pymatgen
data_ErTm3(Sc4Bi3)4
_symmetry_space_group_name_H-M   'P 1'
_cell_length_a   7.87006201
_cell_length_b   9.05231300
_cell_length_c   11.52908901
_cell_angle_alpha   90.00000000
_cell_angle_beta   90.00564750
_cell_angle_gamma   90.00000000
_symmetry_Int_Tables_number   1
_chemical_formula_structural   ErTm3(Sc4Bi3)4
_chemical_formula_sum   'Er1 Tm3 Sc16 Bi12'
_cell_volume   821.35840660
_cell_formula_units_Z   1
loop_
 _symmetry_equiv_pos_site_id
 _symmetry_equiv_pos_as_xyz
  1  'x, y, z'
loop_
 _atom_site_type_symbol
 _atom_site_label
 _atom_site_symmetry_multiplicity
 _atom_site_fract_x
 _atom_site_fract_y
 _atom_site_fract_z
 _atom_site_occupancy
  Er  Er0  1  0.185048  0.750000  0.718072  1
  Tm  Tm1  1  0.314954  0.250000  0.218045  1
  Tm  Tm2  1  0.814960  0.250000  0.281939  1
  Tm  Tm3  1  0.685023  0.750000  0.781930  1
  Sc  Sc4  1  0.349479  0.750000  0.219783  1
  Sc  Sc5  1  0.849437  0.750000  0.280252  1
  Sc  Sc6  1  0.650540  0.250000  0.780232  1
  Sc  Sc7  1  0.150586  0.250000  0.719769  1
  Sc  Sc8  1  0.692886  0.568104  0.061340  1
  Sc  Sc9  1  0.192877  0.931901  0.438641  1
  Sc  Sc10  1  0.307123  0.068111  0.938671  1
  Sc  Sc11  1  0.807146  0.431928  0.561348  1
  Sc  Sc12  1  0.307123  0.431889  0.938671  1
  Sc  Sc13  1  0.807146  0.068072  0.561348  1
  Sc  Sc14  1  0.692886  0.931896  0.061340  1
  Sc  Sc15  1  0.192877  0.568099  0.438641  1
  Sc  Sc16  1  0.481735  0.250000  0.489048  1
  Sc  Sc17  1  0.981723  0.250000  0.010960  1
  Sc  Sc18  1  0.518317  0.750000  0.510927  1
  Sc  Sc19  1  0.018228  0.750000  0.989080  1
  Bi  Bi20  1  0.401780  0.750000  0.965229  1
  Bi  Bi21  1  0.901573  0.750000  0.534691  1
  Bi  Bi22  1  0.598217  0.250000  0.034803  1
  Bi  Bi23  1  0.098234  0.250000  0.465194  1
  Bi  Bi24  1  0.563562  0.991008  0.327439  1
  Bi  Bi25  1  0.063576  0.508969  0.172560  1
  Bi  Bi26  1  0.436564  0.490928  0.672557  1
  Bi  Bi27  1  0.936350  0.009046  0.827466  1
  Bi  Bi28  1  0.436564  0.009072  0.672557  1
  Bi  Bi29  1  0.936350  0.490954  0.827466  1
  Bi  Bi30  1  0.563562  0.508992  0.327439  1
  Bi  Bi31  1  0.063576  0.991031  0.172560  1
