# generated using pymatgen
data_Hf4Fe3CoSi4
_symmetry_space_group_name_H-M   'P 1'
_cell_length_a   3.93576700
_cell_length_b   6.36098666
_cell_length_c   6.98214219
_cell_angle_alpha   90.10717206
_cell_angle_beta   90.00000000
_cell_angle_gamma   90.00000000
_symmetry_Int_Tables_number   1
_chemical_formula_structural   Hf4Fe3CoSi4
_chemical_formula_sum   'Hf4 Fe3 Co1 Si4'
_cell_volume   174.80014718
_cell_formula_units_Z   1
loop_
 _symmetry_equiv_pos_site_id
 _symmetry_equiv_pos_as_xyz
  1  'x, y, z'
loop_
 _atom_site_type_symbol
 _atom_site_label
 _atom_site_symmetry_multiplicity
 _atom_site_fract_x
 _atom_site_fract_y
 _atom_site_fract_z
 _atom_site_occupancy
  Hf  Hf0  1  0.250000  0.995775  0.301007  1
  Hf  Hf1  1  0.250000  0.499531  0.196761  1
  Hf  Hf2  1  0.750000  0.998991  0.698599  1
  Hf  Hf3  1  0.750000  0.502257  0.802249  1
  Fe  Fe4  1  0.250000  0.156789  0.935033  1
  Fe  Fe5  1  0.250000  0.654967  0.566325  1
  Fe  Fe6  1  0.750000  0.845759  0.067213  1
  Co  Co7  1  0.750000  0.345966  0.433004  1
  Si  Si8  1  0.250000  0.286930  0.607184  1
  Si  Si9  1  0.250000  0.788164  0.894720  1
  Si  Si10  1  0.750000  0.712408  0.393770  1
  Si  Si11  1  0.750000  0.212463  0.104134  1
