# generated using pymatgen
data_Tc5MoPd8
_symmetry_space_group_name_H-M   'P 1'
_cell_length_a   7.43824301
_cell_length_b   7.44382122
_cell_length_c   4.39770000
_cell_angle_alpha   90.00000000
_cell_angle_beta   90.00000000
_cell_angle_gamma   60.02770141
_symmetry_Int_Tables_number   1
_chemical_formula_structural   Tc5MoPd8
_chemical_formula_sum   'Tc5 Mo1 Pd8'
_cell_volume   210.93259125
_cell_formula_units_Z   1
loop_
 _symmetry_equiv_pos_site_id
 _symmetry_equiv_pos_as_xyz
  1  'x, y, z'
loop_
 _atom_site_type_symbol
 _atom_site_label
 _atom_site_symmetry_multiplicity
 _atom_site_fract_x
 _atom_site_fract_y
 _atom_site_fract_z
 _atom_site_occupancy
  Tc  Tc0  1  0.300005  0.569889  0.000000  1
  Tc  Tc1  1  0.427010  0.844299  0.000000  1
  Tc  Tc2  1  0.522086  0.394730  0.500000  1
  Tc  Tc3  1  0.650288  0.670841  0.500000  1
  Tc  Tc4  1  0.251519  0.794552  0.500000  1
  Mo  Mo5  1  0.703978  0.441122  0.000000  1
  Pd  Pd6  1  0.571170  0.147187  0.000000  1
  Pd  Pd7  1  0.142586  0.286109  0.000000  1
  Pd  Pd8  1  0.852728  0.714383  0.000000  1
  Pd  Pd9  1  0.006659  0.993683  0.000000  1
  Pd  Pd10  1  0.381206  0.089551  0.500000  1
  Pd  Pd11  1  0.948386  0.241636  0.500000  1
  Pd  Pd12  1  0.099435  0.525164  0.500000  1
  Pd  Pd13  1  0.809506  0.953420  0.500000  1
