# generated using pymatgen
data_Lu8Cd2RuPt
_symmetry_space_group_name_H-M   'P 1'
_cell_length_a   9.46490594
_cell_length_b   9.46490594
_cell_length_c   9.52193300
_cell_angle_alpha   59.80048664
_cell_angle_beta   59.80048665
_cell_angle_gamma   59.51935854
_symmetry_Int_Tables_number   1
_chemical_formula_structural   Lu8Cd2RuPt
_chemical_formula_sum   'Lu16 Cd4 Ru2 Pt2'
_cell_volume   599.14718822
_cell_formula_units_Z   2
loop_
 _symmetry_equiv_pos_site_id
 _symmetry_equiv_pos_as_xyz
  1  'x, y, z'
loop_
 _atom_site_type_symbol
 _atom_site_label
 _atom_site_symmetry_multiplicity
 _atom_site_fract_x
 _atom_site_fract_y
 _atom_site_fract_z
 _atom_site_occupancy
  Lu  Lu0  1  0.349314  0.349314  0.352391  1
  Lu  Lu1  1  0.349314  0.349314  0.948981  1
  Lu  Lu2  1  0.346614  0.953374  0.350006  1
  Lu  Lu3  1  0.953374  0.346614  0.350006  1
  Lu  Lu4  1  0.814956  0.188213  0.189471  1
  Lu  Lu5  1  0.188213  0.814956  0.807360  1
  Lu  Lu6  1  0.188213  0.814956  0.189471  1
  Lu  Lu7  1  0.814956  0.188213  0.807360  1
  Lu  Lu8  1  0.187917  0.187917  0.812083  1
  Lu  Lu9  1  0.808994  0.808994  0.191006  1
  Lu  Lu10  1  0.937123  0.560011  0.566082  1
  Lu  Lu11  1  0.560011  0.937123  0.936784  1
  Lu  Lu12  1  0.560011  0.937123  0.566082  1
  Lu  Lu13  1  0.937123  0.560011  0.936784  1
  Lu  Lu14  1  0.564070  0.564070  0.935930  1
  Lu  Lu15  1  0.938264  0.938264  0.561736  1
  Cd  Cd16  1  0.580432  0.580432  0.581717  1
  Cd  Cd17  1  0.580432  0.580432  0.257418  1
  Cd  Cd18  1  0.581256  0.255036  0.581854  1
  Cd  Cd19  1  0.255036  0.581256  0.581854  1
  Ru  Ru20  1  0.143436  0.143436  0.139535  1
  Ru  Ru21  1  0.143436  0.143436  0.573594  1
  Pt  Pt22  1  0.143729  0.573777  0.141248  1
  Pt  Pt23  1  0.573777  0.143729  0.141248  1
