# generated using pymatgen
data_Hf18ZnMo8Se
_symmetry_space_group_name_H-M   'P 1'
_cell_length_a   8.71636000
_cell_length_b   8.71635934
_cell_length_c   8.63652500
_cell_angle_alpha   90.00000000
_cell_angle_beta   90.00000000
_cell_angle_gamma   119.99999493
_symmetry_Int_Tables_number   1
_chemical_formula_structural   Hf18ZnMo8Se
_chemical_formula_sum   'Hf18 Zn1 Mo8 Se1'
_cell_volume   568.25069216
_cell_formula_units_Z   1
loop_
 _symmetry_equiv_pos_site_id
 _symmetry_equiv_pos_as_xyz
  1  'x, y, z'
loop_
 _atom_site_type_symbol
 _atom_site_label
 _atom_site_symmetry_multiplicity
 _atom_site_fract_x
 _atom_site_fract_y
 _atom_site_fract_z
 _atom_site_occupancy
  Hf  Hf0  1  0.540237  0.080475  0.250000  1
  Hf  Hf1  1  0.457697  0.915394  0.750000  1
  Hf  Hf2  1  0.919525  0.459763  0.250000  1
  Hf  Hf3  1  0.084606  0.542303  0.750000  1
  Hf  Hf4  1  0.540237  0.459763  0.250000  1
  Hf  Hf5  1  0.457697  0.542303  0.750000  1
  Hf  Hf6  1  0.196345  0.392688  0.048481  1
  Hf  Hf7  1  0.805237  0.610475  0.955194  1
  Hf  Hf8  1  0.607312  0.803655  0.048481  1
  Hf  Hf9  1  0.805237  0.610475  0.544806  1
  Hf  Hf10  1  0.389525  0.194763  0.955194  1
  Hf  Hf11  1  0.196345  0.392688  0.451519  1
  Hf  Hf12  1  0.196345  0.803655  0.048481  1
  Hf  Hf13  1  0.389525  0.194763  0.544806  1
  Hf  Hf14  1  0.805237  0.194763  0.955194  1
  Hf  Hf15  1  0.607312  0.803655  0.451519  1
  Hf  Hf16  1  0.805237  0.194763  0.544806  1
  Hf  Hf17  1  0.196345  0.803655  0.451519  1
  Zn  Zn18  1  0.333333  0.666667  0.250000  1
  Mo  Mo19  1  0.000000  0.000000  0.999479  1
  Mo  Mo20  1  0.000000  0.000000  0.500521  1
  Mo  Mo21  1  0.889391  0.778784  0.250000  1
  Mo  Mo22  1  0.110829  0.221657  0.750000  1
  Mo  Mo23  1  0.221216  0.110609  0.250000  1
  Mo  Mo24  1  0.778343  0.889171  0.750000  1
  Mo  Mo25  1  0.889391  0.110609  0.250000  1
  Mo  Mo26  1  0.110829  0.889171  0.750000  1
  Se  Se27  1  0.666667  0.333333  0.750000  1
