# generated using pymatgen
data_Tb4Cu(NiSb4)2
_symmetry_space_group_name_H-M   'P 1'
_cell_length_a   10.40868432
_cell_length_b   10.40868437
_cell_length_c   10.40868372
_cell_angle_alpha   145.55101470
_cell_angle_beta   145.55100345
_cell_angle_gamma   49.51415003
_symmetry_Int_Tables_number   1
_chemical_formula_structural   Tb4Cu(NiSb4)2
_chemical_formula_sum   'Tb4 Cu1 Ni2 Sb8'
_cell_volume   359.17167891
_cell_formula_units_Z   1
loop_
 _symmetry_equiv_pos_site_id
 _symmetry_equiv_pos_as_xyz
  1  'x, y, z'
loop_
 _atom_site_type_symbol
 _atom_site_label
 _atom_site_symmetry_multiplicity
 _atom_site_fract_x
 _atom_site_fract_y
 _atom_site_fract_z
 _atom_site_occupancy
  Tb  Tb0  1  0.635938  0.635938  0.505662  1
  Tb  Tb1  1  0.130276  0.130276  0.494338  1
  Tb  Tb2  1  0.364062  0.869724  0.000000  1
  Tb  Tb3  1  0.869724  0.364062  0.000000  1
  Cu  Cu4  1  0.000000  0.000000  0.000000  1
  Ni  Ni5  1  0.000000  0.500000  0.500000  1
  Ni  Ni6  1  0.500000  0.000000  0.500000  1
  Sb  Sb7  1  0.329094  0.329094  0.520797  1
  Sb  Sb8  1  0.808297  0.808297  0.479203  1
  Sb  Sb9  1  0.670906  0.191703  0.000000  1
  Sb  Sb10  1  0.191703  0.670906  0.000000  1
  Sb  Sb11  1  0.249746  0.249746  0.000000  1
  Sb  Sb12  1  0.750254  0.750254  0.000000  1
  Sb  Sb13  1  0.750000  0.250000  0.500000  1
  Sb  Sb14  1  0.250000  0.750000  0.500000  1
