# generated using pymatgen
data_Dy5Zn2Bi
_symmetry_space_group_name_H-M   'P 1'
_cell_length_a   8.63481203
_cell_length_b   8.63481193
_cell_length_c   8.63481187
_cell_angle_alpha   123.37212222
_cell_angle_beta   123.37211835
_cell_angle_gamma   84.25225591
_symmetry_Int_Tables_number   1
_chemical_formula_structural   Dy5Zn2Bi
_chemical_formula_sum   'Dy10 Zn4 Bi2'
_cell_volume   429.67495702
_cell_formula_units_Z   2
loop_
 _symmetry_equiv_pos_site_id
 _symmetry_equiv_pos_as_xyz
  1  'x, y, z'
loop_
 _atom_site_type_symbol
 _atom_site_label
 _atom_site_symmetry_multiplicity
 _atom_site_fract_x
 _atom_site_fract_y
 _atom_site_fract_z
 _atom_site_occupancy
  Dy  Dy0  1  0.500000  0.500000  0.000000  1
  Dy  Dy1  1  0.000000  0.000000  0.000000  1
  Dy  Dy2  1  0.509849  0.009849  0.804466  1
  Dy  Dy3  1  0.205384  0.705384  0.195534  1
  Dy  Dy4  1  0.009849  0.205384  0.500000  1
  Dy  Dy5  1  0.705384  0.509849  0.500000  1
  Dy  Dy6  1  0.490151  0.990151  0.195534  1
  Dy  Dy7  1  0.794616  0.294616  0.804466  1
  Dy  Dy8  1  0.990151  0.794616  0.500000  1
  Dy  Dy9  1  0.294616  0.490151  0.500000  1
  Zn  Zn10  1  0.139478  0.639478  0.778955  1
  Zn  Zn11  1  0.860522  0.360522  0.221045  1
  Zn  Zn12  1  0.639478  0.860522  0.500000  1
  Zn  Zn13  1  0.360522  0.139478  0.500000  1
  Bi  Bi14  1  0.250000  0.250000  0.000000  1
  Bi  Bi15  1  0.750000  0.750000  0.000000  1
