# generated using pymatgen
data_Tb4Ta3NbN8
_symmetry_space_group_name_H-M   'P 1'
_cell_length_a   3.27249400
_cell_length_b   5.69868309
_cell_length_c   11.00248209
_cell_angle_alpha   90.06092641
_cell_angle_beta   90.00000000
_cell_angle_gamma   90.00000000
_symmetry_Int_Tables_number   1
_chemical_formula_structural   Tb4Ta3NbN8
_chemical_formula_sum   'Tb4 Ta3 Nb1 N8'
_cell_volume   205.18414066
_cell_formula_units_Z   1
loop_
 _symmetry_equiv_pos_site_id
 _symmetry_equiv_pos_as_xyz
  1  'x, y, z'
loop_
 _atom_site_type_symbol
 _atom_site_label
 _atom_site_symmetry_multiplicity
 _atom_site_fract_x
 _atom_site_fract_y
 _atom_site_fract_z
 _atom_site_occupancy
  Tb  Tb0  1  0.250000  0.588857  0.862452  1
  Tb  Tb1  1  0.750000  0.411761  0.137358  1
  Tb  Tb2  1  0.750000  0.913499  0.364043  1
  Tb  Tb3  1  0.250000  0.087938  0.636897  1
  Ta  Ta4  1  0.250000  0.917112  0.112544  1
  Ta  Ta5  1  0.750000  0.083064  0.886774  1
  Ta  Ta6  1  0.750000  0.582363  0.610280  1
  Nb  Nb7  1  0.250000  0.416513  0.389345  1
  N  N8  1  0.250000  0.663058  0.242702  1
  N  N9  1  0.750000  0.338993  0.756371  1
  N  N10  1  0.750000  0.837687  0.744098  1
  N  N11  1  0.250000  0.159230  0.253683  1
  N  N12  1  0.250000  0.742894  0.507981  1
  N  N13  1  0.750000  0.256653  0.496559  1
  N  N14  1  0.750000  0.760775  0.005568  1
  N  N15  1  0.250000  0.239602  0.993343  1
