# generated using pymatgen
data_SmCo4MoP3
_symmetry_space_group_name_H-M   'P 1'
_cell_length_a   3.72954100
_cell_length_b   10.48809900
_cell_length_c   11.92386500
_cell_angle_alpha   90.00000000
_cell_angle_beta   90.00000000
_cell_angle_gamma   90.00000000
_symmetry_Int_Tables_number   1
_chemical_formula_structural   SmCo4MoP3
_chemical_formula_sum   'Sm4 Co16 Mo4 P12'
_cell_volume   466.41146172
_cell_formula_units_Z   4
loop_
 _symmetry_equiv_pos_site_id
 _symmetry_equiv_pos_as_xyz
  1  'x, y, z'
loop_
 _atom_site_type_symbol
 _atom_site_label
 _atom_site_symmetry_multiplicity
 _atom_site_fract_x
 _atom_site_fract_y
 _atom_site_fract_z
 _atom_site_occupancy
  Sm  Sm0  1  0.250000  0.582881  0.703745  1
  Sm  Sm1  1  0.250000  0.917119  0.203745  1
  Sm  Sm2  1  0.750000  0.417119  0.296255  1
  Sm  Sm3  1  0.750000  0.082881  0.796255  1
  Co  Co4  1  0.250000  0.405182  0.490361  1
  Co  Co5  1  0.250000  0.094818  0.990361  1
  Co  Co6  1  0.750000  0.594818  0.509639  1
  Co  Co7  1  0.750000  0.905182  0.009639  1
  Co  Co8  1  0.250000  0.222040  0.176790  1
  Co  Co9  1  0.250000  0.277960  0.676790  1
  Co  Co10  1  0.750000  0.777960  0.823210  1
  Co  Co11  1  0.750000  0.722040  0.323210  1
  Co  Co12  1  0.250000  0.886664  0.700248  1
  Co  Co13  1  0.250000  0.613336  0.200248  1
  Co  Co14  1  0.750000  0.113336  0.299752  1
  Co  Co15  1  0.750000  0.386664  0.799752  1
  Co  Co16  1  0.250000  0.466210  0.933222  1
  Co  Co17  1  0.250000  0.033790  0.433222  1
  Co  Co18  1  0.750000  0.533790  0.066778  1
  Co  Co19  1  0.750000  0.966210  0.566778  1
  Mo  Mo20  1  0.250000  0.707319  0.988112  1
  Mo  Mo21  1  0.250000  0.792681  0.488112  1
  Mo  Mo22  1  0.750000  0.292681  0.011888  1
  Mo  Mo23  1  0.750000  0.207319  0.511888  1
  P  P24  1  0.250000  0.420415  0.113659  1
  P  P25  1  0.250000  0.079585  0.613659  1
  P  P26  1  0.750000  0.579585  0.886341  1
  P  P27  1  0.750000  0.920415  0.386341  1
  P  P28  1  0.250000  0.272179  0.864367  1
  P  P29  1  0.250000  0.227821  0.364367  1
  P  P30  1  0.750000  0.727821  0.135633  1
  P  P31  1  0.750000  0.772179  0.635633  1
  P  P32  1  0.250000  0.597600  0.392861  1
  P  P33  1  0.250000  0.902400  0.892861  1
  P  P34  1  0.750000  0.402400  0.607139  1
  P  P35  1  0.750000  0.097600  0.107139  1
