# generated using pymatgen
data_In(S8I)3
_symmetry_space_group_name_H-M   'P 1'
_cell_length_a   15.46786312
_cell_length_b   15.46786277
_cell_length_c   15.46786301
_cell_angle_alpha   118.82629158
_cell_angle_beta   118.82629126
_cell_angle_gamma   118.82628648
_symmetry_Int_Tables_number   1
_chemical_formula_structural   In(S8I)3
_chemical_formula_sum   'In1 S24 I3'
_cell_volume   1036.21388164
_cell_formula_units_Z   1
loop_
 _symmetry_equiv_pos_site_id
 _symmetry_equiv_pos_as_xyz
  1  'x, y, z'
loop_
 _atom_site_type_symbol
 _atom_site_label
 _atom_site_symmetry_multiplicity
 _atom_site_fract_x
 _atom_site_fract_y
 _atom_site_fract_z
 _atom_site_occupancy
  In  In0  1  0.082076  0.082076  0.082076  1
  S  S1  1  0.017426  0.609859  0.609859  1
  S  S2  1  0.609859  0.609859  0.017426  1
  S  S3  1  0.609859  0.017426  0.609859  1
  S  S4  1  0.234503  0.842177  0.715651  1
  S  S5  1  0.842177  0.715651  0.234503  1
  S  S6  1  0.715651  0.234503  0.842177  1
  S  S7  1  0.842177  0.234503  0.715651  1
  S  S8  1  0.234503  0.715651  0.842177  1
  S  S9  1  0.715651  0.842177  0.234503  1
  S  S10  1  0.101669  0.628591  0.449843  1
  S  S11  1  0.628591  0.449843  0.101669  1
  S  S12  1  0.449843  0.101669  0.628591  1
  S  S13  1  0.628591  0.101669  0.449843  1
  S  S14  1  0.101669  0.449843  0.628591  1
  S  S15  1  0.449843  0.628591  0.101669  1
  S  S16  1  0.357929  0.747575  0.621155  1
  S  S17  1  0.747575  0.621155  0.357929  1
  S  S18  1  0.621155  0.357929  0.747575  1
  S  S19  1  0.747575  0.357929  0.621155  1
  S  S20  1  0.357929  0.621155  0.747575  1
  S  S21  1  0.621155  0.747575  0.357929  1
  S  S22  1  0.190332  0.473632  0.473632  1
  S  S23  1  0.473632  0.473632  0.190332  1
  S  S24  1  0.473632  0.190332  0.473632  1
  I  I25  1  0.179976  0.006061  0.006061  1
  I  I26  1  0.006061  0.006061  0.179976  1
  I  I27  1  0.006061  0.179976  0.006061  1
