# generated using pymatgen
data_Sm5Er3(Si3Ni)4
_symmetry_space_group_name_H-M   'P 1'
_cell_length_a   7.99735500
_cell_length_b   7.99735560
_cell_length_c   8.19497200
_cell_angle_alpha   90.00000000
_cell_angle_beta   90.00000000
_cell_angle_gamma   120.00000164
_symmetry_Int_Tables_number   1
_chemical_formula_structural   Sm5Er3(Si3Ni)4
_chemical_formula_sum   'Sm5 Er3 Si12 Ni4'
_cell_volume   453.91118086
_cell_formula_units_Z   1
loop_
 _symmetry_equiv_pos_site_id
 _symmetry_equiv_pos_as_xyz
  1  'x, y, z'
loop_
 _atom_site_type_symbol
 _atom_site_label
 _atom_site_symmetry_multiplicity
 _atom_site_fract_x
 _atom_site_fract_y
 _atom_site_fract_z
 _atom_site_occupancy
  Sm  Sm0  1  0.000000  0.000000  0.250000  1
  Sm  Sm1  1  0.000000  0.000000  0.750000  1
  Sm  Sm2  1  0.499231  0.500769  0.250000  1
  Sm  Sm3  1  0.499231  0.998461  0.250000  1
  Sm  Sm4  1  0.001539  0.500769  0.250000  1
  Er  Er5  1  0.501345  0.498655  0.750000  1
  Er  Er6  1  0.997311  0.498655  0.750000  1
  Er  Er7  1  0.501345  0.002689  0.750000  1
  Si  Si8  1  0.828757  0.171243  0.503192  1
  Si  Si9  1  0.828757  0.657516  0.503192  1
  Si  Si10  1  0.342484  0.171243  0.503192  1
  Si  Si11  1  0.828757  0.171243  0.996808  1
  Si  Si12  1  0.828757  0.657516  0.996808  1
  Si  Si13  1  0.342484  0.171243  0.996808  1
  Si  Si14  1  0.171360  0.828640  0.995311  1
  Si  Si15  1  0.657280  0.828640  0.995311  1
  Si  Si16  1  0.171360  0.342720  0.995311  1
  Si  Si17  1  0.171360  0.828640  0.504689  1
  Si  Si18  1  0.657280  0.828640  0.504689  1
  Si  Si19  1  0.171360  0.342720  0.504689  1
  Ni  Ni20  1  0.666667  0.333333  0.508084  1
  Ni  Ni21  1  0.666667  0.333333  0.991916  1
  Ni  Ni22  1  0.333333  0.666667  0.982270  1
  Ni  Ni23  1  0.333333  0.666667  0.517730  1
