# generated using pymatgen
data_Tb4Dy4TiNb11Si15P
_symmetry_space_group_name_H-M   'P 1'
_cell_length_a   7.04453368
_cell_length_b   7.05010638
_cell_length_c   12.96308800
_cell_angle_alpha   89.98114550
_cell_angle_beta   89.94141535
_cell_angle_gamma   89.93175509
_symmetry_Int_Tables_number   1
_chemical_formula_structural   Tb4Dy4TiNb11Si15P
_chemical_formula_sum   'Tb4 Dy4 Ti1 Nb11 Si15 P1'
_cell_volume   643.80720248
_cell_formula_units_Z   1
loop_
 _symmetry_equiv_pos_site_id
 _symmetry_equiv_pos_as_xyz
  1  'x, y, z'
loop_
 _atom_site_type_symbol
 _atom_site_label
 _atom_site_symmetry_multiplicity
 _atom_site_fract_x
 _atom_site_fract_y
 _atom_site_fract_z
 _atom_site_occupancy
  Tb  Tb0  1  0.158059  0.497883  0.781075  1
  Tb  Tb1  1  0.659447  0.996090  0.967813  1
  Tb  Tb2  1  0.003768  0.340465  0.533502  1
  Tb  Tb3  1  0.997189  0.659459  0.031796  1
  Dy  Dy4  1  0.341474  0.002486  0.468435  1
  Dy  Dy5  1  0.495022  0.845757  0.717494  1
  Dy  Dy6  1  0.501147  0.158163  0.218037  1
  Dy  Dy7  1  0.841393  0.497386  0.282524  1
  Ti  Ti8  1  0.996070  0.849106  0.626971  1
  Nb  Nb9  1  0.328387  0.328550  0.999359  1
  Nb  Nb10  1  0.171416  0.828715  0.250185  1
  Nb  Nb11  1  0.829204  0.172353  0.748982  1
  Nb  Nb12  1  0.670649  0.671346  0.500005  1
  Nb  Nb13  1  0.154753  0.007952  0.871386  1
  Nb  Nb14  1  0.492351  0.652488  0.124738  1
  Nb  Nb15  1  0.504427  0.344814  0.625222  1
  Nb  Nb16  1  0.653693  0.494245  0.875654  1
  Nb  Nb17  1  0.348141  0.506426  0.375984  1
  Nb  Nb18  1  0.846849  0.992902  0.374757  1
  Nb  Nb19  1  0.007128  0.152389  0.126153  1
  Si  Si20  1  0.366415  0.704674  0.931656  1
  Si  Si21  1  0.633135  0.295395  0.433094  1
  Si  Si22  1  0.703263  0.366583  0.067778  1
  Si  Si23  1  0.295823  0.634730  0.567522  1
  Si  Si24  1  0.795338  0.866542  0.182946  1
  Si  Si25  1  0.133816  0.204066  0.318233  1
  Si  Si26  1  0.867256  0.796096  0.815744  1
  Si  Si27  1  0.293207  0.954038  0.063056  1
  Si  Si28  1  0.545704  0.793885  0.313999  1
  Si  Si29  1  0.458792  0.207774  0.815915  1
  Si  Si30  1  0.792597  0.549671  0.684635  1
  Si  Si31  1  0.206407  0.453251  0.186491  1
  Si  Si32  1  0.708632  0.044545  0.564215  1
  Si  Si33  1  0.953401  0.292920  0.936462  1
  Si  Si34  1  0.045852  0.707698  0.437534  1
  P  P35  1  0.199791  0.129155  0.680648  1
