# generated using pymatgen
data_NdMn2(Sb6Os)2
_symmetry_space_group_name_H-M   'P 1'
_cell_length_a   8.13806651
_cell_length_b   8.11729982
_cell_length_c   8.11730002
_cell_angle_alpha   109.20660335
_cell_angle_beta   109.60930997
_cell_angle_gamma   109.49396795
_symmetry_Int_Tables_number   1
_chemical_formula_structural   NdMn2(Sb6Os)2
_chemical_formula_sum   'Nd1 Mn2 Sb12 Os2'
_cell_volume   413.30747517
_cell_formula_units_Z   1
loop_
 _symmetry_equiv_pos_site_id
 _symmetry_equiv_pos_as_xyz
  1  'x, y, z'
loop_
 _atom_site_type_symbol
 _atom_site_label
 _atom_site_symmetry_multiplicity
 _atom_site_fract_x
 _atom_site_fract_y
 _atom_site_fract_z
 _atom_site_occupancy
  Nd  Nd0  1  0.000000  0.000000  0.000000  1
  Mn  Mn1  1  0.500000  0.000000  0.000000  1
  Mn  Mn2  1  0.500000  0.500000  0.500000  1
  Sb  Sb3  1  0.160908  0.821547  0.666638  1
  Sb  Sb4  1  0.839092  0.178453  0.333362  1
  Sb  Sb5  1  0.839092  0.505731  0.660639  1
  Sb  Sb6  1  0.160908  0.494269  0.339361  1
  Sb  Sb7  1  0.819033  0.662013  0.157021  1
  Sb  Sb8  1  0.180967  0.337987  0.842979  1
  Sb  Sb9  1  0.505148  0.664410  0.840736  1
  Sb  Sb10  1  0.494852  0.335590  0.159264  1
  Sb  Sb11  1  0.660746  0.155318  0.821685  1
  Sb  Sb12  1  0.339254  0.844682  0.178315  1
  Sb  Sb13  1  0.660746  0.839061  0.505429  1
  Sb  Sb14  1  0.339254  0.160939  0.494571  1
  Os  Os15  1  0.000000  0.000000  0.500000  1
  Os  Os16  1  0.000000  0.500000  0.000000  1
