# generated using pymatgen
data_ThTa2(Nb2Cl9)2
_symmetry_space_group_name_H-M   'P 1'
_cell_length_a   10.28344333
_cell_length_b   10.28177469
_cell_length_c   10.28723408
_cell_angle_alpha   55.91307471
_cell_angle_beta   55.90209425
_cell_angle_gamma   55.90151898
_symmetry_Int_Tables_number   1
_chemical_formula_structural   ThTa2(Nb2Cl9)2
_chemical_formula_sum   'Th1 Ta2 Nb4 Cl18'
_cell_volume   696.12712211
_cell_formula_units_Z   1
loop_
 _symmetry_equiv_pos_site_id
 _symmetry_equiv_pos_as_xyz
  1  'x, y, z'
loop_
 _atom_site_type_symbol
 _atom_site_label
 _atom_site_symmetry_multiplicity
 _atom_site_fract_x
 _atom_site_fract_y
 _atom_site_fract_z
 _atom_site_occupancy
  Th  Th0  1  0.000320  0.999383  0.000292  1
  Ta  Ta1  1  0.412057  0.306224  0.644843  1
  Ta  Ta2  1  0.355032  0.588354  0.693457  1
  Nb  Nb3  1  0.694687  0.354546  0.587889  1
  Nb  Nb4  1  0.305875  0.645681  0.411319  1
  Nb  Nb5  1  0.646120  0.411565  0.304941  1
  Nb  Nb6  1  0.588836  0.694798  0.353775  1
  Cl  Cl7  1  0.565961  0.163670  0.444958  1
  Cl  Cl8  1  0.226473  0.372217  0.903292  1
  Cl  Cl9  1  0.906223  0.224836  0.370996  1
  Cl  Cl10  1  0.371079  0.906308  0.225247  1
  Cl  Cl11  1  0.774968  0.628870  0.093866  1
  Cl  Cl12  1  0.095656  0.773548  0.631042  1
  Cl  Cl13  1  0.702079  0.959910  0.159745  1
  Cl  Cl14  1  0.958412  0.159106  0.703411  1
  Cl  Cl15  1  0.162037  0.700760  0.955917  1
  Cl  Cl16  1  0.298366  0.044522  0.838789  1
  Cl  Cl17  1  0.040606  0.839789  0.298234  1
  Cl  Cl18  1  0.840524  0.297016  0.040762  1
  Cl  Cl19  1  0.554856  0.434088  0.836249  1
  Cl  Cl20  1  0.165535  0.439021  0.570174  1
  Cl  Cl21  1  0.441967  0.567994  0.163527  1
  Cl  Cl22  1  0.430082  0.834497  0.560798  1
  Cl  Cl23  1  0.836544  0.558357  0.431715  1
  Cl  Cl24  1  0.625702  0.094939  0.774763  1
