# generated using pymatgen
data_Cd3SbCl3
_symmetry_space_group_name_H-M   'P 1'
_cell_length_a   7.55926400
_cell_length_b   8.52515100
_cell_length_c   13.84314300
_cell_angle_alpha   90.00000000
_cell_angle_beta   90.00000000
_cell_angle_gamma   90.00000000
_symmetry_Int_Tables_number   1
_chemical_formula_structural   Cd3SbCl3
_chemical_formula_sum   'Cd12 Sb4 Cl12'
_cell_volume   892.10566703
_cell_formula_units_Z   4
loop_
 _symmetry_equiv_pos_site_id
 _symmetry_equiv_pos_as_xyz
  1  'x, y, z'
loop_
 _atom_site_type_symbol
 _atom_site_label
 _atom_site_symmetry_multiplicity
 _atom_site_fract_x
 _atom_site_fract_y
 _atom_site_fract_z
 _atom_site_occupancy
  Cd  Cd0  1  0.530853  0.750000  0.780621  1
  Cd  Cd1  1  0.030853  0.250000  0.719379  1
  Cd  Cd2  1  0.469147  0.250000  0.219379  1
  Cd  Cd3  1  0.969147  0.750000  0.280621  1
  Cd  Cd4  1  0.500000  0.500000  0.500000  1
  Cd  Cd5  1  0.000000  0.500000  0.000000  1
  Cd  Cd6  1  0.500000  0.000000  0.500000  1
  Cd  Cd7  1  0.000000  0.000000  0.000000  1
  Cd  Cd8  1  0.015124  0.750000  0.588102  1
  Cd  Cd9  1  0.515124  0.250000  0.911898  1
  Cd  Cd10  1  0.984876  0.250000  0.411898  1
  Cd  Cd11  1  0.484876  0.750000  0.088102  1
  Sb  Sb12  1  0.848708  0.750000  0.092736  1
  Sb  Sb13  1  0.348708  0.250000  0.407264  1
  Sb  Sb14  1  0.151292  0.250000  0.907264  1
  Sb  Sb15  1  0.651292  0.750000  0.592736  1
  Cl  Cl16  1  0.803610  0.018388  0.342276  1
  Cl  Cl17  1  0.303610  0.981612  0.157724  1
  Cl  Cl18  1  0.196390  0.518388  0.657724  1
  Cl  Cl19  1  0.696390  0.481612  0.842276  1
  Cl  Cl20  1  0.196390  0.981612  0.657724  1
  Cl  Cl21  1  0.696390  0.018388  0.842276  1
  Cl  Cl22  1  0.803610  0.481612  0.342276  1
  Cl  Cl23  1  0.303610  0.518388  0.157724  1
  Cl  Cl24  1  0.311631  0.750000  0.919429  1
  Cl  Cl25  1  0.811631  0.250000  0.580571  1
  Cl  Cl26  1  0.688369  0.250000  0.080571  1
  Cl  Cl27  1  0.188369  0.750000  0.419429  1
