# generated using pymatgen
data_Nd3Dy5CdHgPt2
_symmetry_space_group_name_H-M   'P 1'
_cell_length_a   9.77660263
_cell_length_b   9.77660249
_cell_length_c   9.76358400
_cell_angle_alpha   60.04403233
_cell_angle_beta   60.04403280
_cell_angle_gamma   60.14931571
_symmetry_Int_Tables_number   1
_chemical_formula_structural   Nd3Dy5CdHgPt2
_chemical_formula_sum   'Nd6 Dy10 Cd2 Hg2 Pt4'
_cell_volume   661.06970360
_cell_formula_units_Z   2
loop_
 _symmetry_equiv_pos_site_id
 _symmetry_equiv_pos_as_xyz
  1  'x, y, z'
loop_
 _atom_site_type_symbol
 _atom_site_label
 _atom_site_symmetry_multiplicity
 _atom_site_fract_x
 _atom_site_fract_y
 _atom_site_fract_z
 _atom_site_occupancy
  Nd  Nd0  1  0.937892  0.561492  0.562551  1
  Nd  Nd1  1  0.561492  0.937892  0.938065  1
  Nd  Nd2  1  0.561492  0.937892  0.562551  1
  Nd  Nd3  1  0.937892  0.561492  0.938065  1
  Nd  Nd4  1  0.561485  0.561485  0.938515  1
  Nd  Nd5  1  0.937438  0.937438  0.562562  1
  Dy  Dy6  1  0.350852  0.350852  0.349815  1
  Dy  Dy7  1  0.350852  0.350852  0.948481  1
  Dy  Dy8  1  0.352325  0.944829  0.351423  1
  Dy  Dy9  1  0.944829  0.352325  0.351423  1
  Dy  Dy10  1  0.811590  0.187773  0.188969  1
  Dy  Dy11  1  0.187773  0.811590  0.811668  1
  Dy  Dy12  1  0.187773  0.811590  0.188969  1
  Dy  Dy13  1  0.811590  0.187773  0.811668  1
  Dy  Dy14  1  0.187646  0.187646  0.812354  1
  Dy  Dy15  1  0.810598  0.810598  0.189402  1
  Cd  Cd16  1  0.579439  0.261937  0.579313  1
  Cd  Cd17  1  0.261937  0.579439  0.579313  1
  Hg  Hg18  1  0.582907  0.582907  0.584796  1
  Hg  Hg19  1  0.582907  0.582907  0.249390  1
  Pt  Pt20  1  0.142785  0.142785  0.143591  1
  Pt  Pt21  1  0.142785  0.142785  0.570840  1
  Pt  Pt22  1  0.142198  0.571528  0.143137  1
  Pt  Pt23  1  0.571528  0.142198  0.143137  1
