# generated using pymatgen
data_Sc2Pa(AlIr)3
_symmetry_space_group_name_H-M   'P 1'
_cell_length_a   7.14229300
_cell_length_b   6.98811970
_cell_length_c   3.80710400
_cell_angle_alpha   90.00000000
_cell_angle_beta   90.00000000
_cell_angle_gamma   120.73253048
_symmetry_Int_Tables_number   1
_chemical_formula_structural   Sc2Pa(AlIr)3
_chemical_formula_sum   'Sc2 Pa1 Al3 Ir3'
_cell_volume   163.33154882
_cell_formula_units_Z   1
loop_
 _symmetry_equiv_pos_site_id
 _symmetry_equiv_pos_as_xyz
  1  'x, y, z'
loop_
 _atom_site_type_symbol
 _atom_site_label
 _atom_site_symmetry_multiplicity
 _atom_site_fract_x
 _atom_site_fract_y
 _atom_site_fract_z
 _atom_site_occupancy
  Sc  Sc0  1  0.997439  0.407215  0.000000  1
  Sc  Sc1  1  0.590224  0.592784  0.000000  1
  Pa  Pa2  1  0.423902  0.000000  0.000000  1
  Al  Al3  1  0.769413  0.000000  0.500000  1
  Al  Al4  1  0.248796  0.263350  0.500000  1
  Al  Al5  1  0.985446  0.736650  0.500000  1
  Ir  Ir6  1  0.005910  0.000000  0.000000  1
  Ir  Ir7  1  0.648640  0.318407  0.500000  1
  Ir  Ir8  1  0.330233  0.681593  0.500000  1
