# generated using pymatgen
data_Tm10HgIr3Os2
_symmetry_space_group_name_H-M   'P 1'
_cell_length_a   10.94128329
_cell_length_b   10.81863000
_cell_length_c   6.36156540
_cell_angle_alpha   90.00000000
_cell_angle_beta   89.38094281
_cell_angle_gamma   90.00000000
_symmetry_Int_Tables_number   1
_chemical_formula_structural   Tm10HgIr3Os2
_chemical_formula_sum   'Tm20 Hg2 Ir6 Os4'
_cell_volume   752.97260806
_cell_formula_units_Z   2
loop_
 _symmetry_equiv_pos_site_id
 _symmetry_equiv_pos_as_xyz
  1  'x, y, z'
loop_
 _atom_site_type_symbol
 _atom_site_label
 _atom_site_symmetry_multiplicity
 _atom_site_fract_x
 _atom_site_fract_y
 _atom_site_fract_z
 _atom_site_occupancy
  Tm  Tm0  1  0.294648  0.086253  0.370825  1
  Tm  Tm1  1  0.294648  0.913747  0.870825  1
  Tm  Tm2  1  0.690315  0.091704  0.859640  1
  Tm  Tm3  1  0.690315  0.908296  0.359640  1
  Tm  Tm4  1  0.571384  0.791389  0.874997  1
  Tm  Tm5  1  0.571384  0.208611  0.374997  1
  Tm  Tm6  1  0.409104  0.792044  0.375213  1
  Tm  Tm7  1  0.409104  0.207956  0.875213  1
  Tm  Tm8  1  0.207627  0.413665  0.621871  1
  Tm  Tm9  1  0.207627  0.586335  0.121871  1
  Tm  Tm10  1  0.792748  0.426531  0.122102  1
  Tm  Tm11  1  0.792748  0.573469  0.622102  1
  Tm  Tm12  1  0.923324  0.703434  0.147071  1
  Tm  Tm13  1  0.923324  0.296566  0.647071  1
  Tm  Tm14  1  0.096533  0.699806  0.623923  1
  Tm  Tm15  1  0.096533  0.300194  0.123923  1
  Tm  Tm16  1  0.016528  0.998388  0.503227  1
  Tm  Tm17  1  0.016528  0.001612  0.003227  1
  Tm  Tm18  1  0.499543  0.498693  0.001717  1
  Tm  Tm19  1  0.499543  0.501307  0.501717  1
  Hg  Hg20  1  0.843286  0.156569  0.251889  1
  Hg  Hg21  1  0.843286  0.843431  0.751889  1
  Ir  Ir22  1  0.155564  0.153786  0.749902  1
  Ir  Ir23  1  0.155564  0.846214  0.249902  1
  Ir  Ir24  1  0.652696  0.348160  0.747137  1
  Ir  Ir25  1  0.652696  0.651840  0.247137  1
  Ir  Ir26  1  0.348279  0.348039  0.251445  1
  Ir  Ir27  1  0.348279  0.651961  0.751445  1
  Os  Os28  1  0.496999  0.000284  0.121197  1
  Os  Os29  1  0.496999  0.999716  0.621197  1
  Os  Os30  1  0.001421  0.501330  0.877842  1
  Os  Os31  1  0.001421  0.498670  0.377842  1
