# generated using pymatgen
data_Ce2PrZn3CuPd2
_symmetry_space_group_name_H-M   'P 1'
_cell_length_a   7.31713362
_cell_length_b   7.27282903
_cell_length_c   4.01393700
_cell_angle_alpha   90.00000000
_cell_angle_beta   90.00000000
_cell_angle_gamma   119.79989791
_symmetry_Int_Tables_number   1
_chemical_formula_structural   Ce2PrZn3CuPd2
_chemical_formula_sum   'Ce2 Pr1 Zn3 Cu1 Pd2'
_cell_volume   185.36072352
_cell_formula_units_Z   1
loop_
 _symmetry_equiv_pos_site_id
 _symmetry_equiv_pos_as_xyz
  1  'x, y, z'
loop_
 _atom_site_type_symbol
 _atom_site_label
 _atom_site_symmetry_multiplicity
 _atom_site_fract_x
 _atom_site_fract_y
 _atom_site_fract_z
 _atom_site_occupancy
  Ce  Ce0  1  0.588930  0.589420  0.000000  1
  Ce  Ce1  1  0.411070  0.000490  0.000000  1
  Pr  Pr2  1  0.000000  0.410391  0.000000  1
  Zn  Zn3  1  0.000000  0.765374  0.500000  1
  Zn  Zn4  1  0.234668  0.232996  0.500000  1
  Zn  Zn5  1  0.765332  0.998328  0.500000  1
  Cu  Cu6  1  0.000000  0.995176  0.000000  1
  Pd  Pd7  1  0.653923  0.330873  0.500000  1
  Pd  Pd8  1  0.346077  0.676952  0.500000  1
