# generated using pymatgen
data_Lu4Ge6Ir3RuPt3
_symmetry_space_group_name_H-M   'P 1'
_cell_length_a   7.23802593
_cell_length_b   7.23802532
_cell_length_c   7.24211900
_cell_angle_alpha   109.48267246
_cell_angle_beta   109.48267075
_cell_angle_gamma   109.45976981
_symmetry_Int_Tables_number   1
_chemical_formula_structural   Lu4Ge6Ir3RuPt3
_chemical_formula_sum   'Lu4 Ge6 Ir3 Ru1 Pt3'
_cell_volume   292.02672007
_cell_formula_units_Z   1
loop_
 _symmetry_equiv_pos_site_id
 _symmetry_equiv_pos_as_xyz
  1  'x, y, z'
loop_
 _atom_site_type_symbol
 _atom_site_label
 _atom_site_symmetry_multiplicity
 _atom_site_fract_x
 _atom_site_fract_y
 _atom_site_fract_z
 _atom_site_occupancy
  Lu  Lu0  1  0.000000  0.000000  0.500000  1
  Lu  Lu1  1  0.004774  0.502387  0.002387  1
  Lu  Lu2  1  0.497613  0.995226  0.997613  1
  Lu  Lu3  1  0.497613  0.502387  0.500000  1
  Ge  Ge4  1  0.684369  0.690486  0.999845  1
  Ge  Ge5  1  0.309514  0.993884  0.309359  1
  Ge  Ge6  1  0.006116  0.315631  0.315475  1
  Ge  Ge7  1  0.309514  0.315631  0.000155  1
  Ge  Ge8  1  0.684369  0.993884  0.684525  1
  Ge  Ge9  1  0.006116  0.690486  0.690641  1
  Ir  Ir10  1  0.249962  0.499925  0.749962  1
  Ir  Ir11  1  0.249962  0.750038  0.500000  1
  Ir  Ir12  1  0.500075  0.750038  0.250038  1
  Ru  Ru13  1  0.000000  0.000000  0.000000  1
  Pt  Pt14  1  0.750210  0.249790  0.500000  1
  Pt  Pt15  1  0.750210  0.500419  0.250210  1
  Pt  Pt16  1  0.499581  0.249790  0.749790  1
