# generated using pymatgen
data_AlZn(CuPt2)2
_symmetry_space_group_name_H-M   'P 1'
_cell_length_a   4.00318500
_cell_length_b   4.00318500
_cell_length_c   7.08910000
_cell_angle_alpha   90.00000000
_cell_angle_beta   90.00000000
_cell_angle_gamma   90.00000000
_symmetry_Int_Tables_number   1
_chemical_formula_structural   AlZn(CuPt2)2
_chemical_formula_sum   'Al1 Zn1 Cu2 Pt4'
_cell_volume   113.60630218
_cell_formula_units_Z   1
loop_
 _symmetry_equiv_pos_site_id
 _symmetry_equiv_pos_as_xyz
  1  'x, y, z'
loop_
 _atom_site_type_symbol
 _atom_site_label
 _atom_site_symmetry_multiplicity
 _atom_site_fract_x
 _atom_site_fract_y
 _atom_site_fract_z
 _atom_site_occupancy
  Al  Al0  1  0.000000  0.000000  0.000000  1
  Zn  Zn1  1  0.000000  0.000000  0.500000  1
  Cu  Cu2  1  0.500000  0.500000  0.000000  1
  Cu  Cu3  1  0.500000  0.500000  0.500000  1
  Pt  Pt4  1  0.500000  0.000000  0.244191  1
  Pt  Pt5  1  0.500000  0.000000  0.755809  1
  Pt  Pt6  1  0.000000  0.500000  0.244191  1
  Pt  Pt7  1  0.000000  0.500000  0.755809  1
