# generated using pymatgen
data_ZrTa(NiH3)2
_symmetry_space_group_name_H-M   'P 1'
_cell_length_a   5.39939017
_cell_length_b   5.39939003
_cell_length_c   4.28462900
_cell_angle_alpha   90.00000000
_cell_angle_beta   90.00000000
_cell_angle_gamma   142.65478503
_symmetry_Int_Tables_number   1
_chemical_formula_structural   ZrTa(NiH3)2
_chemical_formula_sum   'Zr1 Ta1 Ni2 H6'
_cell_volume   75.77334624
_cell_formula_units_Z   1
loop_
 _symmetry_equiv_pos_site_id
 _symmetry_equiv_pos_as_xyz
  1  'x, y, z'
loop_
 _atom_site_type_symbol
 _atom_site_label
 _atom_site_symmetry_multiplicity
 _atom_site_fract_x
 _atom_site_fract_y
 _atom_site_fract_z
 _atom_site_occupancy
  Zr  Zr0  1  0.141478  0.858522  0.250000  1
  Ta  Ta1  1  0.861123  0.138877  0.750000  1
  Ni  Ni2  1  0.565349  0.434651  0.750000  1
  Ni  Ni3  1  0.427893  0.572107  0.250000  1
  H  H4  1  0.062638  0.937362  0.750000  1
  H  H5  1  0.923686  0.076314  0.250000  1
  H  H6  1  0.693722  0.306278  0.505940  1
  H  H7  1  0.315194  0.684806  0.524027  1
  H  H8  1  0.693722  0.306278  0.994060  1
  H  H9  1  0.315194  0.684806  0.975973  1
