# generated using pymatgen
data_Ca20Cd3Hg2Au7
_symmetry_space_group_name_H-M   'P 1'
_cell_length_a   8.21335929
_cell_length_b   8.21380014
_cell_length_c   14.70993100
_cell_angle_alpha   90.00736618
_cell_angle_beta   89.98478551
_cell_angle_gamma   89.62378689
_symmetry_Int_Tables_number   1
_chemical_formula_structural   Ca20Cd3Hg2Au7
_chemical_formula_sum   'Ca20 Cd3 Hg2 Au7'
_cell_volume   992.35304503
_cell_formula_units_Z   1
loop_
 _symmetry_equiv_pos_site_id
 _symmetry_equiv_pos_as_xyz
  1  'x, y, z'
loop_
 _atom_site_type_symbol
 _atom_site_label
 _atom_site_symmetry_multiplicity
 _atom_site_fract_x
 _atom_site_fract_y
 _atom_site_fract_z
 _atom_site_occupancy
  Ca  Ca0  1  0.668156  0.162664  0.110516  1
  Ca  Ca1  1  0.166405  0.664981  0.612193  1
  Ca  Ca2  1  0.331044  0.836477  0.111211  1
  Ca  Ca3  1  0.838653  0.340043  0.609029  1
  Ca  Ca4  1  0.837346  0.668205  0.111549  1
  Ca  Ca5  1  0.329897  0.166875  0.610050  1
  Ca  Ca6  1  0.163037  0.331992  0.111587  1
  Ca  Ca7  1  0.665321  0.828621  0.610212  1
  Ca  Ca8  1  0.842253  0.336655  0.892716  1
  Ca  Ca9  1  0.334271  0.832926  0.386867  1
  Ca  Ca10  1  0.162911  0.668411  0.889634  1
  Ca  Ca11  1  0.664847  0.166203  0.387603  1
  Ca  Ca12  1  0.668908  0.831906  0.891734  1
  Ca  Ca13  1  0.166392  0.335162  0.386621  1
  Ca  Ca14  1  0.326632  0.163122  0.891615  1
  Ca  Ca15  1  0.833792  0.665152  0.386648  1
  Ca  Ca16  1  0.496881  0.506482  0.753376  1
  Ca  Ca17  1  0.999463  0.999997  0.250086  1
  Ca  Ca18  1  0.006276  0.997001  0.749677  1
  Ca  Ca19  1  0.500024  0.499504  0.246707  1
  Cd  Cd20  1  0.499760  0.500123  0.499359  1
  Cd  Cd21  1  0.499910  0.500091  0.000605  1
  Cd  Cd22  1  0.000201  0.999787  0.499411  1
  Hg  Hg23  1  0.631304  0.132105  0.751131  1
  Hg  Hg24  1  0.000443  0.999750  0.000822  1
  Au  Au25  1  0.131473  0.631262  0.248935  1
  Au  Au26  1  0.868393  0.368615  0.248964  1
  Au  Au27  1  0.367790  0.867666  0.751129  1
  Au  Au28  1  0.867559  0.630816  0.751095  1
  Au  Au29  1  0.368490  0.131335  0.248925  1
  Au  Au30  1  0.130979  0.367762  0.751060  1
  Au  Au31  1  0.631190  0.868309  0.248932  1
