# generated using pymatgen
data_Pu4V3ReB16
_symmetry_space_group_name_H-M   'P 1'
_cell_length_a   3.54044300
_cell_length_b   5.96718311
_cell_length_c   11.54110221
_cell_angle_alpha   89.97803804
_cell_angle_beta   90.00000000
_cell_angle_gamma   90.00000000
_symmetry_Int_Tables_number   1
_chemical_formula_structural   Pu4V3ReB16
_chemical_formula_sum   'Pu4 V3 Re1 B16'
_cell_volume   243.82275101
_cell_formula_units_Z   1
loop_
 _symmetry_equiv_pos_site_id
 _symmetry_equiv_pos_as_xyz
  1  'x, y, z'
loop_
 _atom_site_type_symbol
 _atom_site_label
 _atom_site_symmetry_multiplicity
 _atom_site_fract_x
 _atom_site_fract_y
 _atom_site_fract_z
 _atom_site_occupancy
  Pu  Pu0  1  0.000000  0.625086  0.347150  1
  Pu  Pu1  1  0.000000  0.373696  0.652411  1
  Pu  Pu2  1  0.000000  0.124750  0.150038  1
  Pu  Pu3  1  0.000000  0.875113  0.851522  1
  V  V4  1  0.000000  0.627321  0.083042  1
  V  V5  1  0.000000  0.372792  0.916327  1
  V  V6  1  0.000000  0.131679  0.415182  1
  Re  Re7  1  0.000000  0.870698  0.584405  1
  B  B8  1  0.500000  0.783836  0.185036  1
  B  B9  1  0.500000  0.215720  0.815122  1
  B  B10  1  0.500000  0.284874  0.313346  1
  B  B11  1  0.500000  0.715090  0.686729  1
  B  B12  1  0.500000  0.864634  0.032871  1
  B  B13  1  0.500000  0.135251  0.967536  1
  B  B14  1  0.500000  0.365066  0.467148  1
  B  B15  1  0.500000  0.634476  0.532350  1
  B  B16  1  0.500000  0.885269  0.452209  1
  B  B17  1  0.500000  0.115405  0.547175  1
  B  B18  1  0.500000  0.385863  0.046660  1
  B  B19  1  0.500000  0.613362  0.953516  1
  B  B20  1  0.500000  0.975306  0.307399  1
  B  B21  1  0.500000  0.025121  0.692879  1
  B  B22  1  0.500000  0.475058  0.191598  1
  B  B23  1  0.500000  0.524535  0.808351  1
