# generated using pymatgen
data_Tb8Dy11ErPb16
_symmetry_space_group_name_H-M   'P 1'
_cell_length_a   8.22467905
_cell_length_b   8.31117605
_cell_length_c   15.68960500
_cell_angle_alpha   90.00000000
_cell_angle_beta   90.00000000
_cell_angle_gamma   90.01292426
_symmetry_Int_Tables_number   1
_chemical_formula_structural   Tb8Dy11ErPb16
_chemical_formula_sum   'Tb8 Dy11 Er1 Pb16'
_cell_volume   1072.49046688
_cell_formula_units_Z   1
loop_
 _symmetry_equiv_pos_site_id
 _symmetry_equiv_pos_as_xyz
  1  'x, y, z'
loop_
 _atom_site_type_symbol
 _atom_site_label
 _atom_site_symmetry_multiplicity
 _atom_site_fract_x
 _atom_site_fract_y
 _atom_site_fract_z
 _atom_site_occupancy
  Tb  Tb0  1  0.534180  0.322986  0.899961  1
  Tb  Tb1  1  0.034159  0.177018  0.600017  1
  Tb  Tb2  1  0.465770  0.677097  0.399958  1
  Tb  Tb3  1  0.965895  0.823042  0.100056  1
  Tb  Tb4  1  0.465770  0.677097  0.100042  1
  Tb  Tb5  1  0.965895  0.823042  0.399944  1
  Tb  Tb6  1  0.534180  0.322986  0.600039  1
  Tb  Tb7  1  0.034159  0.177018  0.899983  1
  Dy  Dy8  1  0.376568  0.840829  0.879431  1
  Dy  Dy9  1  0.876571  0.659159  0.620592  1
  Dy  Dy10  1  0.623273  0.159082  0.379384  1
  Dy  Dy11  1  0.123504  0.340760  0.120606  1
  Dy  Dy12  1  0.623273  0.159082  0.120616  1
  Dy  Dy13  1  0.123504  0.340760  0.379394  1
  Dy  Dy14  1  0.376568  0.840829  0.620569  1
  Dy  Dy15  1  0.876571  0.659159  0.879408  1
  Dy  Dy16  1  0.208264  0.504135  0.750000  1
  Dy  Dy17  1  0.708262  0.995910  0.750000  1
  Dy  Dy18  1  0.791757  0.495935  0.250000  1
  Er  Er19  1  0.291578  0.004142  0.250000  1
  Pb  Pb20  1  0.282069  0.033954  0.043039  1
  Pb  Pb21  1  0.782057  0.466028  0.457275  1
  Pb  Pb22  1  0.717939  0.965991  0.542621  1
  Pb  Pb23  1  0.217927  0.533979  0.957383  1
  Pb  Pb24  1  0.717939  0.965991  0.957379  1
  Pb  Pb25  1  0.217927  0.533979  0.542617  1
  Pb  Pb26  1  0.282069  0.033954  0.456961  1
  Pb  Pb27  1  0.782057  0.466028  0.042725  1
  Pb  Pb28  1  0.572138  0.626426  0.750000  1
  Pb  Pb29  1  0.072151  0.873584  0.750000  1
  Pb  Pb30  1  0.427741  0.373135  0.250000  1
  Pb  Pb31  1  0.928580  0.126218  0.250000  1
  Pb  Pb32  1  0.345077  0.152070  0.750000  1
  Pb  Pb33  1  0.845079  0.347729  0.750000  1
  Pb  Pb34  1  0.654635  0.847949  0.250000  1
  Pb  Pb35  1  0.154913  0.652917  0.250000  1
