# generated using pymatgen
data_La10Sn3Bi3Se2
_symmetry_space_group_name_H-M   'P 1'
_cell_length_a   9.72660200
_cell_length_b   9.72660163
_cell_length_c   7.02153100
_cell_angle_alpha   90.00000000
_cell_angle_beta   90.00000000
_cell_angle_gamma   120.00000125
_symmetry_Int_Tables_number   1
_chemical_formula_structural   La10Sn3Bi3Se2
_chemical_formula_sum   'La10 Sn3 Bi3 Se2'
_cell_volume   575.28720948
_cell_formula_units_Z   1
loop_
 _symmetry_equiv_pos_site_id
 _symmetry_equiv_pos_as_xyz
  1  'x, y, z'
loop_
 _atom_site_type_symbol
 _atom_site_label
 _atom_site_symmetry_multiplicity
 _atom_site_fract_x
 _atom_site_fract_y
 _atom_site_fract_z
 _atom_site_occupancy
  La  La0  1  0.748033  0.748033  0.750000  1
  La  La1  1  0.251967  0.000000  0.750000  1
  La  La2  1  0.000000  0.251967  0.750000  1
  La  La3  1  0.252777  0.252777  0.250000  1
  La  La4  1  0.747223  0.000000  0.250000  1
  La  La5  1  0.000000  0.747223  0.250000  1
  La  La6  1  0.666667  0.333333  0.001903  1
  La  La7  1  0.333333  0.666667  0.001903  1
  La  La8  1  0.333333  0.666667  0.498097  1
  La  La9  1  0.666667  0.333333  0.498097  1
  Sn  Sn10  1  0.607075  0.607075  0.250000  1
  Sn  Sn11  1  0.392925  0.000000  0.250000  1
  Sn  Sn12  1  0.000000  0.392925  0.250000  1
  Bi  Bi13  1  0.392324  0.392324  0.750000  1
  Bi  Bi14  1  0.607676  0.000000  0.750000  1
  Bi  Bi15  1  0.000000  0.607676  0.750000  1
  Se  Se16  1  0.000000  0.000000  0.999715  1
  Se  Se17  1  0.000000  0.000000  0.500285  1
