# generated using pymatgen
data_Er7Tm5In2(CoSi)2
_symmetry_space_group_name_H-M   'P 1'
_cell_length_a   8.37934431
_cell_length_b   8.37934474
_cell_length_c   8.37771383
_cell_angle_alpha   113.43535331
_cell_angle_beta   110.96504113
_cell_angle_gamma   104.16025468
_symmetry_Int_Tables_number   1
_chemical_formula_structural   Er7Tm5In2(CoSi)2
_chemical_formula_sum   'Er7 Tm5 In2 Co2 Si2'
_cell_volume   449.65162670
_cell_formula_units_Z   1
loop_
 _symmetry_equiv_pos_site_id
 _symmetry_equiv_pos_as_xyz
  1  'x, y, z'
loop_
 _atom_site_type_symbol
 _atom_site_label
 _atom_site_symmetry_multiplicity
 _atom_site_fract_x
 _atom_site_fract_y
 _atom_site_fract_z
 _atom_site_occupancy
  Er  Er0  1  0.444220  0.242028  0.201966  1
  Er  Er1  1  0.556056  0.758139  0.798093  1
  Er  Er2  1  0.039953  0.242037  0.798093  1
  Er  Er3  1  0.959939  0.757746  0.201966  1
  Er  Er4  1  0.186956  0.288593  0.475549  1
  Er  Er5  1  0.812867  0.711353  0.524220  1
  Er  Er6  1  0.187059  0.711450  0.898509  1
  Tm  Tm7  1  0.813021  0.288599  0.101620  1
  Tm  Tm8  1  0.305760  0.616718  0.310815  1
  Tm  Tm9  1  0.694086  0.383156  0.689277  1
  Tm  Tm10  1  0.306121  0.995191  0.689277  1
  Tm  Tm11  1  0.694097  0.005055  0.310815  1
  In  In12  1  0.500035  0.499967  0.000002  1
  In  In13  1  0.999899  0.000157  0.000056  1
  Co  Co14  1  0.108511  0.608427  0.499710  1
  Co  Co15  1  0.891283  0.391199  0.499710  1
  Si  Si16  1  0.360587  0.000017  0.360605  1
  Si  Si17  1  0.639550  0.000166  0.639716  1
