# generated using pymatgen
data_VSbAsCl13
_symmetry_space_group_name_H-M   'P 1'
_cell_length_a   9.93119520
_cell_length_b   9.93119586
_cell_length_c   12.27386100
_cell_angle_alpha   90.00000000
_cell_angle_beta   90.00000000
_cell_angle_gamma   115.30838367
_symmetry_Int_Tables_number   1
_chemical_formula_structural   VSbAsCl13
_chemical_formula_sum   'V2 Sb2 As2 Cl26'
_cell_volume   1094.36528484
_cell_formula_units_Z   2
loop_
 _symmetry_equiv_pos_site_id
 _symmetry_equiv_pos_as_xyz
  1  'x, y, z'
loop_
 _atom_site_type_symbol
 _atom_site_label
 _atom_site_symmetry_multiplicity
 _atom_site_fract_x
 _atom_site_fract_y
 _atom_site_fract_z
 _atom_site_occupancy
  V  V0  1  0.140056  0.859944  0.036065  1
  V  V1  1  0.859944  0.140056  0.536065  1
  Sb  Sb2  1  0.793161  0.206839  0.997706  1
  Sb  Sb3  1  0.206839  0.793161  0.497706  1
  As  As4  1  0.451106  0.548894  0.346660  1
  As  As5  1  0.548894  0.451106  0.846660  1
  Cl  Cl6  1  0.309218  0.012048  0.611621  1
  Cl  Cl7  1  0.864305  0.135695  0.365984  1
  Cl  Cl8  1  0.623898  0.693561  0.869723  1
  Cl  Cl9  1  0.135695  0.864305  0.865984  1
  Cl  Cl10  1  0.922970  0.756023  0.096317  1
  Cl  Cl11  1  0.693561  0.623898  0.369723  1
  Cl  Cl12  1  0.741234  0.258766  0.585829  1
  Cl  Cl13  1  0.243977  0.077030  0.096317  1
  Cl  Cl14  1  0.690782  0.987952  0.111621  1
  Cl  Cl15  1  0.258766  0.741234  0.085829  1
  Cl  Cl16  1  0.077030  0.243977  0.596317  1
  Cl  Cl17  1  0.103060  0.574559  0.381926  1
  Cl  Cl18  1  0.987952  0.690782  0.611621  1
  Cl  Cl19  1  0.012048  0.309218  0.111621  1
  Cl  Cl20  1  0.089035  0.910965  0.384525  1
  Cl  Cl21  1  0.896940  0.425441  0.881926  1
  Cl  Cl22  1  0.574559  0.103060  0.881926  1
  Cl  Cl23  1  0.425441  0.896940  0.381926  1
  Cl  Cl24  1  0.306439  0.376102  0.869723  1
  Cl  Cl25  1  0.376102  0.306439  0.369723  1
  Cl  Cl26  1  0.910965  0.089035  0.884525  1
  Cl  Cl27  1  0.552566  0.447434  0.665537  1
  Cl  Cl28  1  0.325603  0.674397  0.607820  1
  Cl  Cl29  1  0.674397  0.325603  0.107820  1
  Cl  Cl30  1  0.756023  0.922970  0.596317  1
  Cl  Cl31  1  0.447434  0.552566  0.165537  1
