# generated using pymatgen
data_HoTm(FeB)8
_symmetry_space_group_name_H-M   'P 1'
_cell_length_a   6.91818200
_cell_length_b   6.91818200
_cell_length_c   3.82181500
_cell_angle_alpha   90.00000000
_cell_angle_beta   90.00000000
_cell_angle_gamma   90.00000000
_symmetry_Int_Tables_number   1
_chemical_formula_structural   HoTm(FeB)8
_chemical_formula_sum   'Ho1 Tm1 Fe8 B8'
_cell_volume   182.91681330
_cell_formula_units_Z   1
loop_
 _symmetry_equiv_pos_site_id
 _symmetry_equiv_pos_as_xyz
  1  'x, y, z'
loop_
 _atom_site_type_symbol
 _atom_site_label
 _atom_site_symmetry_multiplicity
 _atom_site_fract_x
 _atom_site_fract_y
 _atom_site_fract_z
 _atom_site_occupancy
  Ho  Ho0  1  0.000000  0.000000  0.000000  1
  Tm  Tm1  1  0.500000  0.500000  0.500000  1
  Fe  Fe2  1  0.867602  0.384705  0.109937  1
  Fe  Fe3  1  0.132398  0.615295  0.109937  1
  Fe  Fe4  1  0.884199  0.631790  0.609862  1
  Fe  Fe5  1  0.115801  0.368210  0.609862  1
  Fe  Fe6  1  0.631790  0.115801  0.390138  1
  Fe  Fe7  1  0.368210  0.884199  0.390138  1
  Fe  Fe8  1  0.615295  0.867602  0.890063  1
  Fe  Fe9  1  0.384705  0.132398  0.890063  1
  B  B10  1  0.333391  0.800798  0.892715  1
  B  B11  1  0.666609  0.199202  0.892715  1
  B  B12  1  0.301573  0.167209  0.393083  1
  B  B13  1  0.698427  0.832791  0.393083  1
  B  B14  1  0.167209  0.698427  0.606917  1
  B  B15  1  0.832791  0.301573  0.606917  1
  B  B16  1  0.199202  0.333391  0.107285  1
  B  B17  1  0.800798  0.666609  0.107285  1
