# generated using pymatgen
data_TiIn6IrCl12
_symmetry_space_group_name_H-M   'P 1'
_cell_length_a   8.82915019
_cell_length_b   8.82914978
_cell_length_c   8.82915000
_cell_angle_alpha   105.47063098
_cell_angle_beta   105.47062230
_cell_angle_gamma   105.47063556
_symmetry_Int_Tables_number   1
_chemical_formula_structural   TiIn6IrCl12
_chemical_formula_sum   'Ti1 In6 Ir1 Cl12'
_cell_volume   595.49309364
_cell_formula_units_Z   1
loop_
 _symmetry_equiv_pos_site_id
 _symmetry_equiv_pos_as_xyz
  1  'x, y, z'
loop_
 _atom_site_type_symbol
 _atom_site_label
 _atom_site_symmetry_multiplicity
 _atom_site_fract_x
 _atom_site_fract_y
 _atom_site_fract_z
 _atom_site_occupancy
  Ti  Ti0  1  0.500000  0.500000  0.500000  1
  In  In1  1  0.056956  0.064308  0.321495  1
  In  In2  1  0.321495  0.056956  0.064308  1
  In  In3  1  0.064308  0.321495  0.056956  1
  In  In4  1  0.943044  0.935692  0.678505  1
  In  In5  1  0.678505  0.943044  0.935692  1
  In  In6  1  0.935692  0.678505  0.943044  1
  Ir  Ir7  1  0.000000  0.000000  0.000000  1
  Cl  Cl8  1  0.982560  0.565124  0.191567  1
  Cl  Cl9  1  0.191567  0.982560  0.565124  1
  Cl  Cl10  1  0.565124  0.191567  0.982560  1
  Cl  Cl11  1  0.017440  0.434876  0.808433  1
  Cl  Cl12  1  0.808433  0.017440  0.434876  1
  Cl  Cl13  1  0.434876  0.808433  0.017440  1
  Cl  Cl14  1  0.493216  0.211936  0.393607  1
  Cl  Cl15  1  0.393607  0.493216  0.211936  1
  Cl  Cl16  1  0.211936  0.393607  0.493216  1
  Cl  Cl17  1  0.506784  0.788064  0.606393  1
  Cl  Cl18  1  0.606393  0.506784  0.788064  1
  Cl  Cl19  1  0.788064  0.606393  0.506784  1
