# generated using pymatgen
data_Nd16Cd4Tc2NiPd
_symmetry_space_group_name_H-M   'P 1'
_cell_length_a   9.95296839
_cell_length_b   9.92617877
_cell_length_c   10.05721500
_cell_angle_alpha   59.56234597
_cell_angle_beta   59.65291971
_cell_angle_gamma   59.38789291
_symmetry_Int_Tables_number   1
_chemical_formula_structural   Nd16Cd4Tc2NiPd
_chemical_formula_sum   'Nd16 Cd4 Tc2 Ni1 Pd1'
_cell_volume   695.13660482
_cell_formula_units_Z   1
loop_
 _symmetry_equiv_pos_site_id
 _symmetry_equiv_pos_as_xyz
  1  'x, y, z'
loop_
 _atom_site_type_symbol
 _atom_site_label
 _atom_site_symmetry_multiplicity
 _atom_site_fract_x
 _atom_site_fract_y
 _atom_site_fract_z
 _atom_site_occupancy
  Nd  Nd0  1  0.342915  0.353979  0.349502  1
  Nd  Nd1  1  0.342915  0.353979  0.953603  1
  Nd  Nd2  1  0.342618  0.957930  0.349726  1
  Nd  Nd3  1  0.963254  0.347150  0.344799  1
  Nd  Nd4  1  0.815433  0.188999  0.192081  1
  Nd  Nd5  1  0.188991  0.809988  0.810952  1
  Nd  Nd6  1  0.188991  0.809988  0.190070  1
  Nd  Nd7  1  0.815433  0.188999  0.803488  1
  Nd  Nd8  1  0.191244  0.190098  0.809329  1
  Nd  Nd9  1  0.813802  0.800403  0.192898  1
  Nd  Nd10  1  0.936426  0.556102  0.567672  1
  Nd  Nd11  1  0.555505  0.938760  0.940657  1
  Nd  Nd12  1  0.555505  0.938760  0.565077  1
  Nd  Nd13  1  0.936426  0.556102  0.939800  1
  Nd  Nd14  1  0.564158  0.562378  0.936732  1
  Nd  Nd15  1  0.940573  0.940887  0.559270  1
  Cd  Cd16  1  0.580085  0.579552  0.579793  1
  Cd  Cd17  1  0.580085  0.579552  0.260572  1
  Cd  Cd18  1  0.580163  0.259576  0.580131  1
  Cd  Cd19  1  0.258832  0.579833  0.580668  1
  Tc  Tc20  1  0.142025  0.142300  0.132091  1
  Tc  Tc21  1  0.142025  0.142300  0.583582  1
  Ni  Ni22  1  0.146364  0.576852  0.138392  1
  Pd  Pd23  1  0.576233  0.145535  0.139116  1
