# generated using pymatgen
data_Er8LuMg(BiAu2)2
_symmetry_space_group_name_H-M   'P 1'
_cell_length_a   8.65288565
_cell_length_b   8.65288520
_cell_length_c   8.65288514
_cell_angle_alpha   125.46447240
_cell_angle_beta   125.46446876
_cell_angle_gamma   80.77012482
_symmetry_Int_Tables_number   1
_chemical_formula_structural   Er8LuMg(BiAu2)2
_chemical_formula_sum   'Er8 Lu1 Mg1 Bi2 Au4'
_cell_volume   414.32909182
_cell_formula_units_Z   1
loop_
 _symmetry_equiv_pos_site_id
 _symmetry_equiv_pos_as_xyz
  1  'x, y, z'
loop_
 _atom_site_type_symbol
 _atom_site_label
 _atom_site_symmetry_multiplicity
 _atom_site_fract_x
 _atom_site_fract_y
 _atom_site_fract_z
 _atom_site_occupancy
  Er  Er0  1  0.508961  0.023640  0.812535  1
  Er  Er1  1  0.211104  0.696425  0.187465  1
  Er  Er2  1  0.023640  0.211104  0.514679  1
  Er  Er3  1  0.696425  0.508961  0.485321  1
  Er  Er4  1  0.491039  0.976360  0.187465  1
  Er  Er5  1  0.788896  0.303575  0.812535  1
  Er  Er6  1  0.976360  0.788896  0.485321  1
  Er  Er7  1  0.303575  0.491039  0.514679  1
  Lu  Lu8  1  0.000000  0.000000  0.000000  1
  Mg  Mg9  1  0.500000  0.500000  0.000000  1
  Bi  Bi10  1  0.245152  0.245152  0.000000  1
  Bi  Bi11  1  0.754848  0.754848  0.000000  1
  Au  Au12  1  0.133981  0.642650  0.776631  1
  Au  Au13  1  0.866019  0.357350  0.223369  1
  Au  Au14  1  0.642650  0.866019  0.508668  1
  Au  Au15  1  0.357350  0.133981  0.491332  1
