# generated using pymatgen
data_Ho8Lu4InGaCo4
_symmetry_space_group_name_H-M   'P 1'
_cell_length_a   8.22066810
_cell_length_b   8.22070672
_cell_length_c   8.22066797
_cell_angle_alpha   111.56153915
_cell_angle_beta   110.18297850
_cell_angle_gamma   106.70697091
_symmetry_Int_Tables_number   1
_chemical_formula_structural   Ho8Lu4InGaCo4
_chemical_formula_sum   'Ho8 Lu4 In1 Ga1 Co4'
_cell_volume   426.85677367
_cell_formula_units_Z   1
loop_
 _symmetry_equiv_pos_site_id
 _symmetry_equiv_pos_as_xyz
  1  'x, y, z'
loop_
 _atom_site_type_symbol
 _atom_site_label
 _atom_site_symmetry_multiplicity
 _atom_site_fract_x
 _atom_site_fract_y
 _atom_site_fract_z
 _atom_site_occupancy
  Ho  Ho0  1  0.434806  0.229026  0.205777  1
  Ho  Ho1  1  0.565194  0.770974  0.794223  1
  Ho  Ho2  1  0.023248  0.229026  0.794219  1
  Ho  Ho3  1  0.976752  0.770974  0.205781  1
  Ho  Ho4  1  0.184720  0.283800  0.468540  1
  Ho  Ho5  1  0.815280  0.716200  0.531460  1
  Ho  Ho6  1  0.184740  0.716200  0.900921  1
  Ho  Ho7  1  0.815260  0.283800  0.099079  1
  Lu  Lu8  1  0.317220  0.622654  0.305433  1
  Lu  Lu9  1  0.682780  0.377346  0.694567  1
  Lu  Lu10  1  0.317201  0.011761  0.694560  1
  Lu  Lu11  1  0.682799  0.988239  0.305440  1
  In  In12  1  0.500000  0.500000  0.000000  1
  Ga  Ga13  1  0.000000  0.000000  0.000000  1
  Co  Co14  1  0.374784  0.000000  0.374784  1
  Co  Co15  1  0.625216  0.000000  0.625216  1
  Co  Co16  1  0.113655  0.613650  0.499995  1
  Co  Co17  1  0.886345  0.386350  0.500005  1
