# generated using pymatgen
data_Ba2LiSiI
_symmetry_space_group_name_H-M   'P 1'
_cell_length_a   4.76675100
_cell_length_b   4.76675308
_cell_length_c   18.49943600
_cell_angle_alpha   90.00000000
_cell_angle_beta   90.00000000
_cell_angle_gamma   120.00000636
_symmetry_Int_Tables_number   1
_chemical_formula_structural   Ba2LiSiI
_chemical_formula_sum   'Ba4 Li2 Si2 I2'
_cell_volume   364.02751796
_cell_formula_units_Z   2
loop_
 _symmetry_equiv_pos_site_id
 _symmetry_equiv_pos_as_xyz
  1  'x, y, z'
loop_
 _atom_site_type_symbol
 _atom_site_label
 _atom_site_symmetry_multiplicity
 _atom_site_fract_x
 _atom_site_fract_y
 _atom_site_fract_z
 _atom_site_occupancy
  Ba  Ba0  1  0.000000  0.000000  0.389244  1
  Ba  Ba1  1  0.000000  0.000000  0.889244  1
  Ba  Ba2  1  0.000000  0.000000  0.610341  1
  Ba  Ba3  1  0.000000  0.000000  0.110341  1
  Li  Li4  1  0.333333  0.666667  0.500437  1
  Li  Li5  1  0.666667  0.333333  0.000437  1
  Si  Si6  1  0.666667  0.333333  0.499376  1
  Si  Si7  1  0.333333  0.666667  0.999376  1
  I  I8  1  0.333333  0.666667  0.250602  1
  I  I9  1  0.666667  0.333333  0.750602  1
