# generated using pymatgen
data_Er2BeCo2
_symmetry_space_group_name_H-M   'P 1'
_cell_length_a   5.28793573
_cell_length_b   5.28793574
_cell_length_c   5.28793524
_cell_angle_alpha   139.43111825
_cell_angle_beta   117.45396709
_cell_angle_gamma   77.25217966
_symmetry_Int_Tables_number   1
_chemical_formula_structural   Er2BeCo2
_chemical_formula_sum   'Er2 Be1 Co2'
_cell_volume   83.15642361
_cell_formula_units_Z   1
loop_
 _symmetry_equiv_pos_site_id
 _symmetry_equiv_pos_as_xyz
  1  'x, y, z'
loop_
 _atom_site_type_symbol
 _atom_site_label
 _atom_site_symmetry_multiplicity
 _atom_site_fract_x
 _atom_site_fract_y
 _atom_site_fract_z
 _atom_site_occupancy
  Er  Er0  1  0.696600  0.196601  0.499999  1
  Er  Er1  1  0.303400  0.803400  0.500000  1
  Be  Be2  1  0.000000  0.000000  0.000000  1
  Co  Co3  1  0.759178  0.500000  0.259178  1
  Co  Co4  1  0.240822  0.500000  0.740822  1
