# generated using pymatgen
data_Er4U2P13Rh20
_symmetry_space_group_name_H-M   'P 1'
_cell_length_a   13.37160951
_cell_length_b   13.32052124
_cell_length_c   3.89792718
_cell_angle_alpha   90.12212632
_cell_angle_beta   89.90920005
_cell_angle_gamma   119.96365737
_symmetry_Int_Tables_number   1
_chemical_formula_structural   Er4U2P13Rh20
_chemical_formula_sum   'Er4 U2 P13 Rh20'
_cell_volume   601.48821203
_cell_formula_units_Z   1
loop_
 _symmetry_equiv_pos_site_id
 _symmetry_equiv_pos_as_xyz
  1  'x, y, z'
loop_
 _atom_site_type_symbol
 _atom_site_label
 _atom_site_symmetry_multiplicity
 _atom_site_fract_x
 _atom_site_fract_y
 _atom_site_fract_z
 _atom_site_occupancy
  Er  Er0  1  0.530568  0.717116  0.248164  1
  Er  Er1  1  0.282460  0.811586  0.249164  1
  Er  Er2  1  0.189468  0.472445  0.247706  1
  Er  Er3  1  0.471074  0.281938  0.753199  1
  U  U4  1  0.717627  0.191736  0.752231  1
  U  U5  1  0.808433  0.526187  0.752887  1
  P  P6  1  0.524425  0.137722  0.250425  1
  P  P7  1  0.867344  0.390914  0.247737  1
  P  P8  1  0.612628  0.472868  0.250725  1
  P  P9  1  0.945938  0.713036  0.253791  1
  P  P10  1  0.284102  0.230565  0.255153  1
  P  P11  1  0.765734  0.054390  0.253663  1
  P  P12  1  0.387958  0.527138  0.748828  1
  P  P13  1  0.472026  0.858639  0.748920  1
  P  P14  1  0.143683  0.615974  0.749014  1
  P  P15  1  0.713446  0.770039  0.746162  1
  P  P16  1  0.228577  0.944767  0.746082  1
  P  P17  1  0.056736  0.285335  0.745142  1
  P  P18  1  0.998623  0.999443  0.008967  1
  Rh  Rh19  1  0.334715  0.666286  0.748034  1
  Rh  Rh20  1  0.920770  0.249367  0.251256  1
  Rh  Rh21  1  0.750569  0.670840  0.253358  1
  Rh  Rh22  1  0.329344  0.082137  0.254079  1
  Rh  Rh23  1  0.434284  0.019861  0.751116  1
  Rh  Rh24  1  0.982205  0.417027  0.749070  1
  Rh  Rh25  1  0.583983  0.562159  0.750989  1
  Rh  Rh26  1  0.670291  0.332642  0.257647  1
  Rh  Rh27  1  0.093466  0.188637  0.246130  1
  Rh  Rh28  1  0.810608  0.905490  0.247897  1
  Rh  Rh29  1  0.092984  0.905964  0.248683  1
  Rh  Rh30  1  0.025491  0.583838  0.246662  1
  Rh  Rh31  1  0.417408  0.435850  0.247901  1
  Rh  Rh32  1  0.555992  0.974875  0.248332  1
  Rh  Rh33  1  0.669999  0.922763  0.745645  1
  Rh  Rh34  1  0.078542  0.749776  0.745456  1
  Rh  Rh35  1  0.250862  0.329774  0.744077  1
  Rh  Rh36  1  0.904241  0.813584  0.751952  1
  Rh  Rh37  1  0.185203  0.092609  0.753710  1
  Rh  Rh38  1  0.908193  0.094681  0.750047  1
