# generated using pymatgen
data_Zr6Ga2CO
_symmetry_space_group_name_H-M   'P 1'
_cell_length_a   5.96589214
_cell_length_b   5.96589210
_cell_length_c   8.98966000
_cell_angle_alpha   90.11070412
_cell_angle_beta   89.88929588
_cell_angle_gamma   147.14124448
_symmetry_Int_Tables_number   1
_chemical_formula_structural   Zr6Ga2CO
_chemical_formula_sum   'Zr6 Ga2 C1 O1'
_cell_volume   173.59966376
_cell_formula_units_Z   1
loop_
 _symmetry_equiv_pos_site_id
 _symmetry_equiv_pos_as_xyz
  1  'x, y, z'
loop_
 _atom_site_type_symbol
 _atom_site_label
 _atom_site_symmetry_multiplicity
 _atom_site_fract_x
 _atom_site_fract_y
 _atom_site_fract_z
 _atom_site_occupancy
  Zr  Zr0  1  0.629447  0.370550  0.051210  1
  Zr  Zr1  1  0.950621  0.049376  0.247098  1
  Zr  Zr2  1  0.630918  0.369079  0.454760  1
  Zr  Zr3  1  0.369079  0.630918  0.545239  1
  Zr  Zr4  1  0.049376  0.950621  0.752902  1
  Zr  Zr5  1  0.370550  0.629447  0.948789  1
  Ga  Ga6  1  0.253173  0.746823  0.253693  1
  Ga  Ga7  1  0.746823  0.253173  0.746307  1
  C  C8  1  0.000000  0.000000  0.000000  1
  O  O9  1  0.000000  0.000000  0.500000  1
