# generated using pymatgen
data_Tb5Nd(CuRh8)2
_symmetry_space_group_name_H-M   'P 1'
_cell_length_a   5.30552613
_cell_length_b   5.30576401
_cell_length_c   17.26450600
_cell_angle_alpha   90.00000000
_cell_angle_beta   90.00000000
_cell_angle_gamma   119.98045129
_symmetry_Int_Tables_number   1
_chemical_formula_structural   Tb5Nd(CuRh8)2
_chemical_formula_sum   'Tb5 Nd1 Cu2 Rh16'
_cell_volume   420.96568123
_cell_formula_units_Z   1
loop_
 _symmetry_equiv_pos_site_id
 _symmetry_equiv_pos_as_xyz
  1  'x, y, z'
loop_
 _atom_site_type_symbol
 _atom_site_label
 _atom_site_symmetry_multiplicity
 _atom_site_fract_x
 _atom_site_fract_y
 _atom_site_fract_z
 _atom_site_occupancy
  Tb  Tb0  1  0.333328  0.666676  0.540812  1
  Tb  Tb1  1  0.666675  0.333317  0.039863  1
  Tb  Tb2  1  0.666675  0.333317  0.460137  1
  Tb  Tb3  1  0.333328  0.666676  0.959188  1
  Tb  Tb4  1  0.333333  0.666668  0.750000  1
  Nd  Nd5  1  0.666667  0.333335  0.250000  1
  Cu  Cu6  1  0.000003  0.999994  0.250000  1
  Cu  Cu7  1  0.999998  0.000006  0.750000  1
  Rh  Rh8  1  0.167494  0.334982  0.125157  1
  Rh  Rh9  1  0.832516  0.665029  0.626182  1
  Rh  Rh10  1  0.665017  0.832507  0.125157  1
  Rh  Rh11  1  0.167490  0.832507  0.125156  1
  Rh  Rh12  1  0.832515  0.167486  0.626174  1
  Rh  Rh13  1  0.334973  0.167493  0.626180  1
  Rh  Rh14  1  0.832516  0.665029  0.873818  1
  Rh  Rh15  1  0.832515  0.167486  0.873826  1
  Rh  Rh16  1  0.334973  0.167493  0.873820  1
  Rh  Rh17  1  0.665017  0.832507  0.374843  1
  Rh  Rh18  1  0.167490  0.832507  0.374844  1
  Rh  Rh19  1  0.167494  0.334982  0.374843  1
  Rh  Rh20  1  0.333332  0.666677  0.250000  1
  Rh  Rh21  1  0.666659  0.333344  0.750000  1
  Rh  Rh22  1  0.999999  0.999990  0.999477  1
  Rh  Rh23  1  0.999999  0.999990  0.500523  1
