# generated using pymatgen
data_Eu2AgPd3
_symmetry_space_group_name_H-M   'P 1'
_cell_length_a   5.55219434
_cell_length_b   5.55219467
_cell_length_c   5.55219518
_cell_angle_alpha   61.88525785
_cell_angle_beta   61.88526123
_cell_angle_gamma   61.88525471
_symmetry_Int_Tables_number   1
_chemical_formula_structural   Eu2AgPd3
_chemical_formula_sum   'Eu2 Ag1 Pd3'
_cell_volume   126.13384552
_cell_formula_units_Z   1
loop_
 _symmetry_equiv_pos_site_id
 _symmetry_equiv_pos_as_xyz
  1  'x, y, z'
loop_
 _atom_site_type_symbol
 _atom_site_label
 _atom_site_symmetry_multiplicity
 _atom_site_fract_x
 _atom_site_fract_y
 _atom_site_fract_z
 _atom_site_occupancy
  Eu  Eu0  1  0.124483  0.124483  0.124483  1
  Eu  Eu1  1  0.875517  0.875517  0.875517  1
  Ag  Ag2  1  0.500000  0.500000  0.500000  1
  Pd  Pd3  1  0.000000  0.500000  0.500000  1
  Pd  Pd4  1  0.500000  0.500000  0.000000  1
  Pd  Pd5  1  0.500000  0.000000  0.500000  1
