# generated using pymatgen
data_Pr3Sn3Hg2
_symmetry_space_group_name_H-M   'P 1'
_cell_length_a   6.64622640
_cell_length_b   6.64622607
_cell_length_c   10.49207900
_cell_angle_alpha   90.00000000
_cell_angle_beta   90.00000000
_cell_angle_gamma   103.28665141
_symmetry_Int_Tables_number   1
_chemical_formula_structural   Pr3Sn3Hg2
_chemical_formula_sum   'Pr6 Sn6 Hg4'
_cell_volume   451.05382501
_cell_formula_units_Z   2
loop_
 _symmetry_equiv_pos_site_id
 _symmetry_equiv_pos_as_xyz
  1  'x, y, z'
loop_
 _atom_site_type_symbol
 _atom_site_label
 _atom_site_symmetry_multiplicity
 _atom_site_fract_x
 _atom_site_fract_y
 _atom_site_fract_z
 _atom_site_occupancy
  Pr  Pr0  1  0.627572  0.627572  0.250000  1
  Pr  Pr1  1  0.372428  0.372428  0.750000  1
  Pr  Pr2  1  0.204134  0.795866  0.500000  1
  Pr  Pr3  1  0.204134  0.795866  0.000000  1
  Pr  Pr4  1  0.795866  0.204134  0.500000  1
  Pr  Pr5  1  0.795866  0.204134  0.000000  1
  Sn  Sn6  1  0.017506  0.017506  0.250000  1
  Sn  Sn7  1  0.982494  0.982494  0.750000  1
  Sn  Sn8  1  0.491211  0.066746  0.250000  1
  Sn  Sn9  1  0.933254  0.508789  0.750000  1
  Sn  Sn10  1  0.508789  0.933254  0.750000  1
  Sn  Sn11  1  0.066746  0.491211  0.250000  1
  Hg  Hg12  1  0.312946  0.312946  0.044022  1
  Hg  Hg13  1  0.687054  0.687054  0.955978  1
  Hg  Hg14  1  0.312946  0.312946  0.455978  1
  Hg  Hg15  1  0.687054  0.687054  0.544022  1
