# generated using pymatgen
data_Ta6Be6Co16P
_symmetry_space_group_name_H-M   'P 1'
_cell_length_a   7.69786603
_cell_length_b   7.70940647
_cell_length_c   7.68715591
_cell_angle_alpha   59.90014569
_cell_angle_beta   59.84782481
_cell_angle_gamma   59.94299436
_symmetry_Int_Tables_number   1
_chemical_formula_structural   Ta6Be6Co16P
_chemical_formula_sum   'Ta6 Be6 Co16 P1'
_cell_volume   321.82903930
_cell_formula_units_Z   1
loop_
 _symmetry_equiv_pos_site_id
 _symmetry_equiv_pos_as_xyz
  1  'x, y, z'
loop_
 _atom_site_type_symbol
 _atom_site_label
 _atom_site_symmetry_multiplicity
 _atom_site_fract_x
 _atom_site_fract_y
 _atom_site_fract_z
 _atom_site_occupancy
  Ta  Ta0  1  0.202522  0.797554  0.797309  1
  Ta  Ta1  1  0.797310  0.797535  0.202539  1
  Ta  Ta2  1  0.797478  0.202446  0.202691  1
  Ta  Ta3  1  0.202690  0.202465  0.797461  1
  Ta  Ta4  1  0.797435  0.202407  0.797434  1
  Ta  Ta5  1  0.202565  0.797593  0.202566  1
  Be  Be6  1  0.500000  0.000000  0.500000  1
  Be  Be7  1  0.500000  0.500000  0.000000  1
  Be  Be8  1  0.000000  0.000000  0.500000  1
  Be  Be9  1  0.000000  0.500000  0.000000  1
  Be  Be10  1  0.000000  0.500000  0.500000  1
  Be  Be11  1  0.500000  0.000000  0.000000  1
  Co  Co12  1  0.619588  0.619658  0.141234  1
  Co  Co13  1  0.168220  0.495350  0.168052  1
  Co  Co14  1  0.859074  0.380270  0.380211  1
  Co  Co15  1  0.504432  0.831882  0.832012  1
  Co  Co16  1  0.495568  0.168118  0.167988  1
  Co  Co17  1  0.831910  0.831950  0.504374  1
  Co  Co18  1  0.168090  0.168050  0.495626  1
  Co  Co19  1  0.140926  0.619730  0.619789  1
  Co  Co20  1  0.168299  0.168253  0.168110  1
  Co  Co21  1  0.380412  0.380342  0.858766  1
  Co  Co22  1  0.619696  0.619774  0.619862  1
  Co  Co23  1  0.380259  0.859268  0.380127  1
  Co  Co24  1  0.380304  0.380226  0.380138  1
  Co  Co25  1  0.831701  0.831747  0.831890  1
  Co  Co26  1  0.619741  0.140732  0.619873  1
  Co  Co27  1  0.831780  0.504650  0.831948  1
  P  P28  1  0.500000  0.500000  0.500000  1
