# generated using pymatgen
data_Pr3NdIn2Ir2Rh
_symmetry_space_group_name_H-M   'P 1'
_cell_length_a   7.79932778
_cell_length_b   7.79932701
_cell_length_c   4.23366100
_cell_angle_alpha   90.00000000
_cell_angle_beta   90.00000000
_cell_angle_gamma   121.07795454
_symmetry_Int_Tables_number   1
_chemical_formula_structural   Pr3NdIn2Ir2Rh
_chemical_formula_sum   'Pr3 Nd1 In2 Ir2 Rh1'
_cell_volume   220.56692630
_cell_formula_units_Z   1
loop_
 _symmetry_equiv_pos_site_id
 _symmetry_equiv_pos_as_xyz
  1  'x, y, z'
loop_
 _atom_site_type_symbol
 _atom_site_label
 _atom_site_symmetry_multiplicity
 _atom_site_fract_x
 _atom_site_fract_y
 _atom_site_fract_z
 _atom_site_occupancy
  Pr  Pr0  1  0.024928  0.583857  0.500000  1
  Pr  Pr1  1  0.384501  0.384501  0.500000  1
  Pr  Pr2  1  0.583857  0.024928  0.500000  1
  Nd  Nd3  1  0.754691  0.754691  0.000000  1
  In  In4  1  0.994812  0.248593  0.000000  1
  In  In5  1  0.248593  0.994812  0.000000  1
  Ir  Ir6  1  0.331889  0.666497  0.000000  1
  Ir  Ir7  1  0.666497  0.331889  0.000000  1
  Rh  Rh8  1  0.010234  0.010234  0.500000  1
