# generated using pymatgen
data_Pr3Nd3(Os2O9)2
_symmetry_space_group_name_H-M   'P 1'
_cell_length_a   5.67300157
_cell_length_b   6.85894982
_cell_length_c   11.13105082
_cell_angle_alpha   77.03829382
_cell_angle_beta   75.19686854
_cell_angle_gamma   69.31322374
_symmetry_Int_Tables_number   1
_chemical_formula_structural   Pr3Nd3(Os2O9)2
_chemical_formula_sum   'Pr3 Nd3 Os4 O18'
_cell_volume   387.41896065
_cell_formula_units_Z   1
loop_
 _symmetry_equiv_pos_site_id
 _symmetry_equiv_pos_as_xyz
  1  'x, y, z'
loop_
 _atom_site_type_symbol
 _atom_site_label
 _atom_site_symmetry_multiplicity
 _atom_site_fract_x
 _atom_site_fract_y
 _atom_site_fract_z
 _atom_site_occupancy
  Pr  Pr0  1  0.008482  0.218630  0.269801  1
  Pr  Pr1  1  0.991597  0.781112  0.729893  1
  Pr  Pr2  1  0.231588  0.157326  0.882881  1
  Nd  Nd3  1  0.766157  0.844907  0.117659  1
  Nd  Nd4  1  0.280404  0.597514  0.377576  1
  Nd  Nd5  1  0.719834  0.402627  0.622178  1
  Os  Os6  1  0.512537  0.390567  0.090072  1
  Os  Os7  1  0.487235  0.609975  0.910571  1
  Os  Os8  1  0.357674  0.128394  0.569477  1
  Os  Os9  1  0.642637  0.871239  0.429962  1
  O  O10  1  0.305864  0.418682  0.588244  1
  O  O11  1  0.694202  0.580847  0.411765  1
  O  O12  1  0.588095  0.061884  0.690639  1
  O  O13  1  0.412339  0.937242  0.308785  1
  O  O14  1  0.856759  0.187158  0.063284  1
  O  O15  1  0.141662  0.811206  0.938981  1
  O  O16  1  0.388316  0.169080  0.072291  1
  O  O17  1  0.613030  0.829403  0.929138  1
  O  O18  1  0.065572  0.121152  0.712574  1
  O  O19  1  0.933886  0.878151  0.286491  1
  O  O20  1  0.181869  0.506075  0.193629  1
  O  O21  1  0.818468  0.493856  0.806443  1
  O  O22  1  0.103075  0.251971  0.462072  1
  O  O23  1  0.897605  0.748405  0.537276  1
  O  O24  1  0.643198  0.523707  0.184120  1
  O  O25  1  0.357687  0.478888  0.814787  1
  O  O26  1  0.624723  0.178289  0.418847  1
  O  O27  1  0.375507  0.821713  0.580564  1
