# generated using pymatgen
data_Hf18Re8PIr
_symmetry_space_group_name_H-M   'P 1'
_cell_length_a   8.58095600
_cell_length_b   8.58095610
_cell_length_c   8.61489600
_cell_angle_alpha   90.00000000
_cell_angle_beta   90.00000000
_cell_angle_gamma   119.99999962
_symmetry_Int_Tables_number   1
_chemical_formula_structural   Hf18Re8PIr
_chemical_formula_sum   'Hf18 Re8 P1 Ir1'
_cell_volume   549.35366664
_cell_formula_units_Z   1
loop_
 _symmetry_equiv_pos_site_id
 _symmetry_equiv_pos_as_xyz
  1  'x, y, z'
loop_
 _atom_site_type_symbol
 _atom_site_label
 _atom_site_symmetry_multiplicity
 _atom_site_fract_x
 _atom_site_fract_y
 _atom_site_fract_z
 _atom_site_occupancy
  Hf  Hf0  1  0.196002  0.803998  0.448738  1
  Hf  Hf1  1  0.196002  0.392003  0.448738  1
  Hf  Hf2  1  0.607997  0.803998  0.448738  1
  Hf  Hf3  1  0.804344  0.195656  0.548957  1
  Hf  Hf4  1  0.804344  0.608688  0.548957  1
  Hf  Hf5  1  0.391312  0.195656  0.548957  1
  Hf  Hf6  1  0.804344  0.195656  0.951043  1
  Hf  Hf7  1  0.804344  0.608688  0.951043  1
  Hf  Hf8  1  0.391312  0.195656  0.951043  1
  Hf  Hf9  1  0.196002  0.803998  0.051262  1
  Hf  Hf10  1  0.196002  0.392003  0.051262  1
  Hf  Hf11  1  0.607997  0.803998  0.051262  1
  Hf  Hf12  1  0.540903  0.459097  0.250000  1
  Hf  Hf13  1  0.540903  0.081805  0.250000  1
  Hf  Hf14  1  0.918195  0.459097  0.250000  1
  Hf  Hf15  1  0.459939  0.540061  0.750000  1
  Hf  Hf16  1  0.459939  0.919879  0.750000  1
  Hf  Hf17  1  0.080121  0.540061  0.750000  1
  Re  Re18  1  0.889195  0.110805  0.250000  1
  Re  Re19  1  0.889195  0.778390  0.250000  1
  Re  Re20  1  0.221610  0.110805  0.250000  1
  Re  Re21  1  0.109790  0.890210  0.750000  1
  Re  Re22  1  0.109790  0.219581  0.750000  1
  Re  Re23  1  0.780419  0.890210  0.750000  1
  Re  Re24  1  0.000000  0.000000  0.498831  1
  Re  Re25  1  0.000000  0.000000  0.001169  1
  P  P26  1  0.666667  0.333333  0.750000  1
  Ir  Ir27  1  0.333333  0.666667  0.250000  1
