# generated using pymatgen
data_Pr5Gd5(SiAs)4
_symmetry_space_group_name_H-M   'P 1'
_cell_length_a   8.66251247
_cell_length_b   8.08048278
_cell_length_c   7.82171400
_cell_angle_alpha   90.14802433
_cell_angle_beta   90.23110154
_cell_angle_gamma   124.72718882
_symmetry_Int_Tables_number   1
_chemical_formula_structural   Pr5Gd5(SiAs)4
_chemical_formula_sum   'Pr5 Gd5 Si4 As4'
_cell_volume   449.96326551
_cell_formula_units_Z   1
loop_
 _symmetry_equiv_pos_site_id
 _symmetry_equiv_pos_as_xyz
  1  'x, y, z'
loop_
 _atom_site_type_symbol
 _atom_site_label
 _atom_site_symmetry_multiplicity
 _atom_site_fract_x
 _atom_site_fract_y
 _atom_site_fract_z
 _atom_site_occupancy
  Pr  Pr0  1  0.057785  0.345953  0.323591  1
  Pr  Pr1  1  0.942097  0.653934  0.676840  1
  Pr  Pr2  1  0.442065  0.154506  0.821864  1
  Pr  Pr3  1  0.787756  0.519661  0.167392  1
  Pr  Pr4  1  0.558939  0.847700  0.177250  1
  Gd  Gd5  1  0.214095  0.479981  0.833074  1
  Gd  Gd6  1  0.714465  0.979497  0.665595  1
  Gd  Gd7  1  0.283883  0.018481  0.334820  1
  Gd  Gd8  1  0.000648  0.000004  0.999162  1
  Gd  Gd9  1  0.499147  0.500413  0.500008  1
  Si  Si10  1  0.380400  0.383606  0.117868  1
  Si  Si11  1  0.613988  0.616412  0.879771  1
  Si  Si12  1  0.115829  0.116406  0.617940  1
  Si  Si13  1  0.884975  0.887033  0.384440  1
  As  As14  1  0.820052  0.222967  0.968629  1
  As  As15  1  0.188537  0.778454  0.026232  1
  As  As16  1  0.677392  0.268402  0.476390  1
  As  As17  1  0.317949  0.726590  0.529129  1
