# generated using pymatgen
data_Re2P3
_symmetry_space_group_name_H-M   'P 1'
_cell_length_a   6.43707061
_cell_length_b   6.38124785
_cell_length_c   7.73072873
_cell_angle_alpha   95.67446271
_cell_angle_beta   101.76796636
_cell_angle_gamma   104.68547745
_symmetry_Int_Tables_number   1
_chemical_formula_structural   Re2P3
_chemical_formula_sum   'Re8 P12'
_cell_volume   296.89550011
_cell_formula_units_Z   4
loop_
 _symmetry_equiv_pos_site_id
 _symmetry_equiv_pos_as_xyz
  1  'x, y, z'
loop_
 _atom_site_type_symbol
 _atom_site_label
 _atom_site_symmetry_multiplicity
 _atom_site_fract_x
 _atom_site_fract_y
 _atom_site_fract_z
 _atom_site_occupancy
  Re  Re0  1  0.911949  0.416108  0.145022  1
  Re  Re1  1  0.088051  0.583892  0.854978  1
  Re  Re2  1  0.368960  0.419388  0.134664  1
  Re  Re3  1  0.631040  0.580612  0.865336  1
  Re  Re4  1  0.532593  0.862150  0.360218  1
  Re  Re5  1  0.467407  0.137850  0.639782  1
  Re  Re6  1  0.084033  0.871574  0.369976  1
  Re  Re7  1  0.915967  0.128426  0.630024  1
  P  P8  1  0.734917  0.578470  0.354937  1
  P  P9  1  0.265083  0.421530  0.645063  1
  P  P10  1  0.235675  0.560716  0.385958  1
  P  P11  1  0.764325  0.439284  0.614042  1
  P  P12  1  0.860311  0.127937  0.315999  1
  P  P13  1  0.139689  0.872063  0.684001  1
  P  P14  1  0.371245  0.153982  0.322373  1
  P  P15  1  0.628755  0.846018  0.677627  1
  P  P16  1  0.542280  0.192219  0.966812  1
  P  P17  1  0.457720  0.807781  0.033188  1
  P  P18  1  0.031259  0.176072  0.955705  1
  P  P19  1  0.968741  0.823928  0.044295  1
