# generated using pymatgen
data_Nd20(InSi3)3
_symmetry_space_group_name_H-M   'P 1'
_cell_length_a   7.85846700
_cell_length_b   7.85846700
_cell_length_c   14.55645000
_cell_angle_alpha   90.00000000
_cell_angle_beta   90.00000000
_cell_angle_gamma   90.00000000
_symmetry_Int_Tables_number   1
_chemical_formula_structural   Nd20(InSi3)3
_chemical_formula_sum   'Nd20 In3 Si9'
_cell_volume   898.94090023
_cell_formula_units_Z   1
loop_
 _symmetry_equiv_pos_site_id
 _symmetry_equiv_pos_as_xyz
  1  'x, y, z'
loop_
 _atom_site_type_symbol
 _atom_site_label
 _atom_site_symmetry_multiplicity
 _atom_site_fract_x
 _atom_site_fract_y
 _atom_site_fract_z
 _atom_site_occupancy
  Nd  Nd0  1  0.327305  0.680434  0.114767  1
  Nd  Nd1  1  0.180434  0.172695  0.114767  1
  Nd  Nd2  1  0.500000  0.000000  0.729179  1
  Nd  Nd3  1  0.311607  0.665391  0.393305  1
  Nd  Nd4  1  0.672221  0.681559  0.885426  1
  Nd  Nd5  1  0.165391  0.188393  0.393305  1
  Nd  Nd6  1  0.688393  0.334609  0.393305  1
  Nd  Nd7  1  0.165211  0.811088  0.606605  1
  Nd  Nd8  1  0.327779  0.318441  0.885426  1
  Nd  Nd9  1  0.181559  0.827779  0.885426  1
  Nd  Nd10  1  0.500000  0.000000  0.268973  1
  Nd  Nd11  1  0.834789  0.188912  0.606605  1
  Nd  Nd12  1  0.311088  0.334789  0.606605  1
  Nd  Nd13  1  0.834609  0.811607  0.393305  1
  Nd  Nd14  1  0.818441  0.172221  0.885426  1
  Nd  Nd15  1  0.819566  0.827305  0.114767  1
  Nd  Nd16  1  0.000000  0.500000  0.236870  1
  Nd  Nd17  1  0.000000  0.500000  0.764441  1
  Nd  Nd18  1  0.672695  0.319566  0.114767  1
  Nd  Nd19  1  0.688912  0.665211  0.606605  1
  In  In20  1  0.000000  0.500000  0.999605  1
  In  In21  1  0.500000  0.000000  0.001201  1
  In  In22  1  0.500000  0.000000  0.499498  1
  Si  Si23  1  0.115491  0.113604  0.745929  1
  Si  Si24  1  0.386396  0.615491  0.745929  1
  Si  Si25  1  0.613722  0.615967  0.254137  1
  Si  Si26  1  0.115967  0.886278  0.254137  1
  Si  Si27  1  0.613604  0.384509  0.745929  1
  Si  Si28  1  0.884509  0.886396  0.745929  1
  Si  Si29  1  0.386278  0.384033  0.254137  1
  Si  Si30  1  0.884033  0.113722  0.254137  1
  Si  Si31  1  0.000000  0.500000  0.499561  1
