# generated using pymatgen
data_Tb2Er14In6CoNi
_symmetry_space_group_name_H-M   'P 1'
_cell_length_a   10.34003261
_cell_length_b   10.34003319
_cell_length_c   6.94769641
_cell_angle_alpha   90.02174507
_cell_angle_beta   89.97825813
_cell_angle_gamma   120.02818005
_symmetry_Int_Tables_number   1
_chemical_formula_structural   Tb2Er14In6CoNi
_chemical_formula_sum   'Tb2 Er14 In6 Co1 Ni1'
_cell_volume   643.11978666
_cell_formula_units_Z   1
loop_
 _symmetry_equiv_pos_site_id
 _symmetry_equiv_pos_as_xyz
  1  'x, y, z'
loop_
 _atom_site_type_symbol
 _atom_site_label
 _atom_site_symmetry_multiplicity
 _atom_site_fract_x
 _atom_site_fract_y
 _atom_site_fract_z
 _atom_site_occupancy
  Tb  Tb0  1  0.533075  0.066509  0.792640  1
  Tb  Tb1  1  0.933491  0.466925  0.792640  1
  Er  Er2  1  0.533564  0.466436  0.793787  1
  Er  Er3  1  0.464563  0.928940  0.291381  1
  Er  Er4  1  0.071060  0.535437  0.291381  1
  Er  Er5  1  0.464784  0.535216  0.291982  1
  Er  Er6  1  0.822110  0.644981  0.497933  1
  Er  Er7  1  0.355019  0.177890  0.497933  1
  Er  Er8  1  0.822745  0.177255  0.497322  1
  Er  Er9  1  0.179038  0.356926  0.999696  1
  Er  Er10  1  0.643074  0.820962  0.999696  1
  Er  Er11  1  0.178096  0.821904  0.000177  1
  Er  Er12  1  0.666357  0.333643  0.182247  1
  Er  Er13  1  0.333732  0.666268  0.682839  1
  Er  Er14  1  0.000018  0.999982  0.778151  1
  Er  Er15  1  0.999924  0.000076  0.279988  1
  In  In16  1  0.836966  0.674529  0.038647  1
  In  In17  1  0.325471  0.163034  0.038647  1
  In  In18  1  0.837530  0.162470  0.038902  1
  In  In19  1  0.162625  0.325255  0.538488  1
  In  In20  1  0.674745  0.837375  0.538488  1
  In  In21  1  0.162657  0.837343  0.538383  1
  Co  Co22  1  0.333323  0.666677  0.068036  1
  Ni  Ni23  1  0.666039  0.333961  0.566525  1
