# generated using pymatgen
data_Sc5Nb3P12Ir13Ru3
_symmetry_space_group_name_H-M   'P 1'
_cell_length_a   12.67729900
_cell_length_b   12.67730013
_cell_length_c   3.91953100
_cell_angle_alpha   90.00000000
_cell_angle_beta   90.00000000
_cell_angle_gamma   119.99999966
_symmetry_Int_Tables_number   1
_chemical_formula_structural   Sc5Nb3P12Ir13Ru3
_chemical_formula_sum   'Sc5 Nb3 P12 Ir13 Ru3'
_cell_volume   545.52950259
_cell_formula_units_Z   1
loop_
 _symmetry_equiv_pos_site_id
 _symmetry_equiv_pos_as_xyz
  1  'x, y, z'
loop_
 _atom_site_type_symbol
 _atom_site_label
 _atom_site_symmetry_multiplicity
 _atom_site_fract_x
 _atom_site_fract_y
 _atom_site_fract_z
 _atom_site_occupancy
  Sc  Sc0  1  0.333333  0.666667  0.000000  1
  Sc  Sc1  1  0.666667  0.333333  0.000000  1
  Sc  Sc2  1  0.812944  0.999330  0.500000  1
  Sc  Sc3  1  0.000670  0.813614  0.500000  1
  Sc  Sc4  1  0.186386  0.187056  0.500000  1
  Nb  Nb5  1  0.450942  0.002071  0.000000  1
  Nb  Nb6  1  0.997929  0.448871  0.000000  1
  Nb  Nb7  1  0.551129  0.549058  0.000000  1
  P  P8  1  0.174467  0.996511  0.000000  1
  P  P9  1  0.003489  0.177956  0.000000  1
  P  P10  1  0.822044  0.825533  0.000000  1
  P  P11  1  0.169376  0.480725  0.500000  1
  P  P12  1  0.519275  0.688650  0.500000  1
  P  P13  1  0.311350  0.830624  0.500000  1
  P  P14  1  0.686736  0.517469  0.500000  1
  P  P15  1  0.830732  0.313264  0.500000  1
  P  P16  1  0.482531  0.169268  0.500000  1
  P  P17  1  0.642135  0.994888  0.000000  1
  P  P18  1  0.005112  0.647247  0.000000  1
  P  P19  1  0.352753  0.357865  0.000000  1
  Ir  Ir20  1  0.359023  0.493562  0.500000  1
  Ir  Ir21  1  0.506438  0.865461  0.500000  1
  Ir  Ir22  1  0.134539  0.640977  0.500000  1
  Ir  Ir23  1  0.861696  0.504344  0.500000  1
  Ir  Ir24  1  0.642647  0.138304  0.500000  1
  Ir  Ir25  1  0.495656  0.357353  0.500000  1
  Ir  Ir26  1  0.812211  0.630603  0.000000  1
  Ir  Ir27  1  0.818392  0.187789  0.000000  1
  Ir  Ir28  1  0.369397  0.181608  0.000000  1
  Ir  Ir29  1  0.278369  0.002455  0.500000  1
  Ir  Ir30  1  0.997545  0.275914  0.500000  1
  Ir  Ir31  1  0.724086  0.721631  0.500000  1
  Ir  Ir32  1  0.000000  0.000000  0.000000  1
  Ru  Ru33  1  0.177977  0.373458  0.000000  1
  Ru  Ru34  1  0.626542  0.804520  0.000000  1
  Ru  Ru35  1  0.195480  0.822023  0.000000  1
