# generated using pymatgen
data_Th8Sc12Ga13Si3
_symmetry_space_group_name_H-M   'P 1'
_cell_length_a   7.36830829
_cell_length_b   7.66245596
_cell_length_c   14.49254400
_cell_angle_alpha   90.00000000
_cell_angle_beta   90.00000000
_cell_angle_gamma   90.01307048
_symmetry_Int_Tables_number   1
_chemical_formula_structural   Th8Sc12Ga13Si3
_chemical_formula_sum   'Th8 Sc12 Ga13 Si3'
_cell_volume   818.23941602
_cell_formula_units_Z   1
loop_
 _symmetry_equiv_pos_site_id
 _symmetry_equiv_pos_as_xyz
  1  'x, y, z'
loop_
 _atom_site_type_symbol
 _atom_site_label
 _atom_site_symmetry_multiplicity
 _atom_site_fract_x
 _atom_site_fract_y
 _atom_site_fract_z
 _atom_site_occupancy
  Th  Th0  1  0.008847  0.178694  0.099150  1
  Th  Th1  1  0.988596  0.820286  0.902390  1
  Th  Th2  1  0.492483  0.676137  0.903929  1
  Th  Th3  1  0.988596  0.820286  0.597610  1
  Th  Th4  1  0.508535  0.320847  0.099166  1
  Th  Th5  1  0.008847  0.178694  0.400850  1
  Th  Th6  1  0.508535  0.320847  0.400834  1
  Th  Th7  1  0.492483  0.676137  0.596071  1
  Sc  Sc8  1  0.159521  0.499159  0.750000  1
  Sc  Sc9  1  0.838181  0.495238  0.250000  1
  Sc  Sc10  1  0.338314  0.005252  0.250000  1
  Sc  Sc11  1  0.666680  0.996101  0.750000  1
  Sc  Sc12  1  0.330950  0.173410  0.624611  1
  Sc  Sc13  1  0.670874  0.829070  0.373742  1
  Sc  Sc14  1  0.170846  0.670781  0.373931  1
  Sc  Sc15  1  0.670874  0.829070  0.126258  1
  Sc  Sc16  1  0.828261  0.329812  0.625264  1
  Sc  Sc17  1  0.330950  0.173410  0.875389  1
  Sc  Sc18  1  0.828261  0.329812  0.874736  1
  Sc  Sc19  1  0.170846  0.670781  0.126069  1
  Ga  Ga20  1  0.031845  0.122270  0.750000  1
  Ga  Ga21  1  0.969301  0.879551  0.250000  1
  Ga  Ga22  1  0.469058  0.620487  0.250000  1
  Ga  Ga23  1  0.530939  0.381466  0.750000  1
  Ga  Ga24  1  0.292295  0.877261  0.750000  1
  Ga  Ga25  1  0.160283  0.461425  0.539581  1
  Ga  Ga26  1  0.839232  0.538726  0.459381  1
  Ga  Ga27  1  0.338500  0.961244  0.459897  1
  Ga  Ga28  1  0.839232  0.538726  0.040619  1
  Ga  Ga29  1  0.661145  0.040028  0.539487  1
  Ga  Ga30  1  0.160283  0.461425  0.960419  1
  Ga  Ga31  1  0.661145  0.040028  0.960513  1
  Ga  Ga32  1  0.338500  0.961244  0.040103  1
  Si  Si33  1  0.708921  0.121976  0.250000  1
  Si  Si34  1  0.208809  0.377778  0.250000  1
  Si  Si35  1  0.789035  0.622538  0.750000  1
