# generated using pymatgen
data_Na2Tl(P3Pd10)2
_symmetry_space_group_name_H-M   'P 1'
_cell_length_a   8.64480377
_cell_length_b   8.64729179
_cell_length_c   8.64817502
_cell_angle_alpha   59.99427873
_cell_angle_beta   59.99343044
_cell_angle_gamma   59.98979576
_symmetry_Int_Tables_number   1
_chemical_formula_structural   Na2Tl(P3Pd10)2
_chemical_formula_sum   'Na2 Tl1 P6 Pd20'
_cell_volume   457.05754409
_cell_formula_units_Z   1
loop_
 _symmetry_equiv_pos_site_id
 _symmetry_equiv_pos_as_xyz
  1  'x, y, z'
loop_
 _atom_site_type_symbol
 _atom_site_label
 _atom_site_symmetry_multiplicity
 _atom_site_fract_x
 _atom_site_fract_y
 _atom_site_fract_z
 _atom_site_occupancy
  Na  Na0  1  0.250017  0.250003  0.249988  1
  Na  Na1  1  0.999999  0.999996  0.000005  1
  Tl  Tl2  1  0.749939  0.750023  0.750009  1
  P  P3  1  0.736627  0.263322  0.263353  1
  P  P4  1  0.736598  0.736711  0.263342  1
  P  P5  1  0.736612  0.263327  0.736691  1
  P  P6  1  0.263392  0.736674  0.263309  1
  P  P7  1  0.263381  0.736678  0.736642  1
  P  P8  1  0.263394  0.263279  0.736670  1
  Pd  Pd9  1  0.343451  0.000477  0.000450  1
  Pd  Pd10  1  0.000511  0.655532  0.343426  1
  Pd  Pd11  1  0.343435  0.000472  0.655608  1
  Pd  Pd12  1  0.000544  0.655550  0.000527  1
  Pd  Pd13  1  0.655589  0.343395  0.000498  1
  Pd  Pd14  1  0.616793  0.616837  0.149564  1
  Pd  Pd15  1  0.386560  0.840399  0.386470  1
  Pd  Pd16  1  0.149634  0.616773  0.616777  1
  Pd  Pd17  1  0.655574  0.000525  0.343390  1
  Pd  Pd18  1  0.000507  0.343455  0.655559  1
  Pd  Pd19  1  0.655560  0.000521  0.000553  1
  Pd  Pd20  1  0.000504  0.000482  0.343443  1
  Pd  Pd21  1  0.616775  0.149624  0.616830  1
  Pd  Pd22  1  0.343413  0.655597  0.000507  1
  Pd  Pd23  1  0.386468  0.386567  0.386513  1
  Pd  Pd24  1  0.616831  0.616769  0.616807  1
  Pd  Pd25  1  0.386541  0.386460  0.840483  1
  Pd  Pd26  1  0.000518  0.000530  0.655544  1
  Pd  Pd27  1  0.840370  0.386568  0.386567  1
  Pd  Pd28  1  0.000462  0.343450  0.000477  1
