# generated using pymatgen
data_Li2MoOF5
_symmetry_space_group_name_H-M   'P 1'
_cell_length_a   5.04963815
_cell_length_b   5.04963834
_cell_length_c   4.60064428
_cell_angle_alpha   90.09741291
_cell_angle_beta   90.09741543
_cell_angle_gamma   120.57258692
_symmetry_Int_Tables_number   1
_chemical_formula_structural   Li2MoOF5
_chemical_formula_sum   'Li2 Mo1 O1 F5'
_cell_volume   101.00257815
_cell_formula_units_Z   1
loop_
 _symmetry_equiv_pos_site_id
 _symmetry_equiv_pos_as_xyz
  1  'x, y, z'
loop_
 _atom_site_type_symbol
 _atom_site_label
 _atom_site_symmetry_multiplicity
 _atom_site_fract_x
 _atom_site_fract_y
 _atom_site_fract_z
 _atom_site_occupancy
  Li  Li0  1  0.676348  0.343989  0.486056  1
  Li  Li1  1  0.343989  0.676348  0.486056  1
  Mo  Mo2  1  0.021937  0.021937  0.982461  1
  O  O3  1  0.300282  0.300282  0.762111  1
  F  F4  1  0.687462  0.687462  0.248509  1
  F  F5  1  0.988741  0.665799  0.755001  1
  F  F6  1  0.317502  0.997917  0.262398  1
  F  F7  1  0.997917  0.317502  0.262398  1
  F  F8  1  0.665799  0.988741  0.755001  1
