# generated using pymatgen
data_RbNb8AlSe16
_symmetry_space_group_name_H-M   'P 1'
_cell_length_a   7.00721200
_cell_length_b   7.00730233
_cell_length_c   15.21077903
_cell_angle_alpha   89.99948134
_cell_angle_beta   90.00508167
_cell_angle_gamma   120.00038972
_symmetry_Int_Tables_number   1
_chemical_formula_structural   RbNb8AlSe16
_chemical_formula_sum   'Rb1 Nb8 Al1 Se16'
_cell_volume   646.80965549
_cell_formula_units_Z   1
loop_
 _symmetry_equiv_pos_site_id
 _symmetry_equiv_pos_as_xyz
  1  'x, y, z'
loop_
 _atom_site_type_symbol
 _atom_site_label
 _atom_site_symmetry_multiplicity
 _atom_site_fract_x
 _atom_site_fract_y
 _atom_site_fract_z
 _atom_site_occupancy
  Rb  Rb0  1  0.000000  0.000000  0.500000  1
  Nb  Nb1  1  0.000113  0.000069  0.213151  1
  Nb  Nb2  1  0.999887  0.999931  0.786849  1
  Nb  Nb3  1  0.508278  0.016355  0.211224  1
  Nb  Nb4  1  0.983870  0.491930  0.211215  1
  Nb  Nb5  1  0.508275  0.491918  0.211223  1
  Nb  Nb6  1  0.491722  0.983645  0.788776  1
  Nb  Nb7  1  0.016130  0.508070  0.788785  1
  Nb  Nb8  1  0.491725  0.508082  0.788777  1
  Al  Al9  1  0.000000  0.000000  0.000000  1
  Se  Se10  1  0.333259  0.666623  0.901996  1
  Se  Se11  1  0.666741  0.333377  0.098004  1
  Se  Se12  1  0.666834  0.333415  0.326259  1
  Se  Se13  1  0.333166  0.666585  0.673741  1
  Se  Se14  1  0.168988  0.831261  0.319828  1
  Se  Se15  1  0.168996  0.337729  0.319828  1
  Se  Se16  1  0.662488  0.831237  0.319820  1
  Se  Se17  1  0.831012  0.168739  0.680172  1
  Se  Se18  1  0.831004  0.662271  0.680172  1
  Se  Se19  1  0.337512  0.168763  0.680180  1
  Se  Se20  1  0.831417  0.168448  0.897936  1
  Se  Se21  1  0.831417  0.662954  0.897944  1
  Se  Se22  1  0.336940  0.168461  0.897944  1
  Se  Se23  1  0.168583  0.831552  0.102064  1
  Se  Se24  1  0.168583  0.337046  0.102056  1
  Se  Se25  1  0.663060  0.831539  0.102056  1
