# generated using pymatgen
data_ErTmMnNiO6
_symmetry_space_group_name_H-M   'P 1'
_cell_length_a   5.57608000
_cell_length_b   5.21753211
_cell_length_c   9.10978002
_cell_angle_alpha   55.59379729
_cell_angle_beta   90.00000000
_cell_angle_gamma   90.00000000
_symmetry_Int_Tables_number   1
_chemical_formula_structural   ErTmMnNiO6
_chemical_formula_sum   'Er2 Tm2 Mn2 Ni2 O12'
_cell_volume   218.66713386
_cell_formula_units_Z   2
loop_
 _symmetry_equiv_pos_site_id
 _symmetry_equiv_pos_as_xyz
  1  'x, y, z'
loop_
 _atom_site_type_symbol
 _atom_site_label
 _atom_site_symmetry_multiplicity
 _atom_site_fract_x
 _atom_site_fract_y
 _atom_site_fract_z
 _atom_site_occupancy
  Er  Er0  1  0.575118  0.727409  0.751192  1
  Er  Er1  1  0.924882  0.727409  0.251192  1
  Tm  Tm2  1  0.424631  0.272487  0.248681  1
  Tm  Tm3  1  0.075369  0.272487  0.748681  1
  Mn  Mn4  1  0.499730  0.999985  0.999985  1
  Mn  Mn5  1  0.000270  0.999985  0.499985  1
  Ni  Ni6  1  0.499888  0.499987  0.499991  1
  Ni  Ni7  1  0.000112  0.499987  0.999991  1
  O  O8  1  0.959940  0.875499  0.742184  1
  O  O9  1  0.540060  0.875499  0.242184  1
  O  O10  1  0.042314  0.127435  0.257826  1
  O  O11  1  0.457686  0.127435  0.757826  1
  O  O12  1  0.815986  0.641692  0.556033  1
  O  O13  1  0.684014  0.641692  0.056033  1
  O  O14  1  0.185702  0.356209  0.444768  1
  O  O15  1  0.314298  0.356209  0.944768  1
  O  O16  1  0.703493  0.239556  0.438832  1
  O  O17  1  0.796507  0.239556  0.938832  1
  O  O18  1  0.294778  0.759741  0.560508  1
  O  O19  1  0.205222  0.759741  0.060508  1
