# generated using pymatgen
data_Tb7(YBi2)3
_symmetry_space_group_name_H-M   'P 1'
_cell_length_a   6.38785500
_cell_length_b   9.23754392
_cell_length_c   9.24177614
_cell_angle_alpha   119.95357888
_cell_angle_beta   90.00001516
_cell_angle_gamma   89.99996137
_symmetry_Int_Tables_number   1
_chemical_formula_structural   Tb7(YBi2)3
_chemical_formula_sum   'Tb7 Y3 Bi6'
_cell_volume   472.49868265
_cell_formula_units_Z   1
loop_
 _symmetry_equiv_pos_site_id
 _symmetry_equiv_pos_as_xyz
  1  'x, y, z'
loop_
 _atom_site_type_symbol
 _atom_site_label
 _atom_site_symmetry_multiplicity
 _atom_site_fract_x
 _atom_site_fract_y
 _atom_site_fract_z
 _atom_site_occupancy
  Tb  Tb0  1  0.249998  0.243715  0.000020  1
  Tb  Tb1  1  0.749998  0.756339  0.000047  1
  Tb  Tb2  1  0.249998  0.999997  0.243708  1
  Tb  Tb3  1  0.499930  0.666670  0.333286  1
  Tb  Tb4  1  0.000068  0.666671  0.333286  1
  Tb  Tb5  1  0.499930  0.333335  0.666727  1
  Tb  Tb6  1  0.000068  0.333336  0.666728  1
  Y  Y7  1  0.750002  0.243695  0.243726  1
  Y  Y8  1  0.250003  0.756256  0.756272  1
  Y  Y9  1  0.749998  0.000016  0.756305  1
  Bi  Bi10  1  0.749999  0.388418  0.999975  1
  Bi  Bi11  1  0.249998  0.611444  0.999889  1
  Bi  Bi12  1  0.250011  0.388642  0.388619  1
  Bi  Bi13  1  0.749999  0.000080  0.388602  1
  Bi  Bi14  1  0.249997  0.999905  0.611438  1
  Bi  Bi15  1  0.750010  0.611481  0.611373  1
