# generated using pymatgen
data_Ba5Nd4Er4Mn4O21
_symmetry_space_group_name_H-M   'P 1'
_cell_length_a   5.85886358
_cell_length_b   10.44461273
_cell_length_c   10.44461238
_cell_angle_alpha   85.48816308
_cell_angle_beta   73.71157408
_cell_angle_gamma   73.71156358
_symmetry_Int_Tables_number   1
_chemical_formula_structural   Ba5Nd4Er4Mn4O21
_chemical_formula_sum   'Ba5 Nd4 Er4 Mn4 O21'
_cell_volume   588.86480838
_cell_formula_units_Z   1
loop_
 _symmetry_equiv_pos_site_id
 _symmetry_equiv_pos_as_xyz
  1  'x, y, z'
loop_
 _atom_site_type_symbol
 _atom_site_label
 _atom_site_symmetry_multiplicity
 _atom_site_fract_x
 _atom_site_fract_y
 _atom_site_fract_z
 _atom_site_occupancy
  Ba  Ba0  1  0.529055  0.331875  0.610015  1
  Ba  Ba1  1  0.860929  0.610015  0.668125  1
  Ba  Ba2  1  0.139071  0.389985  0.331875  1
  Ba  Ba3  1  0.470945  0.668125  0.389985  1
  Ba  Ba4  1  0.000000  0.000000  0.000000  1
  Nd  Nd5  1  0.247054  0.584234  0.921659  1
  Nd  Nd6  1  0.831287  0.921659  0.415766  1
  Nd  Nd7  1  0.168713  0.078341  0.584234  1
  Nd  Nd8  1  0.752946  0.415766  0.078341  1
  Er  Er9  1  0.413040  0.225736  0.948185  1
  Er  Er10  1  0.638775  0.948185  0.774264  1
  Er  Er11  1  0.361225  0.051815  0.225736  1
  Er  Er12  1  0.586960  0.774264  0.051815  1
  Mn  Mn13  1  0.040045  0.711414  0.208496  1
  Mn  Mn14  1  0.751459  0.208496  0.288586  1
  Mn  Mn15  1  0.248541  0.791504  0.711414  1
  Mn  Mn16  1  0.959955  0.288586  0.791504  1
  O  O17  1  0.889961  0.601260  0.108719  1
  O  O18  1  0.491221  0.108719  0.398740  1
  O  O19  1  0.998680  0.891281  0.601260  1
  O  O20  1  0.599941  0.398740  0.891281  1
  O  O21  1  0.110039  0.398740  0.891281  1
  O  O22  1  0.508779  0.891281  0.601260  1
  O  O23  1  0.001320  0.108719  0.398740  1
  O  O24  1  0.400059  0.601260  0.108719  1
  O  O25  1  0.081729  0.219958  0.129143  1
  O  O26  1  0.301687  0.129143  0.780042  1
  O  O27  1  0.210872  0.870857  0.219958  1
  O  O28  1  0.430830  0.780042  0.870857  1
  O  O29  1  0.918271  0.780042  0.870857  1
  O  O30  1  0.698313  0.870857  0.219958  1
  O  O31  1  0.789128  0.129143  0.780042  1
  O  O32  1  0.569170  0.219958  0.129143  1
  O  O33  1  0.624944  0.408613  0.341498  1
  O  O34  1  0.500000  0.000000  0.000000  1
  O  O35  1  0.375056  0.591387  0.658502  1
  O  O36  1  0.966443  0.658502  0.408613  1
  O  O37  1  0.033557  0.341498  0.591387  1
