# generated using pymatgen
data_La4PtAu3
_symmetry_space_group_name_H-M   'P 1'
_cell_length_a   4.82431900
_cell_length_b   5.96536994
_cell_length_c   7.57553317
_cell_angle_alpha   90.85135124
_cell_angle_beta   90.00000000
_cell_angle_gamma   90.00000000
_symmetry_Int_Tables_number   1
_chemical_formula_structural   La4PtAu3
_chemical_formula_sum   'La4 Pt1 Au3'
_cell_volume   217.99104699
_cell_formula_units_Z   1
loop_
 _symmetry_equiv_pos_site_id
 _symmetry_equiv_pos_as_xyz
  1  'x, y, z'
loop_
 _atom_site_type_symbol
 _atom_site_label
 _atom_site_symmetry_multiplicity
 _atom_site_fract_x
 _atom_site_fract_y
 _atom_site_fract_z
 _atom_site_occupancy
  La  La0  1  0.250000  0.639270  0.180367  1
  La  La1  1  0.750000  0.348637  0.823463  1
  La  La2  1  0.750000  0.145097  0.303472  1
  La  La3  1  0.250000  0.860909  0.690742  1
  Pt  Pt4  1  0.250000  0.158460  0.043352  1
  Au  Au5  1  0.750000  0.845922  0.957258  1
  Au  Au6  1  0.750000  0.651561  0.459393  1
  Au  Au7  1  0.250000  0.350144  0.541953  1
