# generated using pymatgen
data_Li8Zn2Si3
_symmetry_space_group_name_H-M   'P 1'
_cell_length_a   9.11520940
_cell_length_b   9.11520952
_cell_length_c   9.11520969
_cell_angle_alpha   48.04682489
_cell_angle_beta   48.04682604
_cell_angle_gamma   48.04681786
_symmetry_Int_Tables_number   1
_chemical_formula_structural   Li8Zn2Si3
_chemical_formula_sum   'Li16 Zn4 Si6'
_cell_volume   383.78404471
_cell_formula_units_Z   2
loop_
 _symmetry_equiv_pos_site_id
 _symmetry_equiv_pos_as_xyz
  1  'x, y, z'
loop_
 _atom_site_type_symbol
 _atom_site_label
 _atom_site_symmetry_multiplicity
 _atom_site_fract_x
 _atom_site_fract_y
 _atom_site_fract_z
 _atom_site_occupancy
  Li  Li0  1  0.056952  0.056952  0.056952  1
  Li  Li1  1  0.298529  0.595416  0.955214  1
  Li  Li2  1  0.556952  0.556952  0.556952  1
  Li  Li3  1  0.207189  0.906913  0.558772  1
  Li  Li4  1  0.595416  0.955214  0.298529  1
  Li  Li5  1  0.058772  0.406913  0.707189  1
  Li  Li6  1  0.906913  0.558772  0.207189  1
  Li  Li7  1  0.798529  0.455214  0.095416  1
  Li  Li8  1  0.955214  0.298529  0.595416  1
  Li  Li9  1  0.558772  0.207189  0.906913  1
  Li  Li10  1  0.455214  0.095416  0.798529  1
  Li  Li11  1  0.707189  0.058772  0.406913  1
  Li  Li12  1  0.095416  0.798529  0.455214  1
  Li  Li13  1  0.456935  0.456935  0.456935  1
  Li  Li14  1  0.956935  0.956935  0.956935  1
  Li  Li15  1  0.406913  0.707189  0.058772  1
  Zn  Zn16  1  0.674306  0.674306  0.674306  1
  Zn  Zn17  1  0.336200  0.336200  0.336200  1
  Zn  Zn18  1  0.836200  0.836200  0.836200  1
  Zn  Zn19  1  0.174306  0.174306  0.174306  1
  Si  Si20  1  0.176600  0.503267  0.832078  1
  Si  Si21  1  0.676600  0.332078  0.003267  1
  Si  Si22  1  0.832078  0.176600  0.503267  1
  Si  Si23  1  0.332078  0.003267  0.676600  1
  Si  Si24  1  0.003267  0.676600  0.332078  1
  Si  Si25  1  0.503267  0.832078  0.176600  1
