# generated using pymatgen
data_Ce3Al2Fe9C4
_symmetry_space_group_name_H-M   'P 1'
_cell_length_a   5.18368200
_cell_length_b   5.18368261
_cell_length_c   9.34341500
_cell_angle_alpha   90.00000000
_cell_angle_beta   90.00000000
_cell_angle_gamma   119.99999612
_symmetry_Int_Tables_number   1
_chemical_formula_structural   Ce3Al2Fe9C4
_chemical_formula_sum   'Ce3 Al2 Fe9 C4'
_cell_volume   217.42678357
_cell_formula_units_Z   1
loop_
 _symmetry_equiv_pos_site_id
 _symmetry_equiv_pos_as_xyz
  1  'x, y, z'
loop_
 _atom_site_type_symbol
 _atom_site_label
 _atom_site_symmetry_multiplicity
 _atom_site_fract_x
 _atom_site_fract_y
 _atom_site_fract_z
 _atom_site_occupancy
  Ce  Ce0  1  0.000000  0.000000  0.653064  1
  Ce  Ce1  1  0.000000  0.000000  0.346936  1
  Ce  Ce2  1  0.000000  0.000000  0.000000  1
  Al  Al3  1  0.666667  0.333333  0.000000  1
  Al  Al4  1  0.333333  0.666667  0.000000  1
  Fe  Fe5  1  0.500000  0.000000  0.500000  1
  Fe  Fe6  1  0.500000  0.500000  0.500000  1
  Fe  Fe7  1  0.000000  0.500000  0.500000  1
  Fe  Fe8  1  0.500000  0.000000  0.218757  1
  Fe  Fe9  1  0.500000  0.500000  0.218757  1
  Fe  Fe10  1  0.000000  0.500000  0.218757  1
  Fe  Fe11  1  0.500000  0.000000  0.781243  1
  Fe  Fe12  1  0.500000  0.500000  0.781243  1
  Fe  Fe13  1  0.000000  0.500000  0.781243  1
  C  C14  1  0.333333  0.666667  0.647689  1
  C  C15  1  0.666667  0.333333  0.647689  1
  C  C16  1  0.666667  0.333333  0.352311  1
  C  C17  1  0.333333  0.666667  0.352311  1
