# generated using pymatgen
data_TmCo4CuP3
_symmetry_space_group_name_H-M   'P 1'
_cell_length_a   3.67790600
_cell_length_b   10.22249100
_cell_length_c   11.84721400
_cell_angle_alpha   90.00000000
_cell_angle_beta   90.00000000
_cell_angle_gamma   90.00000000
_symmetry_Int_Tables_number   1
_chemical_formula_structural   TmCo4CuP3
_chemical_formula_sum   'Tm4 Co16 Cu4 P12'
_cell_volume   445.42398141
_cell_formula_units_Z   4
loop_
 _symmetry_equiv_pos_site_id
 _symmetry_equiv_pos_as_xyz
  1  'x, y, z'
loop_
 _atom_site_type_symbol
 _atom_site_label
 _atom_site_symmetry_multiplicity
 _atom_site_fract_x
 _atom_site_fract_y
 _atom_site_fract_z
 _atom_site_occupancy
  Tm  Tm0  1  0.250000  0.576625  0.702379  1
  Tm  Tm1  1  0.250000  0.923375  0.202379  1
  Tm  Tm2  1  0.750000  0.423375  0.297621  1
  Tm  Tm3  1  0.750000  0.076625  0.797621  1
  Co  Co4  1  0.250000  0.406047  0.482988  1
  Co  Co5  1  0.250000  0.093953  0.982988  1
  Co  Co6  1  0.750000  0.593953  0.517012  1
  Co  Co7  1  0.750000  0.906047  0.017012  1
  Co  Co8  1  0.250000  0.226222  0.172501  1
  Co  Co9  1  0.250000  0.273778  0.672501  1
  Co  Co10  1  0.750000  0.773778  0.827499  1
  Co  Co11  1  0.750000  0.726222  0.327499  1
  Co  Co12  1  0.250000  0.877220  0.700691  1
  Co  Co13  1  0.250000  0.622780  0.200691  1
  Co  Co14  1  0.750000  0.122780  0.299309  1
  Co  Co15  1  0.750000  0.377220  0.799309  1
  Co  Co16  1  0.250000  0.462689  0.933171  1
  Co  Co17  1  0.250000  0.037311  0.433171  1
  Co  Co18  1  0.750000  0.537311  0.066829  1
  Co  Co19  1  0.750000  0.962689  0.566829  1
  Cu  Cu20  1  0.250000  0.710410  0.991970  1
  Cu  Cu21  1  0.250000  0.789590  0.491970  1
  Cu  Cu22  1  0.750000  0.289590  0.008030  1
  Cu  Cu23  1  0.750000  0.210410  0.508030  1
  P  P24  1  0.250000  0.427394  0.116911  1
  P  P25  1  0.250000  0.072606  0.616911  1
  P  P26  1  0.750000  0.572606  0.883089  1
  P  P27  1  0.750000  0.927394  0.383089  1
  P  P28  1  0.250000  0.266093  0.859067  1
  P  P29  1  0.250000  0.233907  0.359067  1
  P  P30  1  0.750000  0.733907  0.140933  1
  P  P31  1  0.750000  0.766093  0.640933  1
  P  P32  1  0.250000  0.600426  0.391971  1
  P  P33  1  0.250000  0.899574  0.891971  1
  P  P34  1  0.750000  0.399574  0.608029  1
  P  P35  1  0.750000  0.100426  0.108029  1
