# generated using pymatgen
data_Ce3Er13(InCo)4
_symmetry_space_group_name_H-M   'P 1'
_cell_length_a   9.42475966
_cell_length_b   9.50196398
_cell_length_c   9.50196400
_cell_angle_alpha   59.99999993
_cell_angle_beta   59.72865039
_cell_angle_gamma   59.72865076
_symmetry_Int_Tables_number   1
_chemical_formula_structural   Ce3Er13(InCo)4
_chemical_formula_sum   'Ce3 Er13 In4 Co4'
_cell_volume   599.22314805
_cell_formula_units_Z   1
loop_
 _symmetry_equiv_pos_site_id
 _symmetry_equiv_pos_as_xyz
  1  'x, y, z'
loop_
 _atom_site_type_symbol
 _atom_site_label
 _atom_site_symmetry_multiplicity
 _atom_site_fract_x
 _atom_site_fract_y
 _atom_site_fract_z
 _atom_site_occupancy
  Ce  Ce0  1  0.589348  0.594618  0.594618  1
  Ce  Ce1  1  0.589348  0.594618  0.221416  1
  Ce  Ce2  1  0.589348  0.221416  0.594618  1
  Er  Er3  1  0.200326  0.599891  0.599891  1
  Er  Er4  1  0.063481  0.437253  0.437253  1
  Er  Er5  1  0.438601  0.062292  0.062292  1
  Er  Er6  1  0.438601  0.062292  0.436815  1
  Er  Er7  1  0.063481  0.437253  0.062013  1
  Er  Er8  1  0.438601  0.436815  0.062292  1
  Er  Er9  1  0.063481  0.062013  0.437253  1
  Er  Er10  1  0.187914  0.812477  0.812477  1
  Er  Er11  1  0.809865  0.190178  0.190178  1
  Er  Er12  1  0.809865  0.190178  0.809779  1
  Er  Er13  1  0.187914  0.812477  0.187132  1
  Er  Er14  1  0.809865  0.809779  0.190178  1
  Er  Er15  1  0.187914  0.187132  0.812477  1
  In  In16  1  0.832278  0.833669  0.833669  1
  In  In17  1  0.832278  0.833669  0.500383  1
  In  In18  1  0.832278  0.500383  0.833669  1
  In  In19  1  0.502243  0.832585  0.832585  1
  Co  Co20  1  0.405976  0.389066  0.389066  1
  Co  Co21  1  0.405976  0.389066  0.815892  1
  Co  Co22  1  0.405976  0.815892  0.389066  1
  Co  Co23  1  0.815039  0.394987  0.394987  1
