# generated using pymatgen
data_LuFe2(PRu)3
_symmetry_space_group_name_H-M   'P 1'
_cell_length_a   3.78340100
_cell_length_b   10.54518000
_cell_length_c   12.12122400
_cell_angle_alpha   90.00000000
_cell_angle_beta   90.00000000
_cell_angle_gamma   90.00000000
_symmetry_Int_Tables_number   1
_chemical_formula_structural   LuFe2(PRu)3
_chemical_formula_sum   'Lu4 Fe8 P12 Ru12'
_cell_volume   483.59616553
_cell_formula_units_Z   4
loop_
 _symmetry_equiv_pos_site_id
 _symmetry_equiv_pos_as_xyz
  1  'x, y, z'
loop_
 _atom_site_type_symbol
 _atom_site_label
 _atom_site_symmetry_multiplicity
 _atom_site_fract_x
 _atom_site_fract_y
 _atom_site_fract_z
 _atom_site_occupancy
  Lu  Lu0  1  0.250000  0.582429  0.708398  1
  Lu  Lu1  1  0.250000  0.917571  0.208398  1
  Lu  Lu2  1  0.750000  0.417571  0.291602  1
  Lu  Lu3  1  0.750000  0.082429  0.791602  1
  Fe  Fe4  1  0.250000  0.882784  0.698615  1
  Fe  Fe5  1  0.250000  0.617216  0.198615  1
  Fe  Fe6  1  0.750000  0.117216  0.301385  1
  Fe  Fe7  1  0.750000  0.382784  0.801385  1
  Fe  Fe8  1  0.250000  0.463414  0.934734  1
  Fe  Fe9  1  0.250000  0.036586  0.434734  1
  Fe  Fe10  1  0.750000  0.536586  0.065266  1
  Fe  Fe11  1  0.750000  0.963414  0.565266  1
  P  P12  1  0.250000  0.430661  0.113127  1
  P  P13  1  0.250000  0.069339  0.613127  1
  P  P14  1  0.750000  0.569339  0.886873  1
  P  P15  1  0.750000  0.930661  0.386873  1
  P  P16  1  0.250000  0.271536  0.868844  1
  P  P17  1  0.250000  0.228464  0.368844  1
  P  P18  1  0.750000  0.728464  0.131156  1
  P  P19  1  0.750000  0.771536  0.631156  1
  P  P20  1  0.250000  0.602800  0.387298  1
  P  P21  1  0.250000  0.897200  0.887298  1
  P  P22  1  0.750000  0.397200  0.612702  1
  P  P23  1  0.750000  0.102800  0.112702  1
  Ru  Ru24  1  0.250000  0.703858  0.988878  1
  Ru  Ru25  1  0.250000  0.796142  0.488878  1
  Ru  Ru26  1  0.750000  0.296142  0.011122  1
  Ru  Ru27  1  0.750000  0.203858  0.511122  1
  Ru  Ru28  1  0.250000  0.405352  0.483614  1
  Ru  Ru29  1  0.250000  0.094649  0.983614  1
  Ru  Ru30  1  0.750000  0.594648  0.516386  1
  Ru  Ru31  1  0.750000  0.905352  0.016386  1
  Ru  Ru32  1  0.250000  0.226748  0.178555  1
  Ru  Ru33  1  0.250000  0.273252  0.678555  1
  Ru  Ru34  1  0.750000  0.773252  0.821445  1
  Ru  Ru35  1  0.750000  0.726748  0.321445  1
