# generated using pymatgen
data_Tm3LuHf2(B2Ir5)2
_symmetry_space_group_name_H-M   'P 1'
_cell_length_a   9.64928896
_cell_length_b   9.64928896
_cell_length_c   3.24707600
_cell_angle_alpha   90.00000000
_cell_angle_beta   90.00000000
_cell_angle_gamma   89.94885158
_symmetry_Int_Tables_number   1
_chemical_formula_structural   Tm3LuHf2(B2Ir5)2
_chemical_formula_sum   'Tm3 Lu1 Hf2 B4 Ir10'
_cell_volume   302.33115620
_cell_formula_units_Z   1
loop_
 _symmetry_equiv_pos_site_id
 _symmetry_equiv_pos_as_xyz
  1  'x, y, z'
loop_
 _atom_site_type_symbol
 _atom_site_label
 _atom_site_symmetry_multiplicity
 _atom_site_fract_x
 _atom_site_fract_y
 _atom_site_fract_z
 _atom_site_occupancy
  Tm  Tm0  1  0.176105  0.676289  0.000000  1
  Tm  Tm1  1  0.323966  0.176034  0.000000  1
  Tm  Tm2  1  0.823711  0.323895  0.000000  1
  Lu  Lu3  1  0.676151  0.823849  0.000000  1
  Hf  Hf4  1  0.500088  0.500058  0.000000  1
  Hf  Hf5  1  0.999942  0.999912  0.000000  1
  B  B6  1  0.381362  0.880856  0.000000  1
  B  B7  1  0.118874  0.381126  0.000000  1
  B  B8  1  0.880567  0.619433  0.000000  1
  B  B9  1  0.619144  0.118638  0.000000  1
  Ir  Ir10  1  0.224248  0.929663  0.500000  1
  Ir  Ir11  1  0.929024  0.776385  0.500000  1
  Ir  Ir12  1  0.430524  0.724000  0.500000  1
  Ir  Ir13  1  0.570337  0.275752  0.500000  1
  Ir  Ir14  1  0.723615  0.570976  0.500000  1
  Ir  Ir15  1  0.275943  0.429957  0.500000  1
  Ir  Ir16  1  0.070043  0.224057  0.500000  1
  Ir  Ir17  1  0.999753  0.500247  0.500000  1
  Ir  Ir18  1  0.500603  0.999397  0.500000  1
  Ir  Ir19  1  0.776000  0.069476  0.500000  1
