# generated using pymatgen
data_Er3Al12CuOs3
_symmetry_space_group_name_H-M   'P 1'
_cell_length_a   8.81709756
_cell_length_b   8.77295621
_cell_length_c   9.50572974
_cell_angle_alpha   89.99999946
_cell_angle_beta   90.16233510
_cell_angle_gamma   119.83452686
_symmetry_Int_Tables_number   1
_chemical_formula_structural   Er3Al12CuOs3
_chemical_formula_sum   'Er6 Al24 Cu2 Os6'
_cell_volume   637.83320308
_cell_formula_units_Z   2
loop_
 _symmetry_equiv_pos_site_id
 _symmetry_equiv_pos_as_xyz
  1  'x, y, z'
loop_
 _atom_site_type_symbol
 _atom_site_label
 _atom_site_symmetry_multiplicity
 _atom_site_fract_x
 _atom_site_fract_y
 _atom_site_fract_z
 _atom_site_occupancy
  Er  Er0  1  0.191446  0.390033  0.252172  1
  Er  Er1  1  0.808554  0.609967  0.747828  1
  Er  Er2  1  0.613508  0.806755  0.248637  1
  Er  Er3  1  0.386492  0.193245  0.751363  1
  Er  Er4  1  0.191446  0.801414  0.252172  1
  Er  Er5  1  0.808554  0.198586  0.747828  1
  Al  Al6  1  0.331193  0.665597  0.026223  1
  Al  Al7  1  0.668807  0.334403  0.973777  1
  Al  Al8  1  0.665745  0.332872  0.523649  1
  Al  Al9  1  0.334255  0.667128  0.476351  1
  Al  Al10  1  0.165621  0.327946  0.575622  1
  Al  Al11  1  0.834379  0.672054  0.424378  1
  Al  Al12  1  0.672721  0.836360  0.573343  1
  Al  Al13  1  0.841798  0.673628  0.079092  1
  Al  Al14  1  0.327279  0.163640  0.426657  1
  Al  Al15  1  0.158202  0.326372  0.920908  1
  Al  Al16  1  0.165621  0.837674  0.575622  1
  Al  Al17  1  0.323611  0.161805  0.080882  1
  Al  Al18  1  0.834379  0.162326  0.424378  1
  Al  Al19  1  0.676389  0.838195  0.919118  1
  Al  Al20  1  0.841798  0.168170  0.079092  1
  Al  Al21  1  0.158202  0.831830  0.920908  1
  Al  Al22  1  0.561638  0.122802  0.249433  1
  Al  Al23  1  0.438362  0.877198  0.750567  1
  Al  Al24  1  0.875380  0.437690  0.249147  1
  Al  Al25  1  0.124620  0.562310  0.750853  1
  Al  Al26  1  0.561638  0.438835  0.249433  1
  Al  Al27  1  0.438362  0.561165  0.750567  1
  Al  Al28  1  0.997141  0.998570  0.250483  1
  Al  Al29  1  0.002859  0.001430  0.749517  1
  Cu  Cu30  1  0.500000  0.000000  0.000000  1
  Cu  Cu31  1  0.500000  0.500000  0.000000  1
  Os  Os32  1  0.000000  0.500000  0.000000  1
  Os  Os33  1  0.500000  0.000000  0.500000  1
  Os  Os34  1  0.000000  0.500000  0.500000  1
  Os  Os35  1  0.500000  0.500000  0.500000  1
  Os  Os36  1  0.000000  0.000000  0.000000  1
  Os  Os37  1  0.000000  0.000000  0.500000  1
