# generated using pymatgen
data_Ta4Nb6AlOs4
_symmetry_space_group_name_H-M   'P 1'
_cell_length_a   9.94171000
_cell_length_b   9.94171000
_cell_length_c   5.15024000
_cell_angle_alpha   90.00000000
_cell_angle_beta   90.00000000
_cell_angle_gamma   90.00000000
_symmetry_Int_Tables_number   1
_chemical_formula_structural   Ta4Nb6AlOs4
_chemical_formula_sum   'Ta8 Nb12 Al2 Os8'
_cell_volume   509.03734930
_cell_formula_units_Z   2
loop_
 _symmetry_equiv_pos_site_id
 _symmetry_equiv_pos_as_xyz
  1  'x, y, z'
loop_
 _atom_site_type_symbol
 _atom_site_label
 _atom_site_symmetry_multiplicity
 _atom_site_fract_x
 _atom_site_fract_y
 _atom_site_fract_z
 _atom_site_occupancy
  Ta  Ta0  1  0.128904  0.465458  0.000000  1
  Ta  Ta1  1  0.965458  0.371096  0.500000  1
  Ta  Ta2  1  0.034542  0.628904  0.500000  1
  Ta  Ta3  1  0.871096  0.534542  0.000000  1
  Ta  Ta4  1  0.371096  0.965458  0.500000  1
  Ta  Ta5  1  0.628904  0.034542  0.500000  1
  Ta  Ta6  1  0.465458  0.128904  0.000000  1
  Ta  Ta7  1  0.534542  0.871096  0.000000  1
  Nb  Nb8  1  0.395790  0.395790  0.000000  1
  Nb  Nb9  1  0.895790  0.104210  0.500000  1
  Nb  Nb10  1  0.104210  0.895790  0.500000  1
  Nb  Nb11  1  0.604210  0.604210  0.000000  1
  Nb  Nb12  1  0.182516  0.182516  0.250846  1
  Nb  Nb13  1  0.682516  0.317484  0.750846  1
  Nb  Nb14  1  0.317484  0.682516  0.750846  1
  Nb  Nb15  1  0.817484  0.817484  0.250846  1
  Nb  Nb16  1  0.317484  0.682516  0.249154  1
  Nb  Nb17  1  0.682516  0.317484  0.249154  1
  Nb  Nb18  1  0.182516  0.182516  0.749154  1
  Nb  Nb19  1  0.817484  0.817484  0.749154  1
  Al  Al20  1  0.000000  0.000000  0.000000  1
  Al  Al21  1  0.500000  0.500000  0.500000  1
  Os  Os22  1  0.256866  0.935853  0.000000  1
  Os  Os23  1  0.435853  0.243134  0.500000  1
  Os  Os24  1  0.564147  0.756866  0.500000  1
  Os  Os25  1  0.743134  0.064147  0.000000  1
  Os  Os26  1  0.243134  0.435853  0.500000  1
  Os  Os27  1  0.756866  0.564147  0.500000  1
  Os  Os28  1  0.935853  0.256866  0.000000  1
  Os  Os29  1  0.064147  0.743134  0.000000  1
