# generated using pymatgen
data_Th2MnCo9P7W2
_symmetry_space_group_name_H-M   'P 1'
_cell_length_a   9.14069182
_cell_length_b   9.11540579
_cell_length_c   3.76278000
_cell_angle_alpha   90.00000000
_cell_angle_beta   90.00000000
_cell_angle_gamma   119.90958797
_symmetry_Int_Tables_number   1
_chemical_formula_structural   Th2MnCo9P7W2
_chemical_formula_sum   'Th2 Mn1 Co9 P7 W2'
_cell_volume   271.76246715
_cell_formula_units_Z   1
loop_
 _symmetry_equiv_pos_site_id
 _symmetry_equiv_pos_as_xyz
  1  'x, y, z'
loop_
 _atom_site_type_symbol
 _atom_site_label
 _atom_site_symmetry_multiplicity
 _atom_site_fract_x
 _atom_site_fract_y
 _atom_site_fract_z
 _atom_site_occupancy
  Th  Th0  1  0.333921  0.670749  0.000000  1
  Th  Th1  1  0.002768  0.001618  0.500000  1
  Mn  Mn2  1  0.447756  0.214606  0.500000  1
  Co  Co3  1  0.034417  0.268974  0.000000  1
  Co  Co4  1  0.730487  0.765998  0.000000  1
  Co  Co5  1  0.231268  0.963289  0.000000  1
  Co  Co6  1  0.544275  0.056178  0.000000  1
  Co  Co7  1  0.944255  0.486339  0.000000  1
  Co  Co8  1  0.512044  0.456573  0.000000  1
  Co  Co9  1  0.612487  0.897378  0.500000  1
  Co  Co10  1  0.103829  0.715394  0.500000  1
  Co  Co11  1  0.284137  0.384115  0.500000  1
  P  P12  1  0.769298  0.029353  0.000000  1
  P  P13  1  0.969149  0.738525  0.000000  1
  P  P14  1  0.263801  0.229265  0.000000  1
  P  P15  1  0.374082  0.939338  0.500000  1
  P  P16  1  0.072190  0.442669  0.500000  1
  P  P17  1  0.555124  0.624466  0.500000  1
  P  P18  1  0.661319  0.330944  0.000000  1
  W  W19  1  0.786338  0.235378  0.500000  1
  W  W20  1  0.767053  0.548851  0.500000  1
