# generated using pymatgen
data_Hf18ReNi2Mo2W5
_symmetry_space_group_name_H-M   'P 1'
_cell_length_a   8.69043837
_cell_length_b   8.69481913
_cell_length_c   8.50019000
_cell_angle_alpha   90.00000000
_cell_angle_beta   90.00000000
_cell_angle_gamma   120.01667691
_symmetry_Int_Tables_number   1
_chemical_formula_structural   Hf18ReNi2Mo2W5
_chemical_formula_sum   'Hf18 Re1 Ni2 Mo2 W5'
_cell_volume   556.14558597
_cell_formula_units_Z   1
loop_
 _symmetry_equiv_pos_site_id
 _symmetry_equiv_pos_as_xyz
  1  'x, y, z'
loop_
 _atom_site_type_symbol
 _atom_site_label
 _atom_site_symmetry_multiplicity
 _atom_site_fract_x
 _atom_site_fract_y
 _atom_site_fract_z
 _atom_site_occupancy
  Hf  Hf0  1  0.199447  0.800255  0.442250  1
  Hf  Hf1  1  0.199447  0.399192  0.442250  1
  Hf  Hf2  1  0.601557  0.800779  0.442877  1
  Hf  Hf3  1  0.800141  0.199345  0.558072  1
  Hf  Hf4  1  0.800141  0.600796  0.558072  1
  Hf  Hf5  1  0.400097  0.200049  0.557076  1
  Hf  Hf6  1  0.800141  0.199345  0.941928  1
  Hf  Hf7  1  0.800141  0.600796  0.941928  1
  Hf  Hf8  1  0.400097  0.200049  0.942924  1
  Hf  Hf9  1  0.199447  0.800255  0.057750  1
  Hf  Hf10  1  0.199447  0.399192  0.057750  1
  Hf  Hf11  1  0.601557  0.800779  0.057123  1
  Hf  Hf12  1  0.542223  0.458210  0.250000  1
  Hf  Hf13  1  0.542223  0.084012  0.250000  1
  Hf  Hf14  1  0.915755  0.457877  0.250000  1
  Hf  Hf15  1  0.458535  0.543930  0.750000  1
  Hf  Hf16  1  0.458535  0.914605  0.750000  1
  Hf  Hf17  1  0.085374  0.542687  0.750000  1
  Re  Re18  1  0.774623  0.887313  0.750000  1
  Ni  Ni19  1  0.333667  0.666834  0.250000  1
  Ni  Ni20  1  0.666776  0.333388  0.750000  1
  Mo  Mo21  1  0.111290  0.886988  0.750000  1
  Mo  Mo22  1  0.111290  0.224304  0.750000  1
  W  W23  1  0.887849  0.111240  0.250000  1
  W  W24  1  0.887849  0.776608  0.250000  1
  W  W25  1  0.223674  0.111837  0.250000  1
  W  W26  1  0.999338  0.999669  0.501787  1
  W  W27  1  0.999338  0.999669  0.998213  1
