# generated using pymatgen
data_YbErPa2(Pd2Pb)2
_symmetry_space_group_name_H-M   'P 1'
_cell_length_a   7.93747287
_cell_length_b   7.93564587
_cell_length_c   3.59422700
_cell_angle_alpha   90.00000000
_cell_angle_beta   90.00000000
_cell_angle_gamma   90.05366769
_symmetry_Int_Tables_number   1
_chemical_formula_structural   YbErPa2(Pd2Pb)2
_chemical_formula_sum   'Yb1 Er1 Pa2 Pd4 Pb2'
_cell_volume   226.39657104
_cell_formula_units_Z   1
loop_
 _symmetry_equiv_pos_site_id
 _symmetry_equiv_pos_as_xyz
  1  'x, y, z'
loop_
 _atom_site_type_symbol
 _atom_site_label
 _atom_site_symmetry_multiplicity
 _atom_site_fract_x
 _atom_site_fract_y
 _atom_site_fract_z
 _atom_site_occupancy
  Yb  Yb0  1  0.828325  0.672051  0.500000  1
  Er  Er1  1  0.327285  0.827243  0.500000  1
  Pa  Pa2  1  0.669969  0.169043  0.500000  1
  Pa  Pa3  1  0.168958  0.330909  0.500000  1
  Pd  Pd4  1  0.371161  0.136391  0.000000  1
  Pd  Pd5  1  0.129739  0.613831  0.000000  1
  Pd  Pd6  1  0.625048  0.889258  0.000000  1
  Pd  Pd7  1  0.872537  0.362867  0.000000  1
  Pb  Pb8  1  0.001943  0.987725  0.000000  1
  Pb  Pb9  1  0.505037  0.510681  0.000000  1
