# generated using pymatgen
data_Tb4Ho3Co3Sn23Ru3
_symmetry_space_group_name_H-M   'P 1'
_cell_length_a   9.78990700
_cell_length_b   9.78990524
_cell_length_c   10.03841100
_cell_angle_alpha   90.00000000
_cell_angle_beta   90.00000000
_cell_angle_gamma   119.99999580
_symmetry_Int_Tables_number   1
_chemical_formula_structural   Tb4Ho3Co3Sn23Ru3
_chemical_formula_sum   'Tb4 Ho3 Co3 Sn23 Ru3'
_cell_volume   833.20655404
_cell_formula_units_Z   1
loop_
 _symmetry_equiv_pos_site_id
 _symmetry_equiv_pos_as_xyz
  1  'x, y, z'
loop_
 _atom_site_type_symbol
 _atom_site_label
 _atom_site_symmetry_multiplicity
 _atom_site_fract_x
 _atom_site_fract_y
 _atom_site_fract_z
 _atom_site_occupancy
  Tb  Tb0  1  0.000000  0.000000  0.986105  1
  Tb  Tb1  1  0.518369  0.481631  0.694631  1
  Tb  Tb2  1  0.518369  0.036736  0.694631  1
  Tb  Tb3  1  0.963264  0.481631  0.694631  1
  Ho  Ho4  1  0.038280  0.519141  0.306346  1
  Ho  Ho5  1  0.480859  0.961720  0.306346  1
  Ho  Ho6  1  0.480859  0.519141  0.306346  1
  Co  Co7  1  0.338988  0.169494  0.200503  1
  Co  Co8  1  0.830506  0.661012  0.200503  1
  Co  Co9  1  0.830506  0.169494  0.200503  1
  Sn  Sn10  1  0.666667  0.333333  0.185497  1
  Sn  Sn11  1  0.666667  0.333333  0.881923  1
  Sn  Sn12  1  0.333333  0.666667  0.123490  1
  Sn  Sn13  1  0.350499  0.346152  0.005052  1
  Sn  Sn14  1  0.995653  0.649501  0.005052  1
  Sn  Sn15  1  0.653848  0.004347  0.005052  1
  Sn  Sn16  1  0.653848  0.649501  0.005052  1
  Sn  Sn17  1  0.333333  0.666667  0.820368  1
  Sn  Sn18  1  0.435273  0.217637  0.451955  1
  Sn  Sn19  1  0.219858  0.780142  0.542108  1
  Sn  Sn20  1  0.219858  0.439713  0.542108  1
  Sn  Sn21  1  0.560287  0.780142  0.542108  1
  Sn  Sn22  1  0.117232  0.882768  0.270936  1
  Sn  Sn23  1  0.782363  0.564727  0.451955  1
  Sn  Sn24  1  0.782363  0.217637  0.451955  1
  Sn  Sn25  1  0.350499  0.004347  0.005052  1
  Sn  Sn26  1  0.117232  0.234463  0.270936  1
  Sn  Sn27  1  0.765537  0.882768  0.270936  1
  Sn  Sn28  1  0.237047  0.118523  0.722377  1
  Sn  Sn29  1  0.881477  0.762953  0.722377  1
  Sn  Sn30  1  0.881477  0.118523  0.722377  1
  Sn  Sn31  1  0.000000  0.000000  0.495620  1
  Sn  Sn32  1  0.995653  0.346152  0.005052  1
  Ru  Ru33  1  0.168148  0.831852  0.803370  1
  Ru  Ru34  1  0.168148  0.336296  0.803370  1
  Ru  Ru35  1  0.663704  0.831852  0.803370  1
