# generated using pymatgen
data_TbMgB6Ru
_symmetry_space_group_name_H-M   'P 1'
_cell_length_a   3.57503100
_cell_length_b   8.91136700
_cell_length_c   11.29276400
_cell_angle_alpha   90.00000000
_cell_angle_beta   90.00000000
_cell_angle_gamma   90.00000000
_symmetry_Int_Tables_number   1
_chemical_formula_structural   TbMgB6Ru
_chemical_formula_sum   'Tb4 Mg4 B24 Ru4'
_cell_volume   359.76954256
_cell_formula_units_Z   4
loop_
 _symmetry_equiv_pos_site_id
 _symmetry_equiv_pos_as_xyz
  1  'x, y, z'
loop_
 _atom_site_type_symbol
 _atom_site_label
 _atom_site_symmetry_multiplicity
 _atom_site_fract_x
 _atom_site_fract_y
 _atom_site_fract_z
 _atom_site_occupancy
  Tb  Tb0  1  0.000000  0.323070  0.413986  1
  Tb  Tb1  1  0.000000  0.676930  0.586014  1
  Tb  Tb2  1  0.000000  0.823070  0.086014  1
  Tb  Tb3  1  0.000000  0.176930  0.913986  1
  Mg  Mg4  1  0.000000  0.943634  0.370940  1
  Mg  Mg5  1  0.000000  0.056366  0.629060  1
  Mg  Mg6  1  0.000000  0.443634  0.129060  1
  Mg  Mg7  1  0.000000  0.556366  0.870940  1
  B  B8  1  0.500000  0.556041  0.431809  1
  B  B9  1  0.500000  0.443959  0.568191  1
  B  B10  1  0.500000  0.056041  0.068191  1
  B  B11  1  0.500000  0.943959  0.931809  1
  B  B12  1  0.500000  0.755239  0.417759  1
  B  B13  1  0.500000  0.244761  0.582241  1
  B  B14  1  0.500000  0.255239  0.082241  1
  B  B15  1  0.500000  0.744761  0.917759  1
  B  B16  1  0.500000  0.793655  0.263401  1
  B  B17  1  0.500000  0.206345  0.736599  1
  B  B18  1  0.500000  0.293655  0.236599  1
  B  B19  1  0.500000  0.706345  0.763401  1
  B  B20  1  0.500000  0.627635  0.182346  1
  B  B21  1  0.500000  0.372365  0.817654  1
  B  B22  1  0.500000  0.127635  0.317654  1
  B  B23  1  0.500000  0.872365  0.682346  1
  B  B24  1  0.500000  0.981319  0.213421  1
  B  B25  1  0.500000  0.018681  0.786579  1
  B  B26  1  0.500000  0.481319  0.286579  1
  B  B27  1  0.500000  0.518681  0.713421  1
  B  B28  1  0.500000  0.592502  0.025342  1
  B  B29  1  0.500000  0.407498  0.974658  1
  B  B30  1  0.500000  0.092502  0.474658  1
  B  B31  1  0.500000  0.907498  0.525342  1
  Ru  Ru32  1  0.000000  0.641253  0.317817  1
  Ru  Ru33  1  0.000000  0.358747  0.682183  1
  Ru  Ru34  1  0.000000  0.141253  0.182183  1
  Ru  Ru35  1  0.000000  0.858747  0.817817  1
