# generated using pymatgen
data_Fe4I7F
_symmetry_space_group_name_H-M   'P 1'
_cell_length_a   7.85509346
_cell_length_b   7.70992039
_cell_length_c   13.05377496
_cell_angle_alpha   99.86052154
_cell_angle_beta   99.82466055
_cell_angle_gamma   103.52472183
_symmetry_Int_Tables_number   1
_chemical_formula_structural   Fe4I7F
_chemical_formula_sum   'Fe4 I7 F1'
_cell_volume   738.74325563
_cell_formula_units_Z   1
loop_
 _symmetry_equiv_pos_site_id
 _symmetry_equiv_pos_as_xyz
  1  'x, y, z'
loop_
 _atom_site_type_symbol
 _atom_site_label
 _atom_site_symmetry_multiplicity
 _atom_site_fract_x
 _atom_site_fract_y
 _atom_site_fract_z
 _atom_site_occupancy
  Fe  Fe0  1  0.038829  0.488319  0.398887  1
  Fe  Fe1  1  0.108176  0.695621  0.644893  1
  Fe  Fe2  1  0.111124  0.289978  0.848969  1
  Fe  Fe3  1  0.047249  0.354999  0.120752  1
  I  I4  1  0.973209  0.985810  0.687830  1
  I  I5  1  0.106033  0.191236  0.289758  1
  I  I6  1  0.809196  0.418011  0.529137  1
  I  I7  1  0.324384  0.281904  0.033853  1
  I  I8  1  0.816461  0.311301  0.928807  1
  I  I9  1  0.955221  0.640071  0.230506  1
  I  I10  1  0.307810  0.599386  0.803638  1
  F  F11  1  0.207865  0.683478  0.515581  1
