# generated using pymatgen
data_Ho3Th(SiTc2)8
_symmetry_space_group_name_H-M   'P 1'
_cell_length_a   4.15439000
_cell_length_b   7.15952258
_cell_length_c   15.40886531
_cell_angle_alpha   90.32870110
_cell_angle_beta   90.00000000
_cell_angle_gamma   90.00000000
_symmetry_Int_Tables_number   1
_chemical_formula_structural   Ho3Th(SiTc2)8
_chemical_formula_sum   'Ho3 Th1 Si8 Tc16'
_cell_volume   458.30525743
_cell_formula_units_Z   1
loop_
 _symmetry_equiv_pos_site_id
 _symmetry_equiv_pos_as_xyz
  1  'x, y, z'
loop_
 _atom_site_type_symbol
 _atom_site_label
 _atom_site_symmetry_multiplicity
 _atom_site_fract_x
 _atom_site_fract_y
 _atom_site_fract_z
 _atom_site_occupancy
  Ho  Ho0  1  0.000000  0.585536  0.117111  1
  Ho  Ho1  1  0.000000  0.412384  0.885325  1
  Ho  Ho2  1  0.500000  0.087439  0.380403  1
  Th  Th3  1  0.500000  0.913791  0.617200  1
  Si  Si4  1  0.000000  0.834539  0.472074  1
  Si  Si5  1  0.000000  0.173235  0.522605  1
  Si  Si6  1  0.500000  0.332144  0.025232  1
  Si  Si7  1  0.500000  0.666730  0.976868  1
  Si  Si8  1  0.000000  0.298948  0.272758  1
  Si  Si9  1  0.000000  0.691262  0.730405  1
  Si  Si10  1  0.500000  0.798554  0.225567  1
  Si  Si11  1  0.500000  0.201714  0.776879  1
  Tc  Tc12  1  0.000000  0.142811  0.051762  1
  Tc  Tc13  1  0.000000  0.855749  0.949245  1
  Tc  Tc14  1  0.500000  0.646242  0.447055  1
  Tc  Tc15  1  0.500000  0.362097  0.549799  1
  Tc  Tc16  1  0.000000  0.735745  0.318803  1
  Tc  Tc17  1  0.000000  0.265100  0.679874  1
  Tc  Tc18  1  0.500000  0.236181  0.179133  1
  Tc  Tc19  1  0.500000  0.761927  0.822602  1
  Tc  Tc20  1  0.000000  0.436447  0.418122  1
  Tc  Tc21  1  0.000000  0.569930  0.579117  1
  Tc  Tc22  1  0.500000  0.934421  0.080742  1
  Tc  Tc23  1  0.500000  0.064165  0.920465  1
  Tc  Tc24  1  0.000000  0.993869  0.205108  1
  Tc  Tc25  1  0.000000  0.004316  0.795944  1
  Tc  Tc26  1  0.500000  0.494248  0.293208  1
  Tc  Tc27  1  0.500000  0.500475  0.706593  1
