# generated using pymatgen
data_Ce2RhPbAu
_symmetry_space_group_name_H-M   'P 1'
_cell_length_a   8.04320597
_cell_length_b   8.04320545
_cell_length_c   3.72862400
_cell_angle_alpha   90.00000000
_cell_angle_beta   90.00000000
_cell_angle_gamma   89.33100587
_symmetry_Int_Tables_number   1
_chemical_formula_structural   Ce2RhPbAu
_chemical_formula_sum   'Ce4 Rh2 Pb2 Au2'
_cell_volume   241.20001949
_cell_formula_units_Z   2
loop_
 _symmetry_equiv_pos_site_id
 _symmetry_equiv_pos_as_xyz
  1  'x, y, z'
loop_
 _atom_site_type_symbol
 _atom_site_label
 _atom_site_symmetry_multiplicity
 _atom_site_fract_x
 _atom_site_fract_y
 _atom_site_fract_z
 _atom_site_occupancy
  Ce  Ce0  1  0.660619  0.160619  0.500000  1
  Ce  Ce1  1  0.339381  0.839381  0.500000  1
  Ce  Ce2  1  0.185800  0.314200  0.500000  1
  Ce  Ce3  1  0.814200  0.685800  0.500000  1
  Rh  Rh4  1  0.631591  0.868409  0.000000  1
  Rh  Rh5  1  0.368409  0.131591  0.000000  1
  Pb  Pb6  1  0.000000  0.000000  0.000000  1
  Pb  Pb7  1  0.500000  0.500000  0.000000  1
  Au  Au8  1  0.125138  0.625138  0.000000  1
  Au  Au9  1  0.874862  0.374862  0.000000  1
