# generated using pymatgen
data_Dy10Ho2GaNi4Pb
_symmetry_space_group_name_H-M   'P 1'
_cell_length_a   8.36421533
_cell_length_b   8.36360410
_cell_length_c   8.36421600
_cell_angle_alpha   113.10915123
_cell_angle_beta   109.65600589
_cell_angle_gamma   105.73522660
_symmetry_Int_Tables_number   1
_chemical_formula_structural   Dy10Ho2GaNi4Pb
_chemical_formula_sum   'Dy10 Ho2 Ga1 Ni4 Pb1'
_cell_volume   448.54550522
_cell_formula_units_Z   1
loop_
 _symmetry_equiv_pos_site_id
 _symmetry_equiv_pos_as_xyz
  1  'x, y, z'
loop_
 _atom_site_type_symbol
 _atom_site_label
 _atom_site_symmetry_multiplicity
 _atom_site_fract_x
 _atom_site_fract_y
 _atom_site_fract_z
 _atom_site_occupancy
  Dy  Dy0  1  0.427334  0.228890  0.197838  1
  Dy  Dy1  1  0.572666  0.771110  0.802162  1
  Dy  Dy2  1  0.031052  0.228890  0.801556  1
  Dy  Dy3  1  0.968948  0.771110  0.198444  1
  Dy  Dy4  1  0.179552  0.285717  0.465841  1
  Dy  Dy5  1  0.820448  0.714283  0.534159  1
  Dy  Dy6  1  0.180125  0.714283  0.893835  1
  Dy  Dy7  1  0.819875  0.285717  0.106165  1
  Dy  Dy8  1  0.322669  0.633628  0.310961  1
  Dy  Dy9  1  0.677331  0.366372  0.689039  1
  Ho  Ho10  1  0.322875  0.011831  0.688956  1
  Ho  Ho11  1  0.677125  0.988169  0.311044  1
  Ga  Ga12  1  0.000000  0.000000  0.000000  1
  Ni  Ni13  1  0.349401  0.000000  0.349401  1
  Ni  Ni14  1  0.650599  0.000000  0.650599  1
  Ni  Ni15  1  0.122124  0.622602  0.500478  1
  Ni  Ni16  1  0.877876  0.377398  0.499522  1
  Pb  Pb17  1  0.500000  0.500000  0.000000  1
