# generated using pymatgen
data_La6Ti(CrC4)3
_symmetry_space_group_name_H-M   'P 1'
_cell_length_a   8.44164800
_cell_length_b   8.44164783
_cell_length_c   5.28369300
_cell_angle_alpha   90.00000000
_cell_angle_beta   90.00000000
_cell_angle_gamma   119.99999283
_symmetry_Int_Tables_number   1
_chemical_formula_structural   La6Ti(CrC4)3
_chemical_formula_sum   'La6 Ti1 Cr3 C12'
_cell_volume   326.07890812
_cell_formula_units_Z   1
loop_
 _symmetry_equiv_pos_site_id
 _symmetry_equiv_pos_as_xyz
  1  'x, y, z'
loop_
 _atom_site_type_symbol
 _atom_site_label
 _atom_site_symmetry_multiplicity
 _atom_site_fract_x
 _atom_site_fract_y
 _atom_site_fract_z
 _atom_site_occupancy
  La  La0  1  0.611820  0.689862  0.749131  1
  La  La1  1  0.921958  0.611820  0.250869  1
  La  La2  1  0.689862  0.078042  0.250869  1
  La  La3  1  0.310138  0.921958  0.749131  1
  La  La4  1  0.078042  0.388180  0.749131  1
  La  La5  1  0.388180  0.310138  0.250869  1
  Ti  Ti6  1  0.000000  0.000000  0.500000  1
  Cr  Cr7  1  0.000000  0.000000  0.000000  1
  Cr  Cr8  1  0.666667  0.333333  0.751752  1
  Cr  Cr9  1  0.333333  0.666667  0.248248  1
  C  C10  1  0.950713  0.766765  0.755105  1
  C  C11  1  0.183948  0.950713  0.244895  1
  C  C12  1  0.766765  0.816052  0.244895  1
  C  C13  1  0.233235  0.183948  0.755105  1
  C  C14  1  0.816052  0.049287  0.755105  1
  C  C15  1  0.049287  0.233235  0.244895  1
  C  C16  1  0.852677  0.577772  0.755122  1
  C  C17  1  0.274904  0.852677  0.244878  1
  C  C18  1  0.577772  0.725096  0.244878  1
  C  C19  1  0.422228  0.274904  0.755122  1
  C  C20  1  0.147323  0.422228  0.244878  1
  C  C21  1  0.725096  0.147323  0.755122  1
