# generated using pymatgen
data_Y6InCoTc
_symmetry_space_group_name_H-M   'P 1'
_cell_length_a   8.47779210
_cell_length_b   8.47779110
_cell_length_c   8.47779146
_cell_angle_alpha   112.90733091
_cell_angle_beta   110.76961251
_cell_angle_gamma   104.84156931
_symmetry_Int_Tables_number   1
_chemical_formula_structural   Y6InCoTc
_chemical_formula_sum   'Y12 In2 Co2 Tc2'
_cell_volume   466.60792192
_cell_formula_units_Z   2
loop_
 _symmetry_equiv_pos_site_id
 _symmetry_equiv_pos_as_xyz
  1  'x, y, z'
loop_
 _atom_site_type_symbol
 _atom_site_label
 _atom_site_symmetry_multiplicity
 _atom_site_fract_x
 _atom_site_fract_y
 _atom_site_fract_z
 _atom_site_occupancy
  Y  Y0  1  0.443814  0.243672  0.200141  1
  Y  Y1  1  0.556186  0.756328  0.799859  1
  Y  Y2  1  0.043530  0.243672  0.799859  1
  Y  Y3  1  0.956470  0.756328  0.200141  1
  Y  Y4  1  0.184763  0.286884  0.471648  1
  Y  Y5  1  0.815237  0.713116  0.528352  1
  Y  Y6  1  0.184763  0.713116  0.897880  1
  Y  Y7  1  0.815237  0.286884  0.102120  1
  Y  Y8  1  0.326974  0.646213  0.319239  1
  Y  Y9  1  0.673026  0.353787  0.680761  1
  Y  Y10  1  0.326974  0.007736  0.680761  1
  Y  Y11  1  0.673026  0.992264  0.319239  1
  In  In12  1  0.500000  0.500000  0.000000  1
  In  In13  1  0.000000  0.000000  0.000000  1
  Co  Co14  1  0.108860  0.608860  0.500000  1
  Co  Co15  1  0.891140  0.391140  0.500000  1
  Tc  Tc16  1  0.323078  0.000000  0.323078  1
  Tc  Tc17  1  0.676922  0.000000  0.676922  1
