# generated using pymatgen
data_Ba8ZnCo7Te4(P2O11)4
_symmetry_space_group_name_H-M   'P 1'
_cell_length_a   16.40250200
_cell_length_b   7.13335918
_cell_length_c   9.94596100
_cell_angle_alpha   74.06385521
_cell_angle_beta   90.00000000
_cell_angle_gamma   90.00000000
_symmetry_Int_Tables_number   1
_chemical_formula_structural   Ba8ZnCo7Te4(P2O11)4
_chemical_formula_sum   'Ba8 Zn1 Co7 Te4 P8 O44'
_cell_volume   1119.00255278
_cell_formula_units_Z   1
loop_
 _symmetry_equiv_pos_site_id
 _symmetry_equiv_pos_as_xyz
  1  'x, y, z'
loop_
 _atom_site_type_symbol
 _atom_site_label
 _atom_site_symmetry_multiplicity
 _atom_site_fract_x
 _atom_site_fract_y
 _atom_site_fract_z
 _atom_site_occupancy
  Ba  Ba0  1  0.405043  0.740870  0.537471  1
  Ba  Ba1  1  0.905101  0.259359  0.962858  1
  Ba  Ba2  1  0.594802  0.259318  0.462951  1
  Ba  Ba3  1  0.094718  0.740641  0.037298  1
  Ba  Ba4  1  0.258918  0.277924  0.386426  1
  Ba  Ba5  1  0.758724  0.722316  0.113608  1
  Ba  Ba6  1  0.741227  0.722282  0.613535  1
  Ba  Ba7  1  0.241174  0.276817  0.886228  1
  Zn  Zn8  1  0.356260  0.820210  0.918079  1
  Co  Co9  1  0.455600  0.568404  0.200934  1
  Co  Co10  1  0.955104  0.431163  0.299237  1
  Co  Co11  1  0.544872  0.430282  0.798921  1
  Co  Co12  1  0.045336  0.568966  0.700969  1
  Co  Co13  1  0.143831  0.824624  0.415677  1
  Co  Co14  1  0.643640  0.175494  0.084641  1
  Co  Co15  1  0.856428  0.175604  0.584486  1
  Te  Te16  1  0.554680  0.832438  0.886415  1
  Te  Te17  1  0.054861  0.168036  0.612459  1
  Te  Te18  1  0.445137  0.167811  0.111977  1
  Te  Te19  1  0.945259  0.832052  0.387716  1
  P  P20  1  0.286477  0.795118  0.226156  1
  P  P21  1  0.786594  0.205199  0.273119  1
  P  P22  1  0.713448  0.205061  0.773171  1
  P  P23  1  0.213264  0.796064  0.727191  1
  P  P24  1  0.600844  0.773336  0.338476  1
  P  P25  1  0.100851  0.226751  0.161602  1
  P  P26  1  0.399016  0.226168  0.662309  1
  P  P27  1  0.899239  0.773196  0.838408  1
  O  O28  1  0.200244  0.713329  0.280963  1
  O  O29  1  0.700191  0.286934  0.219056  1
  O  O30  1  0.799833  0.286690  0.719084  1
  O  O31  1  0.299986  0.716176  0.781544  1
  O  O32  1  0.346246  0.618099  0.273849  1
  O  O33  1  0.846211  0.382450  0.224650  1
  O  O34  1  0.653861  0.382357  0.724616  1
  O  O35  1  0.154332  0.617366  0.775564  1
  O  O36  1  0.672564  0.626362  0.376395  1
  O  O37  1  0.172603  0.373598  0.123685  1
  O  O38  1  0.327335  0.373505  0.624076  1
  O  O39  1  0.827464  0.626361  0.876355  1
  O  O40  1  0.519215  0.654429  0.344516  1
  O  O41  1  0.019230  0.345521  0.155718  1
  O  O42  1  0.480637  0.345449  0.655521  1
  O  O43  1  0.980847  0.654360  0.844315  1
  O  O44  1  0.594269  0.893910  0.444697  1
  O  O45  1  0.094241  0.106137  0.055396  1
  O  O46  1  0.405598  0.105948  0.555752  1
  O  O47  1  0.905800  0.893777  0.944653  1
  O  O48  1  0.313437  0.958015  0.291152  1
  O  O49  1  0.813384  0.042597  0.207636  1
  O  O50  1  0.686554  0.042401  0.707785  1
  O  O51  1  0.185144  0.958657  0.791540  1
  O  O52  1  0.613116  0.902553  0.184801  1
  O  O53  1  0.113195  0.097470  0.315303  1
  O  O54  1  0.386999  0.097071  0.815964  1
  O  O55  1  0.886892  0.902467  0.684728  1
  O  O56  1  0.281360  0.868186  0.063528  1
  O  O57  1  0.782395  0.132161  0.435482  1
  O  O58  1  0.717625  0.132150  0.935520  1
  O  O59  1  0.218001  0.867677  0.564760  1
  O  O60  1  0.461747  0.743871  0.011823  1
  O  O61  1  0.961592  0.256348  0.487992  1
  O  O62  1  0.538479  0.256108  0.987864  1
  O  O63  1  0.038565  0.743773  0.512105  1
  O  O64  1  0.516258  0.708813  0.750585  1
  O  O65  1  0.015894  0.290823  0.748573  1
  O  O66  1  0.484306  0.289944  0.248436  1
  O  O67  1  0.984207  0.709552  0.251459  1
  O  O68  1  0.631196  0.644613  0.966421  1
  O  O69  1  0.131648  0.356303  0.534119  1
  O  O70  1  0.368424  0.356307  0.033852  1
  O  O71  1  0.868428  0.643876  0.465852  1
