# generated using pymatgen
data_Ta13Co8Os3N4
_symmetry_space_group_name_H-M   'P 1'
_cell_length_a   8.06921689
_cell_length_b   8.14021721
_cell_length_c   8.14021700
_cell_angle_alpha   60.00000493
_cell_angle_beta   59.70850999
_cell_angle_gamma   59.70850993
_symmetry_Int_Tables_number   1
_chemical_formula_structural   Ta13Co8Os3N4
_chemical_formula_sum   'Ta13 Co8 Os3 N4'
_cell_volume   376.40971238
_cell_formula_units_Z   1
loop_
 _symmetry_equiv_pos_site_id
 _symmetry_equiv_pos_as_xyz
  1  'x, y, z'
loop_
 _atom_site_type_symbol
 _atom_site_label
 _atom_site_symmetry_multiplicity
 _atom_site_fract_x
 _atom_site_fract_y
 _atom_site_fract_z
 _atom_site_occupancy
  Ta  Ta0  1  0.125000  0.625000  0.625000  1
  Ta  Ta1  1  0.804122  0.805236  0.195321  1
  Ta  Ta2  1  0.194315  0.186032  0.809827  1
  Ta  Ta3  1  0.804122  0.195321  0.805236  1
  Ta  Ta4  1  0.194315  0.809827  0.186032  1
  Ta  Ta5  1  0.194315  0.809827  0.809827  1
  Ta  Ta6  1  0.804122  0.195321  0.195321  1
  Ta  Ta7  1  0.445878  0.444764  0.054679  1
  Ta  Ta8  1  0.055685  0.063968  0.440173  1
  Ta  Ta9  1  0.445878  0.054679  0.444764  1
  Ta  Ta10  1  0.055685  0.440173  0.063968  1
  Ta  Ta11  1  0.055685  0.440173  0.440173  1
  Ta  Ta12  1  0.445878  0.054679  0.054679  1
  Co  Co13  1  0.732137  0.422621  0.422621  1
  Co  Co14  1  0.420059  0.743506  0.418218  1
  Co  Co15  1  0.420059  0.418218  0.743506  1
  Co  Co16  1  0.420059  0.418218  0.418218  1
  Co  Co17  1  0.517863  0.827379  0.827379  1
  Co  Co18  1  0.829941  0.506494  0.831782  1
  Co  Co19  1  0.829941  0.831782  0.506494  1
  Co  Co20  1  0.829941  0.831782  0.831782  1
  Os  Os21  1  0.625000  0.125000  0.625000  1
  Os  Os22  1  0.625000  0.625000  0.125000  1
  Os  Os23  1  0.625000  0.625000  0.625000  1
  N  N24  1  0.625000  0.125000  0.125000  1
  N  N25  1  0.125000  0.625000  0.125000  1
  N  N26  1  0.125000  0.125000  0.625000  1
  N  N27  1  0.125000  0.125000  0.125000  1
