# generated using pymatgen
data_LaPr(Bi3O7)2
_symmetry_space_group_name_H-M   'P 1'
_cell_length_a   6.78465792
_cell_length_b   6.99137064
_cell_length_c   7.99301934
_cell_angle_alpha   106.24718106
_cell_angle_beta   89.18687002
_cell_angle_gamma   99.68373197
_symmetry_Int_Tables_number   1
_chemical_formula_structural   LaPr(Bi3O7)2
_chemical_formula_sum   'La1 Pr1 Bi6 O14'
_cell_volume   358.59677991
_cell_formula_units_Z   1
loop_
 _symmetry_equiv_pos_site_id
 _symmetry_equiv_pos_as_xyz
  1  'x, y, z'
loop_
 _atom_site_type_symbol
 _atom_site_label
 _atom_site_symmetry_multiplicity
 _atom_site_fract_x
 _atom_site_fract_y
 _atom_site_fract_z
 _atom_site_occupancy
  La  La0  1  0.461195  0.996695  0.247302  1
  Pr  Pr1  1  0.541629  0.003047  0.752695  1
  Bi  Bi2  1  0.000189  0.999949  0.500239  1
  Bi  Bi3  1  0.000445  0.000021  0.999565  1
  Bi  Bi4  1  0.260244  0.503349  0.872443  1
  Bi  Bi5  1  0.740189  0.496193  0.127202  1
  Bi  Bi6  1  0.720180  0.473994  0.606714  1
  Bi  Bi7  1  0.279465  0.526417  0.394124  1
  O  O8  1  0.464020  0.640433  0.183836  1
  O  O9  1  0.535646  0.357943  0.815496  1
  O  O10  1  0.293974  0.935639  0.952777  1
  O  O11  1  0.705699  0.064584  0.044561  1
  O  O12  1  0.284963  0.904870  0.506660  1
  O  O13  1  0.714840  0.095314  0.496171  1
  O  O14  1  0.532394  0.355194  0.359787  1
  O  O15  1  0.468116  0.645760  0.640507  1
  O  O16  1  0.905204  0.685287  0.973296  1
  O  O17  1  0.094588  0.314889  0.026816  1
  O  O18  1  0.114050  0.317928  0.620114  1
  O  O19  1  0.886061  0.682158  0.379676  1
  O  O20  1  0.888532  0.924929  0.731093  1
  O  O21  1  0.108377  0.075407  0.268927  1
