# generated using pymatgen
data_Hf3MgCo8
_symmetry_space_group_name_H-M   'P 1'
_cell_length_a   8.40896247
_cell_length_b   8.40896314
_cell_length_c   8.40896321
_cell_angle_alpha   33.50810057
_cell_angle_beta   33.50809317
_cell_angle_gamma   33.50809978
_symmetry_Int_Tables_number   1
_chemical_formula_structural   Hf3MgCo8
_chemical_formula_sum   'Hf3 Mg1 Co8'
_cell_volume   161.39852486
_cell_formula_units_Z   1
loop_
 _symmetry_equiv_pos_site_id
 _symmetry_equiv_pos_as_xyz
  1  'x, y, z'
loop_
 _atom_site_type_symbol
 _atom_site_label
 _atom_site_symmetry_multiplicity
 _atom_site_fract_x
 _atom_site_fract_y
 _atom_site_fract_z
 _atom_site_occupancy
  Hf  Hf0  1  0.623939  0.623939  0.623939  1
  Hf  Hf1  1  0.003692  0.003692  0.003692  1
  Hf  Hf2  1  0.496884  0.496884  0.496884  1
  Mg  Mg3  1  0.126043  0.126043  0.126043  1
  Co  Co4  1  0.562752  0.060750  0.562752  1
  Co  Co5  1  0.062844  0.562783  0.062844  1
  Co  Co6  1  0.060750  0.562752  0.562752  1
  Co  Co7  1  0.562783  0.062844  0.062844  1
  Co  Co8  1  0.812315  0.812315  0.812315  1
  Co  Co9  1  0.312404  0.312404  0.312404  1
  Co  Co10  1  0.562752  0.562752  0.060750  1
  Co  Co11  1  0.062844  0.062844  0.562783  1
