# generated using pymatgen
data_La16Cd4CuIr2Ru
_symmetry_space_group_name_H-M   'P 1'
_cell_length_a   10.17912164
_cell_length_b   10.15832093
_cell_length_c   10.08640693
_cell_angle_alpha   59.76386359
_cell_angle_beta   59.75540667
_cell_angle_gamma   60.06756756
_symmetry_Int_Tables_number   1
_chemical_formula_structural   La16Cd4CuIr2Ru
_chemical_formula_sum   'La16 Cd4 Cu1 Ir2 Ru1'
_cell_volume   735.16687832
_cell_formula_units_Z   1
loop_
 _symmetry_equiv_pos_site_id
 _symmetry_equiv_pos_as_xyz
  1  'x, y, z'
loop_
 _atom_site_type_symbol
 _atom_site_label
 _atom_site_symmetry_multiplicity
 _atom_site_fract_x
 _atom_site_fract_y
 _atom_site_fract_z
 _atom_site_occupancy
  La  La0  1  0.898912  0.901401  0.905315  1
  La  La1  1  0.440925  0.436513  0.063176  1
  La  La2  1  0.057629  0.056777  0.435980  1
  La  La3  1  0.440925  0.059387  0.063176  1
  La  La4  1  0.309759  0.688307  0.313627  1
  La  La5  1  0.688064  0.687819  0.313243  1
  La  La6  1  0.688064  0.310874  0.313243  1
  La  La7  1  0.296708  0.899620  0.904055  1
  La  La8  1  0.898912  0.294374  0.905315  1
  La  La9  1  0.309337  0.685280  0.694525  1
  La  La10  1  0.903898  0.905182  0.285738  1
  La  La11  1  0.059763  0.439019  0.062200  1
  La  La12  1  0.309337  0.310858  0.694525  1
  La  La13  1  0.057629  0.449614  0.435980  1
  La  La14  1  0.451457  0.058064  0.432415  1
  La  La15  1  0.684775  0.310460  0.694305  1
  Cd  Cd16  1  0.670514  0.670477  0.988531  1
  Cd  Cd17  1  0.988141  0.670818  0.670221  1
  Cd  Cd18  1  0.670891  0.987919  0.670414  1
  Cd  Cd19  1  0.670891  0.670774  0.670414  1
  Cu  Cu20  1  0.109860  0.108742  0.672656  1
  Ir  Ir21  1  0.111835  0.111261  0.102702  1
  Ir  Ir22  1  0.111835  0.674203  0.102702  1
  Ru  Ru23  1  0.669940  0.112258  0.105545  1
