# generated using pymatgen
data_Dy5ErCrB14Os
_symmetry_space_group_name_H-M   'P 1'
_cell_length_a   8.07186597
_cell_length_b   8.07186671
_cell_length_c   9.32701200
_cell_angle_alpha   90.00000000
_cell_angle_beta   90.00000000
_cell_angle_gamma   155.08425226
_symmetry_Int_Tables_number   1
_chemical_formula_structural   Dy5ErCrB14Os
_chemical_formula_sum   'Dy5 Er1 Cr1 B14 Os1'
_cell_volume   256.01567521
_cell_formula_units_Z   1
loop_
 _symmetry_equiv_pos_site_id
 _symmetry_equiv_pos_as_xyz
  1  'x, y, z'
loop_
 _atom_site_type_symbol
 _atom_site_label
 _atom_site_symmetry_multiplicity
 _atom_site_fract_x
 _atom_site_fract_y
 _atom_site_fract_z
 _atom_site_occupancy
  Dy  Dy0  1  0.755926  0.244074  0.250000  1
  Dy  Dy1  1  0.894303  0.105697  0.562507  1
  Dy  Dy2  1  0.105528  0.894472  0.441063  1
  Dy  Dy3  1  0.105528  0.894472  0.058937  1
  Dy  Dy4  1  0.894303  0.105697  0.937493  1
  Er  Er5  1  0.241054  0.758946  0.750000  1
  Cr  Cr6  1  0.053505  0.946495  0.750000  1
  B  B7  1  0.542442  0.457558  0.250000  1
  B  B8  1  0.459102  0.540898  0.750000  1
  B  B9  1  0.521345  0.478655  0.903599  1
  B  B10  1  0.479222  0.520778  0.095419  1
  B  B11  1  0.479222  0.520778  0.404581  1
  B  B12  1  0.521345  0.478655  0.596401  1
  B  B13  1  0.631486  0.368514  0.848049  1
  B  B14  1  0.368173  0.631827  0.149829  1
  B  B15  1  0.727932  0.272068  0.965264  1
  B  B16  1  0.273110  0.726890  0.033077  1
  B  B17  1  0.273110  0.726890  0.466923  1
  B  B18  1  0.727932  0.272068  0.534736  1
  B  B19  1  0.631486  0.368514  0.651951  1
  B  B20  1  0.368173  0.631827  0.350171  1
  Os  Os21  1  0.945774  0.054226  0.250000  1
