# generated using pymatgen
data_Yb12Al5Fe3(GeO4)12
_symmetry_space_group_name_H-M   'P 1'
_cell_length_a   10.65751143
_cell_length_b   10.65751200
_cell_length_c   10.65751200
_cell_angle_alpha   109.39412229
_cell_angle_beta   109.39411196
_cell_angle_gamma   109.39411066
_symmetry_Int_Tables_number   1
_chemical_formula_structural   Yb12Al5Fe3(GeO4)12
_chemical_formula_sum   'Yb12 Al5 Fe3 Ge12 O48'
_cell_volume   934.49981302
_cell_formula_units_Z   1
loop_
 _symmetry_equiv_pos_site_id
 _symmetry_equiv_pos_as_xyz
  1  'x, y, z'
loop_
 _atom_site_type_symbol
 _atom_site_label
 _atom_site_symmetry_multiplicity
 _atom_site_fract_x
 _atom_site_fract_y
 _atom_site_fract_z
 _atom_site_occupancy
  Yb  Yb0  1  0.374276  0.750736  0.124504  1
  Yb  Yb1  1  0.252385  0.377159  0.128459  1
  Yb  Yb2  1  0.377159  0.128458  0.252385  1
  Yb  Yb3  1  0.875497  0.625725  0.249263  1
  Yb  Yb4  1  0.750736  0.124505  0.374276  1
  Yb  Yb5  1  0.128458  0.252385  0.377159  1
  Yb  Yb6  1  0.871542  0.747616  0.622840  1
  Yb  Yb7  1  0.249264  0.875495  0.625725  1
  Yb  Yb8  1  0.124504  0.374276  0.750737  1
  Yb  Yb9  1  0.622842  0.871542  0.747615  1
  Yb  Yb10  1  0.747615  0.622842  0.871542  1
  Yb  Yb11  1  0.625723  0.249263  0.875496  1
  Al  Al12  1  0.000000  0.000000  0.000000  1
  Al  Al13  1  0.499999  0.500000  0.000000  1
  Al  Al14  1  0.499999  0.500000  0.500000  1
  Al  Al15  1  0.000000  0.500000  0.500000  1
  Al  Al16  1  0.499999  0.000000  0.500000  1
  Fe  Fe17  1  0.500000  0.000000  0.000000  1
  Fe  Fe18  1  0.000000  0.499999  0.000000  1
  Fe  Fe19  1  0.000000  0.000000  0.500000  1
  Ge  Ge20  1  0.877833  0.249942  0.128371  1
  Ge  Ge21  1  0.750060  0.871629  0.122166  1
  Ge  Ge22  1  0.627847  0.380963  0.254526  1
  Ge  Ge23  1  0.128371  0.877834  0.249941  1
  Ge  Ge24  1  0.254526  0.627846  0.380964  1
  Ge  Ge25  1  0.619036  0.745474  0.372153  1
  Ge  Ge26  1  0.745475  0.372153  0.619035  1
  Ge  Ge27  1  0.380963  0.254525  0.627846  1
  Ge  Ge28  1  0.871630  0.122167  0.750059  1
  Ge  Ge29  1  0.372153  0.619036  0.745474  1
  Ge  Ge30  1  0.249941  0.128370  0.877834  1
  Ge  Ge31  1  0.122167  0.750059  0.871629  1
  O  O32  1  0.198211  0.119468  0.019545  1
  O  O33  1  0.312483  0.901882  0.018468  1
  O  O34  1  0.697557  0.677967  0.078863  1
  O  O35  1  0.880905  0.401591  0.088302  1
  O  O36  1  0.616522  0.422396  0.102624  1
  O  O37  1  0.981533  0.687517  0.098118  1
  O  O38  1  0.019545  0.198211  0.119468  1
  O  O39  1  0.598409  0.911698  0.119095  1
  O  O40  1  0.206624  0.586774  0.188840  1
  O  O41  1  0.479418  0.598660  0.177441  1
  O  O42  1  0.119468  0.019545  0.198212  1
  O  O43  1  0.586775  0.188840  0.206623  1
  O  O44  1  0.322033  0.921136  0.302444  1
  O  O45  1  0.483540  0.387252  0.303823  1
  O  O46  1  0.921137  0.302444  0.322033  1
  O  O47  1  0.901882  0.018467  0.312483  1
  O  O48  1  0.577603  0.897375  0.383477  1
  O  O49  1  0.303824  0.483540  0.387252  1
  O  O50  1  0.822559  0.520582  0.401339  1
  O  O51  1  0.088302  0.880905  0.401592  1
  O  O52  1  0.811160  0.793377  0.413224  1
  O  O53  1  0.102624  0.616521  0.422396  1
  O  O54  1  0.387252  0.303823  0.483540  1
  O  O55  1  0.598660  0.177441  0.479418  1
  O  O56  1  0.401340  0.822560  0.520582  1
  O  O57  1  0.612749  0.696178  0.516462  1
  O  O58  1  0.897375  0.383478  0.577604  1
  O  O59  1  0.188840  0.206623  0.586776  1
  O  O60  1  0.911698  0.119095  0.598409  1
  O  O61  1  0.177441  0.479418  0.598660  1
  O  O62  1  0.422395  0.102624  0.616521  1
  O  O63  1  0.696178  0.516461  0.612750  1
  O  O64  1  0.098118  0.981532  0.687517  1
  O  O65  1  0.078862  0.697556  0.677967  1
  O  O66  1  0.677966  0.078863  0.697556  1
  O  O67  1  0.516461  0.612749  0.696178  1
  O  O68  1  0.413224  0.811159  0.793376  1
  O  O69  1  0.880532  0.980455  0.801789  1
  O  O70  1  0.520582  0.401341  0.822559  1
  O  O71  1  0.793376  0.413225  0.811159  1
  O  O72  1  0.401591  0.088301  0.880905  1
  O  O73  1  0.980455  0.801789  0.880533  1
  O  O74  1  0.383478  0.577603  0.897375  1
  O  O75  1  0.018467  0.312484  0.901882  1
  O  O76  1  0.302444  0.322033  0.921137  1
  O  O77  1  0.119095  0.598409  0.911698  1
  O  O78  1  0.687517  0.098117  0.981531  1
  O  O79  1  0.801789  0.880532  0.980456  1
