# generated using pymatgen
data_Dy3TaB4(Ru5W)2
_symmetry_space_group_name_H-M   'P 1'
_cell_length_a   9.58855697
_cell_length_b   9.58855647
_cell_length_c   3.09088400
_cell_angle_alpha   90.00000000
_cell_angle_beta   90.00000000
_cell_angle_gamma   90.28752255
_symmetry_Int_Tables_number   1
_chemical_formula_structural   Dy3TaB4(Ru5W)2
_chemical_formula_sum   'Dy3 Ta1 B4 Ru10 W2'
_cell_volume   284.17359487
_cell_formula_units_Z   1
loop_
 _symmetry_equiv_pos_site_id
 _symmetry_equiv_pos_as_xyz
  1  'x, y, z'
loop_
 _atom_site_type_symbol
 _atom_site_label
 _atom_site_symmetry_multiplicity
 _atom_site_fract_x
 _atom_site_fract_y
 _atom_site_fract_z
 _atom_site_occupancy
  Dy  Dy0  1  0.824022  0.675134  0.000000  1
  Dy  Dy1  1  0.175134  0.324022  0.000000  1
  Dy  Dy2  1  0.325425  0.825425  0.000000  1
  Ta  Ta3  1  0.676168  0.176168  0.000000  1
  B  B4  1  0.622976  0.881936  0.000000  1
  B  B5  1  0.381936  0.122976  0.000000  1
  B  B6  1  0.118036  0.618036  0.000000  1
  B  B7  1  0.876300  0.376300  0.000000  1
  Ru  Ru8  1  0.570113  0.719721  0.500000  1
  Ru  Ru9  1  0.441051  0.282805  0.500000  1
  Ru  Ru10  1  0.068022  0.782893  0.500000  1
  Ru  Ru11  1  0.917034  0.211286  0.500000  1
  Ru  Ru12  1  0.282893  0.568022  0.500000  1
  Ru  Ru13  1  0.711286  0.417034  0.500000  1
  Ru  Ru14  1  0.219721  0.070113  0.500000  1
  Ru  Ru15  1  0.782805  0.941051  0.500000  1
  Ru  Ru16  1  0.510044  0.010044  0.500000  1
  Ru  Ru17  1  0.995945  0.495945  0.500000  1
  W  W18  1  0.497945  0.503143  0.000000  1
  W  W19  1  0.003143  0.997945  0.000000  1
