# generated using pymatgen
data_La2Dy6GaPd24
_symmetry_space_group_name_H-M   'P 1'
_cell_length_a   8.41342770
_cell_length_b   8.41342842
_cell_length_c   8.41342900
_cell_angle_alpha   90.07751870
_cell_angle_beta   89.92248810
_cell_angle_gamma   89.92248409
_symmetry_Int_Tables_number   1
_chemical_formula_structural   La2Dy6GaPd24
_chemical_formula_sum   'La2 Dy6 Ga1 Pd24'
_cell_volume   595.54942802
_cell_formula_units_Z   1
loop_
 _symmetry_equiv_pos_site_id
 _symmetry_equiv_pos_as_xyz
  1  'x, y, z'
loop_
 _atom_site_type_symbol
 _atom_site_label
 _atom_site_symmetry_multiplicity
 _atom_site_fract_x
 _atom_site_fract_y
 _atom_site_fract_z
 _atom_site_occupancy
  La  La0  1  0.253518  0.746482  0.746482  1
  La  La1  1  0.746482  0.253518  0.253518  1
  Dy  Dy2  1  0.252265  0.251642  0.251642  1
  Dy  Dy3  1  0.747735  0.748358  0.748358  1
  Dy  Dy4  1  0.748358  0.747735  0.251642  1
  Dy  Dy5  1  0.748358  0.251642  0.747735  1
  Dy  Dy6  1  0.251642  0.252265  0.748358  1
  Dy  Dy7  1  0.251642  0.748358  0.252265  1
  Ga  Ga8  1  0.000000  0.000000  0.000000  1
  Pd  Pd9  1  0.260093  0.498043  0.003188  1
  Pd  Pd10  1  0.739907  0.501957  0.996812  1
  Pd  Pd11  1  0.003188  0.260093  0.501957  1
  Pd  Pd12  1  0.498043  0.260093  0.996812  1
  Pd  Pd13  1  0.996812  0.739907  0.498043  1
  Pd  Pd14  1  0.501957  0.739907  0.003188  1
  Pd  Pd15  1  0.498043  0.996812  0.260093  1
  Pd  Pd16  1  0.260093  0.003188  0.498043  1
  Pd  Pd17  1  0.501957  0.003188  0.739907  1
  Pd  Pd18  1  0.739907  0.996812  0.501957  1
  Pd  Pd19  1  0.003188  0.501957  0.260093  1
  Pd  Pd20  1  0.996812  0.498043  0.739907  1
  Pd  Pd21  1  0.252612  0.496759  0.496759  1
  Pd  Pd22  1  0.747388  0.503241  0.503241  1
  Pd  Pd23  1  0.496759  0.252612  0.503241  1
  Pd  Pd24  1  0.503241  0.747388  0.496759  1
  Pd  Pd25  1  0.496759  0.503241  0.252612  1
  Pd  Pd26  1  0.503241  0.496759  0.747388  1
  Pd  Pd27  1  0.291946  0.002461  0.002461  1
  Pd  Pd28  1  0.708054  0.997539  0.997539  1
  Pd  Pd29  1  0.002461  0.291946  0.997539  1
  Pd  Pd30  1  0.997539  0.708054  0.002461  1
  Pd  Pd31  1  0.002461  0.997539  0.291946  1
  Pd  Pd32  1  0.997539  0.002461  0.708054  1
