# generated using pymatgen
data_Tb6AlZn5C2
_symmetry_space_group_name_H-M   'P 1'
_cell_length_a   9.23146275
_cell_length_b   9.19131371
_cell_length_c   9.23146082
_cell_angle_alpha   60.14377273
_cell_angle_beta   60.19325798
_cell_angle_gamma   60.14377482
_symmetry_Int_Tables_number   1
_chemical_formula_structural   Tb6AlZn5C2
_chemical_formula_sum   'Tb12 Al2 Zn10 C4'
_cell_volume   555.87477048
_cell_formula_units_Z   2
loop_
 _symmetry_equiv_pos_site_id
 _symmetry_equiv_pos_as_xyz
  1  'x, y, z'
loop_
 _atom_site_type_symbol
 _atom_site_label
 _atom_site_symmetry_multiplicity
 _atom_site_fract_x
 _atom_site_fract_y
 _atom_site_fract_z
 _atom_site_occupancy
  Tb  Tb0  1  0.446646  0.447050  0.053153  1
  Tb  Tb1  1  0.053120  0.446880  0.053120  1
  Tb  Tb2  1  0.446646  0.053152  0.053153  1
  Tb  Tb3  1  0.053153  0.053152  0.446646  1
  Tb  Tb4  1  0.447034  0.052966  0.447034  1
  Tb  Tb5  1  0.053153  0.447050  0.446646  1
  Tb  Tb6  1  0.803354  0.802950  0.196847  1
  Tb  Tb7  1  0.196880  0.803120  0.196880  1
  Tb  Tb8  1  0.803354  0.196848  0.196847  1
  Tb  Tb9  1  0.196847  0.196848  0.803354  1
  Tb  Tb10  1  0.802966  0.197034  0.802966  1
  Tb  Tb11  1  0.196847  0.802950  0.803354  1
  Al  Al12  1  0.625000  0.125000  0.625000  1
  Al  Al13  1  0.625000  0.625000  0.625000  1
  Zn  Zn14  1  0.827012  0.826278  0.520432  1
  Zn  Zn15  1  0.826594  0.521235  0.826594  1
  Zn  Zn16  1  0.520432  0.826278  0.827012  1
  Zn  Zn17  1  0.826594  0.825577  0.826594  1
  Zn  Zn18  1  0.422988  0.423722  0.729568  1
  Zn  Zn19  1  0.423406  0.728765  0.423406  1
  Zn  Zn20  1  0.729568  0.423722  0.422988  1
  Zn  Zn21  1  0.423406  0.424423  0.423406  1
  Zn  Zn22  1  0.625000  0.625000  0.125000  1
  Zn  Zn23  1  0.125000  0.625000  0.625000  1
  C  C24  1  0.125000  0.125000  0.625000  1
  C  C25  1  0.125000  0.625000  0.125000  1
  C  C26  1  0.625000  0.125000  0.125000  1
  C  C27  1  0.125000  0.125000  0.125000  1
