# generated using pymatgen
data_DyTm3(Al3Ir)6
_symmetry_space_group_name_H-M   'P 1'
_cell_length_a   7.54284754
_cell_length_b   7.54499616
_cell_length_c   9.45092700
_cell_angle_alpha   90.00000000
_cell_angle_beta   90.00000000
_cell_angle_gamma   119.55072142
_symmetry_Int_Tables_number   1
_chemical_formula_structural   DyTm3(Al3Ir)6
_chemical_formula_sum   'Dy1 Tm3 Al18 Ir6'
_cell_volume   467.89434275
_cell_formula_units_Z   1
loop_
 _symmetry_equiv_pos_site_id
 _symmetry_equiv_pos_as_xyz
  1  'x, y, z'
loop_
 _atom_site_type_symbol
 _atom_site_label
 _atom_site_symmetry_multiplicity
 _atom_site_fract_x
 _atom_site_fract_y
 _atom_site_fract_z
 _atom_site_occupancy
  Dy  Dy0  1  0.994686  0.670818  0.250000  1
  Tm  Tm1  1  0.005310  0.328965  0.750000  1
  Tm  Tm2  1  0.670916  0.994850  0.250000  1
  Tm  Tm3  1  0.329016  0.005405  0.750000  1
  Al  Al4  1  0.128763  0.129337  0.250000  1
  Al  Al5  1  0.871493  0.871645  0.750000  1
  Al  Al6  1  0.000617  0.334118  0.073526  1
  Al  Al7  1  0.999399  0.665148  0.924935  1
  Al  Al8  1  0.999399  0.665148  0.575065  1
  Al  Al9  1  0.335543  0.001285  0.426404  1
  Al  Al10  1  0.000617  0.334118  0.426474  1
  Al  Al11  1  0.665145  0.999375  0.574299  1
  Al  Al12  1  0.665145  0.999375  0.925701  1
  Al  Al13  1  0.335543  0.001285  0.073596  1
  Al  Al14  1  0.333268  0.333292  0.553213  1
  Al  Al15  1  0.666130  0.666780  0.447707  1
  Al  Al16  1  0.666130  0.666780  0.052293  1
  Al  Al17  1  0.333268  0.333292  0.946787  1
  Al  Al18  1  0.340014  0.548232  0.250000  1
  Al  Al19  1  0.660495  0.451474  0.750000  1
  Al  Al20  1  0.547375  0.338458  0.250000  1
  Al  Al21  1  0.451676  0.660701  0.750000  1
  Ir  Ir22  1  0.671960  0.327540  0.999745  1
  Ir  Ir23  1  0.327950  0.672163  0.999780  1
  Ir  Ir24  1  0.327950  0.672163  0.500220  1
  Ir  Ir25  1  0.671960  0.327540  0.500255  1
  Ir  Ir26  1  0.000117  0.000358  0.999712  1
  Ir  Ir27  1  0.000117  0.000358  0.500288  1
