# generated using pymatgen
data_Cs2Ac2InAgTe6
_symmetry_space_group_name_H-M   'P 1'
_cell_length_a   9.01808066
_cell_length_b   9.01807899
_cell_length_c   12.60867400
_cell_angle_alpha   90.00000000
_cell_angle_beta   90.00000000
_cell_angle_gamma   149.11569256
_symmetry_Int_Tables_number   1
_chemical_formula_structural   Cs2Ac2InAgTe6
_chemical_formula_sum   'Cs2 Ac2 In1 Ag1 Te6'
_cell_volume   526.34935342
_cell_formula_units_Z   1
loop_
 _symmetry_equiv_pos_site_id
 _symmetry_equiv_pos_as_xyz
  1  'x, y, z'
loop_
 _atom_site_type_symbol
 _atom_site_label
 _atom_site_symmetry_multiplicity
 _atom_site_fract_x
 _atom_site_fract_y
 _atom_site_fract_z
 _atom_site_occupancy
  Cs  Cs0  1  0.246449  0.753550  0.250000  1
  Cs  Cs1  1  0.746304  0.253695  0.750000  1
  Ac  Ac2  1  0.505671  0.494329  0.980833  1
  Ac  Ac3  1  0.505671  0.494329  0.519167  1
  In  In4  1  0.962669  0.037330  0.250000  1
  Ag  Ag5  1  0.032893  0.967106  0.750000  1
  Te  Te6  1  0.876903  0.123096  0.064579  1
  Te  Te7  1  0.561353  0.438646  0.250000  1
  Te  Te8  1  0.876903  0.123096  0.435421  1
  Te  Te9  1  0.127842  0.872157  0.560913  1
  Te  Te10  1  0.429494  0.570505  0.750000  1
  Te  Te11  1  0.127842  0.872157  0.939088  1
