# generated using pymatgen
data_Ho16Al4Ni3Ir
_symmetry_space_group_name_H-M   'P 1'
_cell_length_a   9.41626589
_cell_length_b   9.41624602
_cell_length_c   9.41638256
_cell_angle_alpha   59.94560367
_cell_angle_beta   59.94578646
_cell_angle_gamma   59.94512686
_symmetry_Int_Tables_number   1
_chemical_formula_structural   Ho16Al4Ni3Ir
_chemical_formula_sum   'Ho16 Al4 Ni3 Ir1'
_cell_volume   589.64213558
_cell_formula_units_Z   1
loop_
 _symmetry_equiv_pos_site_id
 _symmetry_equiv_pos_as_xyz
  1  'x, y, z'
loop_
 _atom_site_type_symbol
 _atom_site_label
 _atom_site_symmetry_multiplicity
 _atom_site_fract_x
 _atom_site_fract_y
 _atom_site_fract_z
 _atom_site_occupancy
  Ho  Ho0  1  0.350940  0.351059  0.350833  1
  Ho  Ho1  1  0.353111  0.353235  0.945304  1
  Ho  Ho2  1  0.353208  0.945217  0.353131  1
  Ho  Ho3  1  0.945264  0.353267  0.353070  1
  Ho  Ho4  1  0.806105  0.191689  0.191690  1
  Ho  Ho5  1  0.190687  0.808365  0.808651  1
  Ho  Ho6  1  0.191676  0.806059  0.191672  1
  Ho  Ho7  1  0.808427  0.190705  0.808559  1
  Ho  Ho8  1  0.191709  0.191705  0.806134  1
  Ho  Ho9  1  0.808606  0.808434  0.190675  1
  Ho  Ho10  1  0.935983  0.564320  0.564249  1
  Ho  Ho11  1  0.560500  0.937523  0.937546  1
  Ho  Ho12  1  0.564307  0.935951  0.564300  1
  Ho  Ho13  1  0.937556  0.560511  0.937558  1
  Ho  Ho14  1  0.564252  0.564318  0.935986  1
  Ho  Ho15  1  0.937540  0.937521  0.560504  1
  Al  Al16  1  0.577490  0.577479  0.577480  1
  Al  Al17  1  0.577039  0.577032  0.267967  1
  Al  Al18  1  0.577036  0.267977  0.577029  1
  Al  Al19  1  0.267966  0.577033  0.577034  1
  Ni  Ni20  1  0.142769  0.142766  0.572178  1
  Ni  Ni21  1  0.142777  0.572158  0.142775  1
  Ni  Ni22  1  0.572157  0.142776  0.142776  1
  Ir  Ir23  1  0.142895  0.142903  0.142895  1
