# generated using pymatgen
data_CeTm5Al16(SiOs)8
_symmetry_space_group_name_H-M   'P 1'
_cell_length_a   8.69387100
_cell_length_b   8.70558934
_cell_length_c   9.39237200
_cell_angle_alpha   90.00000000
_cell_angle_beta   90.00000000
_cell_angle_gamma   119.95548609
_symmetry_Int_Tables_number   1
_chemical_formula_structural   CeTm5Al16(SiOs)8
_chemical_formula_sum   'Ce1 Tm5 Al16 Si8 Os8'
_cell_volume   615.90242564
_cell_formula_units_Z   1
loop_
 _symmetry_equiv_pos_site_id
 _symmetry_equiv_pos_as_xyz
  1  'x, y, z'
loop_
 _atom_site_type_symbol
 _atom_site_label
 _atom_site_symmetry_multiplicity
 _atom_site_fract_x
 _atom_site_fract_y
 _atom_site_fract_z
 _atom_site_occupancy
  Ce  Ce0  1  0.191610  0.383219  0.250000  1
  Tm  Tm1  1  0.805910  0.611820  0.750000  1
  Tm  Tm2  1  0.609404  0.805293  0.250000  1
  Tm  Tm3  1  0.390074  0.194833  0.750000  1
  Tm  Tm4  1  0.195890  0.805293  0.250000  1
  Tm  Tm5  1  0.804759  0.194833  0.750000  1
  Al  Al6  1  0.163622  0.327244  0.580279  1
  Al  Al7  1  0.834469  0.668938  0.422740  1
  Al  Al8  1  0.672010  0.836153  0.579012  1
  Al  Al9  1  0.834469  0.668938  0.077260  1
  Al  Al10  1  0.332382  0.165306  0.421129  1
  Al  Al11  1  0.163622  0.327244  0.919721  1
  Al  Al12  1  0.164143  0.836153  0.579012  1
  Al  Al13  1  0.332382  0.165306  0.078871  1
  Al  Al14  1  0.832925  0.165306  0.421129  1
  Al  Al15  1  0.672010  0.836153  0.920988  1
  Al  Al16  1  0.832925  0.165306  0.078871  1
  Al  Al17  1  0.164143  0.836153  0.920988  1
  Al  Al18  1  0.437177  0.874355  0.750000  1
  Al  Al19  1  0.125383  0.563171  0.750000  1
  Al  Al20  1  0.437788  0.563171  0.750000  1
  Al  Al21  1  0.000045  0.000090  0.750000  1
  Si  Si22  1  0.334654  0.669308  0.036017  1
  Si  Si23  1  0.667262  0.334523  0.956926  1
  Si  Si24  1  0.667262  0.334523  0.543074  1
  Si  Si25  1  0.334654  0.669308  0.463983  1
  Si  Si26  1  0.560647  0.121295  0.250000  1
  Si  Si27  1  0.872878  0.440559  0.250000  1
  Si  Si28  1  0.567681  0.440559  0.250000  1
  Si  Si29  1  0.996587  0.993175  0.250000  1
  Os  Os30  1  0.501885  0.003770  0.007036  1
  Os  Os31  1  0.997118  0.499011  0.007180  1
  Os  Os32  1  0.501885  0.003770  0.492964  1
  Os  Os33  1  0.501893  0.499011  0.007180  1
  Os  Os34  1  0.997118  0.499011  0.492820  1
  Os  Os35  1  0.501893  0.499011  0.492820  1
  Os  Os36  1  0.999720  0.999441  0.007564  1
  Os  Os37  1  0.999720  0.999441  0.492436  1
