# generated using pymatgen
data_Ce6MgCd22Sb
_symmetry_space_group_name_H-M   'P 1'
_cell_length_a   10.13356413
_cell_length_b   10.13356454
_cell_length_c   10.13356400
_cell_angle_alpha   60.00000176
_cell_angle_beta   60.00000041
_cell_angle_gamma   60.00000162
_symmetry_Int_Tables_number   1
_chemical_formula_structural   Ce6MgCd22Sb
_chemical_formula_sum   'Ce6 Mg1 Cd22 Sb1'
_cell_volume   735.82016784
_cell_formula_units_Z   1
loop_
 _symmetry_equiv_pos_site_id
 _symmetry_equiv_pos_as_xyz
  1  'x, y, z'
loop_
 _atom_site_type_symbol
 _atom_site_label
 _atom_site_symmetry_multiplicity
 _atom_site_fract_x
 _atom_site_fract_y
 _atom_site_fract_z
 _atom_site_occupancy
  Ce  Ce0  1  0.781002  0.781002  0.218998  1
  Ce  Ce1  1  0.218998  0.781002  0.218998  1
  Ce  Ce2  1  0.781002  0.218998  0.218998  1
  Ce  Ce3  1  0.218998  0.218998  0.781002  1
  Ce  Ce4  1  0.781002  0.218998  0.781002  1
  Ce  Ce5  1  0.218998  0.781002  0.781002  1
  Mg  Mg6  1  0.500000  0.500000  0.500000  1
  Cd  Cd7  1  0.835251  0.835251  0.494246  1
  Cd  Cd8  1  0.835251  0.494246  0.835251  1
  Cd  Cd9  1  0.494246  0.835251  0.835251  1
  Cd  Cd10  1  0.835251  0.835251  0.835251  1
  Cd  Cd11  1  0.164749  0.164749  0.505754  1
  Cd  Cd12  1  0.164749  0.505754  0.164749  1
  Cd  Cd13  1  0.505754  0.164749  0.164749  1
  Cd  Cd14  1  0.164749  0.164749  0.164749  1
  Cd  Cd15  1  0.621561  0.621561  0.135319  1
  Cd  Cd16  1  0.621561  0.135319  0.621561  1
  Cd  Cd17  1  0.135319  0.621561  0.621561  1
  Cd  Cd18  1  0.621561  0.621561  0.621561  1
  Cd  Cd19  1  0.378439  0.378439  0.864681  1
  Cd  Cd20  1  0.378439  0.864681  0.378439  1
  Cd  Cd21  1  0.864681  0.378439  0.378439  1
  Cd  Cd22  1  0.378439  0.378439  0.378439  1
  Cd  Cd23  1  0.000000  0.000000  0.500000  1
  Cd  Cd24  1  0.500000  0.000000  0.500000  1
  Cd  Cd25  1  0.000000  0.500000  0.500000  1
  Cd  Cd26  1  0.500000  0.500000  0.000000  1
  Cd  Cd27  1  0.000000  0.500000  0.000000  1
  Cd  Cd28  1  0.500000  0.000000  0.000000  1
  Sb  Sb29  1  0.000000  0.000000  0.000000  1
