# generated using pymatgen
data_LiDy9Tm7Cd3Co4
_symmetry_space_group_name_H-M   'P 1'
_cell_length_a   9.46243030
_cell_length_b   9.47065658
_cell_length_c   9.49012300
_cell_angle_alpha   59.88657266
_cell_angle_beta   59.86858686
_cell_angle_gamma   59.88648507
_symmetry_Int_Tables_number   1
_chemical_formula_structural   LiDy9Tm7Cd3Co4
_chemical_formula_sum   'Li1 Dy9 Tm7 Cd3 Co4'
_cell_volume   599.73712185
_cell_formula_units_Z   1
loop_
 _symmetry_equiv_pos_site_id
 _symmetry_equiv_pos_as_xyz
  1  'x, y, z'
loop_
 _atom_site_type_symbol
 _atom_site_label
 _atom_site_symmetry_multiplicity
 _atom_site_fract_x
 _atom_site_fract_y
 _atom_site_fract_z
 _atom_site_occupancy
  Li  Li0  1  0.821113  0.821603  0.533612  1
  Dy  Dy1  1  0.596309  0.213652  0.598895  1
  Dy  Dy2  1  0.810117  0.812233  0.187511  1
  Dy  Dy3  1  0.214901  0.596502  0.597440  1
  Dy  Dy4  1  0.809052  0.189507  0.188674  1
  Dy  Dy5  1  0.062945  0.434581  0.436096  1
  Dy  Dy6  1  0.189445  0.811739  0.186422  1
  Dy  Dy7  1  0.596799  0.598926  0.208364  1
  Dy  Dy8  1  0.187435  0.186306  0.811248  1
  Dy  Dy9  1  0.063948  0.435988  0.060573  1
  Tm  Tm10  1  0.439761  0.437075  0.058756  1
  Tm  Tm11  1  0.593309  0.594081  0.597451  1
  Tm  Tm12  1  0.188401  0.813451  0.811126  1
  Tm  Tm13  1  0.064930  0.063273  0.435835  1
  Tm  Tm14  1  0.437820  0.063331  0.061742  1
  Tm  Tm15  1  0.812466  0.188205  0.811875  1
  Tm  Tm16  1  0.434992  0.062355  0.435666  1
  Cd  Cd17  1  0.832085  0.832925  0.825941  1
  Cd  Cd18  1  0.508342  0.830628  0.826786  1
  Cd  Cd19  1  0.830264  0.508065  0.827523  1
  Co  Co20  1  0.392348  0.391185  0.387816  1
  Co  Co21  1  0.827011  0.393173  0.392031  1
  Co  Co22  1  0.392930  0.828371  0.391169  1
  Co  Co23  1  0.393281  0.392849  0.827445  1
