# generated using pymatgen
data_HfZr5Al2(Ga2Pt3)2
_symmetry_space_group_name_H-M   'P 1'
_cell_length_a   7.15957829
_cell_length_b   7.20043401
_cell_length_c   7.19978600
_cell_angle_alpha   90.00397818
_cell_angle_beta   89.99888086
_cell_angle_gamma   119.92239536
_symmetry_Int_Tables_number   1
_chemical_formula_structural   HfZr5Al2(Ga2Pt3)2
_chemical_formula_sum   'Hf1 Zr5 Al2 Ga4 Pt6'
_cell_volume   321.68841553
_cell_formula_units_Z   1
loop_
 _symmetry_equiv_pos_site_id
 _symmetry_equiv_pos_as_xyz
  1  'x, y, z'
loop_
 _atom_site_type_symbol
 _atom_site_label
 _atom_site_symmetry_multiplicity
 _atom_site_fract_x
 _atom_site_fract_y
 _atom_site_fract_z
 _atom_site_occupancy
  Hf  Hf0  1  0.615464  0.022301  0.249997  1
  Zr  Zr1  1  0.411251  0.389538  0.249987  1
  Zr  Zr2  1  0.592846  0.975731  0.750018  1
  Zr  Zr3  1  0.388656  0.411477  0.749984  1
  Zr  Zr4  1  0.022769  0.609515  0.750028  1
  Zr  Zr5  1  0.976465  0.588661  0.249969  1
  Al  Al6  1  0.260671  0.999966  0.000634  1
  Al  Al7  1  0.260653  0.999941  0.499383  1
  Ga  Ga8  1  0.003091  0.268266  0.499968  1
  Ga  Ga9  1  0.003110  0.268266  0.000035  1
  Ga  Ga10  1  0.734525  0.731991  0.999850  1
  Ga  Ga11  1  0.734554  0.732018  0.500138  1
  Pt  Pt12  1  0.659860  0.325710  0.529879  1
  Pt  Pt13  1  0.004711  0.999027  0.750002  1
  Pt  Pt14  1  0.659830  0.325679  0.970127  1
  Pt  Pt15  1  0.334854  0.675950  0.034440  1
  Pt  Pt16  1  0.334885  0.675933  0.465559  1
  Pt  Pt17  1  0.001806  0.000028  0.250000  1
