# generated using pymatgen
data_ErLu(Ga2Ag)2
_symmetry_space_group_name_H-M   'P 1'
_cell_length_a   4.34845200
_cell_length_b   6.89166591
_cell_length_c   10.19588291
_cell_angle_alpha   89.76134695
_cell_angle_beta   90.00000000
_cell_angle_gamma   90.00000000
_symmetry_Int_Tables_number   1
_chemical_formula_structural   ErLu(Ga2Ag)2
_chemical_formula_sum   'Er2 Lu2 Ga8 Ag4'
_cell_volume   305.54836784
_cell_formula_units_Z   2
loop_
 _symmetry_equiv_pos_site_id
 _symmetry_equiv_pos_as_xyz
  1  'x, y, z'
loop_
 _atom_site_type_symbol
 _atom_site_label
 _atom_site_symmetry_multiplicity
 _atom_site_fract_x
 _atom_site_fract_y
 _atom_site_fract_z
 _atom_site_occupancy
  Er  Er0  1  0.250000  0.776770  0.822180  1
  Er  Er1  1  0.750000  0.223230  0.177820  1
  Lu  Lu2  1  0.750000  0.723440  0.323090  1
  Lu  Lu3  1  0.250000  0.276560  0.676910  1
  Ga  Ga4  1  0.250000  0.696352  0.533888  1
  Ga  Ga5  1  0.750000  0.303648  0.466112  1
  Ga  Ga6  1  0.750000  0.800425  0.035803  1
  Ga  Ga7  1  0.250000  0.199575  0.964197  1
  Ga  Ga8  1  0.250000  0.930337  0.156984  1
  Ga  Ga9  1  0.750000  0.069663  0.843016  1
  Ga  Ga10  1  0.750000  0.567666  0.656703  1
  Ga  Ga11  1  0.250000  0.432334  0.343297  1
  Ag  Ag12  1  0.250000  0.547841  0.094048  1
  Ag  Ag13  1  0.750000  0.452159  0.905952  1
  Ag  Ag14  1  0.750000  0.952089  0.593914  1
  Ag  Ag15  1  0.250000  0.047911  0.406086  1
