# generated using pymatgen
data_Sm12CoSiI17
_symmetry_space_group_name_H-M   'P 1'
_cell_length_a   9.85879197
_cell_length_b   11.82127805
_cell_length_c   11.72116942
_cell_angle_alpha   93.72435077
_cell_angle_beta   104.66158493
_cell_angle_gamma   114.78596036
_symmetry_Int_Tables_number   1
_chemical_formula_structural   Sm12CoSiI17
_chemical_formula_sum   'Sm12 Co1 Si1 I17'
_cell_volume   1176.82806464
_cell_formula_units_Z   1
loop_
 _symmetry_equiv_pos_site_id
 _symmetry_equiv_pos_as_xyz
  1  'x, y, z'
loop_
 _atom_site_type_symbol
 _atom_site_label
 _atom_site_symmetry_multiplicity
 _atom_site_fract_x
 _atom_site_fract_y
 _atom_site_fract_z
 _atom_site_occupancy
  Sm  Sm0  1  0.054690  0.509318  0.322405  1
  Sm  Sm1  1  0.988765  0.810021  0.579348  1
  Sm  Sm2  1  0.648482  0.241271  0.283120  1
  Sm  Sm3  1  0.008771  0.192889  0.415675  1
  Sm  Sm4  1  0.221406  0.666473  0.996702  1
  Sm  Sm5  1  0.268242  0.991138  0.898921  1
  Sm  Sm6  1  0.361834  0.759707  0.717138  1
  Sm  Sm7  1  0.940734  0.483791  0.672282  1
  Sm  Sm8  1  0.739096  0.017821  0.105469  1
  Sm  Sm9  1  0.145870  0.288362  0.148525  1
  Sm  Sm10  1  0.778068  0.328981  0.010867  1
  Sm  Sm11  1  0.845835  0.711848  0.852802  1
  Co  Co12  1  0.895578  0.262611  0.213717  1
  Si  Si13  1  0.105389  0.737298  0.786706  1
  I  I14  1  0.779904  0.530499  0.418983  1
  I  I15  1  0.640148  0.418556  0.755167  1
  I  I16  1  0.842263  0.895464  0.323637  1
  I  I17  1  0.326877  0.213319  0.367890  1
  I  I18  1  0.158397  0.103608  0.676023  1
  I  I19  1  0.583829  0.051024  0.835031  1
  I  I20  1  0.748262  0.174739  0.538874  1
  I  I21  1  0.543459  0.701996  0.955279  1
  I  I22  1  0.367042  0.582331  0.249234  1
  I  I23  1  0.221215  0.473910  0.585734  1
  I  I24  1  0.057685  0.368739  0.891282  1
  I  I25  1  0.452337  0.300370  0.046400  1
  I  I26  1  0.999386  0.998363  0.996827  1
  I  I27  1  0.248106  0.819449  0.461764  1
  I  I28  1  0.409983  0.943860  0.159195  1
  I  I29  1  0.676004  0.786916  0.630145  1
  I  I30  1  0.942342  0.635328  0.104855  1
