# generated using pymatgen
data_Ho7ErRe2(TcB12)2
_symmetry_space_group_name_H-M   'P 1'
_cell_length_a   3.67072700
_cell_length_b   9.14344633
_cell_length_c   11.52093901
_cell_angle_alpha   90.05794833
_cell_angle_beta   90.00000000
_cell_angle_gamma   90.00000000
_symmetry_Int_Tables_number   1
_chemical_formula_structural   Ho7ErRe2(TcB12)2
_chemical_formula_sum   'Ho7 Er1 Re2 Tc2 B24'
_cell_volume   386.67817621
_cell_formula_units_Z   1
loop_
 _symmetry_equiv_pos_site_id
 _symmetry_equiv_pos_as_xyz
  1  'x, y, z'
loop_
 _atom_site_type_symbol
 _atom_site_label
 _atom_site_symmetry_multiplicity
 _atom_site_fract_x
 _atom_site_fract_y
 _atom_site_fract_z
 _atom_site_occupancy
  Ho  Ho0  1  0.000000  0.323957  0.414012  1
  Ho  Ho1  1  0.000000  0.676021  0.586063  1
  Ho  Ho2  1  0.000000  0.823463  0.086012  1
  Ho  Ho3  1  0.000000  0.176539  0.913939  1
  Ho  Ho4  1  0.000000  0.942351  0.369922  1
  Ho  Ho5  1  0.000000  0.057645  0.630102  1
  Ho  Ho6  1  0.000000  0.443915  0.130349  1
  Er  Er7  1  0.000000  0.556166  0.869439  1
  Re  Re8  1  0.000000  0.138909  0.179242  1
  Re  Re9  1  0.000000  0.860835  0.820754  1
  Tc  Tc10  1  0.000000  0.638932  0.320753  1
  Tc  Tc11  1  0.000000  0.361246  0.679397  1
  B  B12  1  0.500000  0.553476  0.433038  1
  B  B13  1  0.500000  0.446539  0.567010  1
  B  B14  1  0.500000  0.053357  0.066825  1
  B  B15  1  0.500000  0.946570  0.933152  1
  B  B16  1  0.500000  0.749028  0.418865  1
  B  B17  1  0.500000  0.250984  0.581151  1
  B  B18  1  0.500000  0.249538  0.081050  1
  B  B19  1  0.500000  0.750168  0.918941  1
  B  B20  1  0.500000  0.792157  0.265453  1
  B  B21  1  0.500000  0.207911  0.734571  1
  B  B22  1  0.500000  0.292545  0.234659  1
  B  B23  1  0.500000  0.707200  0.765422  1
  B  B24  1  0.500000  0.631258  0.185678  1
  B  B25  1  0.500000  0.368985  0.814439  1
  B  B26  1  0.500000  0.130979  0.314613  1
  B  B27  1  0.500000  0.868967  0.685425  1
  B  B28  1  0.500000  0.982148  0.211824  1
  B  B29  1  0.500000  0.017824  0.788190  1
  B  B30  1  0.500000  0.482547  0.288275  1
  B  B31  1  0.500000  0.517596  0.711915  1
  B  B32  1  0.500000  0.600337  0.027694  1
  B  B33  1  0.500000  0.399912  0.971815  1
  B  B34  1  0.500000  0.100209  0.471864  1
  B  B35  1  0.500000  0.899786  0.528148  1
