# generated using pymatgen
data_BaSnSeS
_symmetry_space_group_name_H-M   'P 1'
_cell_length_a   4.47769800
_cell_length_b   4.41596800
_cell_length_c   12.30136700
_cell_angle_alpha   90.00000000
_cell_angle_beta   90.00000000
_cell_angle_gamma   90.00000000
_symmetry_Int_Tables_number   1
_chemical_formula_structural   BaSnSeS
_chemical_formula_sum   'Ba2 Sn2 Se2 S2'
_cell_volume   243.23949450
_cell_formula_units_Z   2
loop_
 _symmetry_equiv_pos_site_id
 _symmetry_equiv_pos_as_xyz
  1  'x, y, z'
loop_
 _atom_site_type_symbol
 _atom_site_label
 _atom_site_symmetry_multiplicity
 _atom_site_fract_x
 _atom_site_fract_y
 _atom_site_fract_z
 _atom_site_occupancy
  Ba  Ba0  1  0.000000  0.185497  0.605571  1
  Ba  Ba1  1  0.000000  0.814503  0.105571  1
  Sn  Sn2  1  0.500000  0.361698  0.360661  1
  Sn  Sn3  1  0.500000  0.638302  0.860661  1
  Se  Se4  1  0.000000  0.759086  0.377153  1
  Se  Se5  1  0.000000  0.240914  0.877153  1
  S  S6  1  0.500000  0.680327  0.656616  1
  S  S7  1  0.500000  0.319673  0.156616  1
