# generated using pymatgen
data_Nd5Th3(Si3Pd)4
_symmetry_space_group_name_H-M   'P 1'
_cell_length_a   8.24776896
_cell_length_b   8.26238765
_cell_length_c   8.52259400
_cell_angle_alpha   90.00000000
_cell_angle_beta   90.00000000
_cell_angle_gamma   119.81593066
_symmetry_Int_Tables_number   1
_chemical_formula_structural   Nd5Th3(Si3Pd)4
_chemical_formula_sum   'Nd5 Th3 Si12 Pd4'
_cell_volume   503.90310284
_cell_formula_units_Z   1
loop_
 _symmetry_equiv_pos_site_id
 _symmetry_equiv_pos_as_xyz
  1  'x, y, z'
loop_
 _atom_site_type_symbol
 _atom_site_label
 _atom_site_symmetry_multiplicity
 _atom_site_fract_x
 _atom_site_fract_y
 _atom_site_fract_z
 _atom_site_occupancy
  Nd  Nd0  1  0.999622  0.499740  0.250000  1
  Nd  Nd1  1  0.499696  0.999538  0.750000  1
  Nd  Nd2  1  0.500299  0.000524  0.250000  1
  Nd  Nd3  1  0.000071  0.999938  0.750000  1
  Nd  Nd4  1  0.000091  0.000102  0.250000  1
  Th  Th5  1  0.499755  0.500177  0.750000  1
  Th  Th6  1  0.500143  0.499872  0.250000  1
  Th  Th7  1  0.000432  0.500204  0.750000  1
  Si  Si8  1  0.833256  0.166659  0.998287  1
  Si  Si9  1  0.166738  0.833315  0.999654  1
  Si  Si10  1  0.331490  0.165541  0.999740  1
  Si  Si11  1  0.166738  0.833315  0.500346  1
  Si  Si12  1  0.668465  0.834433  0.000773  1
  Si  Si13  1  0.833256  0.166659  0.501713  1
  Si  Si14  1  0.835214  0.669922  0.998949  1
  Si  Si15  1  0.668465  0.834433  0.499227  1
  Si  Si16  1  0.164774  0.330043  0.999830  1
  Si  Si17  1  0.331490  0.165541  0.500260  1
  Si  Si18  1  0.164774  0.330043  0.500170  1
  Si  Si19  1  0.835214  0.669922  0.501051  1
  Pd  Pd20  1  0.666498  0.335578  0.998295  1
  Pd  Pd21  1  0.333512  0.664462  0.999086  1
  Pd  Pd22  1  0.333512  0.664462  0.500914  1
  Pd  Pd23  1  0.666498  0.335578  0.501705  1
