# generated using pymatgen
data_Tm4LuInGa2
_symmetry_space_group_name_H-M   'P 1'
_cell_length_a   7.67536200
_cell_length_b   7.67536200
_cell_length_c   14.27909800
_cell_angle_alpha   90.00000000
_cell_angle_beta   90.00000000
_cell_angle_gamma   90.00000000
_symmetry_Int_Tables_number   1
_chemical_formula_structural   Tm4LuInGa2
_chemical_formula_sum   'Tm16 Lu4 In4 Ga8'
_cell_volume   841.19853866
_cell_formula_units_Z   4
loop_
 _symmetry_equiv_pos_site_id
 _symmetry_equiv_pos_as_xyz
  1  'x, y, z'
loop_
 _atom_site_type_symbol
 _atom_site_label
 _atom_site_symmetry_multiplicity
 _atom_site_fract_x
 _atom_site_fract_y
 _atom_site_fract_z
 _atom_site_occupancy
  Tm  Tm0  1  0.672920  0.661090  0.606884  1
  Tm  Tm1  1  0.672920  0.338910  0.106884  1
  Tm  Tm2  1  0.827080  0.838910  0.393116  1
  Tm  Tm3  1  0.172920  0.838910  0.893116  1
  Tm  Tm4  1  0.327080  0.338910  0.606884  1
  Tm  Tm5  1  0.327080  0.661090  0.106884  1
  Tm  Tm6  1  0.172920  0.161090  0.393116  1
  Tm  Tm7  1  0.827080  0.161090  0.893116  1
  Tm  Tm8  1  0.661090  0.327080  0.393116  1
  Tm  Tm9  1  0.338910  0.327080  0.893116  1
  Tm  Tm10  1  0.161090  0.827080  0.606884  1
  Tm  Tm11  1  0.838910  0.827080  0.106884  1
  Tm  Tm12  1  0.338910  0.672920  0.393116  1
  Tm  Tm13  1  0.661090  0.672920  0.893116  1
  Tm  Tm14  1  0.838910  0.172920  0.606884  1
  Tm  Tm15  1  0.161090  0.172920  0.106884  1
  Lu  Lu16  1  0.000000  0.500000  0.758311  1
  Lu  Lu17  1  0.000000  0.500000  0.258311  1
  Lu  Lu18  1  0.500000  0.000000  0.241689  1
  Lu  Lu19  1  0.500000  0.000000  0.741689  1
  In  In20  1  0.000000  0.500000  0.495693  1
  In  In21  1  0.000000  0.500000  0.995693  1
  In  In22  1  0.500000  0.000000  0.504307  1
  In  In23  1  0.500000  0.000000  0.004307  1
  Ga  Ga24  1  0.874288  0.874288  0.750000  1
  Ga  Ga25  1  0.874288  0.125712  0.250000  1
  Ga  Ga26  1  0.625712  0.625712  0.250000  1
  Ga  Ga27  1  0.374288  0.625712  0.750000  1
  Ga  Ga28  1  0.125712  0.125712  0.750000  1
  Ga  Ga29  1  0.125712  0.874288  0.250000  1
  Ga  Ga30  1  0.374288  0.374288  0.250000  1
  Ga  Ga31  1  0.625712  0.374288  0.750000  1
