# generated using pymatgen
data_Au2ClF18
_symmetry_space_group_name_H-M   'P 1'
_cell_length_a   5.12998938
_cell_length_b   8.53990376
_cell_length_c   8.60183942
_cell_angle_alpha   61.68501622
_cell_angle_beta   86.32696992
_cell_angle_gamma   86.59433593
_symmetry_Int_Tables_number   1
_chemical_formula_structural   Au2ClF18
_chemical_formula_sum   'Au2 Cl1 F18'
_cell_volume   330.89312051
_cell_formula_units_Z   1
loop_
 _symmetry_equiv_pos_site_id
 _symmetry_equiv_pos_as_xyz
  1  'x, y, z'
loop_
 _atom_site_type_symbol
 _atom_site_label
 _atom_site_symmetry_multiplicity
 _atom_site_fract_x
 _atom_site_fract_y
 _atom_site_fract_z
 _atom_site_occupancy
  Au  Au0  1  0.414141  0.668010  0.666969  1
  Au  Au1  1  0.585859  0.331990  0.333031  1
  Cl  Cl2  1  0.000000  0.000000  0.000000  1
  F  F3  1  0.122217  0.905627  0.199556  1
  F  F4  1  0.877783  0.094373  0.800444  1
  F  F5  1  0.873908  0.807987  0.044180  1
  F  F6  1  0.126092  0.192013  0.955820  1
  F  F7  1  0.727046  0.055620  0.080002  1
  F  F8  1  0.272954  0.944380  0.919998  1
  F  F9  1  0.212663  0.575358  0.888264  1
  F  F10  1  0.787337  0.424642  0.111736  1
  F  F11  1  0.614160  0.760949  0.444559  1
  F  F12  1  0.385840  0.239051  0.555441  1
  F  F13  1  0.160119  0.583184  0.570411  1
  F  F14  1  0.839881  0.416816  0.429589  1
  F  F15  1  0.665710  0.754799  0.763750  1
  F  F16  1  0.334290  0.245201  0.236250  1
  F  F17  1  0.219741  0.892200  0.582690  1
  F  F18  1  0.780259  0.107800  0.417310  1
  F  F19  1  0.606634  0.442400  0.752669  1
  F  F20  1  0.393366  0.557600  0.247331  1
