# generated using pymatgen
data_Pr2Ho3ErGa17Pd5
_symmetry_space_group_name_H-M   'P 1'
_cell_length_a   8.20510006
_cell_length_b   8.20509936
_cell_length_c   15.83003098
_cell_angle_alpha   76.25641072
_cell_angle_beta   76.25641116
_cell_angle_gamma   30.41991755
_symmetry_Int_Tables_number   1
_chemical_formula_structural   Pr2Ho3ErGa17Pd5
_chemical_formula_sum   'Pr2 Ho3 Er1 Ga17 Pd5'
_cell_volume   523.00758644
_cell_formula_units_Z   1
loop_
 _symmetry_equiv_pos_site_id
 _symmetry_equiv_pos_as_xyz
  1  'x, y, z'
loop_
 _atom_site_type_symbol
 _atom_site_label
 _atom_site_symmetry_multiplicity
 _atom_site_fract_x
 _atom_site_fract_y
 _atom_site_fract_z
 _atom_site_occupancy
  Pr  Pr0  1  0.755610  0.755610  0.750195  1
  Pr  Pr1  1  0.244431  0.244431  0.249856  1
  Ho  Ho2  1  0.600741  0.600741  0.597171  1
  Ho  Ho3  1  0.089330  0.089330  0.092609  1
  Ho  Ho4  1  0.910660  0.910660  0.907418  1
  Er  Er5  1  0.399323  0.399323  0.402825  1
  Ga  Ga6  1  0.822506  0.822506  0.538698  1
  Ga  Ga7  1  0.326906  0.326906  0.043110  1
  Ga  Ga8  1  0.673097  0.673097  0.956886  1
  Ga  Ga9  1  0.177523  0.177523  0.461214  1
  Ga  Ga10  1  0.546902  0.546902  0.826527  1
  Ga  Ga11  1  0.036079  0.036079  0.323201  1
  Ga  Ga12  1  0.963830  0.963830  0.676825  1
  Ga  Ga13  1  0.453110  0.453110  0.173467  1
  Ga  Ga14  1  0.270800  0.270800  0.899247  1
  Ga  Ga15  1  0.760589  0.760589  0.396987  1
  Ga  Ga16  1  0.239503  0.239503  0.603045  1
  Ga  Ga17  1  0.729201  0.729201  0.100754  1
  Ga  Ga18  1  0.403999  0.403999  0.764967  1
  Ga  Ga19  1  0.892356  0.892356  0.267053  1
  Ga  Ga20  1  0.107666  0.107666  0.733074  1
  Ga  Ga21  1  0.596001  0.596001  0.235021  1
  Ga  Ga22  1  0.999982  0.999982  0.499983  1
  Pd  Pd23  1  0.106221  0.106221  0.896666  1
  Pd  Pd24  1  0.591968  0.591968  0.405378  1
  Pd  Pd25  1  0.407884  0.407884  0.594467  1
  Pd  Pd26  1  0.893784  0.893784  0.103358  1
  Pd  Pd27  1  0.499997  0.499997  0.999997  1
