# generated using pymatgen
data_Lu8Ti7Si16W5
_symmetry_space_group_name_H-M   'P 1'
_cell_length_a   6.72284623
_cell_length_b   6.90477368
_cell_length_c   13.07440713
_cell_angle_alpha   90.05098331
_cell_angle_beta   89.95183133
_cell_angle_gamma   89.93813018
_symmetry_Int_Tables_number   1
_chemical_formula_structural   Lu8Ti7Si16W5
_chemical_formula_sum   'Lu8 Ti7 Si16 W5'
_cell_volume   606.90966162
_cell_formula_units_Z   1
loop_
 _symmetry_equiv_pos_site_id
 _symmetry_equiv_pos_as_xyz
  1  'x, y, z'
loop_
 _atom_site_type_symbol
 _atom_site_label
 _atom_site_symmetry_multiplicity
 _atom_site_fract_x
 _atom_site_fract_y
 _atom_site_fract_z
 _atom_site_occupancy
  Lu  Lu0  1  0.502169  0.328767  0.096320  1
  Lu  Lu1  1  0.001312  0.171657  0.404004  1
  Lu  Lu2  1  0.498171  0.672678  0.595437  1
  Lu  Lu3  1  0.998307  0.829168  0.903830  1
  Lu  Lu4  1  0.497020  0.671049  0.902705  1
  Lu  Lu5  1  0.000117  0.829772  0.595371  1
  Lu  Lu6  1  0.501483  0.327888  0.405625  1
  Lu  Lu7  1  0.002198  0.171825  0.096682  1
  Ti  Ti8  1  0.835194  0.327408  0.625936  1
  Ti  Ti9  1  0.331208  0.171991  0.873119  1
  Ti  Ti10  1  0.167585  0.671386  0.126448  1
  Ti  Ti11  1  0.666984  0.829201  0.374147  1
  Ti  Ti12  1  0.167250  0.672253  0.374600  1
  Ti  Ti13  1  0.668106  0.828348  0.126635  1
  Ti  Ti14  1  0.831615  0.327273  0.871953  1
  Si  Si15  1  0.660284  0.038009  0.543547  1
  Si  Si16  1  0.161436  0.460802  0.956961  1
  Si  Si17  1  0.338273  0.961142  0.043047  1
  Si  Si18  1  0.837827  0.537613  0.457119  1
  Si  Si19  1  0.335670  0.960101  0.458305  1
  Si  Si20  1  0.839004  0.538599  0.043382  1
  Si  Si21  1  0.660567  0.038740  0.956925  1
  Si  Si22  1  0.164563  0.460811  0.542916  1
  Si  Si23  1  0.534672  0.376050  0.748943  1
  Si  Si24  1  0.036237  0.122570  0.750128  1
  Si  Si25  1  0.464271  0.624211  0.250423  1
  Si  Si26  1  0.964731  0.876460  0.250231  1
  Si  Si27  1  0.797210  0.630478  0.748952  1
  Si  Si28  1  0.298457  0.870068  0.750094  1
  Si  Si29  1  0.203940  0.369643  0.250651  1
  Si  Si30  1  0.702617  0.130780  0.250139  1
  W  W31  1  0.331367  0.170524  0.626289  1
  W  W32  1  0.662096  0.009511  0.749380  1
  W  W33  1  0.160966  0.490958  0.749426  1
  W  W34  1  0.338072  0.993134  0.250192  1
  W  W35  1  0.839022  0.509131  0.250139  1
