# generated using pymatgen
data_Pr16Er4Si15F
_symmetry_space_group_name_H-M   'P 1'
_cell_length_a   7.81363479
_cell_length_b   7.81252929
_cell_length_c   15.30189700
_cell_angle_alpha   89.87918969
_cell_angle_beta   89.80384736
_cell_angle_gamma   90.11885591
_symmetry_Int_Tables_number   1
_chemical_formula_structural   Pr16Er4Si15F
_chemical_formula_sum   'Pr16 Er4 Si15 F1'
_cell_volume   934.08326217
_cell_formula_units_Z   1
loop_
 _symmetry_equiv_pos_site_id
 _symmetry_equiv_pos_as_xyz
  1  'x, y, z'
loop_
 _atom_site_type_symbol
 _atom_site_label
 _atom_site_symmetry_multiplicity
 _atom_site_fract_x
 _atom_site_fract_y
 _atom_site_fract_z
 _atom_site_occupancy
  Pr  Pr0  1  0.381631  0.006967  0.443506  1
  Pr  Pr1  1  0.498434  0.866809  0.696425  1
  Pr  Pr2  1  0.514829  0.121211  0.195670  1
  Pr  Pr3  1  0.879216  0.483730  0.303842  1
  Pr  Pr4  1  0.128043  0.511181  0.802190  1
  Pr  Pr5  1  0.633585  0.986661  0.948858  1
  Pr  Pr6  1  0.006175  0.375719  0.552774  1
  Pr  Pr7  1  0.992823  0.624170  0.053938  1
  Pr  Pr8  1  0.142684  0.984046  0.875775  1
  Pr  Pr9  1  0.525242  0.626418  0.127629  1
  Pr  Pr10  1  0.476497  0.362729  0.630446  1
  Pr  Pr11  1  0.635031  0.525772  0.872344  1
  Pr  Pr12  1  0.370231  0.473019  0.374299  1
  Pr  Pr13  1  0.878828  0.021618  0.380139  1
  Pr  Pr14  1  0.980743  0.123057  0.122051  1
  Pr  Pr15  1  0.033848  0.893200  0.623634  1
  Er  Er16  1  0.313191  0.309238  0.998466  1
  Er  Er17  1  0.191172  0.806798  0.250314  1
  Er  Er18  1  0.796762  0.190164  0.753726  1
  Er  Er19  1  0.692111  0.685651  0.500706  1
  Si  Si20  1  0.331249  0.688133  0.954924  1
  Si  Si21  1  0.670177  0.311064  0.458412  1
  Si  Si22  1  0.695708  0.330529  0.043256  1
  Si  Si23  1  0.311989  0.667596  0.546671  1
  Si  Si24  1  0.815324  0.826771  0.208977  1
  Si  Si25  1  0.173767  0.185922  0.291162  1
  Si  Si26  1  0.842125  0.815401  0.793009  1
  Si  Si27  1  0.290146  0.921612  0.062253  1
  Si  Si28  1  0.581301  0.779710  0.313560  1
  Si  Si29  1  0.437534  0.210559  0.816863  1
  Si  Si30  1  0.789994  0.583332  0.684874  1
  Si  Si31  1  0.215601  0.421619  0.186255  1
  Si  Si32  1  0.708442  0.071946  0.562178  1
  Si  Si33  1  0.930656  0.288679  0.936411  1
  Si  Si34  1  0.077966  0.711495  0.440861  1
  F  F35  1  0.056943  0.207475  0.693603  1
