# generated using pymatgen
data_KTb(WO4)2
_symmetry_space_group_name_H-M   'P 1'
_cell_length_a   7.66001793
_cell_length_b   7.66001852
_cell_length_c   7.47294477
_cell_angle_alpha   62.18686202
_cell_angle_beta   62.18685538
_cell_angle_gamma   88.29103326
_symmetry_Int_Tables_number   1
_chemical_formula_structural   KTb(WO4)2
_chemical_formula_sum   'K2 Tb2 W4 O16'
_cell_volume   332.98172759
_cell_formula_units_Z   2
loop_
 _symmetry_equiv_pos_site_id
 _symmetry_equiv_pos_as_xyz
  1  'x, y, z'
loop_
 _atom_site_type_symbol
 _atom_site_label
 _atom_site_symmetry_multiplicity
 _atom_site_fract_x
 _atom_site_fract_y
 _atom_site_fract_z
 _atom_site_occupancy
  K  K0  1  0.208576  0.791424  0.750000  1
  K  K1  1  0.791424  0.208576  0.250000  1
  Tb  Tb2  1  0.775303  0.224697  0.750000  1
  Tb  Tb3  1  0.224697  0.775303  0.250000  1
  W  W4  1  0.700693  0.691918  0.783558  1
  W  W5  1  0.299307  0.308082  0.216442  1
  W  W6  1  0.308082  0.299307  0.716442  1
  W  W7  1  0.691918  0.700693  0.283558  1
  O  O8  1  0.624669  0.753932  0.555722  1
  O  O9  1  0.375331  0.246068  0.444278  1
  O  O10  1  0.246068  0.375331  0.944278  1
  O  O11  1  0.753932  0.624669  0.055722  1
  O  O12  1  0.367033  0.057920  0.875828  1
  O  O13  1  0.632967  0.942080  0.124172  1
  O  O14  1  0.942080  0.632967  0.624172  1
  O  O15  1  0.057920  0.367033  0.375828  1
  O  O16  1  0.592473  0.371961  0.966851  1
  O  O17  1  0.407527  0.628039  0.033149  1
  O  O18  1  0.628039  0.407527  0.533149  1
  O  O19  1  0.371961  0.592473  0.466851  1
  O  O20  1  0.775306  0.959584  0.687230  1
  O  O21  1  0.224694  0.040416  0.312770  1
  O  O22  1  0.040416  0.224694  0.812770  1
  O  O23  1  0.959584  0.775306  0.187230  1
