# generated using pymatgen
data_Tm2(SeO3)3
_symmetry_space_group_name_H-M   'P 1'
_cell_length_a   7.01792844
_cell_length_b   8.04869886
_cell_length_c   8.99752550
_cell_angle_alpha   71.70911536
_cell_angle_beta   70.12461002
_cell_angle_gamma   66.05852421
_symmetry_Int_Tables_number   1
_chemical_formula_structural   Tm2(SeO3)3
_chemical_formula_sum   'Tm4 Se6 O18'
_cell_volume   427.58803936
_cell_formula_units_Z   2
loop_
 _symmetry_equiv_pos_site_id
 _symmetry_equiv_pos_as_xyz
  1  'x, y, z'
loop_
 _atom_site_type_symbol
 _atom_site_label
 _atom_site_symmetry_multiplicity
 _atom_site_fract_x
 _atom_site_fract_y
 _atom_site_fract_z
 _atom_site_occupancy
  Tm  Tm0  1  0.257371  0.264548  0.203266  1
  Tm  Tm1  1  0.333840  0.727147  0.590830  1
  Tm  Tm2  1  0.666160  0.272853  0.409170  1
  Tm  Tm3  1  0.742629  0.735452  0.796734  1
  Se  Se4  1  0.114030  0.241397  0.586353  1
  Se  Se5  1  0.427575  0.775504  0.197316  1
  Se  Se6  1  0.146466  0.751172  0.965806  1
  Se  Se7  1  0.853534  0.248828  0.034194  1
  Se  Se8  1  0.572425  0.224496  0.802684  1
  Se  Se9  1  0.885970  0.758603  0.413647  1
  O  O10  1  0.158839  0.011600  0.654846  1
  O  O11  1  0.166662  0.565350  0.121825  1
  O  O12  1  0.034158  0.704740  0.555258  1
  O  O13  1  0.346014  0.253414  0.434903  1
  O  O14  1  0.067164  0.694081  0.830287  1
  O  O15  1  0.590651  0.288169  0.151080  1
  O  O16  1  0.347639  0.208174  0.950972  1
  O  O17  1  0.358988  0.945385  0.305882  1
  O  O18  1  0.517554  0.593344  0.352316  1
  O  O19  1  0.482446  0.406656  0.647684  1
  O  O20  1  0.641012  0.054615  0.694118  1
  O  O21  1  0.652361  0.791826  0.049028  1
  O  O22  1  0.409349  0.711831  0.848920  1
  O  O23  1  0.932836  0.305919  0.169713  1
  O  O24  1  0.653986  0.746586  0.565097  1
  O  O25  1  0.965842  0.295260  0.444742  1
  O  O26  1  0.833338  0.434650  0.878175  1
  O  O27  1  0.841161  0.988400  0.345154  1
