# generated using pymatgen
data_Pr2Nd3P12Ru15Rh4
_symmetry_space_group_name_H-M   'P 1'
_cell_length_a   12.69759902
_cell_length_b   12.66983126
_cell_length_c   4.01887100
_cell_angle_alpha   90.00000000
_cell_angle_beta   90.00000000
_cell_angle_gamma   120.10562035
_symmetry_Int_Tables_number   1
_chemical_formula_structural   Pr2Nd3P12Ru15Rh4
_chemical_formula_sum   'Pr2 Nd3 P12 Ru15 Rh4'
_cell_volume   559.32461533
_cell_formula_units_Z   1
loop_
 _symmetry_equiv_pos_site_id
 _symmetry_equiv_pos_as_xyz
  1  'x, y, z'
loop_
 _atom_site_type_symbol
 _atom_site_label
 _atom_site_symmetry_multiplicity
 _atom_site_fract_x
 _atom_site_fract_y
 _atom_site_fract_z
 _atom_site_occupancy
  Pr  Pr0  1  0.001024  0.183296  0.500000  1
  Pr  Pr1  1  0.817168  0.815438  0.500000  1
  Nd  Nd2  1  0.183081  0.999554  0.500000  1
  Nd  Nd3  1  0.666479  0.333158  0.000000  1
  Nd  Nd4  1  0.333381  0.666979  0.000000  1
  P  P5  1  0.000206  0.811189  0.000000  1
  P  P6  1  0.188668  0.188263  0.000000  1
  P  P7  1  0.812116  0.996799  0.000000  1
  P  P8  1  0.692695  0.172336  0.500000  1
  P  P9  1  0.824562  0.521994  0.500000  1
  P  P10  1  0.476737  0.302756  0.500000  1
  P  P11  1  0.176080  0.698782  0.500000  1
  P  P12  1  0.522903  0.825046  0.500000  1
  P  P13  1  0.302225  0.477745  0.500000  1
  P  P14  1  0.003654  0.375702  0.000000  1
  P  P15  1  0.626925  0.627163  0.000000  1
  P  P16  1  0.372417  0.000229  0.000000  1
  Ru  Ru17  1  0.000148  0.712202  0.500000  1
  Ru  Ru18  1  0.287334  0.287669  0.500000  1
  Ru  Ru19  1  0.713986  0.001285  0.500000  1
  Ru  Ru20  1  0.814669  0.620114  0.000000  1
  Ru  Ru21  1  0.378348  0.194032  0.000000  1
  Ru  Ru22  1  0.185440  0.805900  0.000000  1
  Ru  Ru23  1  0.620391  0.816288  0.000000  1
  Ru  Ru24  1  0.195141  0.379748  0.000000  1
  Ru  Ru25  1  0.873874  0.365265  0.500000  1
  Ru  Ru26  1  0.631793  0.507943  0.500000  1
  Ru  Ru27  1  0.490088  0.124190  0.500000  1
  Ru  Ru28  1  0.369429  0.876998  0.500000  1
  Ru  Ru29  1  0.508461  0.632100  0.500000  1
  Ru  Ru30  1  0.122973  0.491955  0.500000  1
  Ru  Ru31  1  0.000815  0.000132  0.000000  1
  Rh  Rh32  1  0.997116  0.551755  0.000000  1
  Rh  Rh33  1  0.446686  0.446836  0.000000  1
  Rh  Rh34  1  0.554641  0.003711  0.000000  1
  Rh  Rh35  1  0.808341  0.185449  0.000000  1
