# generated using pymatgen
data_EuI28
_symmetry_space_group_name_H-M   'P 1'
_cell_length_a   10.67681737
_cell_length_b   14.33344904
_cell_length_c   12.98270300
_cell_angle_alpha   108.44914254
_cell_angle_beta   105.43469067
_cell_angle_gamma   86.57346759
_symmetry_Int_Tables_number   1
_chemical_formula_structural   EuI28
_chemical_formula_sum   'Eu1 I28'
_cell_volume   1816.08072199
_cell_formula_units_Z   1
loop_
 _symmetry_equiv_pos_site_id
 _symmetry_equiv_pos_as_xyz
  1  'x, y, z'
loop_
 _atom_site_type_symbol
 _atom_site_label
 _atom_site_symmetry_multiplicity
 _atom_site_fract_x
 _atom_site_fract_y
 _atom_site_fract_z
 _atom_site_occupancy
  Eu  Eu0  1  0.500000  0.000000  0.000000  1
  I  I1  1  0.132464  0.118136  0.422583  1
  I  I2  1  0.583792  0.150046  0.449353  1
  I  I3  1  0.290682  0.273174  0.861675  1
  I  I4  1  0.798798  0.274865  0.874046  1
  I  I5  1  0.186588  0.494003  0.649024  1
  I  I6  1  0.767068  0.555721  0.726471  1
  I  I7  1  0.416208  0.849954  0.550647  1
  I  I8  1  0.867536  0.881864  0.577417  1
  I  I9  1  0.201202  0.725135  0.125954  1
  I  I10  1  0.709318  0.726826  0.138325  1
  I  I11  1  0.232932  0.444279  0.273529  1
  I  I12  1  0.813412  0.505997  0.350976  1
  I  I13  1  0.844865  0.069706  0.739794  1
  I  I14  1  0.308773  0.949879  0.762815  1
  I  I15  1  0.987077  0.643148  0.934966  1
  I  I16  1  0.511880  0.770136  0.950975  1
  I  I17  1  0.723038  0.345785  0.390172  1
  I  I18  1  0.191889  0.280622  0.347998  1
  I  I19  1  0.691227  0.050121  0.237185  1
  I  I20  1  0.155135  0.930294  0.260206  1
  I  I21  1  0.488120  0.229864  0.049025  1
  I  I22  1  0.012923  0.356852  0.065034  1
  I  I23  1  0.808111  0.719378  0.652002  1
  I  I24  1  0.276962  0.654215  0.609828  1
  I  I25  1  0.081227  0.314141  0.689098  1
  I  I26  1  0.499977  0.241120  0.642702  1
  I  I27  1  0.500023  0.758880  0.357298  1
  I  I28  1  0.918773  0.685859  0.310902  1
