# generated using pymatgen
data_Ba3NaTc2O9
_symmetry_space_group_name_H-M   'P 1'
_cell_length_a   5.97628247
_cell_length_b   5.97628227
_cell_length_c   14.69198446
_cell_angle_alpha   89.17624859
_cell_angle_beta   89.17624595
_cell_angle_gamma   119.79443368
_symmetry_Int_Tables_number   1
_chemical_formula_structural   Ba3NaTc2O9
_chemical_formula_sum   'Ba6 Na2 Tc4 O18'
_cell_volume   455.18789451
_cell_formula_units_Z   2
loop_
 _symmetry_equiv_pos_site_id
 _symmetry_equiv_pos_as_xyz
  1  'x, y, z'
loop_
 _atom_site_type_symbol
 _atom_site_label
 _atom_site_symmetry_multiplicity
 _atom_site_fract_x
 _atom_site_fract_y
 _atom_site_fract_z
 _atom_site_occupancy
  Ba  Ba0  1  0.328166  0.661799  0.591683  1
  Ba  Ba1  1  0.997056  0.002944  0.750000  1
  Ba  Ba2  1  0.338201  0.671834  0.908317  1
  Ba  Ba3  1  0.671834  0.338201  0.408317  1
  Ba  Ba4  1  0.002944  0.997056  0.250000  1
  Ba  Ba5  1  0.661799  0.328166  0.091683  1
  Na  Na6  1  0.000000  0.000000  0.000000  1
  Na  Na7  1  0.000000  0.000000  0.500000  1
  Tc  Tc8  1  0.681792  0.346734  0.843962  1
  Tc  Tc9  1  0.346734  0.681792  0.343962  1
  Tc  Tc10  1  0.318208  0.653266  0.156038  1
  Tc  Tc11  1  0.653266  0.318208  0.656038  1
  O  O12  1  0.147485  0.331004  0.100729  1
  O  O13  1  0.668996  0.852515  0.399271  1
  O  O14  1  0.852515  0.668996  0.899271  1
  O  O15  1  0.331004  0.147485  0.600729  1
  O  O16  1  0.792021  0.144319  0.592514  1
  O  O17  1  0.855681  0.207979  0.907486  1
  O  O18  1  0.207979  0.855681  0.407486  1
  O  O19  1  0.144319  0.792021  0.092514  1
  O  O20  1  0.792205  0.608744  0.578495  1
  O  O21  1  0.391256  0.207795  0.921505  1
  O  O22  1  0.207795  0.391256  0.421505  1
  O  O23  1  0.608744  0.792205  0.078495  1
  O  O24  1  0.034899  0.518128  0.260062  1
  O  O25  1  0.481872  0.965101  0.239938  1
  O  O26  1  0.965101  0.481872  0.739938  1
  O  O27  1  0.518128  0.034899  0.760062  1
  O  O28  1  0.482454  0.517546  0.250000  1
  O  O29  1  0.517546  0.482454  0.750000  1
