# generated using pymatgen
data_Zn20NiPd2Au3
_symmetry_space_group_name_H-M   'P 1'
_cell_length_a   7.97677814
_cell_length_b   7.97677701
_cell_length_c   7.95249971
_cell_angle_alpha   70.81370159
_cell_angle_beta   70.81370333
_cell_angle_gamma   109.43111917
_symmetry_Int_Tables_number   1
_chemical_formula_structural   Zn20NiPd2Au3
_chemical_formula_sum   'Zn20 Ni1 Pd2 Au3'
_cell_volume   392.42925630
_cell_formula_units_Z   1
loop_
 _symmetry_equiv_pos_site_id
 _symmetry_equiv_pos_as_xyz
  1  'x, y, z'
loop_
 _atom_site_type_symbol
 _atom_site_label
 _atom_site_symmetry_multiplicity
 _atom_site_fract_x
 _atom_site_fract_y
 _atom_site_fract_z
 _atom_site_occupancy
  Zn  Zn0  1  0.005291  0.005291  0.782502  1
  Zn  Zn1  1  0.787765  0.787765  0.208117  1
  Zn  Zn2  1  0.220827  0.006288  0.987053  1
  Zn  Zn3  1  0.006288  0.220827  0.987053  1
  Zn  Zn4  1  0.279985  0.279985  0.383275  1
  Zn  Zn5  1  0.998590  0.714749  0.658207  1
  Zn  Zn6  1  0.714749  0.998590  0.658207  1
  Zn  Zn7  1  0.640686  0.640686  0.617131  1
  Zn  Zn8  1  0.389957  0.642538  0.361653  1
  Zn  Zn9  1  0.642538  0.389957  0.361653  1
  Zn  Zn10  1  0.345212  0.724011  0.003035  1
  Zn  Zn11  1  0.611352  0.269438  0.735617  1
  Zn  Zn12  1  0.351842  0.000441  0.271125  1
  Zn  Zn13  1  0.724011  0.345212  0.003035  1
  Zn  Zn14  1  0.000441  0.351842  0.271125  1
  Zn  Zn15  1  0.269438  0.611352  0.735617  1
  Zn  Zn16  1  0.646087  0.646087  0.987854  1
  Zn  Zn17  1  0.012831  0.656281  0.341600  1
  Zn  Zn18  1  0.656281  0.012831  0.341600  1
  Zn  Zn19  1  0.359297  0.359297  0.998158  1
  Ni  Ni20  1  0.346196  0.346196  0.667547  1
  Pd  Pd21  1  0.642641  0.986544  0.012498  1
  Pd  Pd22  1  0.986544  0.642641  0.012498  1
  Au  Au23  1  0.999823  0.364527  0.627216  1
  Au  Au24  1  0.364527  0.999823  0.627216  1
  Au  Au25  1  0.996798  0.996798  0.359413  1
