# generated using pymatgen
data_LuGe3AsRh6
_symmetry_space_group_name_H-M   'P 1'
_cell_length_a   7.27004270
_cell_length_b   7.27004331
_cell_length_c   3.79652300
_cell_angle_alpha   90.00000000
_cell_angle_beta   90.00000000
_cell_angle_gamma   120.42139060
_symmetry_Int_Tables_number   1
_chemical_formula_structural   LuGe3AsRh6
_chemical_formula_sum   'Lu1 Ge3 As1 Rh6'
_cell_volume   173.03374818
_cell_formula_units_Z   1
loop_
 _symmetry_equiv_pos_site_id
 _symmetry_equiv_pos_as_xyz
  1  'x, y, z'
loop_
 _atom_site_type_symbol
 _atom_site_label
 _atom_site_symmetry_multiplicity
 _atom_site_fract_x
 _atom_site_fract_y
 _atom_site_fract_z
 _atom_site_occupancy
  Lu  Lu0  1  0.336669  0.663331  0.000000  1
  Ge  Ge1  1  0.666875  0.333125  0.000000  1
  Ge  Ge2  1  0.720936  0.862687  0.500000  1
  Ge  Ge3  1  0.137313  0.279064  0.500000  1
  As  As4  1  0.140834  0.859166  0.500000  1
  Rh  Rh5  1  0.264083  0.133265  0.000000  1
  Rh  Rh6  1  0.866735  0.735917  0.000000  1
  Rh  Rh7  1  0.867533  0.132467  0.000000  1
  Rh  Rh8  1  0.939794  0.471066  0.500000  1
  Rh  Rh9  1  0.528934  0.060206  0.500000  1
  Rh  Rh10  1  0.530293  0.469707  0.500000  1
