# generated using pymatgen
data_V5ZnOs4
_symmetry_space_group_name_H-M   'P 1'
_cell_length_a   4.24097957
_cell_length_b   7.90489107
_cell_length_c   4.24480400
_cell_angle_alpha   90.00000000
_cell_angle_beta   90.00000000
_cell_angle_gamma   74.38170506
_symmetry_Int_Tables_number   1
_chemical_formula_structural   V5ZnOs4
_chemical_formula_sum   'V5 Zn1 Os4'
_cell_volume   137.05048156
_cell_formula_units_Z   1
loop_
 _symmetry_equiv_pos_site_id
 _symmetry_equiv_pos_as_xyz
  1  'x, y, z'
loop_
 _atom_site_type_symbol
 _atom_site_label
 _atom_site_symmetry_multiplicity
 _atom_site_fract_x
 _atom_site_fract_y
 _atom_site_fract_z
 _atom_site_occupancy
  V  V0  1  0.381086  0.203821  0.000000  1
  V  V1  1  0.785419  0.396223  0.000000  1
  V  V2  1  0.583134  0.800006  0.000000  1
  V  V3  1  0.884477  0.197487  0.500001  1
  V  V4  1  0.282241  0.402544  0.500001  1
  Zn  Zn5  1  0.083540  0.799995  0.500001  1
  Os  Os6  1  0.979387  0.007634  0.000000  1
  Os  Os7  1  0.187060  0.592334  0.000000  1
  Os  Os8  1  0.478749  0.009597  0.500001  1
  Os  Os9  1  0.688084  0.590360  0.500001  1
