# generated using pymatgen
data_LiDy3Y13Cd3Ni4
_symmetry_space_group_name_H-M   'P 1'
_cell_length_a   9.58749417
_cell_length_b   9.60712834
_cell_length_c   9.60329605
_cell_angle_alpha   60.01381916
_cell_angle_beta   59.95876925
_cell_angle_gamma   59.94476741
_symmetry_Int_Tables_number   1
_chemical_formula_structural   LiDy3Y13Cd3Ni4
_chemical_formula_sum   'Li1 Dy3 Y13 Cd3 Ni4'
_cell_volume   625.07522641
_cell_formula_units_Z   1
loop_
 _symmetry_equiv_pos_site_id
 _symmetry_equiv_pos_as_xyz
  1  'x, y, z'
loop_
 _atom_site_type_symbol
 _atom_site_label
 _atom_site_symmetry_multiplicity
 _atom_site_fract_x
 _atom_site_fract_y
 _atom_site_fract_z
 _atom_site_occupancy
  Li  Li0  1  0.820091  0.820507  0.820558  1
  Dy  Dy1  1  0.596977  0.596881  0.596723  1
  Dy  Dy2  1  0.598488  0.598324  0.204788  1
  Dy  Dy3  1  0.598608  0.204586  0.598357  1
  Y  Y4  1  0.203898  0.598772  0.599062  1
  Y  Y5  1  0.060736  0.441653  0.441593  1
  Y  Y6  1  0.437417  0.063778  0.063730  1
  Y  Y7  1  0.441304  0.061370  0.441698  1
  Y  Y8  1  0.064064  0.437083  0.064039  1
  Y  Y9  1  0.441339  0.441774  0.061319  1
  Y  Y10  1  0.063876  0.064217  0.437083  1
  Y  Y11  1  0.186324  0.814464  0.814333  1
  Y  Y12  1  0.812726  0.187418  0.187394  1
  Y  Y13  1  0.812827  0.187342  0.813856  1
  Y  Y14  1  0.186843  0.813644  0.186786  1
  Y  Y15  1  0.813020  0.813942  0.187111  1
  Y  Y16  1  0.186863  0.186652  0.813596  1
  Cd  Cd17  1  0.831256  0.831624  0.506020  1
  Cd  Cd18  1  0.831333  0.506025  0.831625  1
  Cd  Cd19  1  0.505692  0.831520  0.831498  1
  Ni  Ni20  1  0.395824  0.393276  0.393556  1
  Ni  Ni21  1  0.395355  0.390746  0.821849  1
  Ni  Ni22  1  0.394419  0.822074  0.390938  1
  Ni  Ni23  1  0.820717  0.392327  0.392484  1
