# generated using pymatgen
data_Sc22Os5RuPt2
_symmetry_space_group_name_H-M   'P 1'
_cell_length_a   9.50770682
_cell_length_b   9.50770738
_cell_length_c   9.45944600
_cell_angle_alpha   60.16777205
_cell_angle_beta   60.16777010
_cell_angle_gamma   59.66445882
_symmetry_Int_Tables_number   1
_chemical_formula_structural   Sc22Os5RuPt2
_chemical_formula_sum   'Sc22 Os5 Ru1 Pt2'
_cell_volume   604.61654657
_cell_formula_units_Z   1
loop_
 _symmetry_equiv_pos_site_id
 _symmetry_equiv_pos_as_xyz
  1  'x, y, z'
loop_
 _atom_site_type_symbol
 _atom_site_label
 _atom_site_symmetry_multiplicity
 _atom_site_fract_x
 _atom_site_fract_y
 _atom_site_fract_z
 _atom_site_occupancy
  Sc  Sc0  1  0.802737  0.802737  0.197263  1
  Sc  Sc1  1  0.196623  0.803377  0.196623  1
  Sc  Sc2  1  0.803377  0.196623  0.196623  1
  Sc  Sc3  1  0.197263  0.197263  0.802737  1
  Sc  Sc4  1  0.803377  0.196623  0.803377  1
  Sc  Sc5  1  0.196623  0.803377  0.803377  1
  Sc  Sc6  1  0.618451  0.618451  0.150456  1
  Sc  Sc7  1  0.612643  0.150456  0.618451  1
  Sc  Sc8  1  0.150456  0.612643  0.618451  1
  Sc  Sc9  1  0.618451  0.618451  0.612643  1
  Sc  Sc10  1  0.381549  0.381549  0.849544  1
  Sc  Sc11  1  0.387357  0.849544  0.381549  1
  Sc  Sc12  1  0.849544  0.387357  0.381549  1
  Sc  Sc13  1  0.381549  0.381549  0.387357  1
  Sc  Sc14  1  0.840816  0.840816  0.470379  1
  Sc  Sc15  1  0.847987  0.470379  0.840816  1
  Sc  Sc16  1  0.470379  0.847987  0.840816  1
  Sc  Sc17  1  0.840816  0.840816  0.847987  1
  Sc  Sc18  1  0.159184  0.159184  0.529621  1
  Sc  Sc19  1  0.152013  0.529621  0.159184  1
  Sc  Sc20  1  0.529621  0.152013  0.159184  1
  Sc  Sc21  1  0.159184  0.159184  0.152013  1
  Os  Os22  1  0.500000  0.500000  0.500000  1
  Os  Os23  1  0.500000  0.000000  0.500000  1
  Os  Os24  1  0.000000  0.500000  0.500000  1
  Os  Os25  1  0.000000  0.500000  0.000000  1
  Os  Os26  1  0.500000  0.000000  0.000000  1
  Ru  Ru27  1  0.000000  0.000000  0.000000  1
  Pt  Pt28  1  0.000000  0.000000  0.500000  1
  Pt  Pt29  1  0.500000  0.500000  0.000000  1
