# generated using pymatgen
data_Sr2LiCd21
_symmetry_space_group_name_H-M   'P 1'
_cell_length_a   9.39711337
_cell_length_b   9.41271470
_cell_length_c   9.39711304
_cell_angle_alpha   100.62131838
_cell_angle_beta   99.33301473
_cell_angle_gamma   130.70177899
_symmetry_Int_Tables_number   1
_chemical_formula_structural   Sr2LiCd21
_chemical_formula_sum   'Sr2 Li1 Cd21'
_cell_volume   573.15153350
_cell_formula_units_Z   1
loop_
 _symmetry_equiv_pos_site_id
 _symmetry_equiv_pos_as_xyz
  1  'x, y, z'
loop_
 _atom_site_type_symbol
 _atom_site_label
 _atom_site_symmetry_multiplicity
 _atom_site_fract_x
 _atom_site_fract_y
 _atom_site_fract_z
 _atom_site_occupancy
  Sr  Sr0  1  0.750411  0.248780  0.498369  1
  Sr  Sr1  1  0.499589  0.501220  0.001631  1
  Li  Li2  1  0.125000  0.375000  0.250000  1
  Cd  Cd3  1  0.999713  0.321658  0.926236  1
  Cd  Cd4  1  0.125000  0.875000  0.750000  1
  Cd  Cd5  1  0.679070  0.593867  0.675988  1
  Cd  Cd6  1  0.395422  0.321658  0.321945  1
  Cd  Cd7  1  0.688152  0.014428  0.089539  1
  Cd  Cd8  1  0.854578  0.428342  0.178055  1
  Cd  Cd9  1  0.409177  0.082498  0.086901  1
  Cd  Cd10  1  0.003877  0.010005  0.006128  1
  Cd  Cd11  1  0.840823  0.667502  0.413099  1
  Cd  Cd12  1  0.246123  0.739995  0.493872  1
  Cd  Cd13  1  0.325112  0.735572  0.173725  1
  Cd  Cd14  1  0.125000  0.875000  0.250000  1
  Cd  Cd15  1  0.250287  0.428342  0.573764  1
  Cd  Cd16  1  0.561848  0.735572  0.410461  1
  Cd  Cd17  1  0.995596  0.082498  0.673320  1
  Cd  Cd18  1  0.924888  0.014428  0.326275  1
  Cd  Cd19  1  0.332122  0.156133  0.585203  1
  Cd  Cd20  1  0.254404  0.667502  0.826680  1
  Cd  Cd21  1  0.570930  0.156133  0.824012  1
  Cd  Cd22  1  0.917878  0.593867  0.914797  1
  Cd  Cd23  1  0.625000  0.875000  0.750000  1
