# generated using pymatgen
data_Nd3Y(HfPt)4
_symmetry_space_group_name_H-M   'P 1'
_cell_length_a   4.66372100
_cell_length_b   7.53883916
_cell_length_c   8.08501282
_cell_angle_alpha   90.66326003
_cell_angle_beta   90.00000000
_cell_angle_gamma   90.00000000
_symmetry_Int_Tables_number   1
_chemical_formula_structural   Nd3Y(HfPt)4
_chemical_formula_sum   'Nd3 Y1 Hf4 Pt4'
_cell_volume   284.24226340
_cell_formula_units_Z   1
loop_
 _symmetry_equiv_pos_site_id
 _symmetry_equiv_pos_as_xyz
  1  'x, y, z'
loop_
 _atom_site_type_symbol
 _atom_site_label
 _atom_site_symmetry_multiplicity
 _atom_site_fract_x
 _atom_site_fract_y
 _atom_site_fract_z
 _atom_site_occupancy
  Nd  Nd0  1  0.250000  0.525633  0.826598  1
  Nd  Nd1  1  0.750000  0.977165  0.329431  1
  Nd  Nd2  1  0.750000  0.473959  0.169932  1
  Y  Y3  1  0.250000  0.028319  0.678038  1
  Hf  Hf4  1  0.250000  0.140342  0.075449  1
  Hf  Hf5  1  0.250000  0.641375  0.424307  1
  Hf  Hf6  1  0.750000  0.858571  0.920631  1
  Hf  Hf7  1  0.750000  0.359373  0.576446  1
  Pt  Pt8  1  0.250000  0.282020  0.409179  1
  Pt  Pt9  1  0.250000  0.786889  0.096791  1
  Pt  Pt10  1  0.750000  0.717219  0.596252  1
  Pt  Pt11  1  0.750000  0.209137  0.896947  1
