# generated using pymatgen
data_Tm6Zr4GaSb5
_symmetry_space_group_name_H-M   'P 1'
_cell_length_a   8.67340900
_cell_length_b   8.68628284
_cell_length_c   5.96732800
_cell_angle_alpha   90.00000000
_cell_angle_beta   90.00000000
_cell_angle_gamma   119.95098882
_symmetry_Int_Tables_number   1
_chemical_formula_structural   Tm6Zr4GaSb5
_chemical_formula_sum   'Tm6 Zr4 Ga1 Sb5'
_cell_volume   389.53690314
_cell_formula_units_Z   1
loop_
 _symmetry_equiv_pos_site_id
 _symmetry_equiv_pos_as_xyz
  1  'x, y, z'
loop_
 _atom_site_type_symbol
 _atom_site_label
 _atom_site_symmetry_multiplicity
 _atom_site_fract_x
 _atom_site_fract_y
 _atom_site_fract_z
 _atom_site_occupancy
  Tm  Tm0  1  0.252274  0.000000  0.250000  1
  Tm  Tm1  1  0.754965  0.000000  0.750000  1
  Tm  Tm2  1  0.989861  0.239758  0.250000  1
  Tm  Tm3  1  0.750103  0.760242  0.250000  1
  Tm  Tm4  1  0.247727  0.245454  0.750000  1
  Tm  Tm5  1  0.002272  0.754546  0.750000  1
  Zr  Zr6  1  0.336308  0.670102  0.002666  1
  Zr  Zr7  1  0.666206  0.329898  0.497334  1
  Zr  Zr8  1  0.666206  0.329898  0.002666  1
  Zr  Zr9  1  0.336308  0.670102  0.497334  1
  Ga  Ga10  1  0.600744  0.000000  0.250000  1
  Sb  Sb11  1  0.399192  0.000000  0.750000  1
  Sb  Sb12  1  0.998358  0.606608  0.250000  1
  Sb  Sb13  1  0.391749  0.393392  0.250000  1
  Sb  Sb14  1  0.606117  0.604505  0.750000  1
  Sb  Sb15  1  0.001612  0.395495  0.750000  1
