# generated using pymatgen
data_Sc3USi6Rh7
_symmetry_space_group_name_H-M   'P 1'
_cell_length_a   7.02179727
_cell_length_b   7.01949610
_cell_length_c   7.01851204
_cell_angle_alpha   109.46954737
_cell_angle_beta   109.47459796
_cell_angle_gamma   109.47153549
_symmetry_Int_Tables_number   1
_chemical_formula_structural   Sc3USi6Rh7
_chemical_formula_sum   'Sc3 U1 Si6 Rh7'
_cell_volume   266.29717565
_cell_formula_units_Z   1
loop_
 _symmetry_equiv_pos_site_id
 _symmetry_equiv_pos_as_xyz
  1  'x, y, z'
loop_
 _atom_site_type_symbol
 _atom_site_label
 _atom_site_symmetry_multiplicity
 _atom_site_fract_x
 _atom_site_fract_y
 _atom_site_fract_z
 _atom_site_occupancy
  Sc  Sc0  1  0.500000  0.500000  0.500000  1
  Sc  Sc1  1  0.000000  0.000000  0.500000  1
  Sc  Sc2  1  0.000000  0.500000  0.000000  1
  U  U3  1  0.500000  0.000000  0.000000  1
  Si  Si4  1  0.315042  0.321467  0.000010  1
  Si  Si5  1  0.006443  0.321476  0.321478  1
  Si  Si6  1  0.993557  0.678524  0.678522  1
  Si  Si7  1  0.684955  0.999988  0.678529  1
  Si  Si8  1  0.315045  0.000012  0.321471  1
  Si  Si9  1  0.684958  0.678533  0.999990  1
  Rh  Rh10  1  0.749780  0.249792  0.499578  1
  Rh  Rh11  1  0.500015  0.249785  0.750248  1
  Rh  Rh12  1  0.499985  0.750215  0.249752  1
  Rh  Rh13  1  0.250229  0.500441  0.750234  1
  Rh  Rh14  1  0.749771  0.499559  0.249766  1
  Rh  Rh15  1  0.250220  0.750208  0.500422  1
  Rh  Rh16  1  0.000000  0.000000  0.000000  1
