# generated using pymatgen
data_Yb7Ho(TmIr2)2
_symmetry_space_group_name_H-M   'P 1'
_cell_length_a   6.50416187
_cell_length_b   7.31496547
_cell_length_c   8.54593833
_cell_angle_alpha   96.71939287
_cell_angle_beta   113.05819440
_cell_angle_gamma   90.56197617
_symmetry_Int_Tables_number   1
_chemical_formula_structural   Yb7Ho(TmIr2)2
_chemical_formula_sum   'Yb7 Ho1 Tm2 Ir4'
_cell_volume   370.85324796
_cell_formula_units_Z   1
loop_
 _symmetry_equiv_pos_site_id
 _symmetry_equiv_pos_as_xyz
  1  'x, y, z'
loop_
 _atom_site_type_symbol
 _atom_site_label
 _atom_site_symmetry_multiplicity
 _atom_site_fract_x
 _atom_site_fract_y
 _atom_site_fract_z
 _atom_site_occupancy
  Yb  Yb0  1  0.796923  0.575155  0.824295  1
  Yb  Yb1  1  0.028304  0.079320  0.824157  1
  Yb  Yb2  1  0.195329  0.420019  0.170697  1
  Yb  Yb3  1  0.638345  0.818927  0.433195  1
  Yb  Yb4  1  0.204330  0.682518  0.564864  1
  Yb  Yb5  1  0.362553  0.179007  0.565847  1
  Yb  Yb6  1  0.800773  0.317611  0.435101  1
  Ho  Ho7  1  0.971306  0.917740  0.164488  1
  Tm  Tm8  1  0.429723  0.749349  0.999512  1
  Tm  Tm9  1  0.563936  0.251628  0.002112  1
  Ir  Ir10  1  0.814405  0.583432  0.211266  1
  Ir  Ir11  1  0.613332  0.928492  0.805527  1
  Ir  Ir12  1  0.190909  0.425190  0.788642  1
  Ir  Ir13  1  0.389831  0.071613  0.210298  1
