# generated using pymatgen
data_Hf3Cu2Si4NiPd
_symmetry_space_group_name_H-M   'P 1'
_cell_length_a   7.55948939
_cell_length_b   7.46346773
_cell_length_c   7.46346695
_cell_angle_alpha   149.50418319
_cell_angle_beta   128.99922355
_cell_angle_gamma   60.47961032
_symmetry_Int_Tables_number   1
_chemical_formula_structural   Hf3Cu2Si4NiPd
_chemical_formula_sum   'Hf3 Cu2 Si4 Ni1 Pd1'
_cell_volume   164.75746744
_cell_formula_units_Z   1
loop_
 _symmetry_equiv_pos_site_id
 _symmetry_equiv_pos_as_xyz
  1  'x, y, z'
loop_
 _atom_site_type_symbol
 _atom_site_label
 _atom_site_symmetry_multiplicity
 _atom_site_fract_x
 _atom_site_fract_y
 _atom_site_fract_z
 _atom_site_occupancy
  Hf  Hf0  1  0.887976  0.875253  0.012722  1
  Hf  Hf1  1  0.114670  0.125173  0.989497  1
  Hf  Hf2  1  0.504357  0.999529  0.504828  1
  Cu  Cu3  1  0.128630  0.330631  0.797999  1
  Cu  Cu4  1  0.478926  0.673324  0.805602  1
  Si  Si5  1  0.815100  0.502738  0.312363  1
  Si  Si6  1  0.194649  0.503104  0.691545  1
  Si  Si7  1  0.262805  0.781704  0.481101  1
  Si  Si8  1  0.725523  0.211982  0.513541  1
  Ni  Ni9  1  0.863857  0.669889  0.193968  1
  Pd  Pd10  1  0.523506  0.326673  0.196834  1
