# generated using pymatgen
data_ErAlCoNi2B
_symmetry_space_group_name_H-M   'P 1'
_cell_length_a   5.13966510
_cell_length_b   5.11126942
_cell_length_c   6.73343000
_cell_angle_alpha   90.00000000
_cell_angle_beta   90.00000000
_cell_angle_gamma   119.81741418
_symmetry_Int_Tables_number   1
_chemical_formula_structural   ErAlCoNi2B
_chemical_formula_sum   'Er2 Al2 Co2 Ni4 B2'
_cell_volume   153.47112584
_cell_formula_units_Z   2
loop_
 _symmetry_equiv_pos_site_id
 _symmetry_equiv_pos_as_xyz
  1  'x, y, z'
loop_
 _atom_site_type_symbol
 _atom_site_label
 _atom_site_symmetry_multiplicity
 _atom_site_fract_x
 _atom_site_fract_y
 _atom_site_fract_z
 _atom_site_occupancy
  Er  Er0  1  0.000000  0.000000  0.000000  1
  Er  Er1  1  0.000000  0.000000  0.500000  1
  Al  Al2  1  0.670834  0.335417  0.000000  1
  Al  Al3  1  0.329166  0.664583  0.000000  1
  Co  Co4  1  0.000000  0.500000  0.702269  1
  Co  Co5  1  0.000000  0.500000  0.297731  1
  Ni  Ni6  1  0.500000  0.500000  0.706360  1
  Ni  Ni7  1  0.500000  0.000000  0.706360  1
  Ni  Ni8  1  0.500000  0.500000  0.293640  1
  Ni  Ni9  1  0.500000  0.000000  0.293640  1
  B  B10  1  0.673897  0.336948  0.500000  1
  B  B11  1  0.326103  0.663052  0.500000  1
