# generated using pymatgen
data_Er7FeSn23Ir5
_symmetry_space_group_name_H-M   'P 1'
_cell_length_a   9.82816605
_cell_length_b   9.82816730
_cell_length_c   10.03181628
_cell_angle_alpha   89.97748421
_cell_angle_beta   90.02251401
_cell_angle_gamma   119.92917293
_symmetry_Int_Tables_number   1
_chemical_formula_structural   Er7FeSn23Ir5
_chemical_formula_sum   'Er7 Fe1 Sn23 Ir5'
_cell_volume   839.77839463
_cell_formula_units_Z   1
loop_
 _symmetry_equiv_pos_site_id
 _symmetry_equiv_pos_as_xyz
  1  'x, y, z'
loop_
 _atom_site_type_symbol
 _atom_site_label
 _atom_site_symmetry_multiplicity
 _atom_site_fract_x
 _atom_site_fract_y
 _atom_site_fract_z
 _atom_site_occupancy
  Er  Er0  1  0.481915  0.518085  0.305606  1
  Er  Er1  1  0.516962  0.483038  0.694431  1
  Er  Er2  1  0.482397  0.964849  0.306398  1
  Er  Er3  1  0.518646  0.036626  0.694437  1
  Er  Er4  1  0.035151  0.517603  0.306398  1
  Er  Er5  1  0.963374  0.481354  0.694437  1
  Er  Er6  1  0.002577  0.997423  0.997196  1
  Fe  Fe7  1  0.830877  0.169123  0.199160  1
  Sn  Sn8  1  0.119306  0.880694  0.285090  1
  Sn  Sn9  1  0.880064  0.119936  0.714866  1
  Sn  Sn10  1  0.110248  0.234299  0.276975  1
  Sn  Sn11  1  0.879895  0.762521  0.714938  1
  Sn  Sn12  1  0.765701  0.889752  0.276975  1
  Sn  Sn13  1  0.237479  0.120105  0.714938  1
  Sn  Sn14  1  0.780322  0.219678  0.451366  1
  Sn  Sn15  1  0.223335  0.776665  0.542515  1
  Sn  Sn16  1  0.776626  0.553672  0.458613  1
  Sn  Sn17  1  0.222147  0.444469  0.541089  1
  Sn  Sn18  1  0.446328  0.223374  0.458613  1
  Sn  Sn19  1  0.555531  0.777853  0.541089  1
  Sn  Sn20  1  0.355533  0.000642  0.000648  1
  Sn  Sn21  1  0.657434  0.006487  0.005989  1
  Sn  Sn22  1  0.993513  0.342566  0.005989  1
  Sn  Sn23  1  0.999358  0.644467  0.000648  1
  Sn  Sn24  1  0.647443  0.647353  0.999990  1
  Sn  Sn25  1  0.352647  0.352557  0.999990  1
  Sn  Sn26  1  0.332380  0.667620  0.126322  1
  Sn  Sn27  1  0.665691  0.334309  0.874090  1
  Sn  Sn28  1  0.333050  0.666950  0.830191  1
  Sn  Sn29  1  0.669991  0.330009  0.174529  1
  Sn  Sn30  1  0.999884  0.000116  0.499809  1
  Ir  Ir31  1  0.168384  0.831616  0.801833  1
  Ir  Ir32  1  0.830107  0.662645  0.200007  1
  Ir  Ir33  1  0.167270  0.338921  0.802414  1
  Ir  Ir34  1  0.337355  0.169893  0.200007  1
  Ir  Ir35  1  0.661079  0.832730  0.802414  1
