# generated using pymatgen
data_Tb4Fe3TcBr2
_symmetry_space_group_name_H-M   'P 1'
_cell_length_a   3.92369100
_cell_length_b   3.92378075
_cell_length_c   16.93805600
_cell_angle_alpha   90.00013947
_cell_angle_beta   89.99939889
_cell_angle_gamma   119.99923497
_symmetry_Int_Tables_number   1
_chemical_formula_structural   Tb4Fe3TcBr2
_chemical_formula_sum   'Tb4 Fe3 Tc1 Br2'
_cell_volume   225.83802857
_cell_formula_units_Z   1
loop_
 _symmetry_equiv_pos_site_id
 _symmetry_equiv_pos_as_xyz
  1  'x, y, z'
loop_
 _atom_site_type_symbol
 _atom_site_label
 _atom_site_symmetry_multiplicity
 _atom_site_fract_x
 _atom_site_fract_y
 _atom_site_fract_z
 _atom_site_occupancy
  Tb  Tb0  1  0.999976  0.999979  0.118229  1
  Tb  Tb1  1  0.999973  0.999972  0.389509  1
  Tb  Tb2  1  0.000045  0.000037  0.610009  1
  Tb  Tb3  1  0.000033  0.000029  0.883543  1
  Fe  Fe4  1  0.666718  0.333369  0.498307  1
  Fe  Fe5  1  0.333286  0.666633  0.502044  1
  Fe  Fe6  1  0.333327  0.666666  0.982747  1
  Tc  Tc7  1  0.666653  0.333320  0.013966  1
  Br  Br8  1  0.333315  0.666647  0.252448  1
  Br  Br9  1  0.666673  0.333345  0.749198  1
