# generated using pymatgen
data_Zr4Al2(TcW)3
_symmetry_space_group_name_H-M   'P 1'
_cell_length_a   5.33442900
_cell_length_b   5.26963734
_cell_length_c   8.80511900
_cell_angle_alpha   90.00000000
_cell_angle_beta   90.00000000
_cell_angle_gamma   120.40754598
_symmetry_Int_Tables_number   1
_chemical_formula_structural   Zr4Al2(TcW)3
_chemical_formula_sum   'Zr4 Al2 Tc3 W3'
_cell_volume   213.46973978
_cell_formula_units_Z   1
loop_
 _symmetry_equiv_pos_site_id
 _symmetry_equiv_pos_as_xyz
  1  'x, y, z'
loop_
 _atom_site_type_symbol
 _atom_site_label
 _atom_site_symmetry_multiplicity
 _atom_site_fract_x
 _atom_site_fract_y
 _atom_site_fract_z
 _atom_site_occupancy
  Zr  Zr0  1  0.334147  0.668296  0.436435  1
  Zr  Zr1  1  0.667078  0.334154  0.933619  1
  Zr  Zr2  1  0.667078  0.334154  0.566381  1
  Zr  Zr3  1  0.334147  0.668296  0.063565  1
  Al  Al4  1  0.997768  0.995536  0.998738  1
  Al  Al5  1  0.997768  0.995536  0.501262  1
  Tc  Tc6  1  0.659359  0.830068  0.750000  1
  Tc  Tc7  1  0.829781  0.659563  0.250000  1
  Tc  Tc8  1  0.170711  0.830068  0.750000  1
  W  W9  1  0.171993  0.343985  0.750000  1
  W  W10  1  0.829967  0.170172  0.250000  1
  W  W11  1  0.340203  0.170172  0.250000  1
