# generated using pymatgen
data_PrAl10ReRh
_symmetry_space_group_name_H-M   'P 1'
_cell_length_a   6.92463589
_cell_length_b   6.93779854
_cell_length_c   9.25564100
_cell_angle_alpha   90.00000000
_cell_angle_beta   90.00000000
_cell_angle_gamma   96.64742358
_symmetry_Int_Tables_number   1
_chemical_formula_structural   PrAl10ReRh
_chemical_formula_sum   'Pr2 Al20 Re2 Rh2'
_cell_volume   441.66769550
_cell_formula_units_Z   2
loop_
 _symmetry_equiv_pos_site_id
 _symmetry_equiv_pos_as_xyz
  1  'x, y, z'
loop_
 _atom_site_type_symbol
 _atom_site_label
 _atom_site_symmetry_multiplicity
 _atom_site_fract_x
 _atom_site_fract_y
 _atom_site_fract_z
 _atom_site_occupancy
  Pr  Pr0  1  0.870346  0.120492  0.750000  1
  Pr  Pr1  1  0.129654  0.879508  0.250000  1
  Al  Al2  1  0.619674  0.376225  0.548209  1
  Al  Al3  1  0.380326  0.623775  0.451791  1
  Al  Al4  1  0.380326  0.623775  0.048209  1
  Al  Al5  1  0.619674  0.376225  0.951791  1
  Al  Al6  1  0.226475  0.225938  0.498291  1
  Al  Al7  1  0.773525  0.774062  0.501709  1
  Al  Al8  1  0.773525  0.774062  0.998291  1
  Al  Al9  1  0.226475  0.225938  0.001709  1
  Al  Al10  1  0.840676  0.160214  0.101791  1
  Al  Al11  1  0.159324  0.839786  0.898209  1
  Al  Al12  1  0.159324  0.839786  0.601791  1
  Al  Al13  1  0.840676  0.160214  0.398209  1
  Al  Al14  1  0.859934  0.590686  0.750000  1
  Al  Al15  1  0.140066  0.409314  0.250000  1
  Al  Al16  1  0.408687  0.139786  0.750000  1
  Al  Al17  1  0.591313  0.860214  0.250000  1
  Al  Al18  1  0.222715  0.482008  0.750000  1
  Al  Al19  1  0.777285  0.517992  0.250000  1
  Al  Al20  1  0.517332  0.779983  0.750000  1
  Al  Al21  1  0.482668  0.220017  0.250000  1
  Re  Re22  1  0.500000  0.000000  0.000000  1
  Re  Re23  1  0.500000  0.000000  0.500000  1
  Rh  Rh24  1  0.000000  0.500000  0.500000  1
  Rh  Rh25  1  0.000000  0.500000  0.000000  1
