# generated using pymatgen
data_Ho2Mn4Ni7P7Ir
_symmetry_space_group_name_H-M   'P 1'
_cell_length_a   9.17312868
_cell_length_b   9.19221575
_cell_length_c   3.70414600
_cell_angle_alpha   90.00000000
_cell_angle_beta   90.00000000
_cell_angle_gamma   120.04197406
_symmetry_Int_Tables_number   1
_chemical_formula_structural   Ho2Mn4Ni7P7Ir
_chemical_formula_sum   'Ho2 Mn4 Ni7 P7 Ir1'
_cell_volume   270.37876434
_cell_formula_units_Z   1
loop_
 _symmetry_equiv_pos_site_id
 _symmetry_equiv_pos_as_xyz
  1  'x, y, z'
loop_
 _atom_site_type_symbol
 _atom_site_label
 _atom_site_symmetry_multiplicity
 _atom_site_fract_x
 _atom_site_fract_y
 _atom_site_fract_z
 _atom_site_occupancy
  Ho  Ho0  1  0.663024  0.331797  0.000000  1
  Ho  Ho1  1  0.335812  0.666067  0.500000  1
  Mn  Mn2  1  0.881953  0.728899  0.000000  1
  Mn  Mn3  1  0.097460  0.217954  0.500000  1
  Mn  Mn4  1  0.776298  0.879228  0.500000  1
  Mn  Mn5  1  0.123375  0.907655  0.500000  1
  Ni  Ni6  1  0.065374  0.430639  0.000000  1
  Ni  Ni7  1  0.564340  0.627141  0.000000  1
  Ni  Ni8  1  0.372763  0.939254  0.000000  1
  Ni  Ni9  1  0.278036  0.155795  0.000000  1
  Ni  Ni10  1  0.843048  0.121239  0.000000  1
  Ni  Ni11  1  0.435941  0.383387  0.500000  1
  Ni  Ni12  1  0.611654  0.050133  0.500000  1
  P  P13  1  0.297070  0.408640  0.000000  1
  P  P14  1  0.591503  0.885616  0.000000  1
  P  P15  1  0.117771  0.710416  0.000000  1
  P  P16  1  0.405408  0.114925  0.500000  1
  P  P17  1  0.882131  0.280568  0.500000  1
  P  P18  1  0.708329  0.598963  0.500000  1
  P  P19  1  0.998772  0.999931  0.000000  1
  Ir  Ir20  1  0.949938  0.561754  0.500000  1
