# generated using pymatgen
data_Lu3In3IrRuAu
_symmetry_space_group_name_H-M   'P 1'
_cell_length_a   7.83717900
_cell_length_b   7.83717866
_cell_length_c   3.58264200
_cell_angle_alpha   90.00000000
_cell_angle_beta   90.00000000
_cell_angle_gamma   119.99999723
_symmetry_Int_Tables_number   1
_chemical_formula_structural   Lu3In3IrRuAu
_chemical_formula_sum   'Lu3 In3 Ir1 Ru1 Au1'
_cell_volume   190.56957696
_cell_formula_units_Z   1
loop_
 _symmetry_equiv_pos_site_id
 _symmetry_equiv_pos_as_xyz
  1  'x, y, z'
loop_
 _atom_site_type_symbol
 _atom_site_label
 _atom_site_symmetry_multiplicity
 _atom_site_fract_x
 _atom_site_fract_y
 _atom_site_fract_z
 _atom_site_occupancy
  Lu  Lu0  1  0.383546  0.974640  0.500000  1
  Lu  Lu1  1  0.025360  0.408906  0.500000  1
  Lu  Lu2  1  0.591094  0.616454  0.500000  1
  In  In3  1  0.734196  0.003791  0.000000  1
  In  In4  1  0.996209  0.730405  0.000000  1
  In  In5  1  0.269595  0.265804  0.000000  1
  Ir  Ir6  1  0.333333  0.666667  0.000000  1
  Ru  Ru7  1  0.000000  0.000000  0.500000  1
  Au  Au8  1  0.666667  0.333333  0.000000  1
