# generated using pymatgen
data_DyTm5Os2
_symmetry_space_group_name_H-M   'P 1'
_cell_length_a   7.37372399
_cell_length_b   8.91265800
_cell_length_c   6.23984355
_cell_angle_alpha   90.00000000
_cell_angle_beta   90.18911729
_cell_angle_gamma   90.00000000
_symmetry_Int_Tables_number   1
_chemical_formula_structural   DyTm5Os2
_chemical_formula_sum   'Dy2 Tm10 Os4'
_cell_volume   410.07703967
_cell_formula_units_Z   2
loop_
 _symmetry_equiv_pos_site_id
 _symmetry_equiv_pos_as_xyz
  1  'x, y, z'
loop_
 _atom_site_type_symbol
 _atom_site_label
 _atom_site_symmetry_multiplicity
 _atom_site_fract_x
 _atom_site_fract_y
 _atom_site_fract_z
 _atom_site_occupancy
  Dy  Dy0  1  0.039498  0.250000  0.628416  1
  Dy  Dy1  1  0.960502  0.750000  0.371584  1
  Tm  Tm2  1  0.459929  0.750000  0.129140  1
  Tm  Tm3  1  0.540071  0.250000  0.870860  1
  Tm  Tm4  1  0.175782  0.062706  0.164376  1
  Tm  Tm5  1  0.824218  0.937294  0.835624  1
  Tm  Tm6  1  0.327328  0.937336  0.667488  1
  Tm  Tm7  1  0.824218  0.562706  0.835624  1
  Tm  Tm8  1  0.672672  0.062664  0.332512  1
  Tm  Tm9  1  0.175782  0.437294  0.164376  1
  Tm  Tm10  1  0.672672  0.437336  0.332512  1
  Tm  Tm11  1  0.327328  0.562664  0.667488  1
  Os  Os12  1  0.383633  0.250000  0.460704  1
  Os  Os13  1  0.616367  0.750000  0.539296  1
  Os  Os14  1  0.118577  0.750000  0.958801  1
  Os  Os15  1  0.881423  0.250000  0.041199  1
