# generated using pymatgen
data_Ba2Zr6CBr17
_symmetry_space_group_name_H-M   'P 1'
_cell_length_a   10.21366327
_cell_length_b   10.21363755
_cell_length_c   10.21398446
_cell_angle_alpha   105.00458165
_cell_angle_beta   105.00670795
_cell_angle_gamma   118.82654035
_symmetry_Int_Tables_number   1
_chemical_formula_structural   Ba2Zr6CBr17
_chemical_formula_sum   'Ba2 Zr6 C1 Br17'
_cell_volume   803.59762517
_cell_formula_units_Z   1
loop_
 _symmetry_equiv_pos_site_id
 _symmetry_equiv_pos_as_xyz
  1  'x, y, z'
loop_
 _atom_site_type_symbol
 _atom_site_label
 _atom_site_symmetry_multiplicity
 _atom_site_fract_x
 _atom_site_fract_y
 _atom_site_fract_z
 _atom_site_occupancy
  Ba  Ba0  1  0.250005  0.750002  0.500000  1
  Ba  Ba1  1  0.749995  0.249998  0.500000  1
  Zr  Zr2  1  0.222621  0.222620  0.000003  1
  Zr  Zr3  1  0.777379  0.777380  0.999997  1
  Zr  Zr4  1  0.173674  0.060583  0.234257  1
  Zr  Zr5  1  0.939400  0.173672  0.113071  1
  Zr  Zr6  1  0.826326  0.939417  0.765743  1
  Zr  Zr7  1  0.060600  0.826328  0.886929  1
  C  C8  1  0.000000  0.000000  0.000000  1
  Br  Br9  1  0.867510  0.725136  0.592645  1
  Br  Br10  1  0.274885  0.867494  0.142380  1
  Br  Br11  1  0.128181  0.600292  0.728473  1
  Br  Br12  1  0.538775  0.668907  0.721849  1
  Br  Br13  1  0.871819  0.399708  0.271527  1
  Br  Br14  1  0.461225  0.331093  0.278151  1
  Br  Br15  1  0.816927  0.538774  0.869867  1
  Br  Br16  1  0.399702  0.128182  0.527886  1
  Br  Br17  1  0.600298  0.871818  0.472114  1
  Br  Br18  1  0.132490  0.274864  0.407355  1
  Br  Br19  1  0.331092  0.052941  0.869869  1
  Br  Br20  1  0.947056  0.816922  0.278145  1
  Br  Br21  1  0.725115  0.132506  0.857620  1
  Br  Br22  1  0.500000  0.500000  0.000000  1
  Br  Br23  1  0.183073  0.461226  0.130133  1
  Br  Br24  1  0.052944  0.183078  0.721855  1
  Br  Br25  1  0.668908  0.947059  0.130131  1
