# generated using pymatgen
data_Tm6MgFe(Co4P3)4
_symmetry_space_group_name_H-M   'P 1'
_cell_length_a   3.67404400
_cell_length_b   10.51631300
_cell_length_c   12.15623200
_cell_angle_alpha   90.00000000
_cell_angle_beta   90.00000000
_cell_angle_gamma   90.00000000
_symmetry_Int_Tables_number   1
_chemical_formula_structural   Tm6MgFe(Co4P3)4
_chemical_formula_sum   'Tm6 Mg1 Fe1 Co16 P12'
_cell_volume   469.68515792
_cell_formula_units_Z   1
loop_
 _symmetry_equiv_pos_site_id
 _symmetry_equiv_pos_as_xyz
  1  'x, y, z'
loop_
 _atom_site_type_symbol
 _atom_site_label
 _atom_site_symmetry_multiplicity
 _atom_site_fract_x
 _atom_site_fract_y
 _atom_site_fract_z
 _atom_site_occupancy
  Tm  Tm0  1  0.000000  0.500000  0.525910  1
  Tm  Tm1  1  0.500000  0.000000  0.477701  1
  Tm  Tm2  1  0.500000  0.822073  0.206803  1
  Tm  Tm3  1  0.500000  0.177927  0.206803  1
  Tm  Tm4  1  0.000000  0.682271  0.794565  1
  Tm  Tm5  1  0.000000  0.317729  0.794565  1
  Mg  Mg6  1  0.500000  0.500000  0.153835  1
  Fe  Fe7  1  0.000000  0.000000  0.837380  1
  Co  Co8  1  0.500000  0.500000  0.703842  1
  Co  Co9  1  0.000000  0.000000  0.296641  1
  Co  Co10  1  0.000000  0.500000  0.985813  1
  Co  Co11  1  0.500000  0.000000  0.012059  1
  Co  Co12  1  0.500000  0.328408  0.992209  1
  Co  Co13  1  0.500000  0.671592  0.992209  1
  Co  Co14  1  0.000000  0.162788  0.002454  1
  Co  Co15  1  0.000000  0.837212  0.002454  1
  Co  Co16  1  0.500000  0.295324  0.433645  1
  Co  Co17  1  0.500000  0.704676  0.433645  1
  Co  Co18  1  0.000000  0.201784  0.571304  1
  Co  Co19  1  0.000000  0.798216  0.571304  1
  Co  Co20  1  0.500000  0.880053  0.708322  1
  Co  Co21  1  0.500000  0.119947  0.708322  1
  Co  Co22  1  0.000000  0.623782  0.293530  1
  Co  Co23  1  0.000000  0.376218  0.293530  1
  P  P24  1  0.500000  0.500000  0.882757  1
  P  P25  1  0.000000  0.000000  0.117194  1
  P  P26  1  0.500000  0.500000  0.355046  1
  P  P27  1  0.000000  0.000000  0.653807  1
  P  P28  1  0.500000  0.311410  0.617845  1
  P  P29  1  0.500000  0.688590  0.617845  1
  P  P30  1  0.000000  0.187610  0.385067  1
  P  P31  1  0.000000  0.812390  0.385067  1
  P  P32  1  0.500000  0.849874  0.888947  1
  P  P33  1  0.500000  0.150126  0.888947  1
  P  P34  1  0.000000  0.663234  0.104317  1
  P  P35  1  0.000000  0.336766  0.104317  1
