# generated using pymatgen
data_Er8Zr11Si16Os
_symmetry_space_group_name_H-M   'P 1'
_cell_length_a   7.03886563
_cell_length_b   7.25538354
_cell_length_c   13.84663700
_cell_angle_alpha   90.00000000
_cell_angle_beta   90.00000000
_cell_angle_gamma   89.93766213
_symmetry_Int_Tables_number   1
_chemical_formula_structural   Er8Zr11Si16Os
_chemical_formula_sum   'Er8 Zr11 Si16 Os1'
_cell_volume   707.14276132
_cell_formula_units_Z   1
loop_
 _symmetry_equiv_pos_site_id
 _symmetry_equiv_pos_as_xyz
  1  'x, y, z'
loop_
 _atom_site_type_symbol
 _atom_site_label
 _atom_site_symmetry_multiplicity
 _atom_site_fract_x
 _atom_site_fract_y
 _atom_site_fract_z
 _atom_site_occupancy
  Er  Er0  1  0.013900  0.177631  0.094423  1
  Er  Er1  1  0.987452  0.822417  0.900974  1
  Er  Er2  1  0.486902  0.675105  0.902146  1
  Er  Er3  1  0.987452  0.822417  0.599026  1
  Er  Er4  1  0.515810  0.322929  0.095746  1
  Er  Er5  1  0.013900  0.177631  0.405577  1
  Er  Er6  1  0.515810  0.322929  0.404254  1
  Er  Er7  1  0.486902  0.675105  0.597854  1
  Zr  Zr8  1  0.846503  0.500751  0.250000  1
  Zr  Zr9  1  0.344945  0.998391  0.250000  1
  Zr  Zr10  1  0.653606  0.001791  0.750000  1
  Zr  Zr11  1  0.324298  0.175837  0.625928  1
  Zr  Zr12  1  0.672126  0.823304  0.375912  1
  Zr  Zr13  1  0.173200  0.676084  0.377557  1
  Zr  Zr14  1  0.672126  0.823304  0.124088  1
  Zr  Zr15  1  0.827200  0.327523  0.627271  1
  Zr  Zr16  1  0.324298  0.175837  0.874072  1
  Zr  Zr17  1  0.827200  0.327523  0.872729  1
  Zr  Zr18  1  0.173200  0.676084  0.122443  1
  Si  Si19  1  0.031474  0.113675  0.750000  1
  Si  Si20  1  0.969223  0.881748  0.250000  1
  Si  Si21  1  0.469138  0.614380  0.250000  1
  Si  Si22  1  0.517310  0.390345  0.750000  1
  Si  Si23  1  0.281495  0.859854  0.750000  1
  Si  Si24  1  0.721199  0.128998  0.250000  1
  Si  Si25  1  0.219291  0.369947  0.250000  1
  Si  Si26  1  0.792452  0.629242  0.750000  1
  Si  Si27  1  0.155017  0.470026  0.547359  1
  Si  Si28  1  0.842715  0.533787  0.462336  1
  Si  Si29  1  0.345124  0.970106  0.459829  1
  Si  Si30  1  0.842715  0.533787  0.037664  1
  Si  Si31  1  0.657531  0.032566  0.541678  1
  Si  Si32  1  0.155017  0.470026  0.952641  1
  Si  Si33  1  0.657531  0.032566  0.958322  1
  Si  Si34  1  0.345124  0.970106  0.040171  1
  Os  Os35  1  0.150819  0.496247  0.750000  1
