# generated using pymatgen
data_ErTm9Se10
_symmetry_space_group_name_H-M   'P 1'
_cell_length_a   7.00626044
_cell_length_b   8.02139023
_cell_length_c   8.98008800
_cell_angle_alpha   102.81161790
_cell_angle_beta   97.74730338
_cell_angle_gamma   106.83372458
_symmetry_Int_Tables_number   1
_chemical_formula_structural   ErTm9Se10
_chemical_formula_sum   'Er1 Tm9 Se10'
_cell_volume   460.19490505
_cell_formula_units_Z   1
loop_
 _symmetry_equiv_pos_site_id
 _symmetry_equiv_pos_as_xyz
  1  'x, y, z'
loop_
 _atom_site_type_symbol
 _atom_site_label
 _atom_site_symmetry_multiplicity
 _atom_site_fract_x
 _atom_site_fract_y
 _atom_site_fract_z
 _atom_site_occupancy
  Er  Er0  1  0.000000  0.500000  0.000000  1
  Tm  Tm1  1  0.799521  0.599932  0.600001  1
  Tm  Tm2  1  0.600274  0.200153  0.200399  1
  Tm  Tm3  1  0.399726  0.799847  0.799601  1
  Tm  Tm4  1  0.600085  0.700442  0.200458  1
  Tm  Tm5  1  0.200479  0.400068  0.399999  1
  Tm  Tm6  1  0.399915  0.299558  0.799542  1
  Tm  Tm7  1  0.000000  0.000000  0.000000  1
  Tm  Tm8  1  0.201015  0.900318  0.400529  1
  Tm  Tm9  1  0.798985  0.099682  0.599471  1
  Se  Se10  1  0.698469  0.650354  0.899942  1
  Se  Se11  1  0.499967  0.250202  0.499911  1
  Se  Se12  1  0.698730  0.148728  0.899775  1
  Se  Se13  1  0.301270  0.851272  0.100225  1
  Se  Se14  1  0.500033  0.749798  0.500089  1
  Se  Se15  1  0.099508  0.449478  0.698825  1
  Se  Se16  1  0.301531  0.349646  0.100058  1
  Se  Se17  1  0.901096  0.050043  0.299979  1
  Se  Se18  1  0.098904  0.949957  0.700021  1
  Se  Se19  1  0.900492  0.550522  0.301175  1
