# generated using pymatgen
data_Zr(TaSe2)4
_symmetry_space_group_name_H-M   'P 1'
_cell_length_a   6.96957700
_cell_length_b   6.96957798
_cell_length_c   13.65861000
_cell_angle_alpha   90.00000000
_cell_angle_beta   90.00000000
_cell_angle_gamma   120.00000959
_symmetry_Int_Tables_number   1
_chemical_formula_structural   Zr(TaSe2)4
_chemical_formula_sum   'Zr2 Ta8 Se16'
_cell_volume   574.57932717
_cell_formula_units_Z   2
loop_
 _symmetry_equiv_pos_site_id
 _symmetry_equiv_pos_as_xyz
  1  'x, y, z'
loop_
 _atom_site_type_symbol
 _atom_site_label
 _atom_site_symmetry_multiplicity
 _atom_site_fract_x
 _atom_site_fract_y
 _atom_site_fract_z
 _atom_site_occupancy
  Zr  Zr0  1  0.000000  0.000000  0.500000  1
  Zr  Zr1  1  0.000000  0.000000  0.000000  1
  Ta  Ta2  1  0.507373  0.492627  0.750000  1
  Ta  Ta3  1  0.014745  0.507373  0.250000  1
  Ta  Ta4  1  0.492627  0.985255  0.250000  1
  Ta  Ta5  1  0.507373  0.014745  0.750000  1
  Ta  Ta6  1  0.985255  0.492627  0.750000  1
  Ta  Ta7  1  0.492627  0.507373  0.250000  1
  Ta  Ta8  1  0.000000  0.000000  0.750000  1
  Ta  Ta9  1  0.000000  0.000000  0.250000  1
  Se  Se10  1  0.830353  0.169647  0.372024  1
  Se  Se11  1  0.830353  0.660707  0.372024  1
  Se  Se12  1  0.339293  0.169647  0.372024  1
  Se  Se13  1  0.660707  0.830353  0.872024  1
  Se  Se14  1  0.169647  0.339293  0.627976  1
  Se  Se15  1  0.169647  0.830353  0.872024  1
  Se  Se16  1  0.169647  0.339293  0.872024  1
  Se  Se17  1  0.830353  0.169647  0.127976  1
  Se  Se18  1  0.339293  0.169647  0.127976  1
  Se  Se19  1  0.660707  0.830353  0.627976  1
  Se  Se20  1  0.333333  0.666667  0.122822  1
  Se  Se21  1  0.666667  0.333333  0.622822  1
  Se  Se22  1  0.666667  0.333333  0.877178  1
  Se  Se23  1  0.333333  0.666667  0.377178  1
  Se  Se24  1  0.830353  0.660707  0.127976  1
  Se  Se25  1  0.169647  0.830353  0.627976  1
