# generated using pymatgen
data_NaEr11(SiAu)12
_symmetry_space_group_name_H-M   'P 1'
_cell_length_a   4.33165500
_cell_length_b   7.52836837
_cell_length_c   22.25944000
_cell_angle_alpha   89.98209214
_cell_angle_beta   90.00000000
_cell_angle_gamma   90.00000000
_symmetry_Int_Tables_number   1
_chemical_formula_structural   NaEr11(SiAu)12
_chemical_formula_sum   'Na1 Er11 Si12 Au12'
_cell_volume   725.88685795
_cell_formula_units_Z   1
loop_
 _symmetry_equiv_pos_site_id
 _symmetry_equiv_pos_as_xyz
  1  'x, y, z'
loop_
 _atom_site_type_symbol
 _atom_site_label
 _atom_site_symmetry_multiplicity
 _atom_site_fract_x
 _atom_site_fract_y
 _atom_site_fract_z
 _atom_site_occupancy
  Na  Na0  1  0.250000  0.780964  0.497402  1
  Er  Er1  1  0.250000  0.723473  0.335613  1
  Er  Er2  1  0.750000  0.270350  0.663886  1
  Er  Er3  1  0.750000  0.231702  0.168447  1
  Er  Er4  1  0.250000  0.761960  0.832731  1
  Er  Er5  1  0.250000  0.766610  0.169164  1
  Er  Er6  1  0.750000  0.236883  0.832435  1
  Er  Er7  1  0.750000  0.275036  0.334090  1
  Er  Er8  1  0.250000  0.731736  0.663996  1
  Er  Er9  1  0.250000  0.731721  0.000399  1
  Er  Er10  1  0.750000  0.268028  0.002810  1
  Er  Er11  1  0.750000  0.218535  0.498453  1
  Si  Si12  1  0.250000  0.083682  0.090564  1
  Si  Si13  1  0.750000  0.914836  0.926342  1
  Si  Si14  1  0.750000  0.584083  0.412283  1
  Si  Si15  1  0.250000  0.414130  0.562665  1
  Si  Si16  1  0.250000  0.087550  0.263224  1
  Si  Si17  1  0.750000  0.912474  0.745846  1
  Si  Si18  1  0.750000  0.585176  0.250946  1
  Si  Si19  1  0.250000  0.416003  0.742226  1
  Si  Si20  1  0.250000  0.089961  0.398161  1
  Si  Si21  1  0.750000  0.913261  0.593601  1
  Si  Si22  1  0.750000  0.588675  0.090989  1
  Si  Si23  1  0.250000  0.413284  0.922139  1
  Au  Au24  1  0.250000  0.417101  0.242320  1
  Au  Au25  1  0.750000  0.580084  0.759553  1
  Au  Au26  1  0.750000  0.919486  0.256811  1
  Au  Au27  1  0.250000  0.083428  0.746287  1
  Au  Au28  1  0.250000  0.418400  0.433074  1
  Au  Au29  1  0.750000  0.580315  0.577533  1
  Au  Au30  1  0.750000  0.919559  0.074197  1
  Au  Au31  1  0.250000  0.082778  0.916539  1
  Au  Au32  1  0.250000  0.417744  0.092465  1
  Au  Au33  1  0.750000  0.580187  0.906350  1
  Au  Au34  1  0.750000  0.918255  0.407519  1
  Au  Au35  1  0.250000  0.082553  0.588942  1
