# generated using pymatgen
data_Y12Th4MgZn3Co4
_symmetry_space_group_name_H-M   'P 1'
_cell_length_a   9.53198451
_cell_length_b   9.52412240
_cell_length_c   9.52412300
_cell_angle_alpha   59.99999445
_cell_angle_beta   60.02727532
_cell_angle_gamma   60.02727797
_symmetry_Int_Tables_number   1
_chemical_formula_structural   Y12Th4MgZn3Co4
_chemical_formula_sum   'Y12 Th4 Mg1 Zn3 Co4'
_cell_volume   611.64186854
_cell_formula_units_Z   1
loop_
 _symmetry_equiv_pos_site_id
 _symmetry_equiv_pos_as_xyz
  1  'x, y, z'
loop_
 _atom_site_type_symbol
 _atom_site_label
 _atom_site_symmetry_multiplicity
 _atom_site_fract_x
 _atom_site_fract_y
 _atom_site_fract_z
 _atom_site_occupancy
  Y  Y0  1  0.807577  0.191349  0.191349  1
  Y  Y1  1  0.186623  0.812069  0.812069  1
  Y  Y2  1  0.186623  0.812069  0.189239  1
  Y  Y3  1  0.807577  0.191349  0.809725  1
  Y  Y4  1  0.186623  0.189239  0.812069  1
  Y  Y5  1  0.807577  0.809725  0.191349  1
  Y  Y6  1  0.930265  0.565716  0.565716  1
  Y  Y7  1  0.562203  0.936116  0.936116  1
  Y  Y8  1  0.562203  0.936116  0.565565  1
  Y  Y9  1  0.930265  0.565716  0.938303  1
  Y  Y10  1  0.562203  0.565565  0.936116  1
  Y  Y11  1  0.930265  0.938303  0.565716  1
  Th  Th12  1  0.346956  0.345883  0.345883  1
  Th  Th13  1  0.346956  0.345883  0.961279  1
  Th  Th14  1  0.346956  0.961279  0.345883  1
  Th  Th15  1  0.956754  0.347749  0.347749  1
  Mg  Mg16  1  0.282252  0.572582  0.572582  1
  Zn  Zn17  1  0.586630  0.581697  0.581697  1
  Zn  Zn18  1  0.586630  0.581697  0.249975  1
  Zn  Zn19  1  0.586630  0.249975  0.581697  1
  Co  Co20  1  0.144993  0.144449  0.144449  1
  Co  Co21  1  0.144993  0.144449  0.566108  1
  Co  Co22  1  0.144993  0.566108  0.144449  1
  Co  Co23  1  0.565254  0.144915  0.144915  1
