# generated using pymatgen
data_Tb4SI6
_symmetry_space_group_name_H-M   'P 1'
_cell_length_a   4.14071800
_cell_length_b   13.98200300
_cell_length_c   14.55132300
_cell_angle_alpha   90.00000000
_cell_angle_beta   90.00000000
_cell_angle_gamma   90.00000000
_symmetry_Int_Tables_number   1
_chemical_formula_structural   Tb4SI6
_chemical_formula_sum   'Tb8 S2 I12'
_cell_volume   842.45657909
_cell_formula_units_Z   2
loop_
 _symmetry_equiv_pos_site_id
 _symmetry_equiv_pos_as_xyz
  1  'x, y, z'
loop_
 _atom_site_type_symbol
 _atom_site_label
 _atom_site_symmetry_multiplicity
 _atom_site_fract_x
 _atom_site_fract_y
 _atom_site_fract_z
 _atom_site_occupancy
  Tb  Tb0  1  0.000000  0.099913  0.076894  1
  Tb  Tb1  1  0.000000  0.900087  0.923106  1
  Tb  Tb2  1  0.000000  0.599913  0.423106  1
  Tb  Tb3  1  0.000000  0.400087  0.576894  1
  Tb  Tb4  1  0.500000  0.120135  0.857583  1
  Tb  Tb5  1  0.500000  0.879865  0.142417  1
  Tb  Tb6  1  0.500000  0.620135  0.642417  1
  Tb  Tb7  1  0.500000  0.379865  0.357583  1
  S  S8  1  0.500000  0.000000  0.000000  1
  S  S9  1  0.500000  0.500000  0.500000  1
  I  I10  1  0.500000  0.264342  0.676697  1
  I  I11  1  0.500000  0.735658  0.323303  1
  I  I12  1  0.500000  0.764342  0.823303  1
  I  I13  1  0.500000  0.235658  0.176697  1
  I  I14  1  0.000000  0.263260  0.932112  1
  I  I15  1  0.000000  0.736740  0.067888  1
  I  I16  1  0.000000  0.487406  0.239186  1
  I  I17  1  0.000000  0.512594  0.760814  1
  I  I18  1  0.000000  0.987406  0.260814  1
  I  I19  1  0.000000  0.012594  0.739186  1
  I  I20  1  0.000000  0.236740  0.432112  1
  I  I21  1  0.000000  0.763260  0.567888  1
