# generated using pymatgen
data_Y8GePd5Pt19
_symmetry_space_group_name_H-M   'P 1'
_cell_length_a   8.31898300
_cell_length_b   8.38705400
_cell_length_c   8.43136800
_cell_angle_alpha   90.00000000
_cell_angle_beta   90.00000000
_cell_angle_gamma   90.00000000
_symmetry_Int_Tables_number   1
_chemical_formula_structural   Y8GePd5Pt19
_chemical_formula_sum   'Y8 Ge1 Pd5 Pt19'
_cell_volume   588.27138158
_cell_formula_units_Z   1
loop_
 _symmetry_equiv_pos_site_id
 _symmetry_equiv_pos_as_xyz
  1  'x, y, z'
loop_
 _atom_site_type_symbol
 _atom_site_label
 _atom_site_symmetry_multiplicity
 _atom_site_fract_x
 _atom_site_fract_y
 _atom_site_fract_z
 _atom_site_occupancy
  Y  Y0  1  0.252145  0.252519  0.252823  1
  Y  Y1  1  0.747294  0.746942  0.746676  1
  Y  Y2  1  0.747294  0.746942  0.253324  1
  Y  Y3  1  0.747855  0.252519  0.747177  1
  Y  Y4  1  0.252145  0.252519  0.747177  1
  Y  Y5  1  0.252706  0.746942  0.253324  1
  Y  Y6  1  0.252706  0.746942  0.746676  1
  Y  Y7  1  0.747855  0.252519  0.252823  1
  Ge  Ge8  1  0.000000  0.003609  0.000000  1
  Pd  Pd9  1  0.500000  0.499770  0.253099  1
  Pd  Pd10  1  0.500000  0.499770  0.746901  1
  Pd  Pd11  1  0.000000  0.712553  0.000000  1
  Pd  Pd12  1  0.000000  0.999208  0.289444  1
  Pd  Pd13  1  0.000000  0.999208  0.710556  1
  Pt  Pt14  1  0.259461  0.499865  0.000000  1
  Pt  Pt15  1  0.740539  0.499865  0.000000  1
  Pt  Pt16  1  0.000000  0.258739  0.500000  1
  Pt  Pt17  1  0.500000  0.263089  0.000000  1
  Pt  Pt18  1  0.000000  0.740447  0.500000  1
  Pt  Pt19  1  0.500000  0.735237  0.000000  1
  Pt  Pt20  1  0.500000  0.000090  0.262838  1
  Pt  Pt21  1  0.258712  0.999950  0.500000  1
  Pt  Pt22  1  0.500000  0.000090  0.737162  1
  Pt  Pt23  1  0.741288  0.999950  0.500000  1
  Pt  Pt24  1  0.000000  0.500137  0.259727  1
  Pt  Pt25  1  0.000000  0.500137  0.740273  1
  Pt  Pt26  1  0.252932  0.499845  0.500000  1
  Pt  Pt27  1  0.747068  0.499845  0.500000  1
  Pt  Pt28  1  0.500000  0.253490  0.500000  1
  Pt  Pt29  1  0.500000  0.746711  0.500000  1
  Pt  Pt30  1  0.295785  0.998708  0.000000  1
  Pt  Pt31  1  0.704215  0.998708  0.000000  1
  Pt  Pt32  1  0.000000  0.293130  0.000000  1
