# generated using pymatgen
data_Dy9Ho(SiSn3)2
_symmetry_space_group_name_H-M   'P 1'
_cell_length_a   9.22234100
_cell_length_b   9.22234161
_cell_length_c   6.44659500
_cell_angle_alpha   90.00000000
_cell_angle_beta   90.00000000
_cell_angle_gamma   120.00000141
_symmetry_Int_Tables_number   1
_chemical_formula_structural   Dy9Ho(SiSn3)2
_chemical_formula_sum   'Dy9 Ho1 Si2 Sn6'
_cell_volume   474.83573328
_cell_formula_units_Z   1
loop_
 _symmetry_equiv_pos_site_id
 _symmetry_equiv_pos_as_xyz
  1  'x, y, z'
loop_
 _atom_site_type_symbol
 _atom_site_label
 _atom_site_symmetry_multiplicity
 _atom_site_fract_x
 _atom_site_fract_y
 _atom_site_fract_z
 _atom_site_occupancy
  Dy  Dy0  1  0.666667  0.333333  0.000000  1
  Dy  Dy1  1  0.333333  0.666667  0.000000  1
  Dy  Dy2  1  0.333333  0.666667  0.500000  1
  Dy  Dy3  1  0.747401  0.747381  0.750020  1
  Dy  Dy4  1  0.252619  0.000020  0.750020  1
  Dy  Dy5  1  0.999980  0.252599  0.750020  1
  Dy  Dy6  1  0.252619  0.252599  0.249980  1
  Dy  Dy7  1  0.747401  0.000020  0.249980  1
  Dy  Dy8  1  0.999980  0.747381  0.249980  1
  Ho  Ho9  1  0.666667  0.333333  0.500000  1
  Si  Si10  1  0.000000  0.000000  0.000000  1
  Si  Si11  1  0.000000  0.000000  0.500000  1
  Sn  Sn12  1  0.391263  0.391213  0.749983  1
  Sn  Sn13  1  0.608787  0.000050  0.749983  1
  Sn  Sn14  1  0.999950  0.608737  0.749983  1
  Sn  Sn15  1  0.608787  0.608737  0.250017  1
  Sn  Sn16  1  0.391263  0.000050  0.250017  1
  Sn  Sn17  1  0.999950  0.391213  0.250017  1
