# generated using pymatgen
data_Sm2Co7(As2Ru)3
_symmetry_space_group_name_H-M   'P 1'
_cell_length_a   3.87426100
_cell_length_b   10.87229600
_cell_length_c   12.39038000
_cell_angle_alpha   90.00000000
_cell_angle_beta   90.00000000
_cell_angle_gamma   90.00000000
_symmetry_Int_Tables_number   1
_chemical_formula_structural   Sm2Co7(As2Ru)3
_chemical_formula_sum   'Sm4 Co14 As12 Ru6'
_cell_volume   521.90897871
_cell_formula_units_Z   2
loop_
 _symmetry_equiv_pos_site_id
 _symmetry_equiv_pos_as_xyz
  1  'x, y, z'
loop_
 _atom_site_type_symbol
 _atom_site_label
 _atom_site_symmetry_multiplicity
 _atom_site_fract_x
 _atom_site_fract_y
 _atom_site_fract_z
 _atom_site_occupancy
  Sm  Sm0  1  0.250000  0.585527  0.704129  1
  Sm  Sm1  1  0.250000  0.914473  0.204129  1
  Sm  Sm2  1  0.750000  0.416092  0.294476  1
  Sm  Sm3  1  0.750000  0.083908  0.794476  1
  Co  Co4  1  0.750000  0.597520  0.511548  1
  Co  Co5  1  0.750000  0.902480  0.011548  1
  Co  Co6  1  0.250000  0.220393  0.177439  1
  Co  Co7  1  0.250000  0.279607  0.677439  1
  Co  Co8  1  0.750000  0.781926  0.823666  1
  Co  Co9  1  0.750000  0.718074  0.323666  1
  Co  Co10  1  0.250000  0.883300  0.698239  1
  Co  Co11  1  0.250000  0.616700  0.198239  1
  Co  Co12  1  0.750000  0.114833  0.301005  1
  Co  Co13  1  0.750000  0.385167  0.801005  1
  Co  Co14  1  0.250000  0.467512  0.932127  1
  Co  Co15  1  0.250000  0.032488  0.432127  1
  Co  Co16  1  0.750000  0.535171  0.067050  1
  Co  Co17  1  0.750000  0.964829  0.567050  1
  As  As18  1  0.250000  0.420175  0.112293  1
  As  As19  1  0.250000  0.079825  0.612293  1
  As  As20  1  0.750000  0.581828  0.886922  1
  As  As21  1  0.750000  0.918172  0.386922  1
  As  As22  1  0.250000  0.273871  0.866281  1
  As  As23  1  0.250000  0.226129  0.366281  1
  As  As24  1  0.750000  0.729200  0.132592  1
  As  As25  1  0.750000  0.770800  0.632592  1
  As  As26  1  0.250000  0.601640  0.387679  1
  As  As27  1  0.250000  0.898360  0.887679  1
  As  As28  1  0.750000  0.401482  0.613211  1
  As  As29  1  0.750000  0.098518  0.113211  1
  Ru  Ru30  1  0.250000  0.708734  0.989921  1
  Ru  Ru31  1  0.250000  0.791266  0.489921  1
  Ru  Ru32  1  0.750000  0.292529  0.012242  1
  Ru  Ru33  1  0.750000  0.207471  0.512242  1
  Ru  Ru34  1  0.250000  0.407264  0.489181  1
  Ru  Ru35  1  0.250000  0.092736  0.989181  1
