# generated using pymatgen
data_YbSc2(PaSb2)5
_symmetry_space_group_name_H-M   'P 1'
_cell_length_a   9.28730000
_cell_length_b   9.29097935
_cell_length_c   6.24608900
_cell_angle_alpha   90.00000000
_cell_angle_beta   90.00000000
_cell_angle_gamma   119.98690085
_symmetry_Int_Tables_number   1
_chemical_formula_structural   YbSc2(PaSb2)5
_chemical_formula_sum   'Yb1 Sc2 Pa5 Sb10'
_cell_volume   466.81744683
_cell_formula_units_Z   1
loop_
 _symmetry_equiv_pos_site_id
 _symmetry_equiv_pos_as_xyz
  1  'x, y, z'
loop_
 _atom_site_type_symbol
 _atom_site_label
 _atom_site_symmetry_multiplicity
 _atom_site_fract_x
 _atom_site_fract_y
 _atom_site_fract_z
 _atom_site_occupancy
  Yb  Yb0  1  0.379196  0.000000  0.750000  1
  Sc  Sc1  1  0.001015  0.000000  0.997909  1
  Sc  Sc2  1  0.001015  0.000000  0.502091  1
  Pa  Pa3  1  0.388037  0.384593  0.250000  1
  Pa  Pa4  1  0.003443  0.615407  0.250000  1
  Pa  Pa5  1  0.000637  0.390175  0.750000  1
  Pa  Pa6  1  0.610463  0.609825  0.750000  1
  Pa  Pa7  1  0.613166  0.000000  0.250000  1
  Sb  Sb8  1  0.669721  0.333855  0.498139  1
  Sb  Sb9  1  0.335865  0.666145  0.001861  1
  Sb  Sb10  1  0.729947  0.000000  0.750000  1
  Sb  Sb11  1  0.731765  0.731953  0.250000  1
  Sb  Sb12  1  0.335865  0.666145  0.498139  1
  Sb  Sb13  1  0.669721  0.333855  0.001861  1
  Sb  Sb14  1  0.267276  0.000000  0.250000  1
  Sb  Sb15  1  0.267256  0.271454  0.750000  1
  Sb  Sb16  1  0.995802  0.728546  0.750000  1
  Sb  Sb17  1  0.999811  0.268047  0.250000  1
