# generated using pymatgen
data_Ta9Mn10Nb3(CrN2)2
_symmetry_space_group_name_H-M   'P 1'
_cell_length_a   8.04958523
_cell_length_b   8.05212698
_cell_length_c   8.06542566
_cell_angle_alpha   59.91095469
_cell_angle_beta   59.89397774
_cell_angle_gamma   59.89387033
_symmetry_Int_Tables_number   1
_chemical_formula_structural   Ta9Mn10Nb3(CrN2)2
_chemical_formula_sum   'Ta9 Mn10 Nb3 Cr2 N4'
_cell_volume   368.81285726
_cell_formula_units_Z   1
loop_
 _symmetry_equiv_pos_site_id
 _symmetry_equiv_pos_as_xyz
  1  'x, y, z'
loop_
 _atom_site_type_symbol
 _atom_site_label
 _atom_site_symmetry_multiplicity
 _atom_site_fract_x
 _atom_site_fract_y
 _atom_site_fract_z
 _atom_site_occupancy
  Ta  Ta0  1  0.804145  0.803460  0.196135  1
  Ta  Ta1  1  0.193284  0.193465  0.806979  1
  Ta  Ta2  1  0.805084  0.195716  0.805683  1
  Ta  Ta3  1  0.196150  0.804555  0.194163  1
  Ta  Ta4  1  0.196168  0.804165  0.805386  1
  Ta  Ta5  1  0.804873  0.196255  0.194061  1
  Ta  Ta6  1  0.446999  0.446998  0.053218  1
  Ta  Ta7  1  0.056223  0.055764  0.443964  1
  Ta  Ta8  1  0.445472  0.053753  0.444739  1
  Mn  Mn9  1  0.624308  0.624583  0.124965  1
  Mn  Mn10  1  0.623729  0.625840  0.625230  1
  Mn  Mn11  1  0.731099  0.421754  0.423623  1
  Mn  Mn12  1  0.421578  0.731665  0.423435  1
  Mn  Mn13  1  0.421767  0.421754  0.733640  1
  Mn  Mn14  1  0.421573  0.421396  0.422774  1
  Mn  Mn15  1  0.517978  0.828324  0.826573  1
  Mn  Mn16  1  0.828086  0.517970  0.826826  1
  Mn  Mn17  1  0.828143  0.828707  0.515738  1
  Mn  Mn18  1  0.828534  0.828645  0.827133  1
  Nb  Nb19  1  0.053506  0.445815  0.055649  1
  Nb  Nb20  1  0.053968  0.445476  0.444769  1
  Nb  Nb21  1  0.445506  0.053639  0.056117  1
  Cr  Cr22  1  0.124838  0.626285  0.624312  1
  Cr  Cr23  1  0.625587  0.125057  0.623882  1
  N  N24  1  0.626169  0.125488  0.125541  1
  N  N25  1  0.126152  0.627224  0.123346  1
  N  N26  1  0.125596  0.122895  0.626057  1
  N  N27  1  0.123484  0.123353  0.126058  1
