# generated using pymatgen
data_Ac2Tb2As7Ir8
_symmetry_space_group_name_H-M   'P 1'
_cell_length_a   4.13727400
_cell_length_b   13.38051594
_cell_length_c   13.69442164
_cell_angle_alpha   98.12648756
_cell_angle_beta   90.00000000
_cell_angle_gamma   90.00000000
_symmetry_Int_Tables_number   1
_chemical_formula_structural   Ac2Tb2As7Ir8
_chemical_formula_sum   'Ac4 Tb4 As14 Ir16'
_cell_volume   750.49497794
_cell_formula_units_Z   2
loop_
 _symmetry_equiv_pos_site_id
 _symmetry_equiv_pos_as_xyz
  1  'x, y, z'
loop_
 _atom_site_type_symbol
 _atom_site_label
 _atom_site_symmetry_multiplicity
 _atom_site_fract_x
 _atom_site_fract_y
 _atom_site_fract_z
 _atom_site_occupancy
  Ac  Ac0  1  0.750000  0.286415  0.894680  1
  Ac  Ac1  1  0.250000  0.713585  0.105320  1
  Ac  Ac2  1  0.750000  0.103923  0.211473  1
  Ac  Ac3  1  0.250000  0.896077  0.788527  1
  Tb  Tb4  1  0.750000  0.206346  0.556912  1
  Tb  Tb5  1  0.250000  0.793654  0.443088  1
  Tb  Tb6  1  0.750000  0.520226  0.704460  1
  Tb  Tb7  1  0.250000  0.479774  0.295540  1
  As  As8  1  0.750000  0.742725  0.915782  1
  As  As9  1  0.250000  0.257275  0.084218  1
  As  As10  1  0.750000  0.903717  0.585261  1
  As  As11  1  0.250000  0.096283  0.414739  1
  As  As12  1  0.750000  0.527055  0.130345  1
  As  As13  1  0.250000  0.472945  0.869655  1
  As  As14  1  0.750000  0.843741  0.285456  1
  As  As15  1  0.250000  0.156259  0.714544  1
  As  As16  1  0.750000  0.606620  0.432141  1
  As  As17  1  0.250000  0.393380  0.567859  1
  As  As18  1  0.750000  0.318873  0.316126  1
  As  As19  1  0.250000  0.681127  0.683874  1
  As  As20  1  0.750000  0.057478  0.899762  1
  As  As21  1  0.250000  0.942522  0.100238  1
  Ir  Ir22  1  0.750000  0.346525  0.143540  1
  Ir  Ir23  1  0.250000  0.653475  0.856460  1
  Ir  Ir24  1  0.750000  0.721149  0.595110  1
  Ir  Ir25  1  0.250000  0.278851  0.404890  1
  Ir  Ir26  1  0.750000  0.919215  0.001664  1
  Ir  Ir27  1  0.250000  0.080785  0.998336  1
  Ir  Ir28  1  0.750000  0.426099  0.478597  1
  Ir  Ir29  1  0.250000  0.573901  0.521403  1
  Ir  Ir30  1  0.750000  0.059116  0.718476  1
  Ir  Ir31  1  0.250000  0.940884  0.281524  1
  Ir  Ir32  1  0.750000  0.551238  0.950513  1
  Ir  Ir33  1  0.250000  0.448762  0.049487  1
  Ir  Ir34  1  0.750000  0.661421  0.270554  1
  Ir  Ir35  1  0.250000  0.338579  0.729446  1
  Ir  Ir36  1  0.750000  0.989400  0.426962  1
  Ir  Ir37  1  0.250000  0.010600  0.573038  1
