# generated using pymatgen
data_PrDy9(Cd2Pt)4
_symmetry_space_group_name_H-M   'P 1'
_cell_length_a   3.68187700
_cell_length_b   7.98928240
_cell_length_c   18.50246190
_cell_angle_alpha   89.68444509
_cell_angle_beta   90.00000000
_cell_angle_gamma   90.00000000
_symmetry_Int_Tables_number   1
_chemical_formula_structural   PrDy9(Cd2Pt)4
_chemical_formula_sum   'Pr1 Dy9 Cd8 Pt4'
_cell_volume   544.25193355
_cell_formula_units_Z   1
loop_
 _symmetry_equiv_pos_site_id
 _symmetry_equiv_pos_as_xyz
  1  'x, y, z'
loop_
 _atom_site_type_symbol
 _atom_site_label
 _atom_site_symmetry_multiplicity
 _atom_site_fract_x
 _atom_site_fract_y
 _atom_site_fract_z
 _atom_site_occupancy
  Pr  Pr0  1  0.000000  0.000000  0.000000  1
  Dy  Dy1  1  0.000000  0.113960  0.413663  1
  Dy  Dy2  1  0.000000  0.886040  0.586337  1
  Dy  Dy3  1  0.000000  0.385235  0.913549  1
  Dy  Dy4  1  0.000000  0.614765  0.086451  1
  Dy  Dy5  1  0.000000  0.243592  0.219838  1
  Dy  Dy6  1  0.000000  0.756408  0.780162  1
  Dy  Dy7  1  0.000000  0.256488  0.719241  1
  Dy  Dy8  1  0.000000  0.743512  0.280759  1
  Dy  Dy9  1  0.000000  0.500000  0.500000  1
  Cd  Cd10  1  0.500000  0.429245  0.353371  1
  Cd  Cd11  1  0.500000  0.570755  0.646629  1
  Cd  Cd12  1  0.500000  0.072103  0.850693  1
  Cd  Cd13  1  0.500000  0.927897  0.149307  1
  Cd  Cd14  1  0.500000  0.292400  0.068015  1
  Cd  Cd15  1  0.500000  0.707600  0.931985  1
  Cd  Cd16  1  0.500000  0.213435  0.566488  1
  Cd  Cd17  1  0.500000  0.786565  0.433512  1
  Pt  Pt18  1  0.500000  0.028276  0.303930  1
  Pt  Pt19  1  0.500000  0.971724  0.696070  1
  Pt  Pt20  1  0.500000  0.472127  0.803548  1
  Pt  Pt21  1  0.500000  0.527873  0.196452  1
