# generated using pymatgen
data_TbDy5Al24(Ru3Pt)2
_symmetry_space_group_name_H-M   'P 1'
_cell_length_a   8.82550532
_cell_length_b   8.80172573
_cell_length_c   9.56843632
_cell_angle_alpha   90.04131896
_cell_angle_beta   90.08624877
_cell_angle_gamma   119.64173918
_symmetry_Int_Tables_number   1
_chemical_formula_structural   TbDy5Al24(Ru3Pt)2
_chemical_formula_sum   'Tb1 Dy5 Al24 Ru6 Pt2'
_cell_volume   646.00287002
_cell_formula_units_Z   1
loop_
 _symmetry_equiv_pos_site_id
 _symmetry_equiv_pos_as_xyz
  1  'x, y, z'
loop_
 _atom_site_type_symbol
 _atom_site_label
 _atom_site_symmetry_multiplicity
 _atom_site_fract_x
 _atom_site_fract_y
 _atom_site_fract_z
 _atom_site_occupancy
  Tb  Tb0  1  0.190849  0.385618  0.751833  1
  Dy  Dy1  1  0.384868  0.191861  0.248974  1
  Dy  Dy2  1  0.808338  0.194513  0.248470  1
  Dy  Dy3  1  0.808896  0.613785  0.248100  1
  Dy  Dy4  1  0.615184  0.808191  0.751028  1
  Dy  Dy5  1  0.191696  0.805617  0.751532  1
  Al  Al6  1  0.438211  0.875350  0.247414  1
  Al  Al7  1  0.122049  0.560583  0.251036  1
  Al  Al8  1  0.437753  0.562729  0.247148  1
  Al  Al9  1  0.561792  0.124629  0.752620  1
  Al  Al10  1  0.877739  0.439516  0.748947  1
  Al  Al11  1  0.562528  0.437346  0.752882  1
  Al  Al12  1  0.157890  0.832716  0.421588  1
  Al  Al13  1  0.157588  0.324417  0.421461  1
  Al  Al14  1  0.677399  0.838429  0.421220  1
  Al  Al15  1  0.841905  0.167204  0.578248  1
  Al  Al16  1  0.842398  0.675594  0.578289  1
  Al  Al17  1  0.322692  0.161484  0.578617  1
  Al  Al18  1  0.836205  0.162888  0.923531  1
  Al  Al19  1  0.836326  0.672926  0.923756  1
  Al  Al20  1  0.326407  0.162928  0.924836  1
  Al  Al21  1  0.163611  0.837025  0.076627  1
  Al  Al22  1  0.163705  0.327105  0.076504  1
  Al  Al23  1  0.673710  0.836999  0.075330  1
  Al  Al24  1  0.327148  0.664205  0.523745  1
  Al  Al25  1  0.672931  0.335999  0.476025  1
  Al  Al26  1  0.666928  0.333134  0.022513  1
  Al  Al27  1  0.333181  0.667052  0.977688  1
  Al  Al28  1  0.002159  0.000704  0.249607  1
  Al  Al29  1  0.997643  0.998888  0.750388  1
  Ru  Ru30  1  0.999995  0.000001  0.499982  1
  Ru  Ru31  1  0.999994  0.999992  0.000012  1
  Ru  Ru32  1  0.999909  0.500096  0.499866  1
  Ru  Ru33  1  0.500042  0.000094  0.000065  1
  Ru  Ru34  1  0.999914  0.500102  0.000127  1
  Ru  Ru35  1  0.500185  0.500076  0.000128  1
  Pt  Pt36  1  0.500064  0.000097  0.499973  1
  Pt  Pt37  1  0.500165  0.500104  0.499887  1
