# generated using pymatgen
data_Nd3Ho3Mg2(Co4P3)4
_symmetry_space_group_name_H-M   'P 1'
_cell_length_a   3.75800700
_cell_length_b   10.68844702
_cell_length_c   12.36352117
_cell_angle_alpha   89.95008368
_cell_angle_beta   90.00000000
_cell_angle_gamma   90.00000000
_symmetry_Int_Tables_number   1
_chemical_formula_structural   Nd3Ho3Mg2(Co4P3)4
_chemical_formula_sum   'Nd3 Ho3 Mg2 Co16 P12'
_cell_volume   496.60856491
_cell_formula_units_Z   1
loop_
 _symmetry_equiv_pos_site_id
 _symmetry_equiv_pos_as_xyz
  1  'x, y, z'
loop_
 _atom_site_type_symbol
 _atom_site_label
 _atom_site_symmetry_multiplicity
 _atom_site_fract_x
 _atom_site_fract_y
 _atom_site_fract_z
 _atom_site_occupancy
  Nd  Nd0  1  0.000000  0.500499  0.525753  1
  Nd  Nd1  1  0.500000  0.999645  0.473266  1
  Nd  Nd2  1  0.000000  0.321968  0.793561  1
  Ho  Ho3  1  0.500000  0.821846  0.206411  1
  Ho  Ho4  1  0.500000  0.177594  0.204793  1
  Ho  Ho5  1  0.000000  0.679503  0.794663  1
  Mg  Mg6  1  0.500000  0.500419  0.154181  1
  Mg  Mg7  1  0.000000  0.999240  0.846065  1
  Co  Co8  1  0.500000  0.504535  0.708306  1
  Co  Co9  1  0.000000  0.999289  0.291441  1
  Co  Co10  1  0.000000  0.501824  0.990380  1
  Co  Co11  1  0.500000  0.998488  0.012845  1
  Co  Co12  1  0.500000  0.332608  0.998494  1
  Co  Co13  1  0.500000  0.669110  0.998106  1
  Co  Co14  1  0.000000  0.166194  0.005444  1
  Co  Co15  1  0.000000  0.832355  0.004038  1
  Co  Co16  1  0.500000  0.295902  0.428189  1
  Co  Co17  1  0.500000  0.704207  0.430616  1
  Co  Co18  1  0.000000  0.202816  0.566016  1
  Co  Co19  1  0.000000  0.796394  0.569125  1
  Co  Co20  1  0.500000  0.877517  0.708609  1
  Co  Co21  1  0.500000  0.119255  0.705508  1
  Co  Co22  1  0.000000  0.621945  0.292130  1
  Co  Co23  1  0.000000  0.377971  0.291031  1
  P  P24  1  0.500000  0.503323  0.888106  1
  P  P25  1  0.000000  0.998907  0.114903  1
  P  P26  1  0.500000  0.500084  0.351039  1
  P  P27  1  0.000000  0.999980  0.648384  1
  P  P28  1  0.500000  0.304300  0.611960  1
  P  P29  1  0.500000  0.694563  0.616735  1
  P  P30  1  0.000000  0.192997  0.381244  1
  P  P31  1  0.000000  0.806066  0.383314  1
  P  P32  1  0.500000  0.838835  0.894118  1
  P  P33  1  0.500000  0.158866  0.897233  1
  P  P34  1  0.000000  0.662111  0.107514  1
  P  P35  1  0.000000  0.338845  0.106479  1
