# generated using pymatgen
data_Bi2Mo(SeO4)3
_symmetry_space_group_name_H-M   'P 1'
_cell_length_a   6.83077140
_cell_length_b   7.27189682
_cell_length_c   11.25704123
_cell_angle_alpha   85.63655707
_cell_angle_beta   72.47934097
_cell_angle_gamma   86.11891345
_symmetry_Int_Tables_number   1
_chemical_formula_structural   Bi2Mo(SeO4)3
_chemical_formula_sum   'Bi4 Mo2 Se6 O24'
_cell_volume   531.09107381
_cell_formula_units_Z   2
loop_
 _symmetry_equiv_pos_site_id
 _symmetry_equiv_pos_as_xyz
  1  'x, y, z'
loop_
 _atom_site_type_symbol
 _atom_site_label
 _atom_site_symmetry_multiplicity
 _atom_site_fract_x
 _atom_site_fract_y
 _atom_site_fract_z
 _atom_site_occupancy
  Bi  Bi0  1  0.733909  0.641940  0.496049  1
  Bi  Bi1  1  0.266091  0.358060  0.503951  1
  Bi  Bi2  1  0.215673  0.188676  0.167213  1
  Bi  Bi3  1  0.784327  0.811324  0.832787  1
  Mo  Mo4  1  0.719870  0.893059  0.206629  1
  Mo  Mo5  1  0.280130  0.106941  0.793371  1
  Se  Se6  1  0.192934  0.662107  0.217346  1
  Se  Se7  1  0.807066  0.337893  0.782654  1
  Se  Se8  1  0.658614  0.356159  0.140738  1
  Se  Se9  1  0.341386  0.643841  0.859262  1
  Se  Se10  1  0.793400  0.140625  0.487337  1
  Se  Se11  1  0.206600  0.859375  0.512663  1
  O  O12  1  0.692285  0.675468  0.299763  1
  O  O13  1  0.307715  0.324532  0.700237  1
  O  O14  1  0.718743  0.969150  0.411171  1
  O  O15  1  0.281257  0.030850  0.588829  1
  O  O16  1  0.455061  0.970690  0.238343  1
  O  O17  1  0.544939  0.029310  0.761657  1
  O  O18  1  0.814354  0.163747  0.176447  1
  O  O19  1  0.185646  0.836253  0.823553  1
  O  O20  1  0.776400  0.824295  0.052488  1
  O  O21  1  0.223600  0.175705  0.947512  1
  O  O22  1  0.049157  0.863306  0.193800  1
  O  O23  1  0.950843  0.136694  0.806200  1
  O  O24  1  0.098544  0.496349  0.150655  1
  O  O25  1  0.901456  0.503651  0.849345  1
  O  O26  1  0.077696  0.607451  0.379396  1
  O  O27  1  0.922304  0.392549  0.620604  1
  O  O28  1  0.556156  0.271506  0.035748  1
  O  O29  1  0.443844  0.728494  0.964252  1
  O  O30  1  0.428803  0.350072  0.262812  1
  O  O31  1  0.571197  0.649928  0.737188  1
  O  O32  1  0.041771  0.185670  0.392380  1
  O  O33  1  0.958229  0.814330  0.607620  1
  O  O34  1  0.652019  0.338632  0.453657  1
  O  O35  1  0.347981  0.661368  0.546343  1
