# generated using pymatgen
data_Mg10B6Ir13Rh
_symmetry_space_group_name_H-M   'P 1'
_cell_length_a   2.92613700
_cell_length_b   11.46723747
_cell_length_c   12.06884555
_cell_angle_alpha   89.94194654
_cell_angle_beta   90.00000000
_cell_angle_gamma   90.00000000
_symmetry_Int_Tables_number   1
_chemical_formula_structural   Mg10B6Ir13Rh
_chemical_formula_sum   'Mg10 B6 Ir13 Rh1'
_cell_volume   404.96637864
_cell_formula_units_Z   1
loop_
 _symmetry_equiv_pos_site_id
 _symmetry_equiv_pos_as_xyz
  1  'x, y, z'
loop_
 _atom_site_type_symbol
 _atom_site_label
 _atom_site_symmetry_multiplicity
 _atom_site_fract_x
 _atom_site_fract_y
 _atom_site_fract_z
 _atom_site_occupancy
  Mg  Mg0  1  0.500000  0.751101  0.199750  1
  Mg  Mg1  1  0.500000  0.249951  0.799404  1
  Mg  Mg2  1  0.500000  0.450845  0.128100  1
  Mg  Mg3  1  0.500000  0.549281  0.871913  1
  Mg  Mg4  1  0.500000  0.048047  0.127580  1
  Mg  Mg5  1  0.500000  0.950391  0.872730  1
  Mg  Mg6  1  0.500000  0.371535  0.351729  1
  Mg  Mg7  1  0.500000  0.628528  0.648171  1
  Mg  Mg8  1  0.500000  0.128526  0.351635  1
  Mg  Mg9  1  0.500000  0.871541  0.648337  1
  B  B10  1  0.500000  0.748236  0.965258  1
  B  B11  1  0.500000  0.249696  0.034147  1
  B  B12  1  0.500000  0.887095  0.406148  1
  B  B13  1  0.500000  0.112470  0.594329  1
  B  B14  1  0.500000  0.612723  0.405830  1
  B  B15  1  0.500000  0.387389  0.594155  1
  Ir  Ir16  1  0.000000  0.000040  0.500425  1
  Ir  Ir17  1  0.000000  0.499945  0.499923  1
  Ir  Ir18  1  0.000000  0.750332  0.828618  1
  Ir  Ir19  1  0.000000  0.249765  0.171610  1
  Ir  Ir20  1  0.000000  0.749927  0.465081  1
  Ir  Ir21  1  0.000000  0.249977  0.535481  1
  Ir  Ir22  1  0.000000  0.130022  0.956504  1
  Ir  Ir23  1  0.000000  0.630613  0.043247  1
  Ir  Ir24  1  0.000000  0.370591  0.956819  1
  Ir  Ir25  1  0.000000  0.927872  0.280946  1
  Ir  Ir26  1  0.000000  0.072457  0.720153  1
  Ir  Ir27  1  0.000000  0.573285  0.280029  1
  Ir  Ir28  1  0.000000  0.427290  0.719916  1
  Rh  Rh29  1  0.000000  0.870529  0.042031  1
