# generated using pymatgen
data_YTa2Ti(NbSn2)3
_symmetry_space_group_name_H-M   'P 1'
_cell_length_a   5.78913004
_cell_length_b   5.79057696
_cell_length_c   9.63311900
_cell_angle_alpha   90.00000000
_cell_angle_beta   90.00000000
_cell_angle_gamma   120.21323349
_symmetry_Int_Tables_number   1
_chemical_formula_structural   YTa2Ti(NbSn2)3
_chemical_formula_sum   'Y1 Ta2 Ti1 Nb3 Sn6'
_cell_volume   279.05867250
_cell_formula_units_Z   1
loop_
 _symmetry_equiv_pos_site_id
 _symmetry_equiv_pos_as_xyz
  1  'x, y, z'
loop_
 _atom_site_type_symbol
 _atom_site_label
 _atom_site_symmetry_multiplicity
 _atom_site_fract_x
 _atom_site_fract_y
 _atom_site_fract_z
 _atom_site_occupancy
  Y  Y0  1  0.000000  0.000000  0.997162  1
  Ta  Ta1  1  0.000000  0.500000  0.750590  1
  Ta  Ta2  1  0.500000  0.000000  0.752915  1
  Ti  Ti3  1  0.000000  0.500000  0.249119  1
  Nb  Nb4  1  0.500000  0.500000  0.752491  1
  Nb  Nb5  1  0.500000  0.500000  0.249520  1
  Nb  Nb6  1  0.500000  0.000000  0.250014  1
  Sn  Sn7  1  0.669620  0.334252  0.499649  1
  Sn  Sn8  1  0.330380  0.665748  0.499649  1
  Sn  Sn9  1  0.669027  0.334356  0.001927  1
  Sn  Sn10  1  0.330973  0.665644  0.001927  1
  Sn  Sn11  1  0.000000  0.000000  0.668145  1
  Sn  Sn12  1  0.000000  0.000000  0.326894  1
