# generated using pymatgen
data_La2Tm3Tl4
_symmetry_space_group_name_H-M   'P 1'
_cell_length_a   8.13388000
_cell_length_b   8.27655200
_cell_length_c   16.10984900
_cell_angle_alpha   90.00000000
_cell_angle_beta   90.00000000
_cell_angle_gamma   90.00000000
_symmetry_Int_Tables_number   1
_chemical_formula_structural   La2Tm3Tl4
_chemical_formula_sum   'La8 Tm12 Tl16'
_cell_volume   1084.52278000
_cell_formula_units_Z   4
loop_
 _symmetry_equiv_pos_site_id
 _symmetry_equiv_pos_as_xyz
  1  'x, y, z'
loop_
 _atom_site_type_symbol
 _atom_site_label
 _atom_site_symmetry_multiplicity
 _atom_site_fract_x
 _atom_site_fract_y
 _atom_site_fract_z
 _atom_site_occupancy
  La  La0  1  0.512877  0.319329  0.903379  1
  La  La1  1  0.012877  0.180671  0.596621  1
  La  La2  1  0.487123  0.680671  0.403379  1
  La  La3  1  0.987123  0.819329  0.096621  1
  La  La4  1  0.487123  0.680671  0.096621  1
  La  La5  1  0.987123  0.819329  0.403379  1
  La  La6  1  0.512877  0.319329  0.596621  1
  La  La7  1  0.012877  0.180671  0.903379  1
  Tm  Tm8  1  0.356398  0.839534  0.875139  1
  Tm  Tm9  1  0.856398  0.660466  0.624861  1
  Tm  Tm10  1  0.643602  0.160466  0.375139  1
  Tm  Tm11  1  0.143602  0.339534  0.124861  1
  Tm  Tm12  1  0.643602  0.160466  0.124861  1
  Tm  Tm13  1  0.143602  0.339534  0.375139  1
  Tm  Tm14  1  0.356398  0.839534  0.624861  1
  Tm  Tm15  1  0.856398  0.660466  0.875139  1
  Tm  Tm16  1  0.192083  0.504742  0.750000  1
  Tm  Tm17  1  0.692083  0.995258  0.750000  1
  Tm  Tm18  1  0.807917  0.495258  0.250000  1
  Tm  Tm19  1  0.307917  0.004742  0.250000  1
  Tl  Tl20  1  0.311858  0.040754  0.040063  1
  Tl  Tl21  1  0.811858  0.459246  0.459937  1
  Tl  Tl22  1  0.688142  0.959246  0.540063  1
  Tl  Tl23  1  0.188142  0.540754  0.959937  1
  Tl  Tl24  1  0.688142  0.959246  0.959937  1
  Tl  Tl25  1  0.188142  0.540754  0.540063  1
  Tl  Tl26  1  0.311858  0.040754  0.459937  1
  Tl  Tl27  1  0.811858  0.459246  0.040063  1
  Tl  Tl28  1  0.553306  0.625016  0.750000  1
  Tl  Tl29  1  0.053306  0.874984  0.750000  1
  Tl  Tl30  1  0.446694  0.374984  0.250000  1
  Tl  Tl31  1  0.946694  0.125016  0.250000  1
  Tl  Tl32  1  0.318418  0.137847  0.750000  1
  Tl  Tl33  1  0.818418  0.362153  0.750000  1
  Tl  Tl34  1  0.681582  0.862153  0.250000  1
  Tl  Tl35  1  0.181582  0.637847  0.250000  1
