# generated using pymatgen
data_Tb2Dy3Ho5Ir4
_symmetry_space_group_name_H-M   'P 1'
_cell_length_a   6.47708649
_cell_length_b   7.20228796
_cell_length_c   8.53892163
_cell_angle_alpha   96.58633178
_cell_angle_beta   112.37715841
_cell_angle_gamma   90.02666340
_symmetry_Int_Tables_number   1
_chemical_formula_structural   Tb2Dy3Ho5Ir4
_chemical_formula_sum   'Tb2 Dy3 Ho5 Ir4'
_cell_volume   365.49000950
_cell_formula_units_Z   1
loop_
 _symmetry_equiv_pos_site_id
 _symmetry_equiv_pos_as_xyz
  1  'x, y, z'
loop_
 _atom_site_type_symbol
 _atom_site_label
 _atom_site_symmetry_multiplicity
 _atom_site_fract_x
 _atom_site_fract_y
 _atom_site_fract_z
 _atom_site_occupancy
  Tb  Tb0  1  0.972745  0.917812  0.183492  1
  Tb  Tb1  1  0.788782  0.582034  0.816437  1
  Dy  Dy2  1  0.027612  0.082755  0.816842  1
  Dy  Dy3  1  0.211031  0.417428  0.183635  1
  Dy  Dy4  1  0.652527  0.817329  0.441106  1
  Ho  Ho5  1  0.211614  0.682512  0.559208  1
  Ho  Ho6  1  0.347445  0.183137  0.559644  1
  Ho  Ho7  1  0.788094  0.317164  0.440494  1
  Ho  Ho8  1  0.427233  0.749869  0.999715  1
  Ho  Ho9  1  0.572232  0.249928  0.000020  1
  Ir  Ir10  1  0.824484  0.572257  0.220987  1
  Ir  Ir11  1  0.602766  0.927551  0.779261  1
  Ir  Ir12  1  0.176212  0.426591  0.778548  1
  Ir  Ir13  1  0.397223  0.073632  0.220613  1
