# generated using pymatgen
data_Ta8NbSi2B4Mo
_symmetry_space_group_name_H-M   'P 1'
_cell_length_a   7.27799018
_cell_length_b   7.27836891
_cell_length_c   7.27872176
_cell_angle_alpha   129.44327802
_cell_angle_beta   129.43310698
_cell_angle_gamma   74.32342368
_symmetry_Int_Tables_number   1
_chemical_formula_structural   Ta8NbSi2B4Mo
_chemical_formula_sum   'Ta8 Nb1 Si2 B4 Mo1'
_cell_volume   224.15762462
_cell_formula_units_Z   1
loop_
 _symmetry_equiv_pos_site_id
 _symmetry_equiv_pos_as_xyz
  1  'x, y, z'
loop_
 _atom_site_type_symbol
 _atom_site_label
 _atom_site_symmetry_multiplicity
 _atom_site_fract_x
 _atom_site_fract_y
 _atom_site_fract_z
 _atom_site_occupancy
  Ta  Ta0  1  0.303322  0.807654  0.833759  1
  Ta  Ta1  1  0.192057  0.026072  0.495557  1
  Ta  Ta2  1  0.530570  0.696797  0.504683  1
  Ta  Ta3  1  0.026394  0.531226  0.834337  1
  Ta  Ta4  1  0.696608  0.192322  0.165700  1
  Ta  Ta5  1  0.974076  0.469192  0.166082  1
  Ta  Ta6  1  0.500342  0.500532  0.000495  1
  Ta  Ta7  1  0.469158  0.303165  0.495316  1
  Nb  Nb8  1  0.808297  0.973704  0.504242  1
  Si  Si9  1  0.747130  0.747088  0.999719  1
  Si  Si10  1  0.253005  0.253047  0.000179  1
  B  B11  1  0.380894  0.881029  0.262535  1
  B  B12  1  0.881456  0.617408  0.499393  1
  B  B13  1  0.617769  0.119016  0.737351  1
  B  B14  1  0.118925  0.381703  0.500653  1
  Mo  Mo15  1  0.999997  0.000045  0.000000  1
