# generated using pymatgen
data_Pr2CuNi4As3
_symmetry_space_group_name_H-M   'P 1'
_cell_length_a   4.17066000
_cell_length_b   4.17066000
_cell_length_c   9.56565700
_cell_angle_alpha   90.00000000
_cell_angle_beta   90.00000000
_cell_angle_gamma   90.00000000
_symmetry_Int_Tables_number   1
_chemical_formula_structural   Pr2CuNi4As3
_chemical_formula_sum   'Pr2 Cu1 Ni4 As3'
_cell_volume   166.38891038
_cell_formula_units_Z   1
loop_
 _symmetry_equiv_pos_site_id
 _symmetry_equiv_pos_as_xyz
  1  'x, y, z'
loop_
 _atom_site_type_symbol
 _atom_site_label
 _atom_site_symmetry_multiplicity
 _atom_site_fract_x
 _atom_site_fract_y
 _atom_site_fract_z
 _atom_site_occupancy
  Pr  Pr0  1  0.000000  0.500000  0.248126  1
  Pr  Pr1  1  0.500000  0.000000  0.751874  1
  Cu  Cu2  1  0.000000  0.000000  0.500000  1
  Ni  Ni3  1  0.000000  0.000000  0.000000  1
  Ni  Ni4  1  0.500000  0.500000  0.000000  1
  Ni  Ni5  1  0.000000  0.500000  0.619887  1
  Ni  Ni6  1  0.500000  0.000000  0.380113  1
  As  As7  1  0.500000  0.500000  0.500000  1
  As  As8  1  0.000000  0.500000  0.868535  1
  As  As9  1  0.500000  0.000000  0.131465  1
