# generated using pymatgen
data_Sm3Mg3Hg2Pb
_symmetry_space_group_name_H-M   'P 1'
_cell_length_a   7.69052800
_cell_length_b   7.69052797
_cell_length_c   4.59334800
_cell_angle_alpha   90.00000000
_cell_angle_beta   90.00000000
_cell_angle_gamma   120.00000875
_symmetry_Int_Tables_number   1
_chemical_formula_structural   Sm3Mg3Hg2Pb
_chemical_formula_sum   'Sm3 Mg3 Hg2 Pb1'
_cell_volume   235.27309003
_cell_formula_units_Z   1
loop_
 _symmetry_equiv_pos_site_id
 _symmetry_equiv_pos_as_xyz
  1  'x, y, z'
loop_
 _atom_site_type_symbol
 _atom_site_label
 _atom_site_symmetry_multiplicity
 _atom_site_fract_x
 _atom_site_fract_y
 _atom_site_fract_z
 _atom_site_occupancy
  Sm  Sm0  1  0.413418  0.992343  0.000000  1
  Sm  Sm1  1  0.007657  0.421074  0.000000  1
  Sm  Sm2  1  0.578927  0.586582  0.000000  1
  Mg  Mg3  1  0.753146  0.990765  0.499999  1
  Mg  Mg4  1  0.237619  0.246853  0.499999  1
  Mg  Mg5  1  0.009235  0.762381  0.499999  1
  Hg  Hg6  1  0.000000  0.000000  0.000000  1
  Hg  Hg7  1  0.333334  0.666667  0.499999  1
  Pb  Pb8  1  0.666666  0.333333  0.499999  1
