# generated using pymatgen
data_V17Co2Si12Os
_symmetry_space_group_name_H-M   'P 1'
_cell_length_a   6.98626343
_cell_length_b   6.98626425
_cell_length_c   13.14011300
_cell_angle_alpha   90.00000000
_cell_angle_beta   90.00000000
_cell_angle_gamma   140.03127598
_symmetry_Int_Tables_number   1
_chemical_formula_structural   V17Co2Si12Os
_chemical_formula_sum   'V17 Co2 Si12 Os1'
_cell_volume   411.97786232
_cell_formula_units_Z   1
loop_
 _symmetry_equiv_pos_site_id
 _symmetry_equiv_pos_as_xyz
  1  'x, y, z'
loop_
 _atom_site_type_symbol
 _atom_site_label
 _atom_site_symmetry_multiplicity
 _atom_site_fract_x
 _atom_site_fract_y
 _atom_site_fract_z
 _atom_site_occupancy
  V  V0  1  0.070610  0.421932  0.398656  1
  V  V1  1  0.571194  0.932055  0.903319  1
  V  V2  1  0.421932  0.070610  0.601344  1
  V  V3  1  0.932055  0.571194  0.096681  1
  V  V4  1  0.849765  0.653068  0.679554  1
  V  V5  1  0.350441  0.152095  0.176837  1
  V  V6  1  0.653068  0.849765  0.320446  1
  V  V7  1  0.152095  0.350441  0.823163  1
  V  V8  1  0.653068  0.849765  0.679554  1
  V  V9  1  0.152095  0.350441  0.176837  1
  V  V10  1  0.849765  0.653068  0.320446  1
  V  V11  1  0.350441  0.152095  0.823163  1
  V  V12  1  0.421932  0.070610  0.398656  1
  V  V13  1  0.932055  0.571194  0.903319  1
  V  V14  1  0.070610  0.421932  0.601344  1
  V  V15  1  0.571194  0.932055  0.096681  1
  V  V16  1  0.997888  0.997888  0.500000  1
  Co  Co17  1  0.501623  0.501623  0.000000  1
  Co  Co18  1  0.000940  0.000940  0.000000  1
  Si  Si19  1  0.250430  0.749673  0.751679  1
  Si  Si20  1  0.749673  0.250430  0.248321  1
  Si  Si21  1  0.749673  0.250430  0.751679  1
  Si  Si22  1  0.250430  0.749673  0.248321  1
  Si  Si23  1  0.243530  0.243530  0.666976  1
  Si  Si24  1  0.752612  0.752612  0.154230  1
  Si  Si25  1  0.243530  0.243530  0.333024  1
  Si  Si26  1  0.752612  0.752612  0.845770  1
  Si  Si27  1  0.584958  0.919036  0.500000  1
  Si  Si28  1  0.097371  0.405331  0.000000  1
  Si  Si29  1  0.919036  0.584958  0.500000  1
  Si  Si30  1  0.405331  0.097371  0.000000  1
  Os  Os31  1  0.498047  0.498047  0.500000  1
