# generated using pymatgen
data_Nd2V3As7Rh9
_symmetry_space_group_name_H-M   'P 1'
_cell_length_a   3.97272500
_cell_length_b   9.94964462
_cell_length_c   9.95027872
_cell_angle_alpha   119.98883384
_cell_angle_beta   90.00032189
_cell_angle_gamma   89.99981250
_symmetry_Int_Tables_number   1
_chemical_formula_structural   Nd2V3As7Rh9
_chemical_formula_sum   'Nd2 V3 As7 Rh9'
_cell_volume   340.65189160
_cell_formula_units_Z   1
loop_
 _symmetry_equiv_pos_site_id
 _symmetry_equiv_pos_as_xyz
  1  'x, y, z'
loop_
 _atom_site_type_symbol
 _atom_site_label
 _atom_site_symmetry_multiplicity
 _atom_site_fract_x
 _atom_site_fract_y
 _atom_site_fract_z
 _atom_site_occupancy
  Nd  Nd0  1  0.261688  0.666696  0.333365  1
  Nd  Nd1  1  0.761616  0.333361  0.666620  1
  V  V2  1  0.762076  0.097371  0.880736  1
  V  V3  1  0.762082  0.119235  0.216568  1
  V  V4  1  0.762092  0.783441  0.902763  1
  As  As5  1  0.262495  0.000063  0.000100  1
  As  As6  1  0.761851  0.885435  0.594652  1
  As  As7  1  0.761840  0.405305  0.290734  1
  As  As8  1  0.761849  0.709195  0.114601  1
  As  As9  1  0.261707  0.116235  0.409883  1
  As  As10  1  0.261731  0.590039  0.706301  1
  As  As11  1  0.261714  0.293708  0.883713  1
  Rh  Rh12  1  0.261906  0.882073  0.156430  1
  Rh  Rh13  1  0.261920  0.843630  0.725688  1
  Rh  Rh14  1  0.261917  0.274264  0.117940  1
  Rh  Rh15  1  0.761894  0.615827  0.565789  1
  Rh  Rh16  1  0.761875  0.434177  0.050003  1
  Rh  Rh17  1  0.761878  0.949983  0.384137  1
  Rh  Rh18  1  0.261961  0.371028  0.435639  1
  Rh  Rh19  1  0.261944  0.564332  0.935412  1
  Rh  Rh20  1  0.261965  0.064601  0.628926  1
