# generated using pymatgen
data_La7NdAl3Ga5Rh8
_symmetry_space_group_name_H-M   'P 1'
_cell_length_a   4.25181400
_cell_length_b   7.33449150
_cell_length_c   16.21015600
_cell_angle_alpha   90.36827529
_cell_angle_beta   90.00000000
_cell_angle_gamma   90.00000000
_symmetry_Int_Tables_number   1
_chemical_formula_structural   La7NdAl3Ga5Rh8
_chemical_formula_sum   'La7 Nd1 Al3 Ga5 Rh8'
_cell_volume   505.50154848
_cell_formula_units_Z   1
loop_
 _symmetry_equiv_pos_site_id
 _symmetry_equiv_pos_as_xyz
  1  'x, y, z'
loop_
 _atom_site_type_symbol
 _atom_site_label
 _atom_site_symmetry_multiplicity
 _atom_site_fract_x
 _atom_site_fract_y
 _atom_site_fract_z
 _atom_site_occupancy
  La  La0  1  0.750000  0.472985  0.218218  1
  La  La1  1  0.750000  0.974326  0.280568  1
  La  La2  1  0.250000  0.024668  0.720792  1
  La  La3  1  0.250000  0.658120  0.560973  1
  La  La4  1  0.750000  0.343884  0.439718  1
  La  La5  1  0.750000  0.838017  0.060491  1
  La  La6  1  0.250000  0.159081  0.940166  1
  Nd  Nd7  1  0.250000  0.523321  0.778924  1
  Al  Al8  1  0.750000  0.497704  0.936458  1
  Al  Al9  1  0.750000  0.999819  0.561047  1
  Al  Al10  1  0.250000  0.004592  0.440671  1
  Ga  Ga11  1  0.250000  0.647029  0.350611  1
  Ga  Ga12  1  0.750000  0.354641  0.651188  1
  Ga  Ga13  1  0.750000  0.850747  0.849706  1
  Ga  Ga14  1  0.250000  0.143585  0.148838  1
  Ga  Ga15  1  0.250000  0.505777  0.059910  1
  Rh  Rh16  1  0.250000  0.762182  0.180806  1
  Rh  Rh17  1  0.750000  0.238337  0.821695  1
  Rh  Rh18  1  0.750000  0.741821  0.677687  1
  Rh  Rh19  1  0.250000  0.259426  0.321369  1
  Rh  Rh20  1  0.250000  0.719716  0.928480  1
  Rh  Rh21  1  0.750000  0.276087  0.069546  1
  Rh  Rh22  1  0.750000  0.784141  0.429882  1
  Rh  Rh23  1  0.250000  0.219994  0.572254  1
