# generated using pymatgen
data_Zr3Ga3Ni3H2
_symmetry_space_group_name_H-M   'P 1'
_cell_length_a   6.79499600
_cell_length_b   6.79499587
_cell_length_c   3.66854200
_cell_angle_alpha   90.00000000
_cell_angle_beta   90.00000000
_cell_angle_gamma   120.00000065
_symmetry_Int_Tables_number   1
_chemical_formula_structural   Zr3Ga3Ni3H2
_chemical_formula_sum   'Zr3 Ga3 Ni3 H2'
_cell_volume   146.69068164
_cell_formula_units_Z   1
loop_
 _symmetry_equiv_pos_site_id
 _symmetry_equiv_pos_as_xyz
  1  'x, y, z'
loop_
 _atom_site_type_symbol
 _atom_site_label
 _atom_site_symmetry_multiplicity
 _atom_site_fract_x
 _atom_site_fract_y
 _atom_site_fract_z
 _atom_site_occupancy
  Zr  Zr0  1  0.401976  0.401976  0.500000  1
  Zr  Zr1  1  0.598024  0.000000  0.500000  1
  Zr  Zr2  1  0.000000  0.598024  0.500000  1
  Ga  Ga3  1  0.743927  0.743927  0.000000  1
  Ga  Ga4  1  0.256073  0.000000  0.000000  1
  Ga  Ga5  1  0.000000  0.256073  0.000000  1
  Ni  Ni6  1  0.000000  0.000000  0.500000  1
  Ni  Ni7  1  0.666667  0.333333  0.000000  1
  Ni  Ni8  1  0.333333  0.666667  0.000000  1
  H  H9  1  0.333333  0.666667  0.500000  1
  H  H10  1  0.666667  0.333333  0.500000  1
