# generated using pymatgen
data_DyFe3P3Pd2
_symmetry_space_group_name_H-M   'P 1'
_cell_length_a   3.76929700
_cell_length_b   10.39545500
_cell_length_c   12.48802900
_cell_angle_alpha   90.00000000
_cell_angle_beta   90.00000000
_cell_angle_gamma   90.00000000
_symmetry_Int_Tables_number   1
_chemical_formula_structural   DyFe3P3Pd2
_chemical_formula_sum   'Dy4 Fe12 P12 Pd8'
_cell_volume   489.32540045
_cell_formula_units_Z   4
loop_
 _symmetry_equiv_pos_site_id
 _symmetry_equiv_pos_as_xyz
  1  'x, y, z'
loop_
 _atom_site_type_symbol
 _atom_site_label
 _atom_site_symmetry_multiplicity
 _atom_site_fract_x
 _atom_site_fract_y
 _atom_site_fract_z
 _atom_site_occupancy
  Dy  Dy0  1  0.250000  0.578750  0.716496  1
  Dy  Dy1  1  0.250000  0.921250  0.216496  1
  Dy  Dy2  1  0.750000  0.421250  0.283504  1
  Dy  Dy3  1  0.750000  0.078750  0.783504  1
  Fe  Fe4  1  0.250000  0.222051  0.169256  1
  Fe  Fe5  1  0.250000  0.277949  0.669256  1
  Fe  Fe6  1  0.750000  0.777949  0.830744  1
  Fe  Fe7  1  0.750000  0.722051  0.330744  1
  Fe  Fe8  1  0.250000  0.874065  0.695665  1
  Fe  Fe9  1  0.250000  0.625935  0.195665  1
  Fe  Fe10  1  0.750000  0.125935  0.304335  1
  Fe  Fe11  1  0.750000  0.374065  0.804335  1
  Fe  Fe12  1  0.250000  0.456872  0.933821  1
  Fe  Fe13  1  0.250000  0.043128  0.433821  1
  Fe  Fe14  1  0.750000  0.543128  0.066179  1
  Fe  Fe15  1  0.750000  0.956872  0.566179  1
  P  P16  1  0.250000  0.433671  0.110461  1
  P  P17  1  0.250000  0.066329  0.610461  1
  P  P18  1  0.750000  0.566329  0.889539  1
  P  P19  1  0.750000  0.933671  0.389539  1
  P  P20  1  0.250000  0.274375  0.847399  1
  P  P21  1  0.250000  0.225625  0.347399  1
  P  P22  1  0.750000  0.725625  0.152601  1
  P  P23  1  0.750000  0.774375  0.652601  1
  P  P24  1  0.250000  0.608951  0.370418  1
  P  P25  1  0.250000  0.891049  0.870418  1
  P  P26  1  0.750000  0.391049  0.629582  1
  P  P27  1  0.750000  0.108951  0.129582  1
  Pd  Pd28  1  0.250000  0.709133  0.985626  1
  Pd  Pd29  1  0.250000  0.790867  0.485626  1
  Pd  Pd30  1  0.750000  0.290867  0.014374  1
  Pd  Pd31  1  0.750000  0.209133  0.514374  1
  Pd  Pd32  1  0.250000  0.407172  0.468944  1
  Pd  Pd33  1  0.250000  0.092828  0.968944  1
  Pd  Pd34  1  0.750000  0.592828  0.531056  1
  Pd  Pd35  1  0.750000  0.907172  0.031056  1
