# generated using pymatgen
data_Ho4Tm4B24MoOs3
_symmetry_space_group_name_H-M   'P 1'
_cell_length_a   3.63335900
_cell_length_b   9.12769572
_cell_length_c   11.51614603
_cell_angle_alpha   89.90480607
_cell_angle_beta   90.00000000
_cell_angle_gamma   90.00000000
_symmetry_Int_Tables_number   1
_chemical_formula_structural   Ho4Tm4B24MoOs3
_chemical_formula_sum   'Ho4 Tm4 B24 Mo1 Os3'
_cell_volume   381.92319006
_cell_formula_units_Z   1
loop_
 _symmetry_equiv_pos_site_id
 _symmetry_equiv_pos_as_xyz
  1  'x, y, z'
loop_
 _atom_site_type_symbol
 _atom_site_label
 _atom_site_symmetry_multiplicity
 _atom_site_fract_x
 _atom_site_fract_y
 _atom_site_fract_z
 _atom_site_occupancy
  Ho  Ho0  1  0.000000  0.321748  0.413216  1
  Ho  Ho1  1  0.000000  0.677710  0.584872  1
  Ho  Ho2  1  0.000000  0.820224  0.087246  1
  Ho  Ho3  1  0.000000  0.177880  0.914540  1
  Tm  Tm4  1  0.000000  0.944934  0.372821  1
  Tm  Tm5  1  0.000000  0.057529  0.628267  1
  Tm  Tm6  1  0.000000  0.443276  0.126873  1
  Tm  Tm7  1  0.000000  0.556866  0.871427  1
  B  B8  1  0.500000  0.551206  0.435388  1
  B  B9  1  0.500000  0.446118  0.568052  1
  B  B10  1  0.500000  0.053551  0.067068  1
  B  B11  1  0.500000  0.946216  0.933077  1
  B  B12  1  0.500000  0.751329  0.421423  1
  B  B13  1  0.500000  0.251516  0.581307  1
  B  B14  1  0.500000  0.248849  0.080494  1
  B  B15  1  0.500000  0.750871  0.918817  1
  B  B16  1  0.500000  0.794443  0.264731  1
  B  B17  1  0.500000  0.208525  0.734445  1
  B  B18  1  0.500000  0.290968  0.232936  1
  B  B19  1  0.500000  0.709133  0.765835  1
  B  B20  1  0.500000  0.631186  0.183023  1
  B  B21  1  0.500000  0.368698  0.815135  1
  B  B22  1  0.500000  0.130819  0.314003  1
  B  B23  1  0.500000  0.869889  0.685476  1
  B  B24  1  0.500000  0.982851  0.212940  1
  B  B25  1  0.500000  0.017648  0.787796  1
  B  B26  1  0.500000  0.478215  0.286243  1
  B  B27  1  0.500000  0.516882  0.713255  1
  B  B28  1  0.500000  0.604250  0.027465  1
  B  B29  1  0.500000  0.395252  0.970308  1
  B  B30  1  0.500000  0.105202  0.471476  1
  B  B31  1  0.500000  0.897517  0.529853  1
  Mo  Mo32  1  0.000000  0.637663  0.321058  1
  Os  Os33  1  0.000000  0.360968  0.680641  1
  Os  Os34  1  0.000000  0.137681  0.177755  1
  Os  Os35  1  0.000000  0.862385  0.820739  1
