# generated using pymatgen
data_TbEr7Zn3Si12Au
_symmetry_space_group_name_H-M   'P 1'
_cell_length_a   8.13078300
_cell_length_b   8.13078184
_cell_length_c   7.94772900
_cell_angle_alpha   90.00000000
_cell_angle_beta   90.00000000
_cell_angle_gamma   120.00000880
_symmetry_Int_Tables_number   1
_chemical_formula_structural   TbEr7Zn3Si12Au
_chemical_formula_sum   'Tb1 Er7 Zn3 Si12 Au1'
_cell_volume   455.02821019
_cell_formula_units_Z   1
loop_
 _symmetry_equiv_pos_site_id
 _symmetry_equiv_pos_as_xyz
  1  'x, y, z'
loop_
 _atom_site_type_symbol
 _atom_site_label
 _atom_site_symmetry_multiplicity
 _atom_site_fract_x
 _atom_site_fract_y
 _atom_site_fract_z
 _atom_site_occupancy
  Tb  Tb0  1  0.000000  0.000000  0.748641  1
  Er  Er1  1  0.501518  0.003036  0.252167  1
  Er  Er2  1  0.501365  0.002733  0.747732  1
  Er  Er3  1  0.996964  0.498482  0.252167  1
  Er  Er4  1  0.997267  0.498635  0.747732  1
  Er  Er5  1  0.501518  0.498482  0.252167  1
  Er  Er6  1  0.501365  0.498635  0.747732  1
  Er  Er7  1  0.000000  0.000000  0.251211  1
  Zn  Zn8  1  0.666667  0.333333  0.999850  1
  Zn  Zn9  1  0.666667  0.333333  0.500371  1
  Zn  Zn10  1  0.333333  0.666667  0.499811  1
  Si  Si11  1  0.163294  0.326589  0.001304  1
  Si  Si12  1  0.833015  0.666032  0.000980  1
  Si  Si13  1  0.673411  0.836706  0.001304  1
  Si  Si14  1  0.832562  0.665126  0.499063  1
  Si  Si15  1  0.333968  0.166985  0.000980  1
  Si  Si16  1  0.166330  0.332661  0.498866  1
  Si  Si17  1  0.163294  0.836706  0.001304  1
  Si  Si18  1  0.334874  0.167438  0.499063  1
  Si  Si19  1  0.833015  0.166985  0.000980  1
  Si  Si20  1  0.667339  0.833670  0.498866  1
  Si  Si21  1  0.832562  0.167438  0.499063  1
  Si  Si22  1  0.166330  0.833670  0.498866  1
  Au  Au23  1  0.333333  0.666667  0.999783  1
