# generated using pymatgen
data_Dy4Hf3ZnPt4
_symmetry_space_group_name_H-M   'P 1'
_cell_length_a   4.55500100
_cell_length_b   7.05005149
_cell_length_c   8.19961843
_cell_angle_alpha   86.81503037
_cell_angle_beta   90.00000000
_cell_angle_gamma   90.00000000
_symmetry_Int_Tables_number   1
_chemical_formula_structural   Dy4Hf3ZnPt4
_chemical_formula_sum   'Dy4 Hf3 Zn1 Pt4'
_cell_volume   262.90755530
_cell_formula_units_Z   1
loop_
 _symmetry_equiv_pos_site_id
 _symmetry_equiv_pos_as_xyz
  1  'x, y, z'
loop_
 _atom_site_type_symbol
 _atom_site_label
 _atom_site_symmetry_multiplicity
 _atom_site_fract_x
 _atom_site_fract_y
 _atom_site_fract_z
 _atom_site_occupancy
  Dy  Dy0  1  0.250000  0.469115  0.191712  1
  Dy  Dy1  1  0.750000  0.515104  0.813647  1
  Dy  Dy2  1  0.750000  0.043001  0.668972  1
  Dy  Dy3  1  0.250000  0.989866  0.336739  1
  Hf  Hf4  1  0.250000  0.853784  0.924960  1
  Hf  Hf5  1  0.750000  0.135179  0.070345  1
  Hf  Hf6  1  0.750000  0.642219  0.436194  1
  Zn  Zn7  1  0.250000  0.355287  0.570063  1
  Pt  Pt8  1  0.250000  0.735112  0.610210  1
  Pt  Pt9  1  0.750000  0.269094  0.373850  1
  Pt  Pt10  1  0.750000  0.762475  0.102198  1
  Pt  Pt11  1  0.250000  0.229765  0.901109  1
