# generated using pymatgen
data_Y6Er2Cd2IrPt
_symmetry_space_group_name_H-M   'P 1'
_cell_length_a   9.67052828
_cell_length_b   9.67052807
_cell_length_c   9.64784700
_cell_angle_alpha   60.07755087
_cell_angle_beta   60.07755159
_cell_angle_gamma   60.22379359
_symmetry_Int_Tables_number   1
_chemical_formula_structural   Y6Er2Cd2IrPt
_chemical_formula_sum   'Y12 Er4 Cd4 Ir2 Pt2'
_cell_volume   639.81549726
_cell_formula_units_Z   2
loop_
 _symmetry_equiv_pos_site_id
 _symmetry_equiv_pos_as_xyz
  1  'x, y, z'
loop_
 _atom_site_type_symbol
 _atom_site_label
 _atom_site_symmetry_multiplicity
 _atom_site_fract_x
 _atom_site_fract_y
 _atom_site_fract_z
 _atom_site_occupancy
  Y  Y0  1  0.805922  0.191047  0.191404  1
  Y  Y1  1  0.191047  0.805922  0.811627  1
  Y  Y2  1  0.191047  0.805922  0.191404  1
  Y  Y3  1  0.805922  0.191047  0.811627  1
  Y  Y4  1  0.192232  0.192232  0.807768  1
  Y  Y5  1  0.810373  0.810373  0.189627  1
  Y  Y6  1  0.938238  0.563646  0.561268  1
  Y  Y7  1  0.563646  0.938238  0.936849  1
  Y  Y8  1  0.563646  0.938238  0.561268  1
  Y  Y9  1  0.938238  0.563646  0.936849  1
  Y  Y10  1  0.562747  0.562747  0.937253  1
  Y  Y11  1  0.937829  0.937829  0.562171  1
  Er  Er12  1  0.350043  0.350043  0.345553  1
  Er  Er13  1  0.350043  0.350043  0.954363  1
  Er  Er14  1  0.355097  0.946675  0.349115  1
  Er  Er15  1  0.946675  0.355097  0.349115  1
  Cd  Cd16  1  0.580679  0.580679  0.581318  1
  Cd  Cd17  1  0.580679  0.580679  0.257324  1
  Cd  Cd18  1  0.580564  0.256910  0.581263  1
  Cd  Cd19  1  0.256910  0.580564  0.581263  1
  Ir  Ir20  1  0.141711  0.571118  0.143586  1
  Ir  Ir21  1  0.571118  0.141711  0.143586  1
  Pt  Pt22  1  0.142799  0.142799  0.145551  1
  Pt  Pt23  1  0.142799  0.142799  0.568853  1
