# generated using pymatgen
data_Zr2Tc3Ni9P7
_symmetry_space_group_name_H-M   'P 1'
_cell_length_a   9.06598701
_cell_length_b   9.06506622
_cell_length_c   3.66760100
_cell_angle_alpha   90.00000000
_cell_angle_beta   90.00000000
_cell_angle_gamma   120.00543698
_symmetry_Int_Tables_number   1
_chemical_formula_structural   Zr2Tc3Ni9P7
_chemical_formula_sum   'Zr2 Tc3 Ni9 P7'
_cell_volume   261.02072505
_cell_formula_units_Z   1
loop_
 _symmetry_equiv_pos_site_id
 _symmetry_equiv_pos_as_xyz
  1  'x, y, z'
loop_
 _atom_site_type_symbol
 _atom_site_label
 _atom_site_symmetry_multiplicity
 _atom_site_fract_x
 _atom_site_fract_y
 _atom_site_fract_z
 _atom_site_occupancy
  Zr  Zr0  1  0.333450  0.666711  0.000000  1
  Zr  Zr1  1  0.666589  0.333288  0.500000  1
  Tc  Tc2  1  0.217376  0.120028  0.500000  1
  Tc  Tc3  1  0.879950  0.097443  0.500000  1
  Tc  Tc4  1  0.902655  0.782576  0.500000  1
  Ni  Ni5  1  0.935668  0.561445  0.000000  1
  Ni  Ni6  1  0.438377  0.374233  0.000000  1
  Ni  Ni7  1  0.625722  0.064177  0.000000  1
  Ni  Ni8  1  0.054904  0.445059  0.500000  1
  Ni  Ni9  1  0.555074  0.609802  0.500000  1
  Ni  Ni10  1  0.390241  0.945337  0.500000  1
  Ni  Ni11  1  0.711716  0.836674  0.000000  1
  Ni  Ni12  1  0.163361  0.874991  0.000000  1
  Ni  Ni13  1  0.124937  0.288270  0.000000  1
  P  P14  1  0.705302  0.587171  0.000000  1
  P  P15  1  0.412725  0.118139  0.000000  1
  P  P16  1  0.881861  0.294597  0.000000  1
  P  P17  1  0.000062  0.999998  0.000000  1
  P  P18  1  0.287426  0.409783  0.500000  1
  P  P19  1  0.590210  0.877684  0.500000  1
  P  P20  1  0.122394  0.712599  0.500000  1
