# generated using pymatgen
data_BaYbCrH9
_symmetry_space_group_name_H-M   'P 1'
_cell_length_a   8.51793000
_cell_length_b   8.51792897
_cell_length_c   5.26072300
_cell_angle_alpha   90.00000000
_cell_angle_beta   90.00000000
_cell_angle_gamma   120.00001177
_symmetry_Int_Tables_number   1
_chemical_formula_structural   BaYbCrH9
_chemical_formula_sum   'Ba3 Yb3 Cr3 H27'
_cell_volume   330.55527803
_cell_formula_units_Z   3
loop_
 _symmetry_equiv_pos_site_id
 _symmetry_equiv_pos_as_xyz
  1  'x, y, z'
loop_
 _atom_site_type_symbol
 _atom_site_label
 _atom_site_symmetry_multiplicity
 _atom_site_fract_x
 _atom_site_fract_y
 _atom_site_fract_z
 _atom_site_occupancy
  Ba  Ba0  1  0.000000  0.597752  0.000000  1
  Ba  Ba1  1  0.402248  0.402248  0.000000  1
  Ba  Ba2  1  0.597752  0.000000  0.000000  1
  Yb  Yb3  1  0.000000  0.257212  0.500000  1
  Yb  Yb4  1  0.742788  0.742788  0.500000  1
  Yb  Yb5  1  0.257212  0.000000  0.500000  1
  Cr  Cr6  1  0.666667  0.333333  0.500000  1
  Cr  Cr7  1  0.333333  0.666667  0.500000  1
  Cr  Cr8  1  0.000000  0.000000  0.000000  1
  H  H9  1  0.788087  0.306702  0.720242  1
  H  H10  1  0.693298  0.481384  0.720242  1
  H  H11  1  0.518616  0.211913  0.720242  1
  H  H12  1  0.211913  0.518616  0.279758  1
  H  H13  1  0.518616  0.211913  0.279758  1
  H  H14  1  0.788087  0.306702  0.279758  1
  H  H15  1  0.693298  0.481384  0.279758  1
  H  H16  1  0.306702  0.788087  0.720242  1
  H  H17  1  0.481384  0.693298  0.720242  1
  H  H18  1  0.214057  0.000000  0.000000  1
  H  H19  1  0.785943  0.785943  0.000000  1
  H  H20  1  0.000000  0.214057  0.000000  1
  H  H21  1  0.858070  0.000000  0.247632  1
  H  H22  1  0.141930  0.141930  0.752368  1
  H  H23  1  0.000000  0.858070  0.752368  1
  H  H24  1  0.000000  0.858070  0.247632  1
  H  H25  1  0.141930  0.141930  0.247632  1
  H  H26  1  0.858070  0.000000  0.752368  1
  H  H27  1  0.130322  0.635041  0.500000  1
  H  H28  1  0.504719  0.869678  0.500000  1
  H  H29  1  0.364959  0.495281  0.500000  1
  H  H30  1  0.495281  0.364959  0.500000  1
  H  H31  1  0.869678  0.504719  0.500000  1
  H  H32  1  0.635041  0.130322  0.500000  1
  H  H33  1  0.211913  0.518616  0.720242  1
  H  H34  1  0.306702  0.788087  0.279758  1
  H  H35  1  0.481384  0.693298  0.279758  1
