# generated using pymatgen
data_Pr2UTc3
_symmetry_space_group_name_H-M   'P 1'
_cell_length_a   5.96626500
_cell_length_b   5.96626457
_cell_length_c   8.26765200
_cell_angle_alpha   90.00000000
_cell_angle_beta   90.00000000
_cell_angle_gamma   119.99997467
_symmetry_Int_Tables_number   1
_chemical_formula_structural   Pr2UTc3
_chemical_formula_sum   'Pr4 U2 Tc6'
_cell_volume   254.86956499
_cell_formula_units_Z   2
loop_
 _symmetry_equiv_pos_site_id
 _symmetry_equiv_pos_as_xyz
  1  'x, y, z'
loop_
 _atom_site_type_symbol
 _atom_site_label
 _atom_site_symmetry_multiplicity
 _atom_site_fract_x
 _atom_site_fract_y
 _atom_site_fract_z
 _atom_site_occupancy
  Pr  Pr0  1  0.333333  0.666667  0.439547  1
  Pr  Pr1  1  0.666667  0.333333  0.560453  1
  Pr  Pr2  1  0.666667  0.333333  0.939547  1
  Pr  Pr3  1  0.333333  0.666667  0.060453  1
  U  U4  1  0.000000  0.000000  0.500000  1
  U  U5  1  0.000000  0.000000  0.000000  1
  Tc  Tc6  1  0.840688  0.159312  0.250000  1
  Tc  Tc7  1  0.840688  0.681376  0.250000  1
  Tc  Tc8  1  0.318624  0.159312  0.250000  1
  Tc  Tc9  1  0.159312  0.840688  0.750000  1
  Tc  Tc10  1  0.159312  0.318624  0.750000  1
  Tc  Tc11  1  0.681376  0.840688  0.750000  1
