# generated using pymatgen
data_Lu4NiAs5Rh7
_symmetry_space_group_name_H-M   'P 1'
_cell_length_a   7.18236477
_cell_length_b   7.18236556
_cell_length_c   7.18236481
_cell_angle_alpha   110.13683340
_cell_angle_beta   108.14804708
_cell_angle_gamma   110.13683153
_symmetry_Int_Tables_number   1
_chemical_formula_structural   Lu4NiAs5Rh7
_chemical_formula_sum   'Lu4 Ni1 As5 Rh7'
_cell_volume   285.10659302
_cell_formula_units_Z   1
loop_
 _symmetry_equiv_pos_site_id
 _symmetry_equiv_pos_as_xyz
  1  'x, y, z'
loop_
 _atom_site_type_symbol
 _atom_site_label
 _atom_site_symmetry_multiplicity
 _atom_site_fract_x
 _atom_site_fract_y
 _atom_site_fract_z
 _atom_site_occupancy
  Lu  Lu0  1  0.509335  0.526748  0.509335  1
  Lu  Lu1  1  0.982587  0.473252  0.982587  1
  Lu  Lu2  1  0.509335  0.000000  0.982587  1
  Lu  Lu3  1  0.982587  0.000000  0.509335  1
  Ni  Ni4  1  0.698192  0.000000  0.698192  1
  As  As5  1  0.685992  0.685876  0.000116  1
  As  As6  1  0.314241  0.314124  0.000116  1
  As  As7  1  0.000116  0.685876  0.685992  1
  As  As8  1  0.000116  0.314124  0.314241  1
  As  As9  1  0.327578  0.000000  0.327578  1
  Rh  Rh10  1  0.747451  0.500000  0.247451  1
  Rh  Rh11  1  0.494009  0.250158  0.744167  1
  Rh  Rh12  1  0.744167  0.250158  0.494009  1
  Rh  Rh13  1  0.243851  0.749842  0.494009  1
  Rh  Rh14  1  0.247451  0.500000  0.747451  1
  Rh  Rh15  1  0.494009  0.749842  0.243851  1
  Rh  Rh16  1  0.018983  0.000000  0.018983  1
