# generated using pymatgen
data_Cs4YSbCl12
_symmetry_space_group_name_H-M   'P 1'
_cell_length_a   13.27343102
_cell_length_b   13.27343170
_cell_length_c   13.27343120
_cell_angle_alpha   131.84753464
_cell_angle_beta   131.84753340
_cell_angle_gamma   70.46993601
_symmetry_Int_Tables_number   1
_chemical_formula_structural   Cs4YSbCl12
_chemical_formula_sum   'Cs8 Y2 Sb2 Cl24'
_cell_volume   1271.56695499
_cell_formula_units_Z   2
loop_
 _symmetry_equiv_pos_site_id
 _symmetry_equiv_pos_as_xyz
  1  'x, y, z'
loop_
 _atom_site_type_symbol
 _atom_site_label
 _atom_site_symmetry_multiplicity
 _atom_site_fract_x
 _atom_site_fract_y
 _atom_site_fract_z
 _atom_site_occupancy
  Cs  Cs0  1  0.375000  0.845788  0.970788  1
  Cs  Cs1  1  0.595788  0.625000  0.470788  1
  Cs  Cs2  1  0.875000  0.845788  0.470788  1
  Cs  Cs3  1  0.595788  0.125000  0.970788  1
  Cs  Cs4  1  0.875000  0.404212  0.029212  1
  Cs  Cs5  1  0.154212  0.125000  0.529212  1
  Cs  Cs6  1  0.375000  0.404212  0.529212  1
  Cs  Cs7  1  0.154212  0.625000  0.029212  1
  Y  Y8  1  0.500000  0.500000  0.000000  1
  Y  Y9  1  0.250000  0.750000  0.500000  1
  Sb  Sb10  1  0.000000  0.000000  0.000000  1
  Sb  Sb11  1  0.750000  0.250000  0.500000  1
  Cl  Cl12  1  0.740589  0.495628  0.244961  1
  Cl  Cl13  1  0.504372  0.259411  0.755039  1
  Cl  Cl14  1  0.377633  0.377633  0.000000  1
  Cl  Cl15  1  0.127633  0.627633  0.500000  1
  Cl  Cl16  1  0.372367  0.872367  0.500000  1
  Cl  Cl17  1  0.622367  0.622367  0.000000  1
  Cl  Cl18  1  0.111406  0.111406  0.000000  1
  Cl  Cl19  1  0.861406  0.361406  0.500000  1
  Cl  Cl20  1  0.638594  0.138594  0.500000  1
  Cl  Cl21  1  0.888594  0.888594  0.000000  1
  Cl  Cl22  1  0.224085  0.000670  0.223415  1
  Cl  Cl23  1  0.750670  0.027256  0.276585  1
  Cl  Cl24  1  0.504372  0.749331  0.244961  1
  Cl  Cl25  1  0.525915  0.249330  0.276585  1
  Cl  Cl26  1  0.972744  0.249330  0.723415  1
  Cl  Cl27  1  0.999330  0.222744  0.223415  1
  Cl  Cl28  1  0.999330  0.775915  0.776585  1
  Cl  Cl29  1  0.777256  0.000670  0.776585  1
  Cl  Cl30  1  0.750670  0.474085  0.723415  1
  Cl  Cl31  1  0.245628  0.500669  0.255039  1
  Cl  Cl32  1  0.245628  0.990589  0.744961  1
  Cl  Cl33  1  0.009411  0.754372  0.255039  1
  Cl  Cl34  1  0.499331  0.754372  0.744961  1
  Cl  Cl35  1  0.250669  0.495628  0.755039  1
