# generated using pymatgen
data_Ho5In2(NiHg)2
_symmetry_space_group_name_H-M   'P 1'
_cell_length_a   7.87588700
_cell_length_b   18.04433200
_cell_length_c   3.55670900
_cell_angle_alpha   90.00000000
_cell_angle_beta   90.00000000
_cell_angle_gamma   90.00000000
_symmetry_Int_Tables_number   1
_chemical_formula_structural   Ho5In2(NiHg)2
_chemical_formula_sum   'Ho10 In4 Ni4 Hg4'
_cell_volume   505.46212571
_cell_formula_units_Z   2
loop_
 _symmetry_equiv_pos_site_id
 _symmetry_equiv_pos_as_xyz
  1  'x, y, z'
loop_
 _atom_site_type_symbol
 _atom_site_label
 _atom_site_symmetry_multiplicity
 _atom_site_fract_x
 _atom_site_fract_y
 _atom_site_fract_z
 _atom_site_occupancy
  Ho  Ho0  1  0.500000  0.500000  0.000000  1
  Ho  Ho1  1  0.000000  0.000000  0.000000  1
  Ho  Ho2  1  0.758696  0.281361  0.000000  1
  Ho  Ho3  1  0.241304  0.718639  0.000000  1
  Ho  Ho4  1  0.741304  0.781361  0.000000  1
  Ho  Ho5  1  0.258696  0.218639  0.000000  1
  Ho  Ho6  1  0.614424  0.087694  0.000000  1
  Ho  Ho7  1  0.385576  0.912306  0.000000  1
  Ho  Ho8  1  0.885576  0.587694  0.000000  1
  Ho  Ho9  1  0.114424  0.412306  0.000000  1
  In  In10  1  0.567129  0.651967  0.500000  1
  In  In11  1  0.432871  0.348033  0.500000  1
  In  In12  1  0.932871  0.151967  0.500000  1
  In  In13  1  0.067129  0.848033  0.500000  1
  Ni  Ni14  1  0.541802  0.197944  0.500000  1
  Ni  Ni15  1  0.458198  0.802056  0.500000  1
  Ni  Ni16  1  0.958198  0.697944  0.500000  1
  Ni  Ni17  1  0.041802  0.302056  0.500000  1
  Hg  Hg18  1  0.706601  0.931593  0.500000  1
  Hg  Hg19  1  0.293399  0.068407  0.500000  1
  Hg  Hg20  1  0.793399  0.431593  0.500000  1
  Hg  Hg21  1  0.206601  0.568407  0.500000  1
