# generated using pymatgen
data_Sr6Ga6Si5Ge
_symmetry_space_group_name_H-M   'P 1'
_cell_length_a   4.24256900
_cell_length_b   4.24256656
_cell_length_c   28.33535000
_cell_angle_alpha   90.00000000
_cell_angle_beta   90.00000000
_cell_angle_gamma   120.00001124
_symmetry_Int_Tables_number   1
_chemical_formula_structural   Sr6Ga6Si5Ge
_chemical_formula_sum   'Sr6 Ga6 Si5 Ge1'
_cell_volume   441.68916168
_cell_formula_units_Z   1
loop_
 _symmetry_equiv_pos_site_id
 _symmetry_equiv_pos_as_xyz
  1  'x, y, z'
loop_
 _atom_site_type_symbol
 _atom_site_label
 _atom_site_symmetry_multiplicity
 _atom_site_fract_x
 _atom_site_fract_y
 _atom_site_fract_z
 _atom_site_occupancy
  Sr  Sr0  1  0.000000  0.000000  0.332484  1
  Sr  Sr1  1  0.000000  0.000000  0.833778  1
  Sr  Sr2  1  0.000000  0.000000  0.166789  1
  Sr  Sr3  1  0.000000  0.000000  0.000463  1
  Sr  Sr4  1  0.000000  0.000000  0.667970  1
  Sr  Sr5  1  0.000000  0.000000  0.498552  1
  Ga  Ga6  1  0.333333  0.666667  0.408609  1
  Ga  Ga7  1  0.333333  0.666667  0.250143  1
  Ga  Ga8  1  0.333333  0.666667  0.090328  1
  Ga  Ga9  1  0.666667  0.333333  0.909813  1
  Ga  Ga10  1  0.666667  0.333333  0.748446  1
  Ga  Ga11  1  0.666667  0.333333  0.594271  1
  Si  Si12  1  0.333333  0.666667  0.921766  1
  Si  Si13  1  0.333333  0.666667  0.752272  1
  Si  Si14  1  0.666667  0.333333  0.249088  1
  Si  Si15  1  0.666667  0.333333  0.079878  1
  Si  Si16  1  0.666667  0.333333  0.419833  1
  Ge  Ge17  1  0.333333  0.666667  0.575516  1
