# generated using pymatgen
data_Sm(ErTe2)2
_symmetry_space_group_name_H-M   'P 1'
_cell_length_a   4.33874600
_cell_length_b   7.52769465
_cell_length_c   7.56529113
_cell_angle_alpha   71.81582022
_cell_angle_beta   90.00000000
_cell_angle_gamma   90.00000000
_symmetry_Int_Tables_number   1
_chemical_formula_structural   Sm(ErTe2)2
_chemical_formula_sum   'Sm1 Er2 Te4'
_cell_volume   234.74810876
_cell_formula_units_Z   1
loop_
 _symmetry_equiv_pos_site_id
 _symmetry_equiv_pos_as_xyz
  1  'x, y, z'
loop_
 _atom_site_type_symbol
 _atom_site_label
 _atom_site_symmetry_multiplicity
 _atom_site_fract_x
 _atom_site_fract_y
 _atom_site_fract_z
 _atom_site_occupancy
  Sm  Sm0  1  0.000000  0.500000  0.500000  1
  Er  Er1  1  0.000000  0.000000  0.000000  1
  Er  Er2  1  0.500000  0.500000  0.000000  1
  Te  Te3  1  0.500000  0.760304  0.249480  1
  Te  Te4  1  0.000000  0.250586  0.243778  1
  Te  Te5  1  0.500000  0.239696  0.750520  1
  Te  Te6  1  0.000000  0.749414  0.756222  1
