# generated using pymatgen
data_Tb4Nd6Y6TlCd3Ir4
_symmetry_space_group_name_H-M   'P 1'
_cell_length_a   9.77905743
_cell_length_b   9.77905822
_cell_length_c   9.77905800
_cell_angle_alpha   60.00000073
_cell_angle_beta   59.99999809
_cell_angle_gamma   60.00000528
_symmetry_Int_Tables_number   1
_chemical_formula_structural   Tb4Nd6Y6TlCd3Ir4
_chemical_formula_sum   'Tb4 Nd6 Y6 Tl1 Cd3 Ir4'
_cell_volume   661.26580607
_cell_formula_units_Z   1
loop_
 _symmetry_equiv_pos_site_id
 _symmetry_equiv_pos_as_xyz
  1  'x, y, z'
loop_
 _atom_site_type_symbol
 _atom_site_label
 _atom_site_symmetry_multiplicity
 _atom_site_fract_x
 _atom_site_fract_y
 _atom_site_fract_z
 _atom_site_occupancy
  Tb  Tb0  1  0.347938  0.347938  0.347938  1
  Tb  Tb1  1  0.348399  0.348399  0.955181  1
  Tb  Tb2  1  0.348399  0.955181  0.348399  1
  Tb  Tb3  1  0.955181  0.348399  0.348399  1
  Nd  Nd4  1  0.943127  0.558513  0.558513  1
  Nd  Nd5  1  0.559014  0.941131  0.941131  1
  Nd  Nd6  1  0.558513  0.943127  0.558513  1
  Nd  Nd7  1  0.941131  0.559014  0.941131  1
  Nd  Nd8  1  0.558513  0.558513  0.943127  1
  Nd  Nd9  1  0.941131  0.941131  0.559014  1
  Y  Y10  1  0.812213  0.187593  0.187593  1
  Y  Y11  1  0.188655  0.811410  0.811410  1
  Y  Y12  1  0.187593  0.812213  0.187593  1
  Y  Y13  1  0.811410  0.188655  0.811410  1
  Y  Y14  1  0.187593  0.187593  0.812213  1
  Y  Y15  1  0.811410  0.811410  0.188655  1
  Tl  Tl16  1  0.581611  0.581611  0.581611  1
  Cd  Cd17  1  0.579108  0.579108  0.259860  1
  Cd  Cd18  1  0.579108  0.259860  0.579108  1
  Cd  Cd19  1  0.259860  0.579108  0.579108  1
  Ir  Ir20  1  0.141899  0.141899  0.141899  1
  Ir  Ir21  1  0.141762  0.141762  0.574670  1
  Ir  Ir22  1  0.141762  0.574670  0.141762  1
  Ir  Ir23  1  0.574670  0.141762  0.141762  1
