# generated using pymatgen
data_TmMgAlNi3
_symmetry_space_group_name_H-M   'P 1'
_cell_length_a   5.12056270
_cell_length_b   4.91659058
_cell_length_c   5.12056200
_cell_angle_alpha   58.61787076
_cell_angle_beta   59.99999158
_cell_angle_gamma   58.61787372
_symmetry_Int_Tables_number   1
_chemical_formula_structural   TmMgAlNi3
_chemical_formula_sum   'Tm1 Mg1 Al1 Ni3'
_cell_volume   89.20482752
_cell_formula_units_Z   1
loop_
 _symmetry_equiv_pos_site_id
 _symmetry_equiv_pos_as_xyz
  1  'x, y, z'
loop_
 _atom_site_type_symbol
 _atom_site_label
 _atom_site_symmetry_multiplicity
 _atom_site_fract_x
 _atom_site_fract_y
 _atom_site_fract_z
 _atom_site_occupancy
  Tm  Tm0  1  0.755492  0.733524  0.755492  1
  Mg  Mg1  1  0.005451  0.983648  0.005451  1
  Al  Al2  1  0.370529  0.888412  0.370529  1
  Ni  Ni3  1  0.372969  0.381472  0.372969  1
  Ni  Ni4  1  0.872592  0.381472  0.372969  1
  Ni  Ni5  1  0.372969  0.381472  0.872592  1
