# generated using pymatgen
data_Ti3Ga3(Ir2Pt)2
_symmetry_space_group_name_H-M   'P 1'
_cell_length_a   4.03728000
_cell_length_b   7.29161300
_cell_length_c   12.07922000
_cell_angle_alpha   90.00004729
_cell_angle_beta   90.00016579
_cell_angle_gamma   89.99994019
_symmetry_Int_Tables_number   1
_chemical_formula_structural   Ti3Ga3(Ir2Pt)2
_chemical_formula_sum   'Ti6 Ga6 Ir8 Pt4'
_cell_volume   355.59150080
_cell_formula_units_Z   2
loop_
 _symmetry_equiv_pos_site_id
 _symmetry_equiv_pos_as_xyz
  1  'x, y, z'
loop_
 _atom_site_type_symbol
 _atom_site_label
 _atom_site_symmetry_multiplicity
 _atom_site_fract_x
 _atom_site_fract_y
 _atom_site_fract_z
 _atom_site_occupancy
  Ti  Ti0  1  0.999988  0.500000  0.994753  1
  Ti  Ti1  1  0.500108  0.000000  0.171872  1
  Ti  Ti2  1  0.000114  0.500000  0.338760  1
  Ti  Ti3  1  0.500003  0.000000  0.501561  1
  Ti  Ti4  1  0.999886  0.500000  0.665097  1
  Ti  Ti5  1  0.499879  0.000000  0.827912  1
  Ga  Ga6  1  0.999990  0.000000  0.997552  1
  Ga  Ga7  1  0.500136  0.500000  0.169026  1
  Ga  Ga8  1  0.000124  0.000000  0.337106  1
  Ga  Ga9  1  0.500001  0.500000  0.501476  1
  Ga  Ga10  1  0.999879  0.000000  0.665221  1
  Ga  Ga11  1  0.499871  0.500000  0.829595  1
  Ir  Ir12  1  0.500095  0.249103  0.331484  1
  Ir  Ir13  1  0.500091  0.750897  0.331484  1
  Ir  Ir14  1  0.000003  0.250211  0.498856  1
  Ir  Ir15  1  0.000004  0.749787  0.498856  1
  Ir  Ir16  1  0.499913  0.249739  0.667844  1
  Ir  Ir17  1  0.499912  0.750261  0.667844  1
  Ir  Ir18  1  0.999907  0.250936  0.835199  1
  Ir  Ir19  1  0.999910  0.749064  0.835199  1
  Pt  Pt20  1  0.499999  0.249345  0.000819  1
  Pt  Pt21  1  0.499989  0.750653  0.000819  1
  Pt  Pt22  1  0.000093  0.250733  0.165832  1
  Pt  Pt23  1  0.000102  0.749267  0.165832  1
