# generated using pymatgen
data_Sc5Ta6TiOs12
_symmetry_space_group_name_H-M   'P 1'
_cell_length_a   4.50363500
_cell_length_b   6.36544600
_cell_length_c   13.55756200
_cell_angle_alpha   90.00000000
_cell_angle_beta   89.99987300
_cell_angle_gamma   90.00000000
_symmetry_Int_Tables_number   1
_chemical_formula_structural   Sc5Ta6TiOs12
_chemical_formula_sum   'Sc5 Ta6 Ti1 Os12'
_cell_volume   388.66337985
_cell_formula_units_Z   1
loop_
 _symmetry_equiv_pos_site_id
 _symmetry_equiv_pos_as_xyz
  1  'x, y, z'
loop_
 _atom_site_type_symbol
 _atom_site_label
 _atom_site_symmetry_multiplicity
 _atom_site_fract_x
 _atom_site_fract_y
 _atom_site_fract_z
 _atom_site_occupancy
  Sc  Sc0  1  0.999998  0.000000  0.999982  1
  Sc  Sc1  1  0.499985  0.500000  0.166293  1
  Sc  Sc2  1  0.000001  0.000000  0.333354  1
  Sc  Sc3  1  0.499988  0.500000  0.500365  1
  Sc  Sc4  1  0.000020  0.000000  0.666676  1
  Ta  Ta5  1  0.000000  0.500000  0.999466  1
  Ta  Ta6  1  0.499988  0.000000  0.166944  1
  Ta  Ta7  1  0.999993  0.500000  0.333329  1
  Ta  Ta8  1  0.500000  0.000000  0.499721  1
  Ta  Ta9  1  0.000004  0.500000  0.667205  1
  Ta  Ta10  1  0.500014  0.000000  0.833332  1
  Ti  Ti11  1  0.500018  0.500000  0.833335  1
  Os  Os12  1  0.500002  0.253191  0.997019  1
  Os  Os13  1  0.500002  0.746809  0.997019  1
  Os  Os14  1  0.999987  0.249768  0.166043  1
  Os  Os15  1  0.999987  0.750232  0.166043  1
  Os  Os16  1  0.499982  0.249991  0.333331  1
  Os  Os17  1  0.499982  0.750009  0.333331  1
  Os  Os18  1  0.999998  0.249773  0.500624  1
  Os  Os19  1  0.999998  0.750227  0.500624  1
  Os  Os20  1  0.500014  0.253188  0.669647  1
  Os  Os21  1  0.500014  0.746812  0.669647  1
  Os  Os22  1  0.000010  0.254732  0.833335  1
  Os  Os23  1  0.000010  0.745268  0.833335  1
