# generated using pymatgen
data_LiNd3Zn2IrPd2
_symmetry_space_group_name_H-M   'P 1'
_cell_length_a   7.40529710
_cell_length_b   7.46221799
_cell_length_c   4.01031700
_cell_angle_alpha   90.00000000
_cell_angle_beta   90.00000000
_cell_angle_gamma   120.11284075
_symmetry_Int_Tables_number   1
_chemical_formula_structural   LiNd3Zn2IrPd2
_chemical_formula_sum   'Li1 Nd3 Zn2 Ir1 Pd2'
_cell_volume   191.70119125
_cell_formula_units_Z   1
loop_
 _symmetry_equiv_pos_site_id
 _symmetry_equiv_pos_as_xyz
  1  'x, y, z'
loop_
 _atom_site_type_symbol
 _atom_site_label
 _atom_site_symmetry_multiplicity
 _atom_site_fract_x
 _atom_site_fract_y
 _atom_site_fract_z
 _atom_site_occupancy
  Li  Li0  1  0.767853  0.766079  0.500000  1
  Nd  Nd1  1  0.407056  0.397280  0.000000  1
  Nd  Nd2  1  0.589986  0.015134  0.000000  1
  Nd  Nd3  1  0.996602  0.581365  0.000000  1
  Zn  Zn4  1  0.241043  0.996569  0.500000  1
  Zn  Zn5  1  0.993394  0.240420  0.500000  1
  Ir  Ir6  1  0.665269  0.331709  0.500000  1
  Pd  Pd7  1  0.006366  0.006779  0.000000  1
  Pd  Pd8  1  0.332432  0.664664  0.500000  1
