# generated using pymatgen
data_Ho9Er7Cd3AgIr4
_symmetry_space_group_name_H-M   'P 1'
_cell_length_a   9.56220079
_cell_length_b   9.56161453
_cell_length_c   9.56273533
_cell_angle_alpha   59.86085635
_cell_angle_beta   59.87174895
_cell_angle_gamma   59.87784126
_symmetry_Int_Tables_number   1
_chemical_formula_structural   Ho9Er7Cd3AgIr4
_chemical_formula_sum   'Ho9 Er7 Cd3 Ag1 Ir4'
_cell_volume   616.41712375
_cell_formula_units_Z   1
loop_
 _symmetry_equiv_pos_site_id
 _symmetry_equiv_pos_as_xyz
  1  'x, y, z'
loop_
 _atom_site_type_symbol
 _atom_site_label
 _atom_site_symmetry_multiplicity
 _atom_site_fract_x
 _atom_site_fract_y
 _atom_site_fract_z
 _atom_site_occupancy
  Ho  Ho0  1  0.060600  0.438552  0.060639  1
  Ho  Ho1  1  0.439151  0.439036  0.060664  1
  Ho  Ho2  1  0.060750  0.060665  0.438586  1
  Ho  Ho3  1  0.185694  0.812401  0.812197  1
  Ho  Ho4  1  0.811983  0.187080  0.187177  1
  Ho  Ho5  1  0.812331  0.185713  0.812264  1
  Ho  Ho6  1  0.187153  0.812131  0.187113  1
  Ho  Ho7  1  0.812224  0.812356  0.185701  1
  Ho  Ho8  1  0.187255  0.187116  0.811999  1
  Er  Er9  1  0.599133  0.599105  0.598834  1
  Er  Er10  1  0.599655  0.600032  0.201665  1
  Er  Er11  1  0.599664  0.201519  0.600060  1
  Er  Er12  1  0.201672  0.599644  0.599665  1
  Er  Er13  1  0.060687  0.439033  0.439226  1
  Er  Er14  1  0.438569  0.060538  0.060747  1
  Er  Er15  1  0.439059  0.060618  0.439097  1
  Cd  Cd16  1  0.831089  0.831079  0.508383  1
  Cd  Cd17  1  0.831129  0.508414  0.831051  1
  Cd  Cd18  1  0.508444  0.831134  0.831068  1
  Ag  Ag19  1  0.832469  0.832573  0.832576  1
  Ir  Ir20  1  0.391761  0.391809  0.392115  1
  Ir  Ir21  1  0.392560  0.392251  0.824303  1
  Ir  Ir22  1  0.392629  0.824584  0.392264  1
  Ir  Ir23  1  0.824339  0.392617  0.392604  1
