# generated using pymatgen
data_NdTh9(Sn3Se)2
_symmetry_space_group_name_H-M   'P 1'
_cell_length_a   9.50281005
_cell_length_b   9.51977699
_cell_length_c   6.68332900
_cell_angle_alpha   90.00000000
_cell_angle_beta   90.00000000
_cell_angle_gamma   120.05907818
_symmetry_Int_Tables_number   1
_chemical_formula_structural   NdTh9(Sn3Se)2
_chemical_formula_sum   'Nd1 Th9 Sn6 Se2'
_cell_volume   523.29121927
_cell_formula_units_Z   1
loop_
 _symmetry_equiv_pos_site_id
 _symmetry_equiv_pos_as_xyz
  1  'x, y, z'
loop_
 _atom_site_type_symbol
 _atom_site_label
 _atom_site_symmetry_multiplicity
 _atom_site_fract_x
 _atom_site_fract_y
 _atom_site_fract_z
 _atom_site_occupancy
  Nd  Nd0  1  0.000000  0.735966  0.750000  1
  Th  Th1  1  0.264015  0.264173  0.750000  1
  Th  Th2  1  0.334081  0.666321  0.499035  1
  Th  Th3  1  0.665919  0.332239  0.499035  1
  Th  Th4  1  0.736504  0.736665  0.250000  1
  Th  Th5  1  0.735985  0.000158  0.750000  1
  Th  Th6  1  0.000000  0.264203  0.250000  1
  Th  Th7  1  0.263496  0.000161  0.250000  1
  Th  Th8  1  0.334081  0.666321  0.000965  1
  Th  Th9  1  0.665919  0.332239  0.000965  1
  Sn  Sn10  1  0.613059  0.612414  0.750000  1
  Sn  Sn11  1  0.000000  0.388086  0.750000  1
  Sn  Sn12  1  0.386941  0.999355  0.750000  1
  Sn  Sn13  1  0.612194  0.000173  0.250000  1
  Sn  Sn14  1  0.387806  0.387979  0.250000  1
  Sn  Sn15  1  0.000000  0.612128  0.250000  1
  Se  Se16  1  0.000000  0.000710  0.000312  1
  Se  Se17  1  0.000000  0.000710  0.499688  1
