# generated using pymatgen
data_Er8Ti2VSi16Tc9
_symmetry_space_group_name_H-M   'P 1'
_cell_length_a   6.75554731
_cell_length_b   6.75554762
_cell_length_c   12.84453232
_cell_angle_alpha   90.01615379
_cell_angle_beta   89.98384768
_cell_angle_gamma   89.37284727
_symmetry_Int_Tables_number   1
_chemical_formula_structural   Er8Ti2VSi16Tc9
_chemical_formula_sum   'Er8 Ti2 V1 Si16 Tc9'
_cell_volume   586.15617246
_cell_formula_units_Z   1
loop_
 _symmetry_equiv_pos_site_id
 _symmetry_equiv_pos_as_xyz
  1  'x, y, z'
loop_
 _atom_site_type_symbol
 _atom_site_label
 _atom_site_symmetry_multiplicity
 _atom_site_fract_x
 _atom_site_fract_y
 _atom_site_fract_z
 _atom_site_occupancy
  Er  Er0  1  0.338825  0.993794  0.469159  1
  Er  Er1  1  0.508990  0.834619  0.717092  1
  Er  Er2  1  0.490019  0.166473  0.217517  1
  Er  Er3  1  0.834619  0.508990  0.282908  1
  Er  Er4  1  0.166473  0.490019  0.782483  1
  Er  Er5  1  0.659812  0.007261  0.969227  1
  Er  Er6  1  0.993794  0.338825  0.530841  1
  Er  Er7  1  0.007261  0.659812  0.030773  1
  Ti  Ti8  1  0.158095  0.841456  0.249893  1
  Ti  Ti9  1  0.841456  0.158095  0.750107  1
  V  V10  1  0.659914  0.659914  0.500000  1
  Si  Si11  1  0.207297  0.120985  0.680326  1
  Si  Si12  1  0.386785  0.693788  0.932007  1
  Si  Si13  1  0.619432  0.302710  0.432831  1
  Si  Si14  1  0.693788  0.386785  0.067993  1
  Si  Si15  1  0.302710  0.619432  0.567169  1
  Si  Si16  1  0.792942  0.879564  0.180702  1
  Si  Si17  1  0.120985  0.207297  0.319674  1
  Si  Si18  1  0.879564  0.792942  0.819298  1
  Si  Si19  1  0.267837  0.986068  0.054358  1
  Si  Si20  1  0.523716  0.784761  0.312039  1
  Si  Si21  1  0.477053  0.216509  0.811176  1
  Si  Si22  1  0.784761  0.523716  0.687961  1
  Si  Si23  1  0.216509  0.477053  0.188824  1
  Si  Si24  1  0.727375  0.014435  0.554144  1
  Si  Si25  1  0.986068  0.267837  0.945642  1
  Si  Si26  1  0.014435  0.727375  0.445856  1
  Tc  Tc27  1  0.337772  0.337772  0.000000  1
  Tc  Tc28  1  0.180471  0.988714  0.863420  1
  Tc  Tc29  1  0.494856  0.691934  0.119755  1
  Tc  Tc30  1  0.503070  0.315247  0.620023  1
  Tc  Tc31  1  0.691934  0.494856  0.880245  1
  Tc  Tc32  1  0.315247  0.503070  0.379977  1
  Tc  Tc33  1  0.821883  0.005542  0.363045  1
  Tc  Tc34  1  0.988714  0.180471  0.136580  1
  Tc  Tc35  1  0.005542  0.821883  0.636955  1
