# generated using pymatgen
data_Eu8Ga(Si4Pt)3
_symmetry_space_group_name_H-M   'P 1'
_cell_length_a   8.25248200
_cell_length_b   8.25248245
_cell_length_c   8.68408500
_cell_angle_alpha   90.00000000
_cell_angle_beta   90.00000000
_cell_angle_gamma   120.00000621
_symmetry_Int_Tables_number   1
_chemical_formula_structural   Eu8Ga(Si4Pt)3
_chemical_formula_sum   'Eu8 Ga1 Si12 Pt3'
_cell_volume   512.18147375
_cell_formula_units_Z   1
loop_
 _symmetry_equiv_pos_site_id
 _symmetry_equiv_pos_as_xyz
  1  'x, y, z'
loop_
 _atom_site_type_symbol
 _atom_site_label
 _atom_site_symmetry_multiplicity
 _atom_site_fract_x
 _atom_site_fract_y
 _atom_site_fract_z
 _atom_site_occupancy
  Eu  Eu0  1  0.499186  0.500814  0.746997  1
  Eu  Eu1  1  0.499780  0.500220  0.253004  1
  Eu  Eu2  1  0.001630  0.500814  0.746997  1
  Eu  Eu3  1  0.000440  0.500220  0.253004  1
  Eu  Eu4  1  0.499186  0.998370  0.746997  1
  Eu  Eu5  1  0.499780  0.999560  0.253004  1
  Eu  Eu6  1  0.000000  0.000000  0.749081  1
  Eu  Eu7  1  0.000000  0.000000  0.251442  1
  Ga  Ga8  1  0.666667  0.333333  0.996816  1
  Si  Si9  1  0.839077  0.160923  0.001009  1
  Si  Si10  1  0.167340  0.832660  0.999399  1
  Si  Si11  1  0.321845  0.160923  0.001009  1
  Si  Si12  1  0.165270  0.834730  0.500289  1
  Si  Si13  1  0.665319  0.832660  0.999399  1
  Si  Si14  1  0.834605  0.165395  0.499733  1
  Si  Si15  1  0.839077  0.678155  0.001009  1
  Si  Si16  1  0.669459  0.834730  0.500289  1
  Si  Si17  1  0.167340  0.334681  0.999399  1
  Si  Si18  1  0.330789  0.165395  0.499733  1
  Si  Si19  1  0.165270  0.330541  0.500289  1
  Si  Si20  1  0.834605  0.669211  0.499733  1
  Pt  Pt21  1  0.333333  0.666667  0.001261  1
  Pt  Pt22  1  0.333333  0.666667  0.499042  1
  Pt  Pt23  1  0.666667  0.333333  0.501066  1
