# generated using pymatgen
data_SmCoBr
_symmetry_space_group_name_H-M   'P 1'
_cell_length_a   3.96849600
_cell_length_b   3.96849656
_cell_length_c   11.93900800
_cell_angle_alpha   90.00000000
_cell_angle_beta   90.00000000
_cell_angle_gamma   119.99999531
_symmetry_Int_Tables_number   1
_chemical_formula_structural   SmCoBr
_chemical_formula_sum   'Sm2 Co2 Br2'
_cell_volume   162.83615941
_cell_formula_units_Z   2
loop_
 _symmetry_equiv_pos_site_id
 _symmetry_equiv_pos_as_xyz
  1  'x, y, z'
loop_
 _atom_site_type_symbol
 _atom_site_label
 _atom_site_symmetry_multiplicity
 _atom_site_fract_x
 _atom_site_fract_y
 _atom_site_fract_z
 _atom_site_occupancy
  Sm  Sm0  1  0.000000  0.000000  0.159698  1
  Sm  Sm1  1  0.000000  0.000000  0.840302  1
  Co  Co2  1  0.666666  0.333334  0.003507  1
  Co  Co3  1  0.333333  0.666666  0.996493  1
  Br  Br4  1  0.333333  0.666666  0.323883  1
  Br  Br5  1  0.666666  0.333334  0.676116  1
