# generated using pymatgen
data_Ca3Pr5(NdIr2)2
_symmetry_space_group_name_H-M   'P 1'
_cell_length_a   8.92689530
_cell_length_b   8.87260082
_cell_length_c   7.46249698
_cell_angle_alpha   83.26322936
_cell_angle_beta   83.58819770
_cell_angle_gamma   44.48219917
_symmetry_Int_Tables_number   1
_chemical_formula_structural   Ca3Pr5(NdIr2)2
_chemical_formula_sum   'Ca3 Pr5 Nd2 Ir4'
_cell_volume   410.96016356
_cell_formula_units_Z   1
loop_
 _symmetry_equiv_pos_site_id
 _symmetry_equiv_pos_as_xyz
  1  'x, y, z'
loop_
 _atom_site_type_symbol
 _atom_site_label
 _atom_site_symmetry_multiplicity
 _atom_site_fract_x
 _atom_site_fract_y
 _atom_site_fract_z
 _atom_site_occupancy
  Ca  Ca0  1  0.016736  0.800421  0.917385  1
  Ca  Ca1  1  0.200535  0.983405  0.582717  1
  Ca  Ca2  1  0.986568  0.198910  0.082193  1
  Pr  Pr3  1  0.798745  0.019252  0.416593  1
  Pr  Pr4  1  0.351781  0.213780  0.815836  1
  Pr  Pr5  1  0.787130  0.650019  0.682552  1
  Pr  Pr6  1  0.653251  0.783817  0.182055  1
  Pr  Pr7  1  0.209509  0.349699  0.316302  1
  Nd  Nd8  1  0.562027  0.438339  0.751920  1
  Nd  Nd9  1  0.433867  0.567426  0.248592  1
  Ir  Ir10  1  0.181817  0.592621  0.568845  1
  Ir  Ir11  1  0.415529  0.813902  0.926299  1
  Ir  Ir12  1  0.809834  0.407411  0.431244  1
  Ir  Ir13  1  0.592671  0.180996  0.077469  1
