# generated using pymatgen
data_NaTl(CO3)2
_symmetry_space_group_name_H-M   'P 1'
_cell_length_a   7.09245555
_cell_length_b   7.09245465
_cell_length_c   7.09245500
_cell_angle_alpha   42.81661681
_cell_angle_beta   42.81662468
_cell_angle_gamma   42.81661689
_symmetry_Int_Tables_number   1
_chemical_formula_structural   NaTl(CO3)2
_chemical_formula_sum   'Na1 Tl1 C2 O6'
_cell_volume   149.32205435
_cell_formula_units_Z   1
loop_
 _symmetry_equiv_pos_site_id
 _symmetry_equiv_pos_as_xyz
  1  'x, y, z'
loop_
 _atom_site_type_symbol
 _atom_site_label
 _atom_site_symmetry_multiplicity
 _atom_site_fract_x
 _atom_site_fract_y
 _atom_site_fract_z
 _atom_site_occupancy
  Na  Na0  1  0.000000  0.000000  0.000000  1
  Tl  Tl1  1  0.500000  0.500000  0.500000  1
  C  C2  1  0.234933  0.234933  0.234933  1
  C  C3  1  0.765067  0.765067  0.765067  1
  O  O4  1  0.759525  0.513887  0.017531  1
  O  O5  1  0.486112  0.982467  0.240475  1
  O  O6  1  0.982469  0.240475  0.486111  1
  O  O7  1  0.017532  0.759525  0.513886  1
  O  O8  1  0.513886  0.017531  0.759526  1
  O  O9  1  0.240474  0.486113  0.982468  1
