# generated using pymatgen
data_Ac2Mn2Se2O3
_symmetry_space_group_name_H-M   'P 1'
_cell_length_a   10.15744822
_cell_length_b   4.27367157
_cell_length_c   4.27365300
_cell_angle_alpha   90.00000000
_cell_angle_beta   102.14405693
_cell_angle_gamma   102.14411864
_symmetry_Int_Tables_number   1
_chemical_formula_structural   Ac2Mn2Se2O3
_chemical_formula_sum   'Ac2 Mn2 Se2 O3'
_cell_volume   177.11711880
_cell_formula_units_Z   1
loop_
 _symmetry_equiv_pos_site_id
 _symmetry_equiv_pos_as_xyz
  1  'x, y, z'
loop_
 _atom_site_type_symbol
 _atom_site_label
 _atom_site_symmetry_multiplicity
 _atom_site_fract_x
 _atom_site_fract_y
 _atom_site_fract_z
 _atom_site_occupancy
  Ac  Ac0  1  0.630316  0.315158  0.315158  1
  Ac  Ac1  1  0.369684  0.684843  0.684843  1
  Mn  Mn2  1  0.000000  0.500000  0.000000  1
  Mn  Mn3  1  0.000000  0.000000  0.500000  1
  Se  Se4  1  0.194428  0.097214  0.097214  1
  Se  Se5  1  0.805572  0.902787  0.902787  1
  O  O6  1  0.500000  0.750000  0.250000  1
  O  O7  1  0.000000  0.500000  0.500000  1
  O  O8  1  0.500000  0.250000  0.750000  1
