# generated using pymatgen
data_CaAcB4Rh5
_symmetry_space_group_name_H-M   'P 1'
_cell_length_a   7.60112891
_cell_length_b   6.35025164
_cell_length_c   5.74026531
_cell_angle_alpha   77.72545580
_cell_angle_beta   54.71981059
_cell_angle_gamma   47.55474639
_symmetry_Int_Tables_number   1
_chemical_formula_structural   CaAcB4Rh5
_chemical_formula_sum   'Ca1 Ac1 B4 Rh5'
_cell_volume   159.52485669
_cell_formula_units_Z   1
loop_
 _symmetry_equiv_pos_site_id
 _symmetry_equiv_pos_as_xyz
  1  'x, y, z'
loop_
 _atom_site_type_symbol
 _atom_site_label
 _atom_site_symmetry_multiplicity
 _atom_site_fract_x
 _atom_site_fract_y
 _atom_site_fract_z
 _atom_site_occupancy
  Ca  Ca0  1  0.149510  0.149510  0.850490  1
  Ac  Ac1  1  0.860240  0.860240  0.139760  1
  B  B2  1  0.788974  0.465279  0.534721  1
  B  B3  1  0.206210  0.533351  0.466649  1
  B  B4  1  0.533351  0.206210  0.793790  1
  B  B5  1  0.465279  0.788974  0.211026  1
  Rh  Rh6  1  0.502658  0.502658  0.497342  1
  Rh  Rh7  1  0.500080  0.500080  0.999920  1
  Rh  Rh8  1  0.000080  0.000080  0.499920  1
  Rh  Rh9  1  0.746809  0.746809  0.753191  1
  Rh  Rh10  1  0.246809  0.246809  0.253191  1
