# generated using pymatgen
data_Nd8Co3Si12Ir
_symmetry_space_group_name_H-M   'P 1'
_cell_length_a   8.16779700
_cell_length_b   8.16779751
_cell_length_c   8.46873300
_cell_angle_alpha   90.00000000
_cell_angle_beta   90.00000000
_cell_angle_gamma   120.00000197
_symmetry_Int_Tables_number   1
_chemical_formula_structural   Nd8Co3Si12Ir
_chemical_formula_sum   'Nd8 Co3 Si12 Ir1'
_cell_volume   489.28168792
_cell_formula_units_Z   1
loop_
 _symmetry_equiv_pos_site_id
 _symmetry_equiv_pos_as_xyz
  1  'x, y, z'
loop_
 _atom_site_type_symbol
 _atom_site_label
 _atom_site_symmetry_multiplicity
 _atom_site_fract_x
 _atom_site_fract_y
 _atom_site_fract_z
 _atom_site_occupancy
  Nd  Nd0  1  0.000000  0.000000  0.748368  1
  Nd  Nd1  1  0.000000  0.000000  0.251676  1
  Nd  Nd2  1  0.499790  0.500210  0.749548  1
  Nd  Nd3  1  0.499790  0.999581  0.749548  1
  Nd  Nd4  1  0.000419  0.500210  0.749548  1
  Nd  Nd5  1  0.501123  0.498877  0.250535  1
  Nd  Nd6  1  0.997755  0.498877  0.250535  1
  Nd  Nd7  1  0.501123  0.002245  0.250535  1
  Co  Co8  1  0.666667  0.333333  0.997116  1
  Co  Co9  1  0.666667  0.333333  0.502839  1
  Co  Co10  1  0.333333  0.666667  0.497182  1
  Si  Si11  1  0.828041  0.171959  0.999670  1
  Si  Si12  1  0.828041  0.656081  0.999670  1
  Si  Si13  1  0.343919  0.171959  0.999670  1
  Si  Si14  1  0.828983  0.171017  0.500420  1
  Si  Si15  1  0.828983  0.657967  0.500420  1
  Si  Si16  1  0.342033  0.171017  0.500420  1
  Si  Si17  1  0.171437  0.828563  0.499681  1
  Si  Si18  1  0.657127  0.828563  0.499681  1
  Si  Si19  1  0.171437  0.342873  0.499681  1
  Si  Si20  1  0.165892  0.834108  0.000322  1
  Si  Si21  1  0.668216  0.834108  0.000322  1
  Si  Si22  1  0.165892  0.331784  0.000322  1
  Ir  Ir23  1  0.333333  0.666667  0.002295  1
