# generated using pymatgen
data_Hf14Cu16Pd3Au
_symmetry_space_group_name_H-M   'P 1'
_cell_length_a   7.90072211
_cell_length_b   7.90072302
_cell_length_c   9.35406190
_cell_angle_alpha   89.95677867
_cell_angle_beta   89.95677922
_cell_angle_gamma   107.52720144
_symmetry_Int_Tables_number   1
_chemical_formula_structural   Hf14Cu16Pd3Au
_chemical_formula_sum   'Hf14 Cu16 Pd3 Au1'
_cell_volume   556.78553913
_cell_formula_units_Z   1
loop_
 _symmetry_equiv_pos_site_id
 _symmetry_equiv_pos_as_xyz
  1  'x, y, z'
loop_
 _atom_site_type_symbol
 _atom_site_label
 _atom_site_symmetry_multiplicity
 _atom_site_fract_x
 _atom_site_fract_y
 _atom_site_fract_z
 _atom_site_occupancy
  Hf  Hf0  1  0.688218  0.307189  0.998121  1
  Hf  Hf1  1  0.307189  0.688218  0.998121  1
  Hf  Hf2  1  0.812365  0.188770  0.500254  1
  Hf  Hf3  1  0.188770  0.812365  0.500254  1
  Hf  Hf4  1  0.000437  0.000437  0.999549  1
  Hf  Hf5  1  0.499560  0.499560  0.500303  1
  Hf  Hf6  1  0.008561  0.507252  0.250526  1
  Hf  Hf7  1  0.992045  0.492904  0.749894  1
  Hf  Hf8  1  0.492904  0.992045  0.749894  1
  Hf  Hf9  1  0.507252  0.008561  0.250526  1
  Hf  Hf10  1  0.311709  0.311709  0.185963  1
  Hf  Hf11  1  0.685059  0.685059  0.809971  1
  Hf  Hf12  1  0.186184  0.186184  0.686776  1
  Hf  Hf13  1  0.819004  0.819004  0.317805  1
  Cu  Cu14  1  0.861613  0.158994  0.201988  1
  Cu  Cu15  1  0.137813  0.841230  0.797330  1
  Cu  Cu16  1  0.638428  0.340555  0.702039  1
  Cu  Cu17  1  0.659595  0.361040  0.298811  1
  Cu  Cu18  1  0.361040  0.659595  0.298811  1
  Cu  Cu19  1  0.340555  0.638428  0.702039  1
  Cu  Cu20  1  0.841230  0.137813  0.797330  1
  Cu  Cu21  1  0.158994  0.861613  0.201988  1
  Cu  Cu22  1  0.948642  0.649665  0.004406  1
  Cu  Cu23  1  0.051438  0.350796  0.995643  1
  Cu  Cu24  1  0.551860  0.850851  0.504010  1
  Cu  Cu25  1  0.149264  0.448169  0.496257  1
  Cu  Cu26  1  0.448169  0.149264  0.496257  1
  Cu  Cu27  1  0.850851  0.551860  0.504010  1
  Cu  Cu28  1  0.350796  0.051438  0.995643  1
  Cu  Cu29  1  0.649665  0.948642  0.004406  1
  Pd  Pd30  1  0.112797  0.112797  0.391282  1
  Pd  Pd31  1  0.888492  0.888492  0.610016  1
  Pd  Pd32  1  0.387401  0.387401  0.890024  1
  Au  Au33  1  0.612099  0.612099  0.109756  1
