# generated using pymatgen
data_Pr8SmYSi8
_symmetry_space_group_name_H-M   'P 1'
_cell_length_a   7.86526838
_cell_length_b   7.86771300
_cell_length_c   15.38188200
_cell_angle_alpha   90.00000000
_cell_angle_beta   90.06703343
_cell_angle_gamma   90.00000000
_symmetry_Int_Tables_number   1
_chemical_formula_structural   Pr8SmYSi8
_chemical_formula_sum   'Pr16 Sm2 Y2 Si16'
_cell_volume   951.85596068
_cell_formula_units_Z   2
loop_
 _symmetry_equiv_pos_site_id
 _symmetry_equiv_pos_as_xyz
  1  'x, y, z'
loop_
 _atom_site_type_symbol
 _atom_site_label
 _atom_site_symmetry_multiplicity
 _atom_site_fract_x
 _atom_site_fract_y
 _atom_site_fract_z
 _atom_site_occupancy
  Pr  Pr0  1  0.379318  0.013802  0.445553  1
  Pr  Pr1  1  0.486714  0.879007  0.694870  1
  Pr  Pr2  1  0.513127  0.120364  0.195462  1
  Pr  Pr3  1  0.879262  0.487362  0.305229  1
  Pr  Pr4  1  0.120682  0.513802  0.804447  1
  Pr  Pr5  1  0.620738  0.987362  0.944771  1
  Pr  Pr6  1  0.013286  0.379007  0.555130  1
  Pr  Pr7  1  0.986873  0.620364  0.054538  1
  Pr  Pr8  1  0.125069  0.976830  0.877767  1
  Pr  Pr9  1  0.523561  0.624149  0.128519  1
  Pr  Pr10  1  0.476279  0.374871  0.628116  1
  Pr  Pr11  1  0.624176  0.524035  0.871093  1
  Pr  Pr12  1  0.374931  0.476830  0.372233  1
  Pr  Pr13  1  0.875824  0.024035  0.378907  1
  Pr  Pr14  1  0.976439  0.124149  0.121481  1
  Pr  Pr15  1  0.023721  0.874871  0.621884  1
  Sm  Sm16  1  0.307825  0.307425  0.999777  1
  Sm  Sm17  1  0.192175  0.807425  0.250223  1
  Y  Y18  1  0.809216  0.190314  0.749699  1
  Y  Y19  1  0.690784  0.690314  0.500301  1
  Si  Si20  1  0.187872  0.172351  0.707997  1
  Si  Si21  1  0.328865  0.689693  0.957458  1
  Si  Si22  1  0.672203  0.312032  0.458759  1
  Si  Si23  1  0.689940  0.329175  0.041678  1
  Si  Si24  1  0.312128  0.672351  0.542003  1
  Si  Si25  1  0.810060  0.829175  0.208322  1
  Si  Si26  1  0.171135  0.189693  0.292542  1
  Si  Si27  1  0.827797  0.812032  0.791241  1
  Si  Si28  1  0.287091  0.920475  0.061951  1
  Si  Si29  1  0.581289  0.786305  0.314322  1
  Si  Si30  1  0.422563  0.212497  0.811154  1
  Si  Si31  1  0.786620  0.579313  0.686568  1
  Si  Si32  1  0.212909  0.420475  0.188049  1
  Si  Si33  1  0.713380  0.079313  0.563432  1
  Si  Si34  1  0.918711  0.286305  0.935678  1
  Si  Si35  1  0.077437  0.712497  0.438846  1
