# generated using pymatgen
data_RbScZn(H6Ir)2
_symmetry_space_group_name_H-M   'P 1'
_cell_length_a   4.69553300
_cell_length_b   4.69553374
_cell_length_c   9.30131800
_cell_angle_alpha   90.00000000
_cell_angle_beta   90.00000000
_cell_angle_gamma   119.99998778
_symmetry_Int_Tables_number   1
_chemical_formula_structural   RbScZn(H6Ir)2
_chemical_formula_sum   'Rb1 Sc1 Zn1 H12 Ir2'
_cell_volume   177.60085000
_cell_formula_units_Z   1
loop_
 _symmetry_equiv_pos_site_id
 _symmetry_equiv_pos_as_xyz
  1  'x, y, z'
loop_
 _atom_site_type_symbol
 _atom_site_label
 _atom_site_symmetry_multiplicity
 _atom_site_fract_x
 _atom_site_fract_y
 _atom_site_fract_z
 _atom_site_occupancy
  Rb  Rb0  1  0.000000  0.000000  0.005673  1
  Sc  Sc1  1  0.666667  0.333333  0.381551  1
  Zn  Zn2  1  0.333333  0.666667  0.681221  1
  H  H3  1  0.159784  0.840216  0.393081  1
  H  H4  1  0.680431  0.840216  0.393081  1
  H  H5  1  0.159784  0.319569  0.393081  1
  H  H6  1  0.834518  0.165482  0.588548  1
  H  H7  1  0.330965  0.165482  0.588548  1
  H  H8  1  0.834518  0.669035  0.588548  1
  H  H9  1  0.512817  0.025634  0.810377  1
  H  H10  1  0.512817  0.487183  0.810377  1
  H  H11  1  0.974366  0.487183  0.810377  1
  H  H12  1  0.500833  0.001665  0.190484  1
  H  H13  1  0.500833  0.499167  0.190484  1
  H  H14  1  0.998335  0.499167  0.190484  1
  Ir  Ir15  1  0.666667  0.333333  0.687898  1
  Ir  Ir16  1  0.333333  0.666667  0.296185  1
