# generated using pymatgen
data_Cs3NaLiVP3
_symmetry_space_group_name_H-M   'P 1'
_cell_length_a   10.19434123
_cell_length_b   10.19434168
_cell_length_c   17.21882000
_cell_angle_alpha   90.00000000
_cell_angle_beta   90.00000000
_cell_angle_gamma   143.46099426
_symmetry_Int_Tables_number   1
_chemical_formula_structural   Cs3NaLiVP3
_chemical_formula_sum   'Cs12 Na4 Li4 V4 P12'
_cell_volume   1065.38998566
_cell_formula_units_Z   4
loop_
 _symmetry_equiv_pos_site_id
 _symmetry_equiv_pos_as_xyz
  1  'x, y, z'
loop_
 _atom_site_type_symbol
 _atom_site_label
 _atom_site_symmetry_multiplicity
 _atom_site_fract_x
 _atom_site_fract_y
 _atom_site_fract_z
 _atom_site_occupancy
  Cs  Cs0  1  0.940614  0.612961  0.833397  1
  Cs  Cs1  1  0.559386  0.887039  0.333397  1
  Cs  Cs2  1  0.387039  0.059386  0.166603  1
  Cs  Cs3  1  0.059386  0.387039  0.166603  1
  Cs  Cs4  1  0.887039  0.559386  0.333397  1
  Cs  Cs5  1  0.440614  0.112961  0.666603  1
  Cs  Cs6  1  0.612961  0.940614  0.833397  1
  Cs  Cs7  1  0.286045  0.286045  0.320049  1
  Cs  Cs8  1  0.786045  0.786045  0.179951  1
  Cs  Cs9  1  0.213955  0.213955  0.820049  1
  Cs  Cs10  1  0.713955  0.713955  0.679951  1
  Cs  Cs11  1  0.112961  0.440614  0.666603  1
  Na  Na12  1  0.756052  0.243948  0.000000  1
  Na  Na13  1  0.743948  0.256052  0.500000  1
  Na  Na14  1  0.243948  0.756052  0.000000  1
  Na  Na15  1  0.256052  0.743948  0.500000  1
  Li  Li16  1  0.924908  0.075092  0.000000  1
  Li  Li17  1  0.575092  0.424908  0.500000  1
  Li  Li18  1  0.075092  0.924908  0.000000  1
  Li  Li19  1  0.424908  0.575092  0.500000  1
  V  V20  1  0.578154  0.421846  0.000000  1
  V  V21  1  0.921846  0.078154  0.500000  1
  V  V22  1  0.421846  0.578154  0.000000  1
  V  V23  1  0.078154  0.921846  0.500000  1
  P  P24  1  0.861241  0.568912  0.077406  1
  P  P25  1  0.431088  0.138759  0.922594  1
  P  P26  1  0.638759  0.931088  0.577406  1
  P  P27  1  0.931088  0.638759  0.577406  1
  P  P28  1  0.138759  0.431088  0.922594  1
  P  P29  1  0.568912  0.861241  0.077406  1
  P  P30  1  0.361241  0.068912  0.422594  1
  P  P31  1  0.206534  0.206534  0.572722  1
  P  P32  1  0.706534  0.706534  0.927278  1
  P  P33  1  0.293466  0.293466  0.072722  1
  P  P34  1  0.068912  0.361241  0.422594  1
  P  P35  1  0.793466  0.793466  0.427278  1
