# generated using pymatgen
data_Pr2Th5Te12
_symmetry_space_group_name_H-M   'P 1'
_cell_length_a   12.61976251
_cell_length_b   12.59534483
_cell_length_c   4.36473600
_cell_angle_alpha   90.00000000
_cell_angle_beta   90.00000000
_cell_angle_gamma   119.66582318
_symmetry_Int_Tables_number   1
_chemical_formula_structural   Pr2Th5Te12
_chemical_formula_sum   'Pr2 Th5 Te12'
_cell_volume   602.84056283
_cell_formula_units_Z   1
loop_
 _symmetry_equiv_pos_site_id
 _symmetry_equiv_pos_as_xyz
  1  'x, y, z'
loop_
 _atom_site_type_symbol
 _atom_site_label
 _atom_site_symmetry_multiplicity
 _atom_site_fract_x
 _atom_site_fract_y
 _atom_site_fract_z
 _atom_site_occupancy
  Pr  Pr0  1  0.725647  0.160066  0.000000  1
  Pr  Pr1  1  0.843236  0.564840  0.000000  1
  Th  Th2  1  0.432455  0.276013  0.000000  1
  Th  Th3  1  0.552168  0.712310  0.500000  1
  Th  Th4  1  0.288561  0.840640  0.500000  1
  Th  Th5  1  0.158515  0.448068  0.500000  1
  Th  Th6  1  0.994941  0.995450  0.000000  1
  Te  Te7  1  0.742790  0.749699  0.000000  1
  Te  Te8  1  0.246779  0.993630  0.000000  1
  Te  Te9  1  0.010014  0.254293  0.000000  1
  Te  Te10  1  0.490431  0.864825  0.000000  1
  Te  Te11  1  0.137050  0.627689  0.000000  1
  Te  Te12  1  0.373708  0.509105  0.000000  1
  Te  Te13  1  0.866774  0.387222  0.500000  1
  Te  Te14  1  0.215939  0.212470  0.500000  1
  Te  Te15  1  0.000268  0.792515  0.500000  1
  Te  Te16  1  0.792094  0.000124  0.500000  1
  Te  Te17  1  0.519266  0.136338  0.500000  1
  Te  Te18  1  0.609364  0.474702  0.500000  1
