# generated using pymatgen
data_Hf4Zr2Co16Si6W
_symmetry_space_group_name_H-M   'P 1'
_cell_length_a   8.09670402
_cell_length_b   8.10412061
_cell_length_c   8.09670340
_cell_angle_alpha   59.96969961
_cell_angle_beta   60.06060630
_cell_angle_gamma   59.96969710
_symmetry_Int_Tables_number   1
_chemical_formula_structural   Hf4Zr2Co16Si6W
_chemical_formula_sum   'Hf4 Zr2 Co16 Si6 W1'
_cell_volume   375.67013684
_cell_formula_units_Z   1
loop_
 _symmetry_equiv_pos_site_id
 _symmetry_equiv_pos_as_xyz
  1  'x, y, z'
loop_
 _atom_site_type_symbol
 _atom_site_label
 _atom_site_symmetry_multiplicity
 _atom_site_fract_x
 _atom_site_fract_y
 _atom_site_fract_z
 _atom_site_occupancy
  Hf  Hf0  1  0.707564  0.292436  0.292436  1
  Hf  Hf1  1  0.292436  0.292436  0.707564  1
  Hf  Hf2  1  0.292436  0.707564  0.707564  1
  Hf  Hf3  1  0.707564  0.707564  0.292436  1
  Zr  Zr4  1  0.295416  0.704584  0.295416  1
  Zr  Zr5  1  0.704584  0.295416  0.704584  1
  Co  Co6  1  0.122472  0.121058  0.635414  1
  Co  Co7  1  0.672062  0.982932  0.672062  1
  Co  Co8  1  0.364586  0.878942  0.877528  1
  Co  Co9  1  0.017068  0.327938  0.327057  1
  Co  Co10  1  0.982932  0.672062  0.672943  1
  Co  Co11  1  0.327057  0.327938  0.017068  1
  Co  Co12  1  0.672943  0.672062  0.982932  1
  Co  Co13  1  0.635414  0.121058  0.122472  1
  Co  Co14  1  0.672062  0.672943  0.672062  1
  Co  Co15  1  0.877528  0.878942  0.364586  1
  Co  Co16  1  0.121058  0.122472  0.121058  1
  Co  Co17  1  0.878942  0.364586  0.878942  1
  Co  Co18  1  0.878942  0.877528  0.878942  1
  Co  Co19  1  0.327938  0.327057  0.327938  1
  Co  Co20  1  0.121058  0.635414  0.121058  1
  Co  Co21  1  0.327938  0.017068  0.327938  1
  Si  Si22  1  0.000000  0.500000  0.000000  1
  Si  Si23  1  0.000000  0.000000  0.500000  1
  Si  Si24  1  0.500000  0.500000  0.000000  1
  Si  Si25  1  0.500000  0.000000  0.500000  1
  Si  Si26  1  0.500000  0.000000  0.000000  1
  Si  Si27  1  0.000000  0.500000  0.500000  1
  W  W28  1  0.000000  0.000000  0.000000  1
