# generated using pymatgen
data_Sc5B4SbRh10
_symmetry_space_group_name_H-M   'P 1'
_cell_length_a   9.41294100
_cell_length_b   9.41294100
_cell_length_c   3.19586100
_cell_angle_alpha   90.00000000
_cell_angle_beta   90.00000000
_cell_angle_gamma   90.00000000
_symmetry_Int_Tables_number   1
_chemical_formula_structural   Sc5B4SbRh10
_chemical_formula_sum   'Sc5 B4 Sb1 Rh10'
_cell_volume   283.16433675
_cell_formula_units_Z   1
loop_
 _symmetry_equiv_pos_site_id
 _symmetry_equiv_pos_as_xyz
  1  'x, y, z'
loop_
 _atom_site_type_symbol
 _atom_site_label
 _atom_site_symmetry_multiplicity
 _atom_site_fract_x
 _atom_site_fract_y
 _atom_site_fract_z
 _atom_site_occupancy
  Sc  Sc0  1  0.824678  0.327353  0.000000  1
  Sc  Sc1  1  0.327353  0.175322  0.000000  1
  Sc  Sc2  1  0.672647  0.824678  0.000000  1
  Sc  Sc3  1  0.175322  0.672647  0.000000  1
  Sc  Sc4  1  0.500000  0.500000  0.000000  1
  B  B5  1  0.619129  0.122414  0.000000  1
  B  B6  1  0.122414  0.380871  0.000000  1
  B  B7  1  0.877586  0.619129  0.000000  1
  B  B8  1  0.380871  0.877586  0.000000  1
  Sb  Sb9  1  0.000000  0.000000  0.000000  1
  Rh  Rh10  1  0.070947  0.221284  0.500000  1
  Rh  Rh11  1  0.221284  0.929053  0.500000  1
  Rh  Rh12  1  0.778716  0.070947  0.500000  1
  Rh  Rh13  1  0.929053  0.778716  0.500000  1
  Rh  Rh14  1  0.426979  0.723090  0.500000  1
  Rh  Rh15  1  0.573021  0.276910  0.500000  1
  Rh  Rh16  1  0.723090  0.573021  0.500000  1
  Rh  Rh17  1  0.276910  0.426979  0.500000  1
  Rh  Rh18  1  0.500000  0.000000  0.500000  1
  Rh  Rh19  1  0.000000  0.500000  0.500000  1
