# generated using pymatgen
data_Er4HfMg3Ir4
_symmetry_space_group_name_H-M   'P 1'
_cell_length_a   4.16533500
_cell_length_b   7.06777729
_cell_length_c   8.49829394
_cell_angle_alpha   88.27091655
_cell_angle_beta   90.00000000
_cell_angle_gamma   90.00000000
_symmetry_Int_Tables_number   1
_chemical_formula_structural   Er4HfMg3Ir4
_chemical_formula_sum   'Er4 Hf1 Mg3 Ir4'
_cell_volume   250.07296839
_cell_formula_units_Z   1
loop_
 _symmetry_equiv_pos_site_id
 _symmetry_equiv_pos_as_xyz
  1  'x, y, z'
loop_
 _atom_site_type_symbol
 _atom_site_label
 _atom_site_symmetry_multiplicity
 _atom_site_fract_x
 _atom_site_fract_y
 _atom_site_fract_z
 _atom_site_occupancy
  Er  Er0  1  0.250000  0.957758  0.330550  1
  Er  Er1  1  0.250000  0.474625  0.181363  1
  Er  Er2  1  0.750000  0.023365  0.668480  1
  Er  Er3  1  0.750000  0.545147  0.824658  1
  Hf  Hf4  1  0.750000  0.135222  0.058475  1
  Mg  Mg5  1  0.250000  0.359096  0.560047  1
  Mg  Mg6  1  0.250000  0.857855  0.934716  1
  Mg  Mg7  1  0.750000  0.633703  0.439820  1
  Ir  Ir8  1  0.250000  0.254509  0.888637  1
  Ir  Ir9  1  0.250000  0.743036  0.628286  1
  Ir  Ir10  1  0.750000  0.765819  0.125819  1
  Ir  Ir11  1  0.750000  0.249866  0.359149  1
