# generated using pymatgen
data_Dy11YTcRu3
_symmetry_space_group_name_H-M   'P 1'
_cell_length_a   6.28133820
_cell_length_b   7.36320229
_cell_length_c   9.18099350
_cell_angle_alpha   89.88759136
_cell_angle_beta   89.98591957
_cell_angle_gamma   90.07340702
_symmetry_Int_Tables_number   1
_chemical_formula_structural   Dy11YTcRu3
_chemical_formula_sum   'Dy11 Y1 Tc1 Ru3'
_cell_volume   424.62678303
_cell_formula_units_Z   1
loop_
 _symmetry_equiv_pos_site_id
 _symmetry_equiv_pos_as_xyz
  1  'x, y, z'
loop_
 _atom_site_type_symbol
 _atom_site_label
 _atom_site_symmetry_multiplicity
 _atom_site_fract_x
 _atom_site_fract_y
 _atom_site_fract_z
 _atom_site_occupancy
  Dy  Dy0  1  0.631839  0.039888  0.249820  1
  Dy  Dy1  1  0.365334  0.957110  0.749893  1
  Dy  Dy2  1  0.134352  0.457974  0.750052  1
  Dy  Dy3  1  0.872206  0.541978  0.249929  1
  Dy  Dy4  1  0.166995  0.176403  0.064763  1
  Dy  Dy5  1  0.831190  0.823410  0.935148  1
  Dy  Dy6  1  0.665959  0.324169  0.936738  1
  Dy  Dy7  1  0.831273  0.823440  0.564484  1
  Dy  Dy8  1  0.332481  0.676698  0.064465  1
  Dy  Dy9  1  0.167581  0.176288  0.435090  1
  Dy  Dy10  1  0.332089  0.676614  0.435795  1
  Y  Y11  1  0.666044  0.323688  0.562589  1
  Tc  Tc12  1  0.462245  0.386559  0.249221  1
  Ru  Ru13  1  0.538555  0.617011  0.751206  1
  Ru  Ru14  1  0.963294  0.113232  0.750957  1
  Ru  Ru15  1  0.038565  0.885542  0.249850  1
