# generated using pymatgen
data_NaSrCrH9
_symmetry_space_group_name_H-M   'P 1'
_cell_length_a   8.17342500
_cell_length_b   8.17342242
_cell_length_c   4.71836900
_cell_angle_alpha   90.00000000
_cell_angle_beta   90.00000000
_cell_angle_gamma   120.00000638
_symmetry_Int_Tables_number   1
_chemical_formula_structural   NaSrCrH9
_chemical_formula_sum   'Na3 Sr3 Cr3 H27'
_cell_volume   272.97981335
_cell_formula_units_Z   3
loop_
 _symmetry_equiv_pos_site_id
 _symmetry_equiv_pos_as_xyz
  1  'x, y, z'
loop_
 _atom_site_type_symbol
 _atom_site_label
 _atom_site_symmetry_multiplicity
 _atom_site_fract_x
 _atom_site_fract_y
 _atom_site_fract_z
 _atom_site_occupancy
  Na  Na0  1  0.000000  0.260461  0.500000  1
  Na  Na1  1  0.739539  0.739539  0.500000  1
  Na  Na2  1  0.260461  0.000000  0.500000  1
  Sr  Sr3  1  0.000000  0.602373  0.000000  1
  Sr  Sr4  1  0.397627  0.397627  0.000000  1
  Sr  Sr5  1  0.602373  0.000000  0.000000  1
  Cr  Cr6  1  0.666667  0.333333  0.500000  1
  Cr  Cr7  1  0.333333  0.666667  0.500000  1
  Cr  Cr8  1  0.000000  0.000000  0.000000  1
  H  H9  1  0.793864  0.312492  0.743839  1
  H  H10  1  0.687508  0.481371  0.743839  1
  H  H11  1  0.518629  0.206136  0.743839  1
  H  H12  1  0.206136  0.518629  0.256161  1
  H  H13  1  0.518629  0.206136  0.256161  1
  H  H14  1  0.793864  0.312492  0.256161  1
  H  H15  1  0.687508  0.481371  0.256161  1
  H  H16  1  0.312492  0.793864  0.743839  1
  H  H17  1  0.481371  0.687508  0.743839  1
  H  H18  1  0.196822  0.000000  0.000000  1
  H  H19  1  0.803178  0.803178  0.000000  1
  H  H20  1  0.000000  0.196822  0.000000  1
  H  H21  1  0.862220  0.000000  0.241298  1
  H  H22  1  0.137780  0.137780  0.758702  1
  H  H23  1  0.000000  0.862220  0.758702  1
  H  H24  1  0.000000  0.862220  0.241298  1
  H  H25  1  0.137780  0.137780  0.241298  1
  H  H26  1  0.862220  0.000000  0.758702  1
  H  H27  1  0.129404  0.644050  0.500000  1
  H  H28  1  0.514646  0.870596  0.500000  1
  H  H29  1  0.355950  0.485354  0.500000  1
  H  H30  1  0.485354  0.355950  0.500000  1
  H  H31  1  0.870596  0.514646  0.500000  1
  H  H32  1  0.644050  0.129404  0.500000  1
  H  H33  1  0.206136  0.518629  0.743839  1
  H  H34  1  0.312492  0.793864  0.256161  1
  H  H35  1  0.481371  0.687508  0.256161  1
