# generated using pymatgen
data_Sm5Dy3(Sc3Ga4)4
_symmetry_space_group_name_H-M   'P 1'
_cell_length_a   7.35164042
_cell_length_b   7.60520570
_cell_length_c   14.54617506
_cell_angle_alpha   89.95204401
_cell_angle_beta   90.07053092
_cell_angle_gamma   90.01223471
_symmetry_Int_Tables_number   1
_chemical_formula_structural   Sm5Dy3(Sc3Ga4)4
_chemical_formula_sum   'Sm5 Dy3 Sc12 Ga16'
_cell_volume   813.28645861
_cell_formula_units_Z   1
loop_
 _symmetry_equiv_pos_site_id
 _symmetry_equiv_pos_as_xyz
  1  'x, y, z'
loop_
 _atom_site_type_symbol
 _atom_site_label
 _atom_site_symmetry_multiplicity
 _atom_site_fract_x
 _atom_site_fract_y
 _atom_site_fract_z
 _atom_site_occupancy
  Sm  Sm0  1  0.011778  0.177203  0.095081  1
  Sm  Sm1  1  0.988435  0.822777  0.904911  1
  Sm  Sm2  1  0.488231  0.677284  0.905309  1
  Sm  Sm3  1  0.988248  0.822597  0.593967  1
  Sm  Sm4  1  0.511768  0.322784  0.095042  1
  Dy  Dy5  1  0.011705  0.179862  0.404284  1
  Dy  Dy6  1  0.511709  0.320721  0.404972  1
  Dy  Dy7  1  0.488066  0.678460  0.594851  1
  Sc  Sc8  1  0.162127  0.500984  0.749376  1
  Sc  Sc9  1  0.838008  0.497908  0.251119  1
  Sc  Sc10  1  0.338401  0.001768  0.251111  1
  Sc  Sc11  1  0.661301  0.998795  0.749372  1
  Sc  Sc12  1  0.331158  0.173678  0.624002  1
  Sc  Sc13  1  0.669908  0.826781  0.375908  1
  Sc  Sc14  1  0.170625  0.673013  0.375631  1
  Sc  Sc15  1  0.669622  0.826919  0.125656  1
  Sc  Sc16  1  0.829452  0.326792  0.623722  1
  Sc  Sc17  1  0.330722  0.173098  0.874709  1
  Sc  Sc18  1  0.830274  0.326816  0.874885  1
  Sc  Sc19  1  0.169419  0.673401  0.125702  1
  Ga  Ga20  1  0.031637  0.119805  0.749785  1
  Ga  Ga21  1  0.968515  0.881443  0.250912  1
  Ga  Ga22  1  0.468530  0.618593  0.250948  1
  Ga  Ga23  1  0.531368  0.381135  0.749260  1
  Ga  Ga24  1  0.285922  0.874736  0.748934  1
  Ga  Ga25  1  0.715435  0.125740  0.251790  1
  Ga  Ga26  1  0.215390  0.374226  0.252054  1
  Ga  Ga27  1  0.783440  0.624668  0.748771  1
  Ga  Ga28  1  0.161998  0.463529  0.539752  1
  Ga  Ga29  1  0.838130  0.532509  0.458828  1
  Ga  Ga30  1  0.339613  0.965918  0.459248  1
  Ga  Ga31  1  0.840785  0.536505  0.040361  1
  Ga  Ga32  1  0.658850  0.035697  0.539804  1
  Ga  Ga33  1  0.159238  0.463770  0.959824  1
  Ga  Ga34  1  0.659277  0.036661  0.959732  1
  Ga  Ga35  1  0.340918  0.963424  0.040385  1
