# generated using pymatgen
data_Ca3Ga2NiIr
_symmetry_space_group_name_H-M   'P 1'
_cell_length_a   5.77591900
_cell_length_b   7.92395300
_cell_length_c   13.43131100
_cell_angle_alpha   90.00000000
_cell_angle_beta   90.00000000
_cell_angle_gamma   90.00000000
_symmetry_Int_Tables_number   1
_chemical_formula_structural   Ca3Ga2NiIr
_chemical_formula_sum   'Ca12 Ga8 Ni4 Ir4'
_cell_volume   614.72572853
_cell_formula_units_Z   4
loop_
 _symmetry_equiv_pos_site_id
 _symmetry_equiv_pos_as_xyz
  1  'x, y, z'
loop_
 _atom_site_type_symbol
 _atom_site_label
 _atom_site_symmetry_multiplicity
 _atom_site_fract_x
 _atom_site_fract_y
 _atom_site_fract_z
 _atom_site_occupancy
  Ca  Ca0  1  0.136723  0.899008  0.598564  1
  Ca  Ca1  1  0.863277  0.100992  0.098564  1
  Ca  Ca2  1  0.136723  0.600992  0.401436  1
  Ca  Ca3  1  0.863277  0.399008  0.901436  1
  Ca  Ca4  1  0.856320  0.112955  0.402374  1
  Ca  Ca5  1  0.143680  0.887045  0.902374  1
  Ca  Ca6  1  0.856320  0.387045  0.597626  1
  Ca  Ca7  1  0.143680  0.612955  0.097626  1
  Ca  Ca8  1  0.364806  0.242412  0.751502  1
  Ca  Ca9  1  0.635194  0.757588  0.251502  1
  Ca  Ca10  1  0.364806  0.257588  0.248498  1
  Ca  Ca11  1  0.635194  0.742412  0.748498  1
  Ga  Ga12  1  0.836439  0.089267  0.756449  1
  Ga  Ga13  1  0.163561  0.910733  0.256449  1
  Ga  Ga14  1  0.836439  0.410733  0.243551  1
  Ga  Ga15  1  0.163561  0.589267  0.743551  1
  Ga  Ga16  1  0.389212  0.250000  0.500000  1
  Ga  Ga17  1  0.610788  0.750000  0.000000  1
  Ga  Ga18  1  0.608438  0.750000  0.500000  1
  Ga  Ga19  1  0.391562  0.250000  0.000000  1
  Ni  Ni20  1  0.368160  0.973495  0.412501  1
  Ni  Ni21  1  0.631840  0.026505  0.912501  1
  Ni  Ni22  1  0.368160  0.526505  0.587499  1
  Ni  Ni23  1  0.631840  0.473495  0.087499  1
  Ir  Ir24  1  0.629428  0.025582  0.593429  1
  Ir  Ir25  1  0.370572  0.974418  0.093429  1
  Ir  Ir26  1  0.629428  0.474418  0.406571  1
  Ir  Ir27  1  0.370572  0.525582  0.906571  1
