# generated using pymatgen
data_Yb4TaTi(MoO6)2
_symmetry_space_group_name_H-M   'P 1'
_cell_length_a   7.76442648
_cell_length_b   5.42906731
_cell_length_c   5.68298665
_cell_angle_alpha   89.56717397
_cell_angle_beta   90.28041069
_cell_angle_gamma   90.10443590
_symmetry_Int_Tables_number   1
_chemical_formula_structural   Yb4TaTi(MoO6)2
_chemical_formula_sum   'Yb4 Ta1 Ti1 Mo2 O12'
_cell_volume   239.54822545
_cell_formula_units_Z   1
loop_
 _symmetry_equiv_pos_site_id
 _symmetry_equiv_pos_as_xyz
  1  'x, y, z'
loop_
 _atom_site_type_symbol
 _atom_site_label
 _atom_site_symmetry_multiplicity
 _atom_site_fract_x
 _atom_site_fract_y
 _atom_site_fract_z
 _atom_site_occupancy
  Yb  Yb0  1  0.757827  0.980254  0.058074  1
  Yb  Yb1  1  0.756137  0.513276  0.559008  1
  Yb  Yb2  1  0.243863  0.486724  0.440992  1
  Yb  Yb3  1  0.242173  0.019746  0.941926  1
  Ta  Ta4  1  0.500000  0.000000  0.500000  1
  Ti  Ti5  1  0.000000  0.000000  0.500000  1
  Mo  Mo6  1  0.000000  0.500000  0.000000  1
  Mo  Mo7  1  0.500000  0.500000  0.000000  1
  O  O8  1  0.441283  0.183814  0.207532  1
  O  O9  1  0.553857  0.702408  0.313387  1
  O  O10  1  0.558717  0.816186  0.792468  1
  O  O11  1  0.051439  0.288457  0.693855  1
  O  O12  1  0.249528  0.900974  0.535623  1
  O  O13  1  0.446143  0.297592  0.686613  1
  O  O14  1  0.948561  0.711543  0.306145  1
  O  O15  1  0.051032  0.196649  0.212036  1
  O  O16  1  0.756824  0.386322  0.956420  1
  O  O17  1  0.948968  0.803351  0.787964  1
  O  O18  1  0.243176  0.613678  0.043580  1
  O  O19  1  0.750472  0.099026  0.464377  1
