# generated using pymatgen
data_Ho5Sn3Sb
_symmetry_space_group_name_H-M   'P 1'
_cell_length_a   8.08531300
_cell_length_b   8.12111600
_cell_length_c   15.31081900
_cell_angle_alpha   90.00000000
_cell_angle_beta   90.00000000
_cell_angle_gamma   90.00000000
_symmetry_Int_Tables_number   1
_chemical_formula_structural   Ho5Sn3Sb
_chemical_formula_sum   'Ho20 Sn12 Sb4'
_cell_volume   1005.33539560
_cell_formula_units_Z   4
loop_
 _symmetry_equiv_pos_site_id
 _symmetry_equiv_pos_as_xyz
  1  'x, y, z'
loop_
 _atom_site_type_symbol
 _atom_site_label
 _atom_site_symmetry_multiplicity
 _atom_site_fract_x
 _atom_site_fract_y
 _atom_site_fract_z
 _atom_site_occupancy
  Ho  Ho0  1  0.375246  0.838993  0.877917  1
  Ho  Ho1  1  0.875246  0.661007  0.622083  1
  Ho  Ho2  1  0.624754  0.161007  0.377917  1
  Ho  Ho3  1  0.124754  0.338993  0.122083  1
  Ho  Ho4  1  0.627102  0.161630  0.122216  1
  Ho  Ho5  1  0.127102  0.338370  0.377784  1
  Ho  Ho6  1  0.372898  0.838370  0.622216  1
  Ho  Ho7  1  0.872898  0.661630  0.877784  1
  Ho  Ho8  1  0.538331  0.326669  0.897131  1
  Ho  Ho9  1  0.038331  0.173331  0.602869  1
  Ho  Ho10  1  0.461669  0.673331  0.397131  1
  Ho  Ho11  1  0.961669  0.826669  0.102869  1
  Ho  Ho12  1  0.472422  0.676259  0.100564  1
  Ho  Ho13  1  0.972422  0.823741  0.399436  1
  Ho  Ho14  1  0.527578  0.323741  0.600564  1
  Ho  Ho15  1  0.027578  0.176259  0.899436  1
  Ho  Ho16  1  0.202162  0.501021  0.748056  1
  Ho  Ho17  1  0.702162  0.998979  0.751944  1
  Ho  Ho18  1  0.797838  0.498979  0.248056  1
  Ho  Ho19  1  0.297838  0.001021  0.251944  1
  Sn  Sn20  1  0.714906  0.966421  0.957662  1
  Sn  Sn21  1  0.214906  0.533579  0.542338  1
  Sn  Sn22  1  0.285094  0.033579  0.457662  1
  Sn  Sn23  1  0.785094  0.466421  0.042338  1
  Sn  Sn24  1  0.568834  0.621454  0.749081  1
  Sn  Sn25  1  0.068834  0.878546  0.750919  1
  Sn  Sn26  1  0.431166  0.378546  0.249081  1
  Sn  Sn27  1  0.931166  0.121454  0.250919  1
  Sn  Sn28  1  0.339175  0.147849  0.750953  1
  Sn  Sn29  1  0.839175  0.352151  0.749047  1
  Sn  Sn30  1  0.660825  0.852151  0.250953  1
  Sn  Sn31  1  0.160825  0.647849  0.249047  1
  Sb  Sb32  1  0.280358  0.029737  0.043898  1
  Sb  Sb33  1  0.780358  0.470263  0.456102  1
  Sb  Sb34  1  0.719642  0.970263  0.543898  1
  Sb  Sb35  1  0.219642  0.529737  0.956102  1
