# generated using pymatgen
data_Lu2Pa5Co12Sn
_symmetry_space_group_name_H-M   'P 1'
_cell_length_a   5.30758700
_cell_length_b   7.31915102
_cell_length_c   8.29977852
_cell_angle_alpha   90.23427355
_cell_angle_beta   90.00000000
_cell_angle_gamma   90.00000000
_symmetry_Int_Tables_number   1
_chemical_formula_structural   Lu2Pa5Co12Sn
_chemical_formula_sum   'Lu2 Pa5 Co12 Sn1'
_cell_volume   322.41905667
_cell_formula_units_Z   1
loop_
 _symmetry_equiv_pos_site_id
 _symmetry_equiv_pos_as_xyz
  1  'x, y, z'
loop_
 _atom_site_type_symbol
 _atom_site_label
 _atom_site_symmetry_multiplicity
 _atom_site_fract_x
 _atom_site_fract_y
 _atom_site_fract_z
 _atom_site_occupancy
  Lu  Lu0  1  0.750000  0.442961  0.088716  1
  Lu  Lu1  1  0.250000  0.066405  0.604091  1
  Pa  Pa2  1  0.750000  0.891116  0.857824  1
  Pa  Pa3  1  0.750000  0.394559  0.645727  1
  Pa  Pa4  1  0.250000  0.113158  0.138139  1
  Pa  Pa5  1  0.250000  0.602415  0.352536  1
  Pa  Pa6  1  0.750000  0.936739  0.402424  1
  Co  Co7  1  0.750000  0.593563  0.381728  1
  Co  Co8  1  0.750000  0.081556  0.131234  1
  Co  Co9  1  0.250000  0.423839  0.617817  1
  Co  Co10  1  0.250000  0.899748  0.883525  1
  Co  Co11  1  0.993728  0.266997  0.369741  1
  Co  Co12  1  0.497174  0.774793  0.133769  1
  Co  Co13  1  0.497537  0.735841  0.624003  1
  Co  Co14  1  0.004136  0.224052  0.866467  1
  Co  Co15  1  0.002463  0.735841  0.624003  1
  Co  Co16  1  0.495864  0.224052  0.866467  1
  Co  Co17  1  0.506272  0.266997  0.369741  1
  Co  Co18  1  0.002826  0.774793  0.133769  1
  Sn  Sn19  1  0.250000  0.550577  0.908281  1
