# generated using pymatgen
data_Dy2Ho10Co5Sn
_symmetry_space_group_name_H-M   'P 1'
_cell_length_a   8.23536849
_cell_length_b   8.23536756
_cell_length_c   8.25259481
_cell_angle_alpha   106.62123776
_cell_angle_beta   110.95093708
_cell_angle_gamma   110.79599612
_symmetry_Int_Tables_number   1
_chemical_formula_structural   Dy2Ho10Co5Sn
_chemical_formula_sum   'Dy2 Ho10 Co5 Sn1'
_cell_volume   430.51275805
_cell_formula_units_Z   1
loop_
 _symmetry_equiv_pos_site_id
 _symmetry_equiv_pos_as_xyz
  1  'x, y, z'
loop_
 _atom_site_type_symbol
 _atom_site_label
 _atom_site_symmetry_multiplicity
 _atom_site_fract_x
 _atom_site_fract_y
 _atom_site_fract_z
 _atom_site_occupancy
  Dy  Dy0  1  0.193244  0.790280  0.983523  1
  Dy  Dy1  1  0.806756  0.209720  0.016477  1
  Ho  Ho2  1  0.475923  0.290679  0.185567  1
  Ho  Ho3  1  0.105112  0.290357  0.814433  1
  Ho  Ho4  1  0.894888  0.709643  0.185567  1
  Ho  Ho5  1  0.524077  0.709321  0.814433  1
  Ho  Ho6  1  0.306195  0.619597  0.314263  1
  Ho  Ho7  1  0.305333  0.991933  0.685737  1
  Ho  Ho8  1  0.693805  0.380403  0.685737  1
  Ho  Ho9  1  0.694667  0.008067  0.314263  1
  Ho  Ho10  1  0.193414  0.210090  0.403504  1
  Ho  Ho11  1  0.806586  0.789910  0.596496  1
  Co  Co12  1  0.500892  0.612407  0.113299  1
  Co  Co13  1  0.499108  0.387593  0.886701  1
  Co  Co14  1  0.376961  0.000385  0.377345  1
  Co  Co15  1  0.623039  0.999615  0.622655  1
  Co  Co16  1  0.000000  0.000000  0.000000  1
  Sn  Sn17  1  0.000000  0.500000  0.500000  1
