# generated using pymatgen
data_YHfZr2F15
_symmetry_space_group_name_H-M   'P 1'
_cell_length_a   8.18775178
_cell_length_b   8.18775219
_cell_length_c   8.17744817
_cell_angle_alpha   79.84521326
_cell_angle_beta   79.84521231
_cell_angle_gamma   100.14366132
_symmetry_Int_Tables_number   1
_chemical_formula_structural   YHfZr2F15
_chemical_formula_sum   'Y2 Hf2 Zr4 F30'
_cell_volume   518.88173801
_cell_formula_units_Z   2
loop_
 _symmetry_equiv_pos_site_id
 _symmetry_equiv_pos_as_xyz
  1  'x, y, z'
loop_
 _atom_site_type_symbol
 _atom_site_label
 _atom_site_symmetry_multiplicity
 _atom_site_fract_x
 _atom_site_fract_y
 _atom_site_fract_z
 _atom_site_occupancy
  Y  Y0  1  0.178066  0.821934  0.250000  1
  Y  Y1  1  0.821934  0.178066  0.750000  1
  Hf  Hf2  1  0.750884  0.249116  0.250000  1
  Hf  Hf3  1  0.249116  0.750884  0.750000  1
  Zr  Zr4  1  0.748388  0.677677  0.675391  1
  Zr  Zr5  1  0.322323  0.251612  0.824609  1
  Zr  Zr6  1  0.251612  0.322323  0.324609  1
  Zr  Zr7  1  0.677677  0.748388  0.175391  1
  F  F8  1  0.316349  0.350016  0.052787  1
  F  F9  1  0.936110  0.813783  0.150061  1
  F  F10  1  0.846034  0.461690  0.682419  1
  F  F11  1  0.461690  0.846034  0.182419  1
  F  F12  1  0.813783  0.936110  0.650061  1
  F  F13  1  0.350016  0.316349  0.552786  1
  F  F14  1  0.683651  0.649984  0.947213  1
  F  F15  1  0.063890  0.186217  0.849939  1
  F  F16  1  0.153966  0.538310  0.317581  1
  F  F17  1  0.538310  0.153966  0.817581  1
  F  F18  1  0.186217  0.063890  0.349939  1
  F  F19  1  0.649984  0.683651  0.447213  1
  F  F20  1  0.774125  0.281751  0.999093  1
  F  F21  1  0.004155  0.275460  0.219888  1
  F  F22  1  0.776082  0.504045  0.224415  1
  F  F23  1  0.504045  0.776082  0.724415  1
  F  F24  1  0.275460  0.004155  0.719888  1
  F  F25  1  0.281751  0.774125  0.499093  1
  F  F26  1  0.225875  0.718249  0.000907  1
  F  F27  1  0.995845  0.724540  0.780112  1
  F  F28  1  0.223918  0.495955  0.775585  1
  F  F29  1  0.495955  0.223918  0.275585  1
  F  F30  1  0.724540  0.995845  0.280112  1
  F  F31  1  0.718249  0.225875  0.500907  1
  F  F32  1  0.466250  0.533750  0.250000  1
  F  F33  1  0.747294  0.954650  0.971641  1
  F  F34  1  0.045350  0.252706  0.528359  1
  F  F35  1  0.252706  0.045350  0.028359  1
  F  F36  1  0.954650  0.747294  0.471641  1
  F  F37  1  0.533750  0.466250  0.750000  1
