# generated using pymatgen
data_La2Pr(GaIr)2
_symmetry_space_group_name_H-M   'P 1'
_cell_length_a   5.81499100
_cell_length_b   8.30038100
_cell_length_c   13.76004000
_cell_angle_alpha   90.00000000
_cell_angle_beta   90.00000000
_cell_angle_gamma   90.00000000
_symmetry_Int_Tables_number   1
_chemical_formula_structural   La2Pr(GaIr)2
_chemical_formula_sum   'La8 Pr4 Ga8 Ir8'
_cell_volume   664.15090823
_cell_formula_units_Z   4
loop_
 _symmetry_equiv_pos_site_id
 _symmetry_equiv_pos_as_xyz
  1  'x, y, z'
loop_
 _atom_site_type_symbol
 _atom_site_label
 _atom_site_symmetry_multiplicity
 _atom_site_fract_x
 _atom_site_fract_y
 _atom_site_fract_z
 _atom_site_occupancy
  La  La0  1  0.152699  0.402343  0.097145  1
  La  La1  1  0.847301  0.597657  0.902855  1
  La  La2  1  0.847301  0.597657  0.597145  1
  La  La3  1  0.847301  0.902343  0.402855  1
  La  La4  1  0.152699  0.402343  0.402855  1
  La  La5  1  0.152699  0.097657  0.597145  1
  La  La6  1  0.152699  0.097657  0.902855  1
  La  La7  1  0.847301  0.902343  0.097145  1
  Pr  Pr8  1  0.633174  0.261034  0.250000  1
  Pr  Pr9  1  0.366826  0.738966  0.750000  1
  Pr  Pr10  1  0.366826  0.761034  0.250000  1
  Pr  Pr11  1  0.633174  0.238966  0.750000  1
  Ga  Ga12  1  0.138819  0.110800  0.250000  1
  Ga  Ga13  1  0.861181  0.889200  0.750000  1
  Ga  Ga14  1  0.861181  0.610800  0.250000  1
  Ga  Ga15  1  0.138819  0.389200  0.750000  1
  Ga  Ga16  1  0.622268  0.250000  0.000000  1
  Ga  Ga17  1  0.377732  0.750000  0.000000  1
  Ga  Ga18  1  0.377732  0.750000  0.500000  1
  Ga  Ga19  1  0.622268  0.250000  0.500000  1
  Ir  Ir20  1  0.353714  0.028942  0.091652  1
  Ir  Ir21  1  0.646286  0.971058  0.908348  1
  Ir  Ir22  1  0.646286  0.971058  0.591652  1
  Ir  Ir23  1  0.646286  0.528942  0.408348  1
  Ir  Ir24  1  0.353714  0.028942  0.408348  1
  Ir  Ir25  1  0.353714  0.471058  0.591652  1
  Ir  Ir26  1  0.353714  0.471058  0.908348  1
  Ir  Ir27  1  0.646286  0.528942  0.091652  1
