# generated using pymatgen
data_LiTm4Co5(P6Rh7)2
_symmetry_space_group_name_H-M   'P 1'
_cell_length_a   3.82160100
_cell_length_b   10.72295364
_cell_length_c   12.39327326
_cell_angle_alpha   89.95665550
_cell_angle_beta   90.00000000
_cell_angle_gamma   90.00000000
_symmetry_Int_Tables_number   1
_chemical_formula_structural   LiTm4Co5(P6Rh7)2
_chemical_formula_sum   'Li1 Tm4 Co5 P12 Rh14'
_cell_volume   507.86194482
_cell_formula_units_Z   1
loop_
 _symmetry_equiv_pos_site_id
 _symmetry_equiv_pos_as_xyz
  1  'x, y, z'
loop_
 _atom_site_type_symbol
 _atom_site_label
 _atom_site_symmetry_multiplicity
 _atom_site_fract_x
 _atom_site_fract_y
 _atom_site_fract_z
 _atom_site_occupancy
  Li  Li0  1  0.250000  0.703386  0.984862  1
  Tm  Tm1  1  0.250000  0.580823  0.710107  1
  Tm  Tm2  1  0.250000  0.916857  0.208539  1
  Tm  Tm3  1  0.750000  0.416825  0.292765  1
  Tm  Tm4  1  0.750000  0.082046  0.793481  1
  Co  Co5  1  0.750000  0.382583  0.803871  1
  Co  Co6  1  0.250000  0.461511  0.931791  1
  Co  Co7  1  0.250000  0.036229  0.433475  1
  Co  Co8  1  0.750000  0.536129  0.062436  1
  Co  Co9  1  0.750000  0.965406  0.565695  1
  P  P10  1  0.250000  0.427401  0.106114  1
  P  P11  1  0.250000  0.078720  0.605808  1
  P  P12  1  0.750000  0.566416  0.885722  1
  P  P13  1  0.750000  0.924465  0.393548  1
  P  P14  1  0.250000  0.272522  0.868171  1
  P  P15  1  0.250000  0.230073  0.372268  1
  P  P16  1  0.750000  0.731574  0.131151  1
  P  P17  1  0.750000  0.771816  0.629576  1
  P  P18  1  0.250000  0.598322  0.387275  1
  P  P19  1  0.250000  0.899351  0.888827  1
  P  P20  1  0.750000  0.401600  0.621721  1
  P  P21  1  0.750000  0.098708  0.109951  1
  Rh  Rh22  1  0.250000  0.782218  0.489899  1
  Rh  Rh23  1  0.750000  0.289040  0.010587  1
  Rh  Rh24  1  0.750000  0.218660  0.513280  1
  Rh  Rh25  1  0.250000  0.408719  0.479250  1
  Rh  Rh26  1  0.250000  0.095292  0.978994  1
  Rh  Rh27  1  0.750000  0.590662  0.525102  1
  Rh  Rh28  1  0.750000  0.906263  0.018648  1
  Rh  Rh29  1  0.250000  0.231544  0.178092  1
  Rh  Rh30  1  0.250000  0.276591  0.680053  1
  Rh  Rh31  1  0.750000  0.769907  0.821158  1
  Rh  Rh32  1  0.750000  0.726094  0.324719  1
  Rh  Rh33  1  0.250000  0.889685  0.698172  1
  Rh  Rh34  1  0.250000  0.618937  0.194937  1
  Rh  Rh35  1  0.750000  0.113625  0.299960  1
