# generated using pymatgen
data_Ba4LiSi6Pd
_symmetry_space_group_name_H-M   'P 1'
_cell_length_a   12.19665241
_cell_length_b   10.52733357
_cell_length_c   8.67589700
_cell_angle_alpha   78.20554418
_cell_angle_beta   57.66227169
_cell_angle_gamma   44.13218747
_symmetry_Int_Tables_number   1
_chemical_formula_structural   Ba4LiSi6Pd
_chemical_formula_sum   'Ba8 Li2 Si12 Pd2'
_cell_volume   624.11890281
_cell_formula_units_Z   2
loop_
 _symmetry_equiv_pos_site_id
 _symmetry_equiv_pos_as_xyz
  1  'x, y, z'
loop_
 _atom_site_type_symbol
 _atom_site_label
 _atom_site_symmetry_multiplicity
 _atom_site_fract_x
 _atom_site_fract_y
 _atom_site_fract_z
 _atom_site_occupancy
  Ba  Ba0  1  0.118461  0.131206  0.879105  1
  Ba  Ba1  1  0.878677  0.872219  0.118600  1
  Ba  Ba2  1  0.118716  0.131498  0.379206  1
  Ba  Ba3  1  0.377532  0.371736  0.120183  1
  Ba  Ba4  1  0.632337  0.622714  0.369272  1
  Ba  Ba5  1  0.370109  0.374742  0.631736  1
  Ba  Ba6  1  0.628039  0.616689  0.875061  1
  Ba  Ba7  1  0.874123  0.881131  0.628336  1
  Li  Li8  1  0.166884  0.833315  0.167913  1
  Li  Li9  1  0.416650  0.083067  0.417982  1
  Si  Si10  1  0.916224  0.590791  0.420261  1
  Si  Si11  1  0.065151  0.435345  0.591553  1
  Si  Si12  1  0.421433  0.071646  0.915988  1
  Si  Si13  1  0.592486  0.908383  0.065337  1
  Si  Si14  1  0.341908  0.657587  0.816189  1
  Si  Si15  1  0.659239  0.333975  0.177424  1
  Si  Si16  1  0.815437  0.184332  0.341706  1
  Si  Si17  1  0.178458  0.827924  0.658938  1
  Si  Si18  1  0.912377  0.587113  0.912397  1
  Si  Si19  1  0.593015  0.906473  0.592707  1
  Si  Si20  1  0.343121  0.656961  0.342204  1
  Si  Si21  1  0.662805  0.337836  0.661708  1
  Pd  Pd22  1  0.083432  0.416653  0.083092  1
  Pd  Pd23  1  0.833387  0.166672  0.833094  1
