# generated using pymatgen
data_Ac10Bi9Te
_symmetry_space_group_name_H-M   'P 1'
_cell_length_a   8.41626312
_cell_length_b   9.77361100
_cell_length_c   10.87862706
_cell_angle_alpha   103.01721484
_cell_angle_beta   97.41571254
_cell_angle_gamma   106.87978028
_symmetry_Int_Tables_number   1
_chemical_formula_structural   Ac10Bi9Te
_chemical_formula_sum   'Ac10 Bi9 Te1'
_cell_volume   815.93716447
_cell_formula_units_Z   1
loop_
 _symmetry_equiv_pos_site_id
 _symmetry_equiv_pos_as_xyz
  1  'x, y, z'
loop_
 _atom_site_type_symbol
 _atom_site_label
 _atom_site_symmetry_multiplicity
 _atom_site_fract_x
 _atom_site_fract_y
 _atom_site_fract_z
 _atom_site_occupancy
  Ac  Ac0  1  0.901024  0.549977  0.800291  1
  Ac  Ac1  1  0.697108  0.151271  0.399462  1
  Ac  Ac2  1  0.500404  0.750038  0.000519  1
  Ac  Ac3  1  0.697436  0.646813  0.398981  1
  Ac  Ac4  1  0.302564  0.353187  0.601019  1
  Ac  Ac5  1  0.100577  0.948732  0.196825  1
  Ac  Ac6  1  0.499596  0.249962  0.999481  1
  Ac  Ac7  1  0.302892  0.848729  0.600538  1
  Ac  Ac8  1  0.098976  0.450023  0.199709  1
  Ac  Ac9  1  0.899423  0.051268  0.803175  1
  Bi  Bi10  1  0.799907  0.600853  0.101157  1
  Bi  Bi11  1  0.599356  0.199244  0.699646  1
  Bi  Bi12  1  0.400644  0.800756  0.300354  1
  Bi  Bi13  1  0.800508  0.099828  0.101702  1
  Bi  Bi14  1  0.200093  0.399147  0.898843  1
  Bi  Bi15  1  0.601762  0.701108  0.699829  1
  Bi  Bi16  1  0.398238  0.298892  0.300171  1
  Bi  Bi17  1  0.199492  0.900172  0.898298  1
  Bi  Bi18  1  0.000000  0.500000  0.500000  1
  Te  Te19  1  0.000000  0.000000  0.500000  1
