# generated using pymatgen
data_Tm3Zn3Sn2Pd
_symmetry_space_group_name_H-M   'P 1'
_cell_length_a   6.97103000
_cell_length_b   6.96263628
_cell_length_c   4.45026400
_cell_angle_alpha   90.00000000
_cell_angle_beta   90.00000000
_cell_angle_gamma   120.07509348
_symmetry_Int_Tables_number   1
_chemical_formula_structural   Tm3Zn3Sn2Pd
_chemical_formula_sum   'Tm3 Zn3 Sn2 Pd1'
_cell_volume   186.92093398
_cell_formula_units_Z   1
loop_
 _symmetry_equiv_pos_site_id
 _symmetry_equiv_pos_as_xyz
  1  'x, y, z'
loop_
 _atom_site_type_symbol
 _atom_site_label
 _atom_site_symmetry_multiplicity
 _atom_site_fract_x
 _atom_site_fract_y
 _atom_site_fract_z
 _atom_site_occupancy
  Tm  Tm0  1  0.000223  0.403008  0.500000  1
  Tm  Tm1  1  0.597161  0.596982  0.500000  1
  Tm  Tm2  1  0.402752  0.000045  0.500000  1
  Zn  Zn3  1  0.000247  0.777619  0.000000  1
  Zn  Zn4  1  0.222479  0.222331  0.000000  1
  Zn  Zn5  1  0.777426  0.000099  0.000000  1
  Sn  Sn6  1  0.333350  0.666562  0.000000  1
  Sn  Sn7  1  0.666682  0.333441  0.000000  1
  Pd  Pd8  1  0.999678  0.999912  0.500000  1
