# generated using pymatgen
data_RbYH6Ru
_symmetry_space_group_name_H-M   'P 1'
_cell_length_a   7.60161800
_cell_length_b   7.60161800
_cell_length_c   7.60161800
_cell_angle_alpha   90.00000000
_cell_angle_beta   90.00000000
_cell_angle_gamma   90.00000000
_symmetry_Int_Tables_number   1
_chemical_formula_structural   RbYH6Ru
_chemical_formula_sum   'Rb4 Y4 H24 Ru4'
_cell_volume   439.25642673
_cell_formula_units_Z   4
loop_
 _symmetry_equiv_pos_site_id
 _symmetry_equiv_pos_as_xyz
  1  'x, y, z'
loop_
 _atom_site_type_symbol
 _atom_site_label
 _atom_site_symmetry_multiplicity
 _atom_site_fract_x
 _atom_site_fract_y
 _atom_site_fract_z
 _atom_site_occupancy
  Rb  Rb0  1  0.000000  0.000000  0.500000  1
  Rb  Rb1  1  0.000000  0.500000  0.000000  1
  Rb  Rb2  1  0.500000  0.000000  0.000000  1
  Rb  Rb3  1  0.000000  0.000000  0.000000  1
  Y  Y4  1  0.500000  0.500000  0.500000  1
  Y  Y5  1  0.000000  0.500000  0.500000  1
  Y  Y6  1  0.500000  0.000000  0.500000  1
  Y  Y7  1  0.500000  0.500000  0.000000  1
  H  H8  1  0.727278  0.727278  0.508072  1
  H  H9  1  0.272722  0.272722  0.508072  1
  H  H10  1  0.055573  0.714502  0.714502  1
  H  H11  1  0.285498  0.944427  0.714502  1
  H  H12  1  0.714502  0.055573  0.714502  1
  H  H13  1  0.944427  0.285498  0.714502  1
  H  H14  1  0.727278  0.508072  0.727278  1
  H  H15  1  0.508072  0.727278  0.727278  1
  H  H16  1  0.491928  0.272722  0.727278  1
  H  H17  1  0.272722  0.491928  0.727278  1
  H  H18  1  0.285498  0.714502  0.944427  1
  H  H19  1  0.714502  0.285498  0.944427  1
  H  H20  1  0.714502  0.714502  0.055573  1
  H  H21  1  0.285498  0.285498  0.055573  1
  H  H22  1  0.272722  0.508072  0.272722  1
  H  H23  1  0.491928  0.727278  0.272722  1
  H  H24  1  0.508072  0.272722  0.272722  1
  H  H25  1  0.727278  0.491928  0.272722  1
  H  H26  1  0.944427  0.714502  0.285498  1
  H  H27  1  0.714502  0.944427  0.285498  1
  H  H28  1  0.285498  0.055573  0.285498  1
  H  H29  1  0.055573  0.285498  0.285498  1
  H  H30  1  0.272722  0.727278  0.491928  1
  H  H31  1  0.727278  0.272722  0.491928  1
  Ru  Ru32  1  0.283520  0.716480  0.716480  1
  Ru  Ru33  1  0.716480  0.283520  0.716480  1
  Ru  Ru34  1  0.716480  0.716480  0.283520  1
  Ru  Ru35  1  0.283520  0.283520  0.283520  1
