# generated using pymatgen
data_PrScMnO5
_symmetry_space_group_name_H-M   'P 1'
_cell_length_a   5.92193500
_cell_length_b   7.73442300
_cell_length_c   8.91893100
_cell_angle_alpha   90.00000000
_cell_angle_beta   90.00000000
_cell_angle_gamma   90.00000000
_symmetry_Int_Tables_number   1
_chemical_formula_structural   PrScMnO5
_chemical_formula_sum   'Pr4 Sc4 Mn4 O20'
_cell_volume   408.51156926
_cell_formula_units_Z   4
loop_
 _symmetry_equiv_pos_site_id
 _symmetry_equiv_pos_as_xyz
  1  'x, y, z'
loop_
 _atom_site_type_symbol
 _atom_site_label
 _atom_site_symmetry_multiplicity
 _atom_site_fract_x
 _atom_site_fract_y
 _atom_site_fract_z
 _atom_site_occupancy
  Pr  Pr0  1  0.000000  0.363514  0.669961  1
  Pr  Pr1  1  0.000000  0.636486  0.330039  1
  Pr  Pr2  1  0.000000  0.863514  0.830039  1
  Pr  Pr3  1  0.000000  0.136486  0.169961  1
  Sc  Sc4  1  0.500000  0.114564  0.854889  1
  Sc  Sc5  1  0.500000  0.885436  0.145111  1
  Sc  Sc6  1  0.500000  0.614564  0.645111  1
  Sc  Sc7  1  0.500000  0.385436  0.354889  1
  Mn  Mn8  1  0.249415  0.500000  0.000000  1
  Mn  Mn9  1  0.750585  0.000000  0.500000  1
  Mn  Mn10  1  0.750585  0.500000  0.000000  1
  Mn  Mn11  1  0.249415  0.000000  0.500000  1
  O  O12  1  0.242305  0.902233  0.300876  1
  O  O13  1  0.242305  0.097767  0.699124  1
  O  O14  1  0.757695  0.402233  0.199124  1
  O  O15  1  0.757695  0.597767  0.800876  1
  O  O16  1  0.757695  0.097767  0.699124  1
  O  O17  1  0.757695  0.902233  0.300876  1
  O  O18  1  0.242305  0.597767  0.800876  1
  O  O19  1  0.242305  0.402233  0.199124  1
  O  O20  1  0.500000  0.354237  0.936108  1
  O  O21  1  0.500000  0.645763  0.063892  1
  O  O22  1  0.500000  0.854237  0.563892  1
  O  O23  1  0.500000  0.145763  0.436108  1
  O  O24  1  0.267158  0.000000  0.000000  1
  O  O25  1  0.732842  0.500000  0.500000  1
  O  O26  1  0.732842  0.000000  0.000000  1
  O  O27  1  0.267158  0.500000  0.500000  1
  O  O28  1  0.000000  0.153417  0.446472  1
  O  O29  1  0.000000  0.846583  0.553528  1
  O  O30  1  0.000000  0.653417  0.053528  1
  O  O31  1  0.000000  0.346583  0.946472  1
