# generated using pymatgen
data_LaTbNb3P7Rh9
_symmetry_space_group_name_H-M   'P 1'
_cell_length_a   3.95478000
_cell_length_b   9.69375717
_cell_length_c   9.69226460
_cell_angle_alpha   120.00609354
_cell_angle_beta   90.00019508
_cell_angle_gamma   89.99996680
_symmetry_Int_Tables_number   1
_chemical_formula_structural   LaTbNb3P7Rh9
_chemical_formula_sum   'La1 Tb1 Nb3 P7 Rh9'
_cell_volume   321.76862085
_cell_formula_units_Z   1
loop_
 _symmetry_equiv_pos_site_id
 _symmetry_equiv_pos_as_xyz
  1  'x, y, z'
loop_
 _atom_site_type_symbol
 _atom_site_label
 _atom_site_symmetry_multiplicity
 _atom_site_fract_x
 _atom_site_fract_y
 _atom_site_fract_z
 _atom_site_occupancy
  La  La0  1  0.261541  0.666667  0.333474  1
  Tb  Tb1  1  0.762108  0.333330  0.666570  1
  Nb  Nb2  1  0.762040  0.096116  0.876156  1
  Nb  Nb3  1  0.762036  0.123697  0.219797  1
  Nb  Nb4  1  0.762035  0.779973  0.903633  1
  P  P5  1  0.262260  0.000064  0.000053  1
  P  P6  1  0.761672  0.883085  0.595841  1
  P  P7  1  0.761674  0.404155  0.287107  1
  P  P8  1  0.761670  0.712869  0.117206  1
  P  P9  1  0.262244  0.115955  0.416191  1
  P  P10  1  0.262262  0.583908  0.699940  1
  P  P11  1  0.262255  0.300150  0.884085  1
  Rh  Rh12  1  0.261881  0.884023  0.161409  1
  Rh  Rh13  1  0.261873  0.838458  0.722625  1
  Rh  Rh14  1  0.261876  0.277485  0.116071  1
  Rh  Rh15  1  0.761812  0.608899  0.561470  1
  Rh  Rh16  1  0.761802  0.438366  0.047150  1
  Rh  Rh17  1  0.761805  0.952802  0.391057  1
  Rh  Rh18  1  0.261711  0.366231  0.438404  1
  Rh  Rh19  1  0.261716  0.561526  0.927790  1
  Rh  Rh20  1  0.261727  0.072244  0.633968  1
