# generated using pymatgen
data_MnAl2VOs4
_symmetry_space_group_name_H-M   'P 1'
_cell_length_a   4.25474100
_cell_length_b   4.25474120
_cell_length_c   7.35220824
_cell_angle_alpha   73.19225745
_cell_angle_beta   106.80774379
_cell_angle_gamma   119.99864385
_symmetry_Int_Tables_number   1
_chemical_formula_structural   MnAl2VOs4
_chemical_formula_sum   'Mn1 Al2 V1 Os4'
_cell_volume   108.65069556
_cell_formula_units_Z   1
loop_
 _symmetry_equiv_pos_site_id
 _symmetry_equiv_pos_as_xyz
  1  'x, y, z'
loop_
 _atom_site_type_symbol
 _atom_site_label
 _atom_site_symmetry_multiplicity
 _atom_site_fract_x
 _atom_site_fract_y
 _atom_site_fract_z
 _atom_site_occupancy
  Mn  Mn0  1  0.375000  0.625000  0.125000  1
  Al  Al1  1  0.124784  0.875216  0.374097  1
  Al  Al2  1  0.625216  0.374784  0.875903  1
  V  V3  1  0.875000  0.125000  0.625000  1
  Os  Os4  1  0.749569  0.250431  0.248531  1
  Os  Os5  1  0.250412  0.749588  0.751155  1
  Os  Os6  1  0.000431  0.999569  0.001469  1
  Os  Os7  1  0.499588  0.500412  0.498845  1
