# generated using pymatgen
data_Rb3Na(AlI4)4
_symmetry_space_group_name_H-M   'P 1'
_cell_length_a   8.48693035
_cell_length_b   8.60265063
_cell_length_c   16.83349964
_cell_angle_alpha   85.72129919
_cell_angle_beta   91.10804704
_cell_angle_gamma   91.64040405
_symmetry_Int_Tables_number   1
_chemical_formula_structural   Rb3Na(AlI4)4
_chemical_formula_sum   'Rb3 Na1 Al4 I16'
_cell_volume   1224.90538160
_cell_formula_units_Z   1
loop_
 _symmetry_equiv_pos_site_id
 _symmetry_equiv_pos_as_xyz
  1  'x, y, z'
loop_
 _atom_site_type_symbol
 _atom_site_label
 _atom_site_symmetry_multiplicity
 _atom_site_fract_x
 _atom_site_fract_y
 _atom_site_fract_z
 _atom_site_occupancy
  Rb  Rb0  1  0.493360  0.254074  0.638279  1
  Rb  Rb1  1  0.998715  0.739899  0.864628  1
  Rb  Rb2  1  0.502420  0.744874  0.354480  1
  Na  Na3  1  0.013608  0.237603  0.123985  1
  Al  Al4  1  0.339914  0.246869  0.357102  1
  Al  Al5  1  0.877184  0.759590  0.141384  1
  Al  Al6  1  0.644893  0.749930  0.639023  1
  Al  Al7  1  0.135956  0.245022  0.866137  1
  I  I8  1  0.861525  0.138946  0.906738  1
  I  I9  1  0.374318  0.844911  0.589038  1
  I  I10  1  0.144778  0.877651  0.093688  1
  I  I11  1  0.615934  0.158600  0.402837  1
  I  I12  1  0.363069  0.401219  0.220393  1
  I  I13  1  0.898703  0.592441  0.273171  1
  I  I14  1  0.607175  0.590636  0.773270  1
  I  I15  1  0.111753  0.417259  0.735150  1
  I  I16  1  0.698431  0.992299  0.158274  1
  I  I17  1  0.146958  0.017333  0.341056  1
  I  I18  1  0.334432  0.032461  0.844328  1
  I  I19  1  0.839968  0.976801  0.659598  1
  I  I20  1  0.237368  0.424754  0.460072  1
  I  I21  1  0.763351  0.572646  0.040587  1
  I  I22  1  0.756021  0.576010  0.537095  1
  I  I23  1  0.240166  0.408170  0.979688  1
