# generated using pymatgen
data_Tm2Al2PdRh
_symmetry_space_group_name_H-M   'P 1'
_cell_length_a   4.29087600
_cell_length_b   6.79626300
_cell_length_c   7.86507100
_cell_angle_alpha   90.00000000
_cell_angle_beta   90.00000000
_cell_angle_gamma   90.00000000
_symmetry_Int_Tables_number   1
_chemical_formula_structural   Tm2Al2PdRh
_chemical_formula_sum   'Tm4 Al4 Pd2 Rh2'
_cell_volume   229.36058543
_cell_formula_units_Z   2
loop_
 _symmetry_equiv_pos_site_id
 _symmetry_equiv_pos_as_xyz
  1  'x, y, z'
loop_
 _atom_site_type_symbol
 _atom_site_label
 _atom_site_symmetry_multiplicity
 _atom_site_fract_x
 _atom_site_fract_y
 _atom_site_fract_z
 _atom_site_occupancy
  Tm  Tm0  1  0.250000  0.961496  0.324030  1
  Tm  Tm1  1  0.750000  0.532615  0.819510  1
  Tm  Tm2  1  0.250000  0.461496  0.175970  1
  Tm  Tm3  1  0.750000  0.032615  0.680490  1
  Al  Al4  1  0.750000  0.638352  0.443113  1
  Al  Al5  1  0.750000  0.138352  0.056887  1
  Al  Al6  1  0.250000  0.365573  0.562298  1
  Al  Al7  1  0.250000  0.865573  0.937702  1
  Pd  Pd8  1  0.750000  0.764727  0.124964  1
  Pd  Pd9  1  0.750000  0.264727  0.375036  1
  Rh  Rh10  1  0.250000  0.237236  0.878131  1
  Rh  Rh11  1  0.250000  0.737236  0.621869  1
