# generated using pymatgen
data_Tb3Nd3Y2(CdPd)2
_symmetry_space_group_name_H-M   'P 1'
_cell_length_a   9.82471185
_cell_length_b   9.82935618
_cell_length_c   9.82935610
_cell_angle_alpha   59.96874490
_cell_angle_beta   60.01562962
_cell_angle_gamma   60.01563058
_symmetry_Int_Tables_number   1
_chemical_formula_structural   Tb3Nd3Y2(CdPd)2
_chemical_formula_sum   'Tb6 Nd6 Y4 Cd4 Pd4'
_cell_volume   671.20438983
_cell_formula_units_Z   2
loop_
 _symmetry_equiv_pos_site_id
 _symmetry_equiv_pos_as_xyz
  1  'x, y, z'
loop_
 _atom_site_type_symbol
 _atom_site_label
 _atom_site_symmetry_multiplicity
 _atom_site_fract_x
 _atom_site_fract_y
 _atom_site_fract_z
 _atom_site_occupancy
  Tb  Tb0  1  0.352144  0.352354  0.352354  1
  Tb  Tb1  1  0.352354  0.352144  0.943148  1
  Tb  Tb2  1  0.352354  0.943148  0.352144  1
  Tb  Tb3  1  0.943148  0.352354  0.352354  1
  Tb  Tb4  1  0.811848  0.188152  0.188152  1
  Tb  Tb5  1  0.188152  0.811848  0.811848  1
  Nd  Nd6  1  0.936399  0.563601  0.563601  1
  Nd  Nd7  1  0.563601  0.936399  0.936399  1
  Nd  Nd8  1  0.563607  0.936393  0.563607  1
  Nd  Nd9  1  0.936393  0.563607  0.936393  1
  Nd  Nd10  1  0.563607  0.563607  0.936393  1
  Nd  Nd11  1  0.936393  0.936393  0.563607  1
  Y  Y12  1  0.188405  0.811595  0.188405  1
  Y  Y13  1  0.811595  0.188405  0.811595  1
  Y  Y14  1  0.188405  0.188405  0.811595  1
  Y  Y15  1  0.811595  0.811595  0.188405  1
  Cd  Cd16  1  0.580296  0.580081  0.580081  1
  Cd  Cd17  1  0.580081  0.580296  0.259542  1
  Cd  Cd18  1  0.580081  0.259542  0.580296  1
  Cd  Cd19  1  0.259542  0.580081  0.580081  1
  Pd  Pd20  1  0.143819  0.144187  0.144187  1
  Pd  Pd21  1  0.144187  0.143819  0.567805  1
  Pd  Pd22  1  0.144187  0.567805  0.143819  1
  Pd  Pd23  1  0.567805  0.144187  0.144187  1
