# generated using pymatgen
data_BaZn4Pt
_symmetry_space_group_name_H-M   'P 1'
_cell_length_a   6.86174364
_cell_length_b   6.86174411
_cell_length_c   5.40975200
_cell_angle_alpha   90.00000000
_cell_angle_beta   90.00000000
_cell_angle_gamma   103.57732849
_symmetry_Int_Tables_number   1
_chemical_formula_structural   BaZn4Pt
_chemical_formula_sum   'Ba2 Zn8 Pt2'
_cell_volume   247.59207527
_cell_formula_units_Z   2
loop_
 _symmetry_equiv_pos_site_id
 _symmetry_equiv_pos_as_xyz
  1  'x, y, z'
loop_
 _atom_site_type_symbol
 _atom_site_label
 _atom_site_symmetry_multiplicity
 _atom_site_fract_x
 _atom_site_fract_y
 _atom_site_fract_z
 _atom_site_occupancy
  Ba  Ba0  1  0.667395  0.667395  0.250000  1
  Ba  Ba1  1  0.332605  0.332605  0.750000  1
  Zn  Zn2  1  0.925035  0.925035  0.750000  1
  Zn  Zn3  1  0.074965  0.074965  0.250000  1
  Zn  Zn4  1  0.534516  0.921903  0.750485  1
  Zn  Zn5  1  0.465484  0.078097  0.250485  1
  Zn  Zn6  1  0.921903  0.534516  0.749515  1
  Zn  Zn7  1  0.078097  0.465484  0.249515  1
  Zn  Zn8  1  0.793897  0.206103  0.000000  1
  Zn  Zn9  1  0.206103  0.793897  0.500000  1
  Pt  Pt10  1  0.794381  0.205619  0.500000  1
  Pt  Pt11  1  0.205619  0.794381  0.000000  1
