# generated using pymatgen
data_Ce5Dy11(MgMn)4
_symmetry_space_group_name_H-M   'P 1'
_cell_length_a   9.75013897
_cell_length_b   9.59301339
_cell_length_c   9.59301243
_cell_angle_alpha   60.92073351
_cell_angle_beta   59.45669078
_cell_angle_gamma   59.45668573
_symmetry_Int_Tables_number   1
_chemical_formula_structural   Ce5Dy11(MgMn)4
_chemical_formula_sum   'Ce5 Dy11 Mg4 Mn4'
_cell_volume   633.38760685
_cell_formula_units_Z   1
loop_
 _symmetry_equiv_pos_site_id
 _symmetry_equiv_pos_as_xyz
  1  'x, y, z'
loop_
 _atom_site_type_symbol
 _atom_site_label
 _atom_site_symmetry_multiplicity
 _atom_site_fract_x
 _atom_site_fract_y
 _atom_site_fract_z
 _atom_site_occupancy
  Ce  Ce0  1  0.370051  0.328162  0.328162  1
  Ce  Ce1  1  0.325003  0.371842  0.978151  1
  Ce  Ce2  1  0.325003  0.978151  0.371842  1
  Ce  Ce3  1  0.973626  0.328162  0.328162  1
  Ce  Ce4  1  0.816867  0.183133  0.183133  1
  Dy  Dy5  1  0.183816  0.816184  0.816184  1
  Dy  Dy6  1  0.189133  0.811948  0.184715  1
  Dy  Dy7  1  0.814203  0.184715  0.811948  1
  Dy  Dy8  1  0.189133  0.184715  0.811948  1
  Dy  Dy9  1  0.814203  0.811948  0.184715  1
  Dy  Dy10  1  0.941809  0.558191  0.558191  1
  Dy  Dy11  1  0.562081  0.937919  0.937919  1
  Dy  Dy12  1  0.566501  0.934362  0.563491  1
  Dy  Dy13  1  0.935645  0.563491  0.934362  1
  Dy  Dy14  1  0.566501  0.563491  0.934362  1
  Dy  Dy15  1  0.935645  0.934362  0.563491  1
  Mg  Mg16  1  0.585674  0.576017  0.576017  1
  Mg  Mg17  1  0.574697  0.589737  0.260868  1
  Mg  Mg18  1  0.574697  0.260868  0.589737  1
  Mg  Mg19  1  0.262290  0.576017  0.576017  1
  Mn  Mn20  1  0.071594  0.171780  0.171780  1
  Mn  Mn21  1  0.168489  0.109929  0.553094  1
  Mn  Mn22  1  0.168489  0.553094  0.109929  1
  Mn  Mn23  1  0.584847  0.171780  0.171780  1
