# generated using pymatgen
data_La3UF12
_symmetry_space_group_name_H-M   'P 1'
_cell_length_a   4.54445336
_cell_length_b   6.97707044
_cell_length_c   7.36284400
_cell_angle_alpha   90.00000000
_cell_angle_beta   90.00000000
_cell_angle_gamma   89.72781867
_symmetry_Int_Tables_number   1
_chemical_formula_structural   La3UF12
_chemical_formula_sum   'La3 U1 F12'
_cell_volume   233.45084889
_cell_formula_units_Z   1
loop_
 _symmetry_equiv_pos_site_id
 _symmetry_equiv_pos_as_xyz
  1  'x, y, z'
loop_
 _atom_site_type_symbol
 _atom_site_label
 _atom_site_symmetry_multiplicity
 _atom_site_fract_x
 _atom_site_fract_y
 _atom_site_fract_z
 _atom_site_occupancy
  La  La0  1  0.440753  0.863228  0.250001  1
  La  La1  1  0.556784  0.136623  0.750000  1
  La  La2  1  0.940676  0.636499  0.750000  1
  U  U3  1  0.058164  0.363286  0.250001  1
  F  F4  1  0.402993  0.166259  0.068255  1
  F  F5  1  0.097258  0.662783  0.068703  1
  F  F6  1  0.935259  0.018040  0.250001  1
  F  F7  1  0.572633  0.513058  0.250001  1
  F  F8  1  0.402993  0.166259  0.431744  1
  F  F9  1  0.097258  0.662783  0.431296  1
  F  F10  1  0.903275  0.335364  0.567172  1
  F  F11  1  0.595512  0.835790  0.567973  1
  F  F12  1  0.433627  0.485014  0.750000  1
  F  F13  1  0.064024  0.983862  0.750000  1
  F  F14  1  0.903275  0.335364  0.932827  1
  F  F15  1  0.595512  0.835790  0.932026  1
