# generated using pymatgen
data_Li3Fe2AsRh6
_symmetry_space_group_name_H-M   'P 1'
_cell_length_a   4.20339200
_cell_length_b   5.92268800
_cell_length_c   12.56369700
_cell_angle_alpha   90.00000000
_cell_angle_beta   89.99878915
_cell_angle_gamma   90.00000000
_symmetry_Int_Tables_number   1
_chemical_formula_structural   Li3Fe2AsRh6
_chemical_formula_sum   'Li6 Fe4 As2 Rh12'
_cell_volume   312.77800292
_cell_formula_units_Z   2
loop_
 _symmetry_equiv_pos_site_id
 _symmetry_equiv_pos_as_xyz
  1  'x, y, z'
loop_
 _atom_site_type_symbol
 _atom_site_label
 _atom_site_symmetry_multiplicity
 _atom_site_fract_x
 _atom_site_fract_y
 _atom_site_fract_z
 _atom_site_occupancy
  Li  Li0  1  0.999986  0.000000  0.996902  1
  Li  Li1  1  0.499781  0.500000  0.169623  1
  Li  Li2  1  0.999748  0.000000  0.335803  1
  Li  Li3  1  0.499995  0.500000  0.499430  1
  Li  Li4  1  0.000226  0.000000  0.667332  1
  Li  Li5  1  0.500226  0.500000  0.830886  1
  Fe  Fe6  1  0.999733  0.500000  0.335631  1
  Fe  Fe7  1  0.499998  0.000000  0.501066  1
  Fe  Fe8  1  0.000295  0.500000  0.665645  1
  Fe  Fe9  1  0.500246  0.000000  0.831044  1
  As  As10  1  0.999975  0.500000  0.998868  1
  As  As11  1  0.499796  0.000000  0.167799  1
  Rh  Rh12  1  0.499971  0.251361  0.002474  1
  Rh  Rh13  1  0.499971  0.748638  0.002474  1
  Rh  Rh14  1  0.999791  0.248649  0.164094  1
  Rh  Rh15  1  0.999791  0.751352  0.164094  1
  Rh  Rh16  1  0.499750  0.247265  0.330699  1
  Rh  Rh17  1  0.499750  0.752735  0.330699  1
  Rh  Rh18  1  0.999993  0.249820  0.499760  1
  Rh  Rh19  1  0.999993  0.750179  0.499760  1
  Rh  Rh20  1  0.500273  0.250171  0.667020  1
  Rh  Rh21  1  0.500273  0.749829  0.667020  1
  Rh  Rh22  1  0.000219  0.252947  0.835940  1
  Rh  Rh23  1  0.000219  0.747054  0.835940  1
