# generated using pymatgen
data_Lu5ZnCuBi
_symmetry_space_group_name_H-M   'P 1'
_cell_length_a   8.47411263
_cell_length_b   8.47411226
_cell_length_c   8.41760212
_cell_angle_alpha   124.17015811
_cell_angle_beta   124.17015190
_cell_angle_gamma   83.34941917
_symmetry_Int_Tables_number   1
_chemical_formula_structural   Lu5ZnCuBi
_chemical_formula_sum   'Lu10 Zn2 Cu2 Bi2'
_cell_volume   395.80191055
_cell_formula_units_Z   2
loop_
 _symmetry_equiv_pos_site_id
 _symmetry_equiv_pos_as_xyz
  1  'x, y, z'
loop_
 _atom_site_type_symbol
 _atom_site_label
 _atom_site_symmetry_multiplicity
 _atom_site_fract_x
 _atom_site_fract_y
 _atom_site_fract_z
 _atom_site_occupancy
  Lu  Lu0  1  0.000000  0.000000  0.000000  1
  Lu  Lu1  1  0.500000  0.500000  0.000000  1
  Lu  Lu2  1  0.796884  0.296884  0.814176  1
  Lu  Lu3  1  0.203116  0.703116  0.185824  1
  Lu  Lu4  1  0.482709  0.982709  0.185824  1
  Lu  Lu5  1  0.287362  0.490656  0.500000  1
  Lu  Lu6  1  0.009344  0.212638  0.500000  1
  Lu  Lu7  1  0.517291  0.017291  0.814176  1
  Lu  Lu8  1  0.712638  0.509344  0.500000  1
  Lu  Lu9  1  0.990656  0.787362  0.500000  1
  Zn  Zn10  1  0.638087  0.861913  0.500000  1
  Zn  Zn11  1  0.361913  0.138087  0.500000  1
  Cu  Cu12  1  0.133956  0.633956  0.767912  1
  Cu  Cu13  1  0.866044  0.366044  0.232088  1
  Bi  Bi14  1  0.250000  0.250000  0.000000  1
  Bi  Bi15  1  0.750000  0.750000  0.000000  1
