# generated using pymatgen
data_Nd4CuRh3
_symmetry_space_group_name_H-M   'P 1'
_cell_length_a   4.30521800
_cell_length_b   5.82488381
_cell_length_c   7.50583269
_cell_angle_alpha   90.67272170
_cell_angle_beta   90.00000000
_cell_angle_gamma   90.00000000
_symmetry_Int_Tables_number   1
_chemical_formula_structural   Nd4CuRh3
_chemical_formula_sum   'Nd4 Cu1 Rh3'
_cell_volume   188.21375435
_cell_formula_units_Z   1
loop_
 _symmetry_equiv_pos_site_id
 _symmetry_equiv_pos_as_xyz
  1  'x, y, z'
loop_
 _atom_site_type_symbol
 _atom_site_label
 _atom_site_symmetry_multiplicity
 _atom_site_fract_x
 _atom_site_fract_y
 _atom_site_fract_z
 _atom_site_occupancy
  Nd  Nd0  1  0.250000  0.357646  0.677017  1
  Nd  Nd1  1  0.750000  0.636801  0.331113  1
  Nd  Nd2  1  0.750000  0.866907  0.810504  1
  Nd  Nd3  1  0.250000  0.138958  0.183000  1
  Cu  Cu4  1  0.250000  0.628521  0.035497  1
  Rh  Rh5  1  0.250000  0.841385  0.548884  1
  Rh  Rh6  1  0.750000  0.158821  0.446368  1
  Rh  Rh7  1  0.750000  0.370962  0.967617  1
