# generated using pymatgen
data_YTa3MoN6
_symmetry_space_group_name_H-M   'P 1'
_cell_length_a   5.24832205
_cell_length_b   5.24724541
_cell_length_c   10.74161200
_cell_angle_alpha   90.01558171
_cell_angle_beta   89.99220528
_cell_angle_gamma   119.99322278
_symmetry_Int_Tables_number   1
_chemical_formula_structural   YTa3MoN6
_chemical_formula_sum   'Y2 Ta6 Mo2 N12'
_cell_volume   256.20145038
_cell_formula_units_Z   2
loop_
 _symmetry_equiv_pos_site_id
 _symmetry_equiv_pos_as_xyz
  1  'x, y, z'
loop_
 _atom_site_type_symbol
 _atom_site_label
 _atom_site_symmetry_multiplicity
 _atom_site_fract_x
 _atom_site_fract_y
 _atom_site_fract_z
 _atom_site_occupancy
  Y  Y0  1  0.666158  0.333847  0.000728  1
  Y  Y1  1  0.333842  0.667690  0.000728  1
  Ta  Ta2  1  0.000000  0.323913  0.739413  1
  Ta  Ta3  1  0.324621  0.325123  0.262473  1
  Ta  Ta4  1  0.675379  0.000502  0.262473  1
  Ta  Ta5  1  0.000000  0.675208  0.262356  1
  Ta  Ta6  1  0.333076  0.668215  0.492808  1
  Ta  Ta7  1  0.666924  0.335138  0.492808  1
  Mo  Mo8  1  0.673706  0.672355  0.737842  1
  Mo  Mo9  1  0.326294  0.998649  0.737842  1
  N  N10  1  0.668031  0.669104  0.387885  1
  N  N11  1  0.331969  0.001073  0.387885  1
  N  N12  1  0.000000  0.332154  0.387340  1
  N  N13  1  0.345271  0.345632  0.616567  1
  N  N14  1  0.654729  0.000361  0.616567  1
  N  N15  1  0.000000  0.652639  0.616885  1
  N  N16  1  0.335992  0.336033  0.854537  1
  N  N17  1  0.664008  0.000041  0.854537  1
  N  N18  1  0.000000  0.661114  0.854372  1
  N  N19  1  0.659730  0.660022  0.144631  1
  N  N20  1  0.340270  0.000292  0.144631  1
  N  N21  1  0.000000  0.340890  0.144691  1
