# generated using pymatgen
data_Nd11DyFe2I17
_symmetry_space_group_name_H-M   'P 1'
_cell_length_a   10.00777710
_cell_length_b   12.02691120
_cell_length_c   12.02430106
_cell_angle_alpha   93.57168337
_cell_angle_beta   104.61112950
_cell_angle_gamma   114.36421232
_symmetry_Int_Tables_number   1
_chemical_formula_structural   Nd11DyFe2I17
_chemical_formula_sum   'Nd11 Dy1 Fe2 I17'
_cell_volume   1252.82158666
_cell_formula_units_Z   1
loop_
 _symmetry_equiv_pos_site_id
 _symmetry_equiv_pos_as_xyz
  1  'x, y, z'
loop_
 _atom_site_type_symbol
 _atom_site_label
 _atom_site_symmetry_multiplicity
 _atom_site_fract_x
 _atom_site_fract_y
 _atom_site_fract_z
 _atom_site_occupancy
  Nd  Nd0  1  0.991679  0.809506  0.586500  1
  Nd  Nd1  1  0.657099  0.242773  0.281625  1
  Nd  Nd2  1  0.011680  0.191285  0.417728  1
  Nd  Nd3  1  0.221569  0.672054  0.985879  1
  Nd  Nd4  1  0.257033  0.981917  0.890550  1
  Nd  Nd5  1  0.351051  0.759842  0.716960  1
  Nd  Nd6  1  0.946860  0.494797  0.679152  1
  Nd  Nd7  1  0.741092  0.014377  0.108299  1
  Nd  Nd8  1  0.140159  0.288083  0.153936  1
  Nd  Nd9  1  0.777096  0.330856  0.012223  1
  Nd  Nd10  1  0.854093  0.713177  0.849365  1
  Dy  Dy11  1  0.050184  0.501125  0.318428  1
  Fe  Fe12  1  0.104690  0.738634  0.786214  1
  Fe  Fe13  1  0.895447  0.261696  0.214216  1
  I  I14  1  0.793088  0.529499  0.414863  1
  I  I15  1  0.642325  0.419795  0.759325  1
  I  I16  1  0.843779  0.896940  0.325684  1
  I  I17  1  0.325222  0.213625  0.368210  1
  I  I18  1  0.157932  0.104990  0.675629  1
  I  I19  1  0.589408  0.053441  0.843913  1
  I  I20  1  0.756773  0.185394  0.537510  1
  I  I21  1  0.548550  0.707513  0.953745  1
  I  I22  1  0.348372  0.580872  0.245863  1
  I  I23  1  0.214065  0.475060  0.574261  1
  I  I24  1  0.055524  0.368176  0.897720  1
  I  I25  1  0.451855  0.292006  0.048045  1
  I  I26  1  0.001103  0.001758  0.001238  1
  I  I27  1  0.235866  0.802869  0.456241  1
  I  I28  1  0.414186  0.949179  0.157290  1
  I  I29  1  0.674898  0.786875  0.631543  1
  I  I30  1  0.947322  0.631885  0.107844  1
