# generated using pymatgen
data_CuMo6Pd3N2
_symmetry_space_group_name_H-M   'P 1'
_cell_length_a   6.84951600
_cell_length_b   6.83973101
_cell_length_c   6.84221561
_cell_angle_alpha   90.10242626
_cell_angle_beta   90.00000000
_cell_angle_gamma   90.00000000
_symmetry_Int_Tables_number   1
_chemical_formula_structural   CuMo6Pd3N2
_chemical_formula_sum   'Cu2 Mo12 Pd6 N4'
_cell_volume   320.54940014
_cell_formula_units_Z   2
loop_
 _symmetry_equiv_pos_site_id
 _symmetry_equiv_pos_as_xyz
  1  'x, y, z'
loop_
 _atom_site_type_symbol
 _atom_site_label
 _atom_site_symmetry_multiplicity
 _atom_site_fract_x
 _atom_site_fract_y
 _atom_site_fract_z
 _atom_site_occupancy
  Cu  Cu0  1  0.314277  0.817304  0.936238  1
  Cu  Cu1  1  0.814277  0.182696  0.063762  1
  Mo  Mo2  1  0.376689  0.953717  0.547383  1
  Mo  Mo3  1  0.876689  0.046283  0.452617  1
  Mo  Mo4  1  0.128335  0.461412  0.949842  1
  Mo  Mo5  1  0.628335  0.538588  0.050158  1
  Mo  Mo6  1  0.796050  0.373234  0.707142  1
  Mo  Mo7  1  0.700199  0.877608  0.793200  1
  Mo  Mo8  1  0.200199  0.122392  0.206800  1
  Mo  Mo9  1  0.296050  0.626766  0.292858  1
  Mo  Mo10  1  0.957352  0.798008  0.123980  1
  Mo  Mo11  1  0.042987  0.702043  0.626195  1
  Mo  Mo12  1  0.457352  0.201992  0.876020  1
  Mo  Mo13  1  0.542987  0.297957  0.373805  1
  Pd  Pd14  1  0.187407  0.313514  0.564216  1
  Pd  Pd15  1  0.687407  0.686486  0.435784  1
  Pd  Pd16  1  0.936176  0.430802  0.303585  1
  Pd  Pd17  1  0.562980  0.938924  0.177832  1
  Pd  Pd18  1  0.436176  0.569198  0.696415  1
  Pd  Pd19  1  0.062980  0.061076  0.822168  1
  N  N20  1  0.624895  0.126027  0.621715  1
  N  N21  1  0.124895  0.873973  0.378285  1
  N  N22  1  0.872655  0.626064  0.874975  1
  N  N23  1  0.372655  0.373936  0.125025  1
