# generated using pymatgen
data_Y5Ho3(Er3Pt4)4
_symmetry_space_group_name_H-M   'P 1'
_cell_length_a   7.44853601
_cell_length_b   7.54496502
_cell_length_c   14.70029001
_cell_angle_alpha   89.99679580
_cell_angle_beta   89.99929158
_cell_angle_gamma   90.00723003
_symmetry_Int_Tables_number   1
_chemical_formula_structural   Y5Ho3(Er3Pt4)4
_chemical_formula_sum   'Y5 Ho3 Er12 Pt16'
_cell_volume   826.14076202
_cell_formula_units_Z   1
loop_
 _symmetry_equiv_pos_site_id
 _symmetry_equiv_pos_as_xyz
  1  'x, y, z'
loop_
 _atom_site_type_symbol
 _atom_site_label
 _atom_site_symmetry_multiplicity
 _atom_site_fract_x
 _atom_site_fract_y
 _atom_site_fract_z
 _atom_site_occupancy
  Y  Y0  1  0.501210  0.679968  0.592617  1
  Y  Y1  1  0.001185  0.820073  0.907390  1
  Y  Y2  1  0.498818  0.320092  0.092631  1
  Y  Y3  1  0.998820  0.179918  0.407394  1
  Y  Y4  1  0.498783  0.320051  0.407368  1
  Ho  Ho5  1  0.998613  0.180046  0.092667  1
  Ho  Ho6  1  0.501387  0.680042  0.907328  1
  Ho  Ho7  1  0.001361  0.819962  0.592679  1
  Er  Er8  1  0.657074  0.167697  0.622479  1
  Er  Er9  1  0.157039  0.332300  0.877527  1
  Er  Er10  1  0.342969  0.832302  0.122475  1
  Er  Er11  1  0.842958  0.667711  0.377508  1
  Er  Er12  1  0.342966  0.832309  0.377509  1
  Er  Er13  1  0.842951  0.667676  0.122499  1
  Er  Er14  1  0.657043  0.167696  0.877523  1
  Er  Er15  1  0.157025  0.332308  0.622489  1
  Er  Er16  1  0.818974  0.512021  0.750007  1
  Er  Er17  1  0.318960  0.987983  0.749988  1
  Er  Er18  1  0.181018  0.487972  0.249993  1
  Er  Er19  1  0.681039  0.011997  0.249959  1
  Pt  Pt20  1  0.683095  0.967068  0.458249  1
  Pt  Pt21  1  0.183019  0.532728  0.041792  1
  Pt  Pt22  1  0.316985  0.032718  0.958210  1
  Pt  Pt23  1  0.817060  0.467316  0.541826  1
  Pt  Pt24  1  0.316713  0.032689  0.541835  1
  Pt  Pt25  1  0.816760  0.467214  0.958212  1
  Pt  Pt26  1  0.683257  0.967198  0.041773  1
  Pt  Pt27  1  0.182970  0.532970  0.458269  1
  Pt  Pt28  1  0.454112  0.386836  0.750064  1
  Pt  Pt29  1  0.954108  0.113154  0.749955  1
  Pt  Pt30  1  0.545918  0.613258  0.249989  1
  Pt  Pt31  1  0.045905  0.886851  0.249938  1
  Pt  Pt32  1  0.683090  0.857039  0.750104  1
  Pt  Pt33  1  0.183100  0.642971  0.749925  1
  Pt  Pt34  1  0.316741  0.142819  0.249962  1
  Pt  Pt35  1  0.816975  0.357052  0.249869  1
