# generated using pymatgen
data_DyY3HgPt
_symmetry_space_group_name_H-M   'P 1'
_cell_length_a   9.67577616
_cell_length_b   9.67577600
_cell_length_c   9.67577600
_cell_angle_alpha   60.00000000
_cell_angle_beta   60.00000054
_cell_angle_gamma   59.99999982
_symmetry_Int_Tables_number   1
_chemical_formula_structural   DyY3HgPt
_chemical_formula_sum   'Dy4 Y12 Hg4 Pt4'
_cell_volume   640.53435393
_cell_formula_units_Z   4
loop_
 _symmetry_equiv_pos_site_id
 _symmetry_equiv_pos_as_xyz
  1  'x, y, z'
loop_
 _atom_site_type_symbol
 _atom_site_label
 _atom_site_symmetry_multiplicity
 _atom_site_fract_x
 _atom_site_fract_y
 _atom_site_fract_z
 _atom_site_occupancy
  Dy  Dy0  1  0.354088  0.354088  0.354088  1
  Dy  Dy1  1  0.354088  0.354088  0.937735  1
  Dy  Dy2  1  0.354088  0.937735  0.354088  1
  Dy  Dy3  1  0.937735  0.354088  0.354088  1
  Y  Y4  1  0.809998  0.190002  0.190002  1
  Y  Y5  1  0.190002  0.809998  0.809998  1
  Y  Y6  1  0.190002  0.809998  0.190002  1
  Y  Y7  1  0.809998  0.190002  0.809998  1
  Y  Y8  1  0.190002  0.190002  0.809998  1
  Y  Y9  1  0.809998  0.809998  0.190002  1
  Y  Y10  1  0.936089  0.563911  0.563911  1
  Y  Y11  1  0.563911  0.936089  0.936089  1
  Y  Y12  1  0.563911  0.936089  0.563911  1
  Y  Y13  1  0.936089  0.563911  0.936089  1
  Y  Y14  1  0.563911  0.563911  0.936089  1
  Y  Y15  1  0.936089  0.936089  0.563911  1
  Hg  Hg16  1  0.586187  0.586187  0.586187  1
  Hg  Hg17  1  0.586187  0.586187  0.241439  1
  Hg  Hg18  1  0.586187  0.241439  0.586187  1
  Hg  Hg19  1  0.241439  0.586187  0.586187  1
  Pt  Pt20  1  0.144271  0.144271  0.144271  1
  Pt  Pt21  1  0.144271  0.144271  0.567185  1
  Pt  Pt22  1  0.144271  0.567185  0.144271  1
  Pt  Pt23  1  0.567185  0.144271  0.144271  1
