# generated using pymatgen
data_Ac4CuPd3
_symmetry_space_group_name_H-M   'P 1'
_cell_length_a   4.86465700
_cell_length_b   6.03065717
_cell_length_c   7.73474900
_cell_angle_alpha   90.01348157
_cell_angle_beta   90.00000000
_cell_angle_gamma   90.00000000
_symmetry_Int_Tables_number   1
_chemical_formula_structural   Ac4CuPd3
_chemical_formula_sum   'Ac4 Cu1 Pd3'
_cell_volume   226.91493310
_cell_formula_units_Z   1
loop_
 _symmetry_equiv_pos_site_id
 _symmetry_equiv_pos_as_xyz
  1  'x, y, z'
loop_
 _atom_site_type_symbol
 _atom_site_label
 _atom_site_symmetry_multiplicity
 _atom_site_fract_x
 _atom_site_fract_y
 _atom_site_fract_z
 _atom_site_occupancy
  Ac  Ac0  1  0.250000  0.362721  0.683072  1
  Ac  Ac1  1  0.250000  0.142668  0.181232  1
  Ac  Ac2  1  0.750000  0.635154  0.315913  1
  Ac  Ac3  1  0.750000  0.858242  0.818216  1
  Cu  Cu4  1  0.250000  0.870234  0.535961  1
  Pd  Pd5  1  0.250000  0.652344  0.043546  1
  Pd  Pd6  1  0.750000  0.127636  0.464617  1
  Pd  Pd7  1  0.750000  0.351004  0.957441  1
