# generated using pymatgen
data_Ho2Tm6B24Os3W
_symmetry_space_group_name_H-M   'P 1'
_cell_length_a   3.61321200
_cell_length_b   9.12060812
_cell_length_c   11.50832503
_cell_angle_alpha   89.89502406
_cell_angle_beta   90.00000000
_cell_angle_gamma   90.00000000
_symmetry_Int_Tables_number   1
_chemical_formula_structural   Ho2Tm6B24Os3W
_chemical_formula_sum   'Ho2 Tm6 B24 Os3 W1'
_cell_volume   379.25265531
_cell_formula_units_Z   1
loop_
 _symmetry_equiv_pos_site_id
 _symmetry_equiv_pos_as_xyz
  1  'x, y, z'
loop_
 _atom_site_type_symbol
 _atom_site_label
 _atom_site_symmetry_multiplicity
 _atom_site_fract_x
 _atom_site_fract_y
 _atom_site_fract_z
 _atom_site_occupancy
  Ho  Ho0  1  0.000000  0.320457  0.413447  1
  Ho  Ho1  1  0.000000  0.678358  0.585727  1
  Tm  Tm2  1  0.000000  0.819761  0.086681  1
  Tm  Tm3  1  0.000000  0.177870  0.914626  1
  Tm  Tm4  1  0.000000  0.945956  0.373363  1
  Tm  Tm5  1  0.000000  0.057417  0.628339  1
  Tm  Tm6  1  0.000000  0.442711  0.125274  1
  Tm  Tm7  1  0.000000  0.556704  0.872173  1
  B  B8  1  0.500000  0.549840  0.436563  1
  B  B9  1  0.500000  0.445915  0.568636  1
  B  B10  1  0.500000  0.053456  0.066150  1
  B  B11  1  0.500000  0.946753  0.933691  1
  B  B12  1  0.500000  0.752818  0.422462  1
  B  B13  1  0.500000  0.251257  0.581578  1
  B  B14  1  0.500000  0.248512  0.079281  1
  B  B15  1  0.500000  0.751329  0.919555  1
  B  B16  1  0.500000  0.796190  0.263348  1
  B  B17  1  0.500000  0.208200  0.734969  1
  B  B18  1  0.500000  0.290415  0.231971  1
  B  B19  1  0.500000  0.709448  0.766269  1
  B  B20  1  0.500000  0.631921  0.181063  1
  B  B21  1  0.500000  0.368205  0.815730  1
  B  B22  1  0.500000  0.131077  0.313926  1
  B  B23  1  0.500000  0.870116  0.685638  1
  B  B24  1  0.500000  0.982913  0.212312  1
  B  B25  1  0.500000  0.018251  0.788392  1
  B  B26  1  0.500000  0.476365  0.285669  1
  B  B27  1  0.500000  0.516889  0.713761  1
  B  B28  1  0.500000  0.605798  0.027497  1
  B  B29  1  0.500000  0.393043  0.969641  1
  B  B30  1  0.500000  0.106024  0.471463  1
  B  B31  1  0.500000  0.897714  0.530377  1
  Os  Os32  1  0.000000  0.361156  0.680687  1
  Os  Os33  1  0.000000  0.136616  0.177175  1
  Os  Os34  1  0.000000  0.863004  0.821388  1
  W  W35  1  0.000000  0.637540  0.321177  1
