# generated using pymatgen
data_Tb11Ce4Nd(CdRu)4
_symmetry_space_group_name_H-M   'P 1'
_cell_length_a   9.66169576
_cell_length_b   9.66169611
_cell_length_c   9.66760900
_cell_angle_alpha   59.97975680
_cell_angle_beta   59.97975558
_cell_angle_gamma   60.12024957
_symmetry_Int_Tables_number   1
_chemical_formula_structural   Tb11Ce4Nd(CdRu)4
_chemical_formula_sum   'Tb11 Ce4 Nd1 Cd4 Ru4'
_cell_volume   638.51446428
_cell_formula_units_Z   1
loop_
 _symmetry_equiv_pos_site_id
 _symmetry_equiv_pos_as_xyz
  1  'x, y, z'
loop_
 _atom_site_type_symbol
 _atom_site_label
 _atom_site_symmetry_multiplicity
 _atom_site_fract_x
 _atom_site_fract_y
 _atom_site_fract_z
 _atom_site_occupancy
  Tb  Tb0  1  0.940033  0.561562  0.938083  1
  Tb  Tb1  1  0.561562  0.940033  0.938083  1
  Tb  Tb2  1  0.938595  0.938595  0.561405  1
  Tb  Tb3  1  0.561562  0.940033  0.560322  1
  Tb  Tb4  1  0.940033  0.561562  0.560322  1
  Tb  Tb5  1  0.189403  0.189403  0.810597  1
  Tb  Tb6  1  0.811413  0.188023  0.810771  1
  Tb  Tb7  1  0.188022  0.811414  0.810771  1
  Tb  Tb8  1  0.810691  0.810692  0.189309  1
  Tb  Tb9  1  0.188022  0.811413  0.189793  1
  Tb  Tb10  1  0.811413  0.188023  0.189794  1
  Ce  Ce11  1  0.345126  0.345126  0.964462  1
  Ce  Ce12  1  0.345834  0.962451  0.345858  1
  Ce  Ce13  1  0.962451  0.345834  0.345858  1
  Ce  Ce14  1  0.345126  0.345126  0.345286  1
  Nd  Nd15  1  0.562856  0.562856  0.937144  1
  Cd  Cd16  1  0.580916  0.580916  0.259458  1
  Cd  Cd17  1  0.580704  0.256834  0.581231  1
  Cd  Cd18  1  0.256834  0.580704  0.581231  1
  Cd  Cd19  1  0.580916  0.580916  0.578711  1
  Ru  Ru20  1  0.145005  0.145005  0.565960  1
  Ru  Ru21  1  0.143060  0.565419  0.145760  1
  Ru  Ru22  1  0.565419  0.143060  0.145760  1
  Ru  Ru23  1  0.145005  0.145005  0.144029  1
