# generated using pymatgen
data_Ho(ThPd4)3
_symmetry_space_group_name_H-M   'P 1'
_cell_length_a   5.91756100
_cell_length_b   5.91755975
_cell_length_c   9.74957000
_cell_angle_alpha   90.00000000
_cell_angle_beta   90.00000000
_cell_angle_gamma   120.00000140
_symmetry_Int_Tables_number   1
_chemical_formula_structural   Ho(ThPd4)3
_chemical_formula_sum   'Ho1 Th3 Pd12'
_cell_volume   295.66606583
_cell_formula_units_Z   1
loop_
 _symmetry_equiv_pos_site_id
 _symmetry_equiv_pos_as_xyz
  1  'x, y, z'
loop_
 _atom_site_type_symbol
 _atom_site_label
 _atom_site_symmetry_multiplicity
 _atom_site_fract_x
 _atom_site_fract_y
 _atom_site_fract_z
 _atom_site_occupancy
  Ho  Ho0  1  0.333333  0.666667  0.250000  1
  Th  Th1  1  0.000000  0.000000  0.495096  1
  Th  Th2  1  0.000000  0.000000  0.004904  1
  Th  Th3  1  0.666667  0.333333  0.750000  1
  Pd  Pd4  1  0.499594  0.500406  0.498743  1
  Pd  Pd5  1  0.499594  0.999188  0.498743  1
  Pd  Pd6  1  0.000812  0.500406  0.498743  1
  Pd  Pd7  1  0.499594  0.500406  0.001257  1
  Pd  Pd8  1  0.499594  0.999188  0.001257  1
  Pd  Pd9  1  0.000812  0.500406  0.001257  1
  Pd  Pd10  1  0.824857  0.649714  0.250000  1
  Pd  Pd11  1  0.350286  0.175143  0.250000  1
  Pd  Pd12  1  0.824857  0.175143  0.250000  1
  Pd  Pd13  1  0.173897  0.347794  0.750000  1
  Pd  Pd14  1  0.652206  0.826103  0.750000  1
  Pd  Pd15  1  0.173897  0.826103  0.750000  1
