# generated using pymatgen
data_Sc4Tc3Ni17P12
_symmetry_space_group_name_H-M   'P 1'
_cell_length_a   3.62583400
_cell_length_b   10.38685422
_cell_length_c   11.79685416
_cell_angle_alpha   90.14828472
_cell_angle_beta   90.00000000
_cell_angle_gamma   90.00000000
_symmetry_Int_Tables_number   1
_chemical_formula_structural   Sc4Tc3Ni17P12
_chemical_formula_sum   'Sc4 Tc3 Ni17 P12'
_cell_volume   444.27994497
_cell_formula_units_Z   1
loop_
 _symmetry_equiv_pos_site_id
 _symmetry_equiv_pos_as_xyz
  1  'x, y, z'
loop_
 _atom_site_type_symbol
 _atom_site_label
 _atom_site_symmetry_multiplicity
 _atom_site_fract_x
 _atom_site_fract_y
 _atom_site_fract_z
 _atom_site_occupancy
  Sc  Sc0  1  0.250000  0.585084  0.704538  1
  Sc  Sc1  1  0.250000  0.912075  0.207502  1
  Sc  Sc2  1  0.750000  0.411119  0.293987  1
  Sc  Sc3  1  0.750000  0.088891  0.793048  1
  Tc  Tc4  1  0.250000  0.716803  0.991608  1
  Tc  Tc5  1  0.250000  0.790555  0.484226  1
  Tc  Tc6  1  0.750000  0.284337  0.012204  1
  Ni  Ni7  1  0.750000  0.216818  0.511327  1
  Ni  Ni8  1  0.250000  0.408950  0.487286  1
  Ni  Ni9  1  0.250000  0.088490  0.984446  1
  Ni  Ni10  1  0.750000  0.589461  0.514609  1
  Ni  Ni11  1  0.750000  0.912757  0.011822  1
  Ni  Ni12  1  0.250000  0.218624  0.180889  1
  Ni  Ni13  1  0.250000  0.278026  0.677923  1
  Ni  Ni14  1  0.750000  0.776776  0.819200  1
  Ni  Ni15  1  0.750000  0.720576  0.318369  1
  Ni  Ni16  1  0.250000  0.884913  0.701896  1
  Ni  Ni17  1  0.250000  0.607535  0.205966  1
  Ni  Ni18  1  0.750000  0.116022  0.299530  1
  Ni  Ni19  1  0.750000  0.386827  0.796323  1
  Ni  Ni20  1  0.250000  0.465455  0.928977  1
  Ni  Ni21  1  0.250000  0.040483  0.431118  1
  Ni  Ni22  1  0.750000  0.535278  0.071511  1
  Ni  Ni23  1  0.750000  0.969609  0.570209  1
  P  P24  1  0.250000  0.415722  0.114893  1
  P  P25  1  0.250000  0.081619  0.617078  1
  P  P26  1  0.750000  0.581684  0.884924  1
  P  P27  1  0.750000  0.917576  0.385166  1
  P  P28  1  0.250000  0.264925  0.868675  1
  P  P29  1  0.250000  0.237868  0.370801  1
  P  P30  1  0.750000  0.736864  0.130261  1
  P  P31  1  0.750000  0.764655  0.629618  1
  P  P32  1  0.250000  0.592778  0.390032  1
  P  P33  1  0.250000  0.905671  0.886088  1
  P  P34  1  0.750000  0.402627  0.610372  1
  P  P35  1  0.750000  0.092546  0.113579  1
