# generated using pymatgen
data_Nd2V3Si7Pt9
_symmetry_space_group_name_H-M   'P 1'
_cell_length_a   9.83759200
_cell_length_b   9.83759236
_cell_length_c   4.00666200
_cell_angle_alpha   90.00000000
_cell_angle_beta   90.00000000
_cell_angle_gamma   119.99999879
_symmetry_Int_Tables_number   1
_chemical_formula_structural   Nd2V3Si7Pt9
_chemical_formula_sum   'Nd2 V3 Si7 Pt9'
_cell_volume   335.80795016
_cell_formula_units_Z   1
loop_
 _symmetry_equiv_pos_site_id
 _symmetry_equiv_pos_as_xyz
  1  'x, y, z'
loop_
 _atom_site_type_symbol
 _atom_site_label
 _atom_site_symmetry_multiplicity
 _atom_site_fract_x
 _atom_site_fract_y
 _atom_site_fract_z
 _atom_site_occupancy
  Nd  Nd0  1  0.000000  0.000000  0.000000  1
  Nd  Nd1  1  0.333333  0.666667  0.500000  1
  V  V2  1  0.875780  0.452092  0.500000  1
  V  V3  1  0.576312  0.124220  0.500000  1
  V  V4  1  0.547908  0.423688  0.500000  1
  Si  Si5  1  0.266603  0.223106  0.500000  1
  Si  Si6  1  0.776894  0.043499  0.500000  1
  Si  Si7  1  0.956501  0.733397  0.500000  1
  Si  Si8  1  0.553712  0.629184  0.000000  1
  Si  Si9  1  0.370816  0.924526  0.000000  1
  Si  Si10  1  0.075474  0.446288  0.000000  1
  Si  Si11  1  0.666667  0.333333  0.000000  1
  Pt  Pt12  1  0.230907  0.946736  0.500000  1
  Pt  Pt13  1  0.053264  0.284171  0.500000  1
  Pt  Pt14  1  0.715829  0.769093  0.500000  1
  Pt  Pt15  1  0.301825  0.403246  0.000000  1
  Pt  Pt16  1  0.596754  0.898578  0.000000  1
  Pt  Pt17  1  0.101422  0.698175  0.000000  1
  Pt  Pt18  1  0.393004  0.177498  0.000000  1
  Pt  Pt19  1  0.822502  0.215507  0.000000  1
  Pt  Pt20  1  0.784493  0.606996  0.000000  1
