# generated using pymatgen
data_Sr2Mg3Cd14
_symmetry_space_group_name_H-M   'P 1'
_cell_length_a   7.78004385
_cell_length_b   7.78004335
_cell_length_c   7.78004373
_cell_angle_alpha   83.10999167
_cell_angle_beta   83.11000089
_cell_angle_gamma   83.10998202
_symmetry_Int_Tables_number   1
_chemical_formula_structural   Sr2Mg3Cd14
_chemical_formula_sum   'Sr2 Mg3 Cd14'
_cell_volume   461.47142407
_cell_formula_units_Z   1
loop_
 _symmetry_equiv_pos_site_id
 _symmetry_equiv_pos_as_xyz
  1  'x, y, z'
loop_
 _atom_site_type_symbol
 _atom_site_label
 _atom_site_symmetry_multiplicity
 _atom_site_fract_x
 _atom_site_fract_y
 _atom_site_fract_z
 _atom_site_occupancy
  Sr  Sr0  1  0.337687  0.337687  0.337687  1
  Sr  Sr1  1  0.662313  0.662313  0.662313  1
  Mg  Mg2  1  0.000000  0.000000  0.500000  1
  Mg  Mg3  1  0.500000  0.000000  0.000000  1
  Mg  Mg4  1  0.000000  0.500000  0.000000  1
  Cd  Cd5  1  0.296249  0.703751  0.000000  1
  Cd  Cd6  1  0.843468  0.350565  0.350565  1
  Cd  Cd7  1  0.649435  0.156532  0.649435  1
  Cd  Cd8  1  0.107666  0.107666  0.107666  1
  Cd  Cd9  1  0.296249  0.000000  0.703751  1
  Cd  Cd10  1  0.703751  0.296249  0.000000  1
  Cd  Cd11  1  0.350565  0.350565  0.843468  1
  Cd  Cd12  1  0.892334  0.892334  0.892334  1
  Cd  Cd13  1  0.000000  0.703751  0.296249  1
  Cd  Cd14  1  0.703751  0.000000  0.296249  1
  Cd  Cd15  1  0.350565  0.843468  0.350565  1
  Cd  Cd16  1  0.156532  0.649435  0.649435  1
  Cd  Cd17  1  0.649435  0.649435  0.156532  1
  Cd  Cd18  1  0.000000  0.296249  0.703751  1
