# generated using pymatgen
data_Nd2Be(Ni3P2)3
_symmetry_space_group_name_H-M   'P 1'
_cell_length_a   6.08959681
_cell_length_b   6.08959736
_cell_length_c   11.33309245
_cell_angle_alpha   91.08109605
_cell_angle_beta   88.91890280
_cell_angle_gamma   145.35239911
_symmetry_Int_Tables_number   1
_chemical_formula_structural   Nd2Be(Ni3P2)3
_chemical_formula_sum   'Nd2 Be1 Ni9 P6'
_cell_volume   238.88677858
_cell_formula_units_Z   1
loop_
 _symmetry_equiv_pos_site_id
 _symmetry_equiv_pos_as_xyz
  1  'x, y, z'
loop_
 _atom_site_type_symbol
 _atom_site_label
 _atom_site_symmetry_multiplicity
 _atom_site_fract_x
 _atom_site_fract_y
 _atom_site_fract_z
 _atom_site_occupancy
  Nd  Nd0  1  0.164112  0.835888  0.247361  1
  Nd  Nd1  1  0.835888  0.164112  0.752639  1
  Be  Be2  1  0.000000  0.000000  0.000000  1
  Ni  Ni3  1  0.453355  0.546645  0.138890  1
  Ni  Ni4  1  0.450034  0.549966  0.353152  1
  Ni  Ni5  1  0.186678  0.813322  0.936703  1
  Ni  Ni6  1  0.546645  0.453355  0.861110  1
  Ni  Ni7  1  0.801327  0.198673  0.430988  1
  Ni  Ni8  1  0.549966  0.450034  0.646848  1
  Ni  Ni9  1  0.198673  0.801327  0.569012  1
  Ni  Ni10  1  0.000000  0.000000  0.500000  1
  Ni  Ni11  1  0.813322  0.186678  0.063297  1
  P  P12  1  0.112878  0.887122  0.750809  1
  P  P13  1  0.376300  0.623700  0.957354  1
  P  P14  1  0.382172  0.617828  0.541725  1
  P  P15  1  0.617828  0.382172  0.458275  1
  P  P16  1  0.623700  0.376300  0.042646  1
  P  P17  1  0.887122  0.112878  0.249191  1
