# generated using pymatgen
data_LaSm2WO7
_symmetry_space_group_name_H-M   'P 1'
_cell_length_a   6.63531840
_cell_length_b   6.63531912
_cell_length_c   7.73075500
_cell_angle_alpha   90.00000000
_cell_angle_beta   90.00000000
_cell_angle_gamma   108.86859949
_symmetry_Int_Tables_number   1
_chemical_formula_structural   LaSm2WO7
_chemical_formula_sum   'La2 Sm4 W2 O14'
_cell_volume   322.07515928
_cell_formula_units_Z   2
loop_
 _symmetry_equiv_pos_site_id
 _symmetry_equiv_pos_as_xyz
  1  'x, y, z'
loop_
 _atom_site_type_symbol
 _atom_site_label
 _atom_site_symmetry_multiplicity
 _atom_site_fract_x
 _atom_site_fract_y
 _atom_site_fract_z
 _atom_site_occupancy
  La  La0  1  0.501091  0.501091  0.500000  1
  La  La1  1  0.498909  0.498909  0.000000  1
  Sm  Sm2  1  0.465791  0.999465  0.249895  1
  Sm  Sm3  1  0.000535  0.534209  0.250105  1
  Sm  Sm4  1  0.534209  0.000535  0.749895  1
  Sm  Sm5  1  0.999465  0.465791  0.750105  1
  W  W6  1  0.000504  0.000504  0.500000  1
  W  W7  1  0.999496  0.999496  0.000000  1
  O  O8  1  0.315665  0.068959  0.528030  1
  O  O9  1  0.931041  0.684335  0.971970  1
  O  O10  1  0.684335  0.931041  0.028030  1
  O  O11  1  0.068959  0.315665  0.471970  1
  O  O12  1  0.930942  0.684470  0.528387  1
  O  O13  1  0.315530  0.069058  0.971613  1
  O  O14  1  0.069058  0.315530  0.028387  1
  O  O15  1  0.684470  0.930942  0.471613  1
  O  O16  1  0.634032  0.365968  0.250000  1
  O  O17  1  0.365968  0.634032  0.750000  1
  O  O18  1  0.638469  0.361531  0.750000  1
  O  O19  1  0.361531  0.638469  0.250000  1
  O  O20  1  0.067367  0.932633  0.250000  1
  O  O21  1  0.932633  0.067367  0.750000  1
