# generated using pymatgen
data_Lu10Ga3PtPb2
_symmetry_space_group_name_H-M   'P 1'
_cell_length_a   8.47088258
_cell_length_b   8.47088224
_cell_length_c   8.59969500
_cell_angle_alpha   124.66830873
_cell_angle_beta   124.66830713
_cell_angle_gamma   81.08615575
_symmetry_Int_Tables_number   1
_chemical_formula_structural   Lu10Ga3PtPb2
_chemical_formula_sum   'Lu10 Ga3 Pt1 Pb2'
_cell_volume   404.23999577
_cell_formula_units_Z   1
loop_
 _symmetry_equiv_pos_site_id
 _symmetry_equiv_pos_as_xyz
  1  'x, y, z'
loop_
 _atom_site_type_symbol
 _atom_site_label
 _atom_site_symmetry_multiplicity
 _atom_site_fract_x
 _atom_site_fract_y
 _atom_site_fract_z
 _atom_site_occupancy
  Lu  Lu0  1  0.997983  0.999061  0.997044  1
  Lu  Lu1  1  0.500939  0.502017  0.002956  1
  Lu  Lu2  1  0.786584  0.297650  0.799464  1
  Lu  Lu3  1  0.202350  0.713416  0.200536  1
  Lu  Lu4  1  0.487121  0.998187  0.200536  1
  Lu  Lu5  1  0.301818  0.469918  0.500000  1
  Lu  Lu6  1  0.030082  0.198182  0.500000  1
  Lu  Lu7  1  0.501813  0.012879  0.799464  1
  Lu  Lu8  1  0.703936  0.513657  0.500000  1
  Lu  Lu9  1  0.986343  0.796064  0.500000  1
  Ga  Ga10  1  0.141960  0.644212  0.786172  1
  Ga  Ga11  1  0.855788  0.358040  0.213828  1
  Ga  Ga12  1  0.638879  0.861121  0.500000  1
  Pt  Pt13  1  0.371243  0.128757  0.500000  1
  Pb  Pb14  1  0.246581  0.253419  0.000000  1
  Pb  Pb15  1  0.746581  0.753419  0.000000  1
