# generated using pymatgen
data_Dy2Tm8Si5Sb
_symmetry_space_group_name_H-M   'P 1'
_cell_length_a   8.45201335
_cell_length_b   8.45201156
_cell_length_c   6.25674700
_cell_angle_alpha   90.00000000
_cell_angle_beta   90.00000000
_cell_angle_gamma   120.34522411
_symmetry_Int_Tables_number   1
_chemical_formula_structural   Dy2Tm8Si5Sb
_chemical_formula_sum   'Dy2 Tm8 Si5 Sb1'
_cell_volume   385.72533411
_cell_formula_units_Z   1
loop_
 _symmetry_equiv_pos_site_id
 _symmetry_equiv_pos_as_xyz
  1  'x, y, z'
loop_
 _atom_site_type_symbol
 _atom_site_label
 _atom_site_symmetry_multiplicity
 _atom_site_fract_x
 _atom_site_fract_y
 _atom_site_fract_z
 _atom_site_occupancy
  Dy  Dy0  1  0.765798  0.765798  0.250000  1
  Dy  Dy1  1  0.240576  0.240576  0.750000  1
  Tm  Tm2  1  0.674912  0.331294  0.503423  1
  Tm  Tm3  1  0.331294  0.674912  0.503423  1
  Tm  Tm4  1  0.331294  0.674912  0.996577  1
  Tm  Tm5  1  0.674912  0.331294  0.996577  1
  Tm  Tm6  1  0.240315  0.987129  0.250000  1
  Tm  Tm7  1  0.987129  0.240315  0.250000  1
  Tm  Tm8  1  0.755484  0.999250  0.750000  1
  Tm  Tm9  1  0.999250  0.755484  0.750000  1
  Si  Si10  1  0.603996  0.999480  0.250000  1
  Si  Si11  1  0.999480  0.603996  0.250000  1
  Si  Si12  1  0.607556  0.607556  0.750000  1
  Si  Si13  1  0.393991  0.001733  0.750000  1
  Si  Si14  1  0.001733  0.393991  0.750000  1
  Sb  Sb15  1  0.392277  0.392277  0.250000  1
