# generated using pymatgen
data_LaNd4Sm(SiPd5)2
_symmetry_space_group_name_H-M   'P 1'
_cell_length_a   8.42908263
_cell_length_b   8.43312998
_cell_length_c   8.43313025
_cell_angle_alpha   127.38665083
_cell_angle_beta   126.07089223
_cell_angle_gamma   78.70924767
_symmetry_Int_Tables_number   1
_chemical_formula_structural   LaNd4Sm(SiPd5)2
_chemical_formula_sum   'La1 Nd4 Sm1 Si2 Pd10'
_cell_volume   372.58457821
_cell_formula_units_Z   1
loop_
 _symmetry_equiv_pos_site_id
 _symmetry_equiv_pos_as_xyz
  1  'x, y, z'
loop_
 _atom_site_type_symbol
 _atom_site_label
 _atom_site_symmetry_multiplicity
 _atom_site_fract_x
 _atom_site_fract_y
 _atom_site_fract_z
 _atom_site_occupancy
  La  La0  1  0.616125  0.749932  0.866194  1
  Nd  Nd1  1  0.823433  0.050097  0.773336  1
  Nd  Nd2  1  0.223642  0.450022  0.773622  1
  Nd  Nd3  1  0.177828  0.950783  0.227043  1
  Nd  Nd4  1  0.388762  0.250152  0.138610  1
  Sm  Sm5  1  0.776967  0.549163  0.227804  1
  Si  Si6  1  0.210729  0.749757  0.460972  1
  Si  Si7  1  0.785686  0.250008  0.535678  1
  Pd  Pd8  1  0.831488  0.594204  0.638056  1
  Pd  Pd9  1  0.544684  0.307414  0.639387  1
  Pd  Pd10  1  0.453657  0.094553  0.762363  1
  Pd  Pd11  1  0.831488  0.193432  0.237284  1
  Pd  Pd12  1  0.167240  0.406084  0.359067  1
  Pd  Pd13  1  0.453657  0.691294  0.359104  1
  Pd  Pd14  1  0.544684  0.905297  0.237270  1
  Pd  Pd15  1  0.167240  0.808172  0.761155  1
  Pd  Pd16  1  0.001346  0.002504  0.504213  1
  Pd  Pd17  1  0.001346  0.497133  0.998842  1
