# generated using pymatgen
data_Pa4Ge4IrRh3
_symmetry_space_group_name_H-M   'P 1'
_cell_length_a   4.31813300
_cell_length_b   6.95859700
_cell_length_c   7.51842100
_cell_angle_alpha   89.86262695
_cell_angle_beta   90.00000000
_cell_angle_gamma   90.00000000
_symmetry_Int_Tables_number   1
_chemical_formula_structural   Pa4Ge4IrRh3
_chemical_formula_sum   'Pa4 Ge4 Ir1 Rh3'
_cell_volume   225.91397266
_cell_formula_units_Z   1
loop_
 _symmetry_equiv_pos_site_id
 _symmetry_equiv_pos_as_xyz
  1  'x, y, z'
loop_
 _atom_site_type_symbol
 _atom_site_label
 _atom_site_symmetry_multiplicity
 _atom_site_fract_x
 _atom_site_fract_y
 _atom_site_fract_z
 _atom_site_occupancy
  Pa  Pa0  1  0.000000  0.489354  0.708020  1
  Pa  Pa1  1  0.000000  0.992906  0.791881  1
  Pa  Pa2  1  0.500000  0.508519  0.293527  1
  Pa  Pa3  1  0.500000  0.006101  0.206619  1
  Ge  Ge4  1  0.000000  0.314353  0.086237  1
  Ge  Ge5  1  0.000000  0.805384  0.416317  1
  Ge  Ge6  1  0.500000  0.688850  0.912522  1
  Ge  Ge7  1  0.500000  0.192512  0.584847  1
  Ir  Ir8  1  0.000000  0.731111  0.084187  1
  Rh  Rh9  1  0.000000  0.223068  0.414972  1
  Rh  Rh10  1  0.500000  0.271902  0.916126  1
  Rh  Rh11  1  0.500000  0.775938  0.584743  1
