# generated using pymatgen
data_BaGd(PPd)2
_symmetry_space_group_name_H-M   'P 1'
_cell_length_a   4.23573700
_cell_length_b   4.23573602
_cell_length_c   8.47836000
_cell_angle_alpha   90.00000000
_cell_angle_beta   90.00000000
_cell_angle_gamma   119.99999986
_symmetry_Int_Tables_number   1
_chemical_formula_structural   BaGd(PPd)2
_chemical_formula_sum   'Ba1 Gd1 P2 Pd2'
_cell_volume   131.73475195
_cell_formula_units_Z   1
loop_
 _symmetry_equiv_pos_site_id
 _symmetry_equiv_pos_as_xyz
  1  'x, y, z'
loop_
 _atom_site_type_symbol
 _atom_site_label
 _atom_site_symmetry_multiplicity
 _atom_site_fract_x
 _atom_site_fract_y
 _atom_site_fract_z
 _atom_site_occupancy
  Ba  Ba0  1  0.000000  0.000000  0.500000  1
  Gd  Gd1  1  0.000000  0.000000  0.000000  1
  P  P2  1  0.666667  0.333333  0.217315  1
  P  P3  1  0.333333  0.666667  0.782685  1
  Pd  Pd4  1  0.333333  0.666667  0.223422  1
  Pd  Pd5  1  0.666667  0.333333  0.776578  1
