# generated using pymatgen
data_Nb14GaSi3As4
_symmetry_space_group_name_H-M   'P 1'
_cell_length_a   3.52909900
_cell_length_b   7.96357634
_cell_length_c   14.21396172
_cell_angle_alpha   103.93057807
_cell_angle_beta   90.00000000
_cell_angle_gamma   102.80170896
_symmetry_Int_Tables_number   1
_chemical_formula_structural   Nb14GaSi3As4
_chemical_formula_sum   'Nb14 Ga1 Si3 As4'
_cell_volume   377.48475245
_cell_formula_units_Z   1
loop_
 _symmetry_equiv_pos_site_id
 _symmetry_equiv_pos_as_xyz
  1  'x, y, z'
loop_
 _atom_site_type_symbol
 _atom_site_label
 _atom_site_symmetry_multiplicity
 _atom_site_fract_x
 _atom_site_fract_y
 _atom_site_fract_z
 _atom_site_occupancy
  Nb  Nb0  1  0.999908  0.999816  0.999580  1
  Nb  Nb1  1  0.498954  0.997908  0.501232  1
  Nb  Nb2  1  0.426757  0.853517  0.825726  1
  Nb  Nb3  1  0.572840  0.145680  0.171294  1
  Nb  Nb4  1  0.197075  0.394149  0.304994  1
  Nb  Nb5  1  0.803552  0.607104  0.691607  1
  Nb  Nb6  1  0.211711  0.423421  0.799601  1
  Nb  Nb7  1  0.787483  0.574965  0.199989  1
  Nb  Nb8  1  0.331855  0.663710  0.028918  1
  Nb  Nb9  1  0.668363  0.336726  0.970119  1
  Nb  Nb10  1  0.998084  0.996168  0.661114  1
  Nb  Nb11  1  0.998077  0.996154  0.338719  1
  Nb  Nb12  1  0.183827  0.367655  0.549846  1
  Nb  Nb13  1  0.821380  0.642760  0.456156  1
  Ga  Ga14  1  0.629884  0.259765  0.402857  1
  Si  Si15  1  0.174323  0.348643  0.107268  1
  Si  Si16  1  0.825660  0.651322  0.891130  1
  Si  Si17  1  0.370646  0.741293  0.599333  1
  As  As18  1  0.372008  0.744013  0.334243  1
  As  As19  1  0.627593  0.255188  0.666389  1
  As  As20  1  0.062695  0.125390  0.847735  1
  As  As21  1  0.937326  0.874652  0.152150  1
