# generated using pymatgen
data_Er20Bi12P
_symmetry_space_group_name_H-M   'P 1'
_cell_length_a   6.34889403
_cell_length_b   9.18425384
_cell_length_c   15.79952800
_cell_angle_alpha   90.00000624
_cell_angle_beta   90.00000000
_cell_angle_gamma   89.93525228
_symmetry_Int_Tables_number   1
_chemical_formula_structural   Er20Bi12P
_chemical_formula_sum   'Er20 Bi12 P1'
_cell_volume   921.26758844
_cell_formula_units_Z   1
loop_
 _symmetry_equiv_pos_site_id
 _symmetry_equiv_pos_as_xyz
  1  'x, y, z'
loop_
 _atom_site_type_symbol
 _atom_site_label
 _atom_site_symmetry_multiplicity
 _atom_site_fract_x
 _atom_site_fract_y
 _atom_site_fract_z
 _atom_site_occupancy
  Er  Er0  1  0.499996  0.999984  0.334052  1
  Er  Er1  1  0.500021  0.500005  0.832301  1
  Er  Er2  1  0.500021  0.500005  0.167699  1
  Er  Er3  1  0.499996  0.999984  0.665948  1
  Er  Er4  1  0.999987  0.500010  0.166628  1
  Er  Er5  1  0.999994  0.000001  0.666113  1
  Er  Er6  1  0.999994  0.000001  0.333887  1
  Er  Er7  1  0.999987  0.500010  0.833372  1
  Er  Er8  1  0.750182  0.244962  0.000000  1
  Er  Er9  1  0.749670  0.743621  0.500000  1
  Er  Er10  1  0.750289  0.380591  0.380167  1
  Er  Er11  1  0.749146  0.878608  0.877141  1
  Er  Er12  1  0.749146  0.878608  0.122859  1
  Er  Er13  1  0.750289  0.380591  0.619833  1
  Er  Er14  1  0.249832  0.755040  0.000000  1
  Er  Er15  1  0.250322  0.256347  0.500000  1
  Er  Er16  1  0.250854  0.121402  0.122871  1
  Er  Er17  1  0.249710  0.619412  0.619828  1
  Er  Er18  1  0.249710  0.619412  0.380172  1
  Er  Er19  1  0.250854  0.121402  0.877129  1
  Bi  Bi20  1  0.748591  0.609996  0.000000  1
  Bi  Bi21  1  0.751065  0.111975  0.500000  1
  Bi  Bi22  1  0.751434  0.196308  0.197413  1
  Bi  Bi23  1  0.750196  0.694135  0.694060  1
  Bi  Bi24  1  0.750196  0.694135  0.305940  1
  Bi  Bi25  1  0.751434  0.196308  0.802587  1
  Bi  Bi26  1  0.251407  0.390006  0.000000  1
  Bi  Bi27  1  0.248933  0.888016  0.500000  1
  Bi  Bi28  1  0.249811  0.305868  0.305939  1
  Bi  Bi29  1  0.248559  0.803695  0.802588  1
  Bi  Bi30  1  0.248559  0.803695  0.197412  1
  Bi  Bi31  1  0.249811  0.305868  0.694061  1
  P  P32  1  0.500004  0.000003  0.000000  1
