# generated using pymatgen
data_Lu2Sc3(In2Pt)2
_symmetry_space_group_name_H-M   'P 1'
_cell_length_a   3.51721900
_cell_length_b   7.82904002
_cell_length_c   17.66086601
_cell_angle_alpha   90.00621095
_cell_angle_beta   90.00000000
_cell_angle_gamma   90.00000000
_symmetry_Int_Tables_number   1
_chemical_formula_structural   Lu2Sc3(In2Pt)2
_chemical_formula_sum   'Lu4 Sc6 In8 Pt4'
_cell_volume   486.31752118
_cell_formula_units_Z   2
loop_
 _symmetry_equiv_pos_site_id
 _symmetry_equiv_pos_as_xyz
  1  'x, y, z'
loop_
 _atom_site_type_symbol
 _atom_site_label
 _atom_site_symmetry_multiplicity
 _atom_site_fract_x
 _atom_site_fract_y
 _atom_site_fract_z
 _atom_site_occupancy
  Lu  Lu0  1  0.000000  0.244552  0.219475  1
  Lu  Lu1  1  0.000000  0.755388  0.780524  1
  Lu  Lu2  1  0.000000  0.255228  0.719593  1
  Lu  Lu3  1  0.000000  0.744635  0.280408  1
  Sc  Sc4  1  0.000000  0.116638  0.415787  1
  Sc  Sc5  1  0.000000  0.883508  0.584223  1
  Sc  Sc6  1  0.000000  0.383316  0.915884  1
  Sc  Sc7  1  0.000000  0.616538  0.084183  1
  Sc  Sc8  1  0.000000  0.999864  0.999962  1
  Sc  Sc9  1  0.000000  0.500265  0.500018  1
  In  In10  1  0.500000  0.419848  0.355563  1
  In  In11  1  0.500000  0.580491  0.644693  1
  In  In12  1  0.500000  0.080482  0.855415  1
  In  In13  1  0.500000  0.919740  0.144328  1
  In  In14  1  0.500000  0.294713  0.061057  1
  In  In15  1  0.500000  0.705362  0.939015  1
  In  In16  1  0.500000  0.205547  0.561054  1
  In  In17  1  0.500000  0.794664  0.438932  1
  Pt  Pt18  1  0.500000  0.030203  0.306227  1
  Pt  Pt19  1  0.500000  0.969278  0.693506  1
  Pt  Pt20  1  0.500000  0.469889  0.806669  1
  Pt  Pt21  1  0.500000  0.529851  0.193486  1
