# generated using pymatgen
data_Ho4Er2OsRu
_symmetry_space_group_name_H-M   'P 1'
_cell_length_a   6.27397449
_cell_length_b   7.31786900
_cell_length_c   9.05449955
_cell_angle_alpha   90.00000000
_cell_angle_beta   89.89822057
_cell_angle_gamma   90.00000000
_symmetry_Int_Tables_number   1
_chemical_formula_structural   Ho4Er2OsRu
_chemical_formula_sum   'Ho8 Er4 Os2 Ru2'
_cell_volume   415.71064499
_cell_formula_units_Z   2
loop_
 _symmetry_equiv_pos_site_id
 _symmetry_equiv_pos_as_xyz
  1  'x, y, z'
loop_
 _atom_site_type_symbol
 _atom_site_label
 _atom_site_symmetry_multiplicity
 _atom_site_fract_x
 _atom_site_fract_y
 _atom_site_fract_z
 _atom_site_occupancy
  Ho  Ho0  1  0.667621  0.324555  0.562221  1
  Ho  Ho1  1  0.832379  0.824555  0.937779  1
  Ho  Ho2  1  0.667502  0.324870  0.937731  1
  Ho  Ho3  1  0.832498  0.824870  0.562269  1
  Ho  Ho4  1  0.329040  0.676455  0.435545  1
  Ho  Ho5  1  0.170960  0.176455  0.064455  1
  Ho  Ho6  1  0.133476  0.458863  0.750055  1
  Ho  Ho7  1  0.366524  0.958862  0.749945  1
  Er  Er8  1  0.329209  0.676239  0.064491  1
  Er  Er9  1  0.170791  0.176239  0.435509  1
  Er  Er10  1  0.868283  0.538794  0.249929  1
  Er  Er11  1  0.631717  0.038794  0.250071  1
  Os  Os12  1  0.038046  0.884223  0.249963  1
  Os  Os13  1  0.461954  0.384223  0.250037  1
  Ru  Ru14  1  0.963078  0.116002  0.749735  1
  Ru  Ru15  1  0.536922  0.616002  0.750265  1
