# generated using pymatgen
data_NdThNi4(GeP)2
_symmetry_space_group_name_H-M   'P 1'
_cell_length_a   4.01057900
_cell_length_b   4.01057900
_cell_length_c   9.78862400
_cell_angle_alpha   90.00000000
_cell_angle_beta   90.00000000
_cell_angle_gamma   90.00000000
_symmetry_Int_Tables_number   1
_chemical_formula_structural   NdThNi4(GeP)2
_chemical_formula_sum   'Nd1 Th1 Ni4 Ge2 P2'
_cell_volume   157.44751032
_cell_formula_units_Z   1
loop_
 _symmetry_equiv_pos_site_id
 _symmetry_equiv_pos_as_xyz
  1  'x, y, z'
loop_
 _atom_site_type_symbol
 _atom_site_label
 _atom_site_symmetry_multiplicity
 _atom_site_fract_x
 _atom_site_fract_y
 _atom_site_fract_z
 _atom_site_occupancy
  Nd  Nd0  1  0.000000  0.500000  0.762773  1
  Th  Th1  1  0.500000  0.000000  0.238609  1
  Ni  Ni2  1  0.000000  0.500000  0.355201  1
  Ni  Ni3  1  0.500000  0.000000  0.639457  1
  Ni  Ni4  1  0.500000  0.500000  0.002660  1
  Ni  Ni5  1  0.000000  0.000000  0.002660  1
  Ge  Ge6  1  0.000000  0.000000  0.500888  1
  Ge  Ge7  1  0.500000  0.500000  0.500888  1
  P  P8  1  0.500000  0.000000  0.873557  1
  P  P9  1  0.000000  0.500000  0.123308  1
