# generated using pymatgen
data_La3PrHoTl3Br
_symmetry_space_group_name_H-M   'P 1'
_cell_length_a   9.68375000
_cell_length_b   9.68374833
_cell_length_c   6.90426300
_cell_angle_alpha   90.00000000
_cell_angle_beta   90.00000000
_cell_angle_gamma   120.00001253
_symmetry_Int_Tables_number   1
_chemical_formula_structural   La3PrHoTl3Br
_chemical_formula_sum   'La6 Pr2 Ho2 Tl6 Br2'
_cell_volume   560.70569389
_cell_formula_units_Z   2
loop_
 _symmetry_equiv_pos_site_id
 _symmetry_equiv_pos_as_xyz
  1  'x, y, z'
loop_
 _atom_site_type_symbol
 _atom_site_label
 _atom_site_symmetry_multiplicity
 _atom_site_fract_x
 _atom_site_fract_y
 _atom_site_fract_z
 _atom_site_occupancy
  La  La0  1  0.732590  0.732590  0.252494  1
  La  La1  1  0.000000  0.732590  0.747506  1
  La  La2  1  0.732590  0.000000  0.747506  1
  La  La3  1  0.267410  0.267410  0.747506  1
  La  La4  1  0.000000  0.267410  0.252494  1
  La  La5  1  0.267410  0.000000  0.252494  1
  Pr  Pr6  1  0.333333  0.666667  0.000000  1
  Pr  Pr7  1  0.666667  0.333333  0.000000  1
  Ho  Ho8  1  0.333333  0.666667  0.500000  1
  Ho  Ho9  1  0.666667  0.333333  0.500000  1
  Tl  Tl10  1  0.392929  0.000000  0.744813  1
  Tl  Tl11  1  0.000000  0.607071  0.255187  1
  Tl  Tl12  1  0.607071  0.000000  0.255187  1
  Tl  Tl13  1  0.000000  0.392929  0.744813  1
  Tl  Tl14  1  0.392929  0.392929  0.255187  1
  Tl  Tl15  1  0.607071  0.607071  0.744813  1
  Br  Br16  1  0.000000  0.000000  0.500000  1
  Br  Br17  1  0.000000  0.000000  0.000000  1
