# generated using pymatgen
data_MoRu5PtW
_symmetry_space_group_name_H-M   'P 1'
_cell_length_a   5.51980492
_cell_length_b   5.51980404
_cell_length_c   4.39855800
_cell_angle_alpha   90.00000000
_cell_angle_beta   90.00000000
_cell_angle_gamma   119.64223041
_symmetry_Int_Tables_number   1
_chemical_formula_structural   MoRu5PtW
_chemical_formula_sum   'Mo1 Ru5 Pt1 W1'
_cell_volume   116.47769507
_cell_formula_units_Z   1
loop_
 _symmetry_equiv_pos_site_id
 _symmetry_equiv_pos_as_xyz
  1  'x, y, z'
loop_
 _atom_site_type_symbol
 _atom_site_label
 _atom_site_symmetry_multiplicity
 _atom_site_fract_x
 _atom_site_fract_y
 _atom_site_fract_z
 _atom_site_occupancy
  Mo  Mo0  1  0.334551  0.665449  0.750000  1
  Ru  Ru1  1  0.332720  0.169108  0.750000  1
  Ru  Ru2  1  0.830892  0.667280  0.750000  1
  Ru  Ru3  1  0.167286  0.832714  0.250000  1
  Ru  Ru4  1  0.667721  0.830470  0.250000  1
  Ru  Ru5  1  0.169530  0.332279  0.250000  1
  Pt  Pt6  1  0.835086  0.164914  0.750000  1
  W  W7  1  0.662215  0.337785  0.250000  1
