# generated using pymatgen
data_Tb5LuAl24(RuRh3)2
_symmetry_space_group_name_H-M   'P 1'
_cell_length_a   8.83211712
_cell_length_b   8.80197889
_cell_length_c   9.53631900
_cell_angle_alpha   90.00000000
_cell_angle_beta   90.00000000
_cell_angle_gamma   119.88719156
_symmetry_Int_Tables_number   1
_chemical_formula_structural   Tb5LuAl24(RuRh3)2
_chemical_formula_sum   'Tb5 Lu1 Al24 Ru2 Rh6'
_cell_volume   642.76038053
_cell_formula_units_Z   1
loop_
 _symmetry_equiv_pos_site_id
 _symmetry_equiv_pos_as_xyz
  1  'x, y, z'
loop_
 _atom_site_type_symbol
 _atom_site_label
 _atom_site_symmetry_multiplicity
 _atom_site_fract_x
 _atom_site_fract_y
 _atom_site_fract_z
 _atom_site_occupancy
  Tb  Tb0  1  0.808495  0.191546  0.250000  1
  Tb  Tb1  1  0.808495  0.616947  0.250000  1
  Tb  Tb2  1  0.617089  0.808545  0.750000  1
  Tb  Tb3  1  0.190675  0.808178  0.750000  1
  Tb  Tb4  1  0.190675  0.382499  0.750000  1
  Lu  Lu5  1  0.387788  0.193894  0.250000  1
  Al  Al6  1  0.437472  0.876055  0.250000  1
  Al  Al7  1  0.124721  0.562361  0.250000  1
  Al  Al8  1  0.437472  0.561417  0.250000  1
  Al  Al9  1  0.561745  0.124790  0.750000  1
  Al  Al10  1  0.875220  0.437610  0.750000  1
  Al  Al11  1  0.561745  0.436955  0.750000  1
  Al  Al12  1  0.164290  0.837848  0.422502  1
  Al  Al13  1  0.164290  0.326443  0.422502  1
  Al  Al14  1  0.672734  0.836368  0.423492  1
  Al  Al15  1  0.835930  0.163333  0.576292  1
  Al  Al16  1  0.835930  0.672595  0.576292  1
  Al  Al17  1  0.326886  0.163442  0.574842  1
  Al  Al18  1  0.835930  0.163333  0.923708  1
  Al  Al19  1  0.835930  0.672595  0.923708  1
  Al  Al20  1  0.326886  0.163442  0.925158  1
  Al  Al21  1  0.164290  0.837848  0.077498  1
  Al  Al22  1  0.164290  0.326443  0.077498  1
  Al  Al23  1  0.672734  0.836368  0.076508  1
  Al  Al24  1  0.332628  0.666314  0.528299  1
  Al  Al25  1  0.666197  0.333098  0.470182  1
  Al  Al26  1  0.666197  0.333098  0.029818  1
  Al  Al27  1  0.332628  0.666314  0.971701  1
  Al  Al28  1  0.004110  0.002055  0.250000  1
  Al  Al29  1  0.999305  0.999653  0.750000  1
  Ru  Ru30  1  0.999828  0.999914  0.499918  1
  Ru  Ru31  1  0.999828  0.999914  0.000082  1
  Rh  Rh32  1  0.499625  0.000346  0.499513  1
  Rh  Rh33  1  0.999534  0.499767  0.499825  1
  Rh  Rh34  1  0.499625  0.499279  0.499513  1
  Rh  Rh35  1  0.499625  0.000346  0.000487  1
  Rh  Rh36  1  0.999534  0.499767  0.000175  1
  Rh  Rh37  1  0.499625  0.499279  0.000487  1
