# generated using pymatgen
data_Nd4Al4PtRh3
_symmetry_space_group_name_H-M   'P 1'
_cell_length_a   4.37131100
_cell_length_b   7.07007353
_cell_length_c   8.04759447
_cell_angle_alpha   90.35361514
_cell_angle_beta   90.00000000
_cell_angle_gamma   90.00000000
_symmetry_Int_Tables_number   1
_chemical_formula_structural   Nd4Al4PtRh3
_chemical_formula_sum   'Nd4 Al4 Pt1 Rh3'
_cell_volume   248.71011510
_cell_formula_units_Z   1
loop_
 _symmetry_equiv_pos_site_id
 _symmetry_equiv_pos_as_xyz
  1  'x, y, z'
loop_
 _atom_site_type_symbol
 _atom_site_label
 _atom_site_symmetry_multiplicity
 _atom_site_fract_x
 _atom_site_fract_y
 _atom_site_fract_z
 _atom_site_occupancy
  Nd  Nd0  1  0.250000  0.533815  0.184025  1
  Nd  Nd1  1  0.750000  0.460605  0.820101  1
  Nd  Nd2  1  0.750000  0.965489  0.677557  1
  Nd  Nd3  1  0.250000  0.036864  0.319215  1
  Al  Al4  1  0.250000  0.634453  0.562859  1
  Al  Al5  1  0.750000  0.365297  0.437891  1
  Al  Al6  1  0.750000  0.865026  0.063532  1
  Al  Al7  1  0.250000  0.137682  0.937551  1
  Pt  Pt8  1  0.250000  0.772874  0.881983  1
  Rh  Rh9  1  0.750000  0.228099  0.115726  1
  Rh  Rh10  1  0.750000  0.729080  0.383248  1
  Rh  Rh11  1  0.250000  0.270714  0.616313  1
