# generated using pymatgen
data_Ho4Al18Ir5Au
_symmetry_space_group_name_H-M   'P 1'
_cell_length_a   7.58958578
_cell_length_b   7.58958653
_cell_length_c   9.46599335
_cell_angle_alpha   89.96932232
_cell_angle_beta   89.96932051
_cell_angle_gamma   119.71376472
_symmetry_Int_Tables_number   1
_chemical_formula_structural   Ho4Al18Ir5Au
_chemical_formula_sum   'Ho4 Al18 Ir5 Au1'
_cell_volume   473.56346826
_cell_formula_units_Z   1
loop_
 _symmetry_equiv_pos_site_id
 _symmetry_equiv_pos_as_xyz
  1  'x, y, z'
loop_
 _atom_site_type_symbol
 _atom_site_label
 _atom_site_symmetry_multiplicity
 _atom_site_fract_x
 _atom_site_fract_y
 _atom_site_fract_z
 _atom_site_occupancy
  Ho  Ho0  1  0.993708  0.668610  0.251168  1
  Ho  Ho1  1  0.003027  0.329332  0.749000  1
  Ho  Ho2  1  0.670668  0.996973  0.251000  1
  Ho  Ho3  1  0.331390  0.006292  0.748832  1
  Al  Al4  1  0.127202  0.125397  0.251012  1
  Al  Al5  1  0.874603  0.872798  0.748988  1
  Al  Al6  1  0.010225  0.334872  0.078510  1
  Al  Al7  1  0.007851  0.674372  0.921857  1
  Al  Al8  1  0.001344  0.665422  0.573811  1
  Al  Al9  1  0.334578  0.998656  0.426189  1
  Al  Al10  1  0.000486  0.334292  0.425089  1
  Al  Al11  1  0.665708  0.999514  0.574911  1
  Al  Al12  1  0.665128  0.989775  0.921490  1
  Al  Al13  1  0.325628  0.992149  0.078143  1
  Al  Al14  1  0.331968  0.332208  0.552063  1
  Al  Al15  1  0.667792  0.668032  0.447937  1
  Al  Al16  1  0.665844  0.672965  0.059857  1
  Al  Al17  1  0.327035  0.334156  0.940143  1
  Al  Al18  1  0.340597  0.550464  0.251311  1
  Al  Al19  1  0.660274  0.457564  0.742855  1
  Al  Al20  1  0.542436  0.339726  0.257145  1
  Al  Al21  1  0.449536  0.659403  0.748689  1
  Ir  Ir22  1  0.328453  0.671547  0.000000  1
  Ir  Ir23  1  0.328345  0.671655  0.500000  1
  Ir  Ir24  1  0.672539  0.327461  0.500000  1
  Ir  Ir25  1  0.999756  0.000244  0.000000  1
  Ir  Ir26  1  0.000416  0.999584  0.500000  1
  Au  Au27  1  0.673464  0.326536  0.000000  1
