# generated using pymatgen
data_SmAg3(Ru2O7)2
_symmetry_space_group_name_H-M   'P 1'
_cell_length_a   7.20943761
_cell_length_b   7.20943829
_cell_length_c   7.28062215
_cell_angle_alpha   60.32290362
_cell_angle_beta   60.32290025
_cell_angle_gamma   60.00000457
_symmetry_Int_Tables_number   1
_chemical_formula_structural   SmAg3(Ru2O7)2
_chemical_formula_sum   'Sm1 Ag3 Ru4 O14'
_cell_volume   268.88019671
_cell_formula_units_Z   1
loop_
 _symmetry_equiv_pos_site_id
 _symmetry_equiv_pos_as_xyz
  1  'x, y, z'
loop_
 _atom_site_type_symbol
 _atom_site_label
 _atom_site_symmetry_multiplicity
 _atom_site_fract_x
 _atom_site_fract_y
 _atom_site_fract_z
 _atom_site_occupancy
  Sm  Sm0  1  0.625000  0.625000  0.125000  1
  Ag  Ag1  1  0.625000  0.625000  0.625000  1
  Ag  Ag2  1  0.125000  0.625000  0.625000  1
  Ag  Ag3  1  0.625000  0.125000  0.625000  1
  Ru  Ru4  1  0.125000  0.125000  0.125000  1
  Ru  Ru5  1  0.625000  0.125000  0.125000  1
  Ru  Ru6  1  0.125000  0.125000  0.625000  1
  Ru  Ru7  1  0.125000  0.625000  0.125000  1
  O  O8  1  0.493896  0.493896  0.518313  1
  O  O9  1  0.756104  0.756104  0.731687  1
  O  O10  1  0.059376  0.059376  0.439272  1
  O  O11  1  0.802020  0.802020  0.192177  1
  O  O12  1  0.441975  0.059376  0.439272  1
  O  O13  1  0.447980  0.046218  0.057823  1
  O  O14  1  0.059376  0.441975  0.439272  1
  O  O15  1  0.046218  0.447980  0.057823  1
  O  O16  1  0.447980  0.447980  0.057823  1
  O  O17  1  0.190624  0.808025  0.810728  1
  O  O18  1  0.802020  0.203782  0.192177  1
  O  O19  1  0.190624  0.190624  0.810728  1
  O  O20  1  0.203782  0.802020  0.192177  1
  O  O21  1  0.808025  0.190624  0.810728  1
