# generated using pymatgen
data_Zr6Be14AlCu8
_symmetry_space_group_name_H-M   'P 1'
_cell_length_a   7.94891137
_cell_length_b   7.94891073
_cell_length_c   7.94891100
_cell_angle_alpha   59.99999471
_cell_angle_beta   59.99999739
_cell_angle_gamma   59.99999558
_symmetry_Int_Tables_number   1
_chemical_formula_structural   Zr6Be14AlCu8
_chemical_formula_sum   'Zr6 Be14 Al1 Cu8'
_cell_volume   355.14677120
_cell_formula_units_Z   1
loop_
 _symmetry_equiv_pos_site_id
 _symmetry_equiv_pos_as_xyz
  1  'x, y, z'
loop_
 _atom_site_type_symbol
 _atom_site_label
 _atom_site_symmetry_multiplicity
 _atom_site_fract_x
 _atom_site_fract_y
 _atom_site_fract_z
 _atom_site_occupancy
  Zr  Zr0  1  0.703484  0.296516  0.296516  1
  Zr  Zr1  1  0.296516  0.703484  0.703484  1
  Zr  Zr2  1  0.296516  0.703484  0.296516  1
  Zr  Zr3  1  0.703484  0.296516  0.703484  1
  Zr  Zr4  1  0.296516  0.296516  0.703484  1
  Zr  Zr5  1  0.703484  0.703484  0.296516  1
  Be  Be6  1  0.323989  0.323989  0.323989  1
  Be  Be7  1  0.676011  0.676011  0.676011  1
  Be  Be8  1  0.323989  0.323989  0.028033  1
  Be  Be9  1  0.323989  0.028033  0.323989  1
  Be  Be10  1  0.676011  0.676011  0.971967  1
  Be  Be11  1  0.676011  0.971967  0.676011  1
  Be  Be12  1  0.028033  0.323989  0.323989  1
  Be  Be13  1  0.971967  0.676011  0.676011  1
  Be  Be14  1  0.500000  0.000000  0.000000  1
  Be  Be15  1  0.000000  0.500000  0.500000  1
  Be  Be16  1  0.000000  0.500000  0.000000  1
  Be  Be17  1  0.500000  0.000000  0.500000  1
  Be  Be18  1  0.000000  0.000000  0.500000  1
  Be  Be19  1  0.500000  0.500000  0.000000  1
  Al  Al20  1  0.000000  0.000000  0.000000  1
  Cu  Cu21  1  0.127592  0.127592  0.127592  1
  Cu  Cu22  1  0.872408  0.872408  0.872408  1
  Cu  Cu23  1  0.127592  0.127592  0.617226  1
  Cu  Cu24  1  0.127592  0.617226  0.127592  1
  Cu  Cu25  1  0.872408  0.872408  0.382774  1
  Cu  Cu26  1  0.872408  0.382774  0.872408  1
  Cu  Cu27  1  0.617226  0.127592  0.127592  1
  Cu  Cu28  1  0.382774  0.872408  0.872408  1
