# generated using pymatgen
data_HfTaGaRh5
_symmetry_space_group_name_H-M   'P 1'
_cell_length_a   4.05368400
_cell_length_b   5.52037217
_cell_length_c   10.89907226
_cell_angle_alpha   89.85906191
_cell_angle_beta   90.00000000
_cell_angle_gamma   90.00000000
_symmetry_Int_Tables_number   1
_chemical_formula_structural   HfTaGaRh5
_chemical_formula_sum   'Hf2 Ta2 Ga2 Rh10'
_cell_volume   243.89700446
_cell_formula_units_Z   2
loop_
 _symmetry_equiv_pos_site_id
 _symmetry_equiv_pos_as_xyz
  1  'x, y, z'
loop_
 _atom_site_type_symbol
 _atom_site_label
 _atom_site_symmetry_multiplicity
 _atom_site_fract_x
 _atom_site_fract_y
 _atom_site_fract_z
 _atom_site_occupancy
  Hf  Hf0  1  0.500000  0.684947  0.862151  1
  Hf  Hf1  1  0.500000  0.315053  0.137849  1
  Ta  Ta2  1  0.500000  0.183248  0.640850  1
  Ta  Ta3  1  0.500000  0.816752  0.359150  1
  Ga  Ga4  1  0.000000  0.500000  0.500000  1
  Ga  Ga5  1  0.000000  0.000000  0.000000  1
  Rh  Rh6  1  0.500000  0.191051  0.886216  1
  Rh  Rh7  1  0.500000  0.808949  0.113784  1
  Rh  Rh8  1  0.500000  0.696137  0.606256  1
  Rh  Rh9  1  0.500000  0.303863  0.393744  1
  Rh  Rh10  1  0.000000  0.431641  0.741996  1
  Rh  Rh11  1  0.000000  0.568359  0.258004  1
  Rh  Rh12  1  0.000000  0.000000  0.500000  1
  Rh  Rh13  1  0.000000  0.500000  0.000000  1
  Rh  Rh14  1  0.000000  0.061342  0.250078  1
  Rh  Rh15  1  0.000000  0.938658  0.749922  1
