# generated using pymatgen
data_BaCePdS3
_symmetry_space_group_name_H-M   'P 1'
_cell_length_a   7.15483807
_cell_length_b   7.15483682
_cell_length_c   10.35769600
_cell_angle_alpha   90.00000000
_cell_angle_beta   90.00000000
_cell_angle_gamma   146.40028854
_symmetry_Int_Tables_number   1
_chemical_formula_structural   BaCePdS3
_chemical_formula_sum   'Ba2 Ce2 Pd2 S6'
_cell_volume   293.42150087
_cell_formula_units_Z   2
loop_
 _symmetry_equiv_pos_site_id
 _symmetry_equiv_pos_as_xyz
  1  'x, y, z'
loop_
 _atom_site_type_symbol
 _atom_site_label
 _atom_site_symmetry_multiplicity
 _atom_site_fract_x
 _atom_site_fract_y
 _atom_site_fract_z
 _atom_site_occupancy
  Ba  Ba0  1  0.745223  0.254779  0.250000  1
  Ba  Ba1  1  0.254779  0.745223  0.750000  1
  Ce  Ce2  1  0.000000  0.000000  0.000000  1
  Ce  Ce3  1  0.000000  0.000000  0.500000  1
  Pd  Pd4  1  0.470516  0.529486  0.250000  1
  Pd  Pd5  1  0.529486  0.470516  0.750000  1
  S  S6  1  0.367324  0.632678  0.056195  1
  S  S7  1  0.071006  0.928997  0.250000  1
  S  S8  1  0.367324  0.632678  0.443805  1
  S  S9  1  0.632678  0.367324  0.556195  1
  S  S10  1  0.928997  0.071006  0.750000  1
  S  S11  1  0.632678  0.367324  0.943804  1
