# generated using pymatgen
data_CaLa8Y11Si16
_symmetry_space_group_name_H-M   'P 1'
_cell_length_a   7.84819806
_cell_length_b   7.84819781
_cell_length_c   14.74849600
_cell_angle_alpha   89.94174929
_cell_angle_beta   90.05825071
_cell_angle_gamma   90.07522517
_symmetry_Int_Tables_number   1
_chemical_formula_structural   CaLa8Y11Si16
_chemical_formula_sum   'Ca1 La8 Y11 Si16'
_cell_volume   908.42025082
_cell_formula_units_Z   1
loop_
 _symmetry_equiv_pos_site_id
 _symmetry_equiv_pos_as_xyz
  1  'x, y, z'
loop_
 _atom_site_type_symbol
 _atom_site_label
 _atom_site_symmetry_multiplicity
 _atom_site_fract_x
 _atom_site_fract_y
 _atom_site_fract_z
 _atom_site_occupancy
  Ca  Ca0  1  0.686842  0.686842  0.500000  1
  La  La1  1  0.987136  0.633191  0.045364  1
  La  La2  1  0.011041  0.367029  0.546374  1
  La  La3  1  0.633191  0.987136  0.954636  1
  La  La4  1  0.134498  0.512352  0.795332  1
  La  La5  1  0.867697  0.488776  0.296092  1
  La  La6  1  0.512352  0.134498  0.204668  1
  La  La7  1  0.488776  0.867697  0.703908  1
  La  La8  1  0.367029  0.011041  0.453626  1
  Y  Y9  1  0.366501  0.489397  0.374751  1
  Y  Y10  1  0.867645  0.010043  0.375814  1
  Y  Y11  1  0.988128  0.135015  0.124524  1
  Y  Y12  1  0.010043  0.867645  0.624186  1
  Y  Y13  1  0.633132  0.512871  0.875386  1
  Y  Y14  1  0.489397  0.366501  0.625249  1
  Y  Y15  1  0.512871  0.633132  0.124614  1
  Y  Y16  1  0.135015  0.988128  0.875476  1
  Y  Y17  1  0.811222  0.185242  0.751121  1
  Y  Y18  1  0.185242  0.811222  0.248879  1
  Y  Y19  1  0.313068  0.313068  0.000000  1
  Si  Si20  1  0.079193  0.714701  0.437187  1
  Si  Si21  1  0.928796  0.285558  0.938187  1
  Si  Si22  1  0.714701  0.079193  0.562813  1
  Si  Si23  1  0.214264  0.428884  0.188489  1
  Si  Si24  1  0.787454  0.569929  0.691298  1
  Si  Si25  1  0.428884  0.214264  0.811511  1
  Si  Si26  1  0.569929  0.787454  0.308702  1
  Si  Si27  1  0.285558  0.928796  0.061813  1
  Si  Si28  1  0.838887  0.802197  0.803751  1
  Si  Si29  1  0.160731  0.198347  0.303633  1
  Si  Si30  1  0.802197  0.838887  0.196249  1
  Si  Si31  1  0.293840  0.658145  0.556894  1
  Si  Si32  1  0.698913  0.339335  0.054188  1
  Si  Si33  1  0.658145  0.293840  0.443106  1
  Si  Si34  1  0.339335  0.698913  0.945812  1
  Si  Si35  1  0.198347  0.160731  0.696367  1
