# generated using pymatgen
data_La8CdCoHgOs
_symmetry_space_group_name_H-M   'P 1'
_cell_length_a   10.05299410
_cell_length_b   9.96518925
_cell_length_c   10.03425661
_cell_angle_alpha   60.13983388
_cell_angle_beta   60.53205545
_cell_angle_gamma   60.14696412
_symmetry_Int_Tables_number   1
_chemical_formula_structural   La8CdCoHgOs
_chemical_formula_sum   'La16 Cd2 Co2 Hg2 Os2'
_cell_volume   715.17552050
_cell_formula_units_Z   2
loop_
 _symmetry_equiv_pos_site_id
 _symmetry_equiv_pos_as_xyz
  1  'x, y, z'
loop_
 _atom_site_type_symbol
 _atom_site_label
 _atom_site_symmetry_multiplicity
 _atom_site_fract_x
 _atom_site_fract_y
 _atom_site_fract_z
 _atom_site_occupancy
  La  La0  1  0.936416  0.944946  0.557743  1
  La  La1  1  0.559376  0.940490  0.560361  1
  La  La2  1  0.556814  0.945718  0.937039  1
  La  La3  1  0.684855  0.693624  0.309116  1
  La  La4  1  0.158057  0.151503  0.541328  1
  La  La5  1  0.307710  0.694531  0.686018  1
  La  La6  1  0.157778  0.151435  0.157757  1
  La  La7  1  0.539233  0.152166  0.158847  1
  La  La8  1  0.308202  0.692485  0.308565  1
  La  La9  1  0.307748  0.311437  0.686323  1
  La  La10  1  0.688662  0.311313  0.688744  1
  La  La11  1  0.937805  0.558404  0.556373  1
  La  La12  1  0.555488  0.558403  0.938431  1
  La  La13  1  0.156058  0.539914  0.155842  1
  La  La14  1  0.685441  0.311961  0.308697  1
  La  La15  1  0.941863  0.555663  0.942413  1
  Cd  Cd16  1  0.920111  0.921964  0.236554  1
  Cd  Cd17  1  0.921392  0.235021  0.921739  1
  Co  Co18  1  0.364058  0.915491  0.364290  1
  Co  Co19  1  0.365322  0.355036  0.364938  1
  Hg  Hg20  1  0.248194  0.917721  0.917052  1
  Hg  Hg21  1  0.916952  0.918747  0.919189  1
  Os  Os22  1  0.917521  0.361123  0.364749  1
  Os  Os23  1  0.364940  0.360900  0.917888  1
