# generated using pymatgen
data_TbHo7(PI6)2
_symmetry_space_group_name_H-M   'P 1'
_cell_length_a   4.16451000
_cell_length_b   13.81839330
_cell_length_c   14.58000246
_cell_angle_alpha   90.07905533
_cell_angle_beta   90.00000000
_cell_angle_gamma   90.00000000
_symmetry_Int_Tables_number   1
_chemical_formula_structural   TbHo7(PI6)2
_chemical_formula_sum   'Tb1 Ho7 P2 I12'
_cell_volume   839.03222740
_cell_formula_units_Z   1
loop_
 _symmetry_equiv_pos_site_id
 _symmetry_equiv_pos_as_xyz
  1  'x, y, z'
loop_
 _atom_site_type_symbol
 _atom_site_label
 _atom_site_symmetry_multiplicity
 _atom_site_fract_x
 _atom_site_fract_y
 _atom_site_fract_z
 _atom_site_occupancy
  Tb  Tb0  1  0.000000  0.392238  0.072516  1
  Ho  Ho1  1  0.500000  0.112782  0.350717  1
  Ho  Ho2  1  0.500000  0.887239  0.649171  1
  Ho  Ho3  1  0.500000  0.612981  0.149533  1
  Ho  Ho4  1  0.500000  0.386965  0.850566  1
  Ho  Ho5  1  0.000000  0.106954  0.571900  1
  Ho  Ho6  1  0.000000  0.893031  0.428119  1
  Ho  Ho7  1  0.000000  0.607948  0.927407  1
  P  P8  1  0.500000  0.000027  0.499977  1
  P  P9  1  0.500000  0.501286  0.999162  1
  I  I10  1  0.500000  0.244901  0.163198  1
  I  I11  1  0.500000  0.753439  0.837842  1
  I  I12  1  0.500000  0.747198  0.338222  1
  I  I13  1  0.500000  0.252911  0.661683  1
  I  I14  1  0.000000  0.259426  0.415952  1
  I  I15  1  0.000000  0.740518  0.584092  1
  I  I16  1  0.000000  0.759708  0.084153  1
  I  I17  1  0.000000  0.239637  0.914618  1
  I  I18  1  0.000000  0.999098  0.240588  1
  I  I19  1  0.000000  0.000684  0.759453  1
  I  I20  1  0.000000  0.500330  0.260877  1
  I  I21  1  0.000000  0.500696  0.740253  1
