# generated using pymatgen
data_RhS3Cl11
_symmetry_space_group_name_H-M   'P 1'
_cell_length_a   13.90680400
_cell_length_b   8.54377446
_cell_length_c   15.95361400
_cell_angle_alpha   73.78182189
_cell_angle_beta   90.00000000
_cell_angle_gamma   90.00000000
_symmetry_Int_Tables_number   1
_chemical_formula_structural   RhS3Cl11
_chemical_formula_sum   'Rh4 S12 Cl44'
_cell_volume   1820.12077816
_cell_formula_units_Z   4
loop_
 _symmetry_equiv_pos_site_id
 _symmetry_equiv_pos_as_xyz
  1  'x, y, z'
loop_
 _atom_site_type_symbol
 _atom_site_label
 _atom_site_symmetry_multiplicity
 _atom_site_fract_x
 _atom_site_fract_y
 _atom_site_fract_z
 _atom_site_occupancy
  Rh  Rh0  1  0.593318  0.896407  0.804120  1
  Rh  Rh1  1  0.093318  0.103593  0.695880  1
  Rh  Rh2  1  0.406682  0.103593  0.195880  1
  Rh  Rh3  1  0.906682  0.896407  0.304120  1
  S  S4  1  0.760826  0.627474  0.935419  1
  S  S5  1  0.260826  0.372526  0.564581  1
  S  S6  1  0.239174  0.372526  0.064581  1
  S  S7  1  0.739174  0.627474  0.435419  1
  S  S8  1  0.477528  0.936644  0.124006  1
  S  S9  1  0.977528  0.063356  0.375994  1
  S  S10  1  0.458489  0.872014  0.730106  1
  S  S11  1  0.958489  0.127986  0.769894  1
  S  S12  1  0.541511  0.127986  0.269894  1
  S  S13  1  0.041511  0.872014  0.230106  1
  S  S14  1  0.522472  0.063356  0.875994  1
  S  S15  1  0.022472  0.936644  0.624006  1
  Cl  Cl16  1  0.636493  0.100968  0.676841  1
  Cl  Cl17  1  0.439278  0.312444  0.063731  1
  Cl  Cl18  1  0.060722  0.312444  0.563731  1
  Cl  Cl19  1  0.560722  0.687556  0.936269  1
  Cl  Cl20  1  0.815599  0.695822  0.261414  1
  Cl  Cl21  1  0.315599  0.304178  0.238586  1
  Cl  Cl22  1  0.184401  0.304178  0.738586  1
  Cl  Cl23  1  0.684401  0.695822  0.761414  1
  Cl  Cl24  1  0.115695  0.666029  0.290972  1
  Cl  Cl25  1  0.615695  0.333971  0.209028  1
  Cl  Cl26  1  0.884305  0.333971  0.709028  1
  Cl  Cl27  1  0.384305  0.666029  0.790972  1
  Cl  Cl28  1  0.008372  0.823600  0.115643  1
  Cl  Cl29  1  0.508372  0.176400  0.384357  1
  Cl  Cl30  1  0.991628  0.176400  0.884357  1
  Cl  Cl31  1  0.939278  0.687556  0.436269  1
  Cl  Cl32  1  0.954011  0.303734  0.316484  1
  Cl  Cl33  1  0.454011  0.696266  0.183516  1
  Cl  Cl34  1  0.045989  0.696266  0.683516  1
  Cl  Cl35  1  0.545989  0.303734  0.816484  1
  Cl  Cl36  1  0.124048  0.049593  0.365856  1
  Cl  Cl37  1  0.624048  0.950407  0.134144  1
  Cl  Cl38  1  0.875952  0.950407  0.634144  1
  Cl  Cl39  1  0.375952  0.049593  0.865856  1
  Cl  Cl40  1  0.596571  0.653303  0.394648  1
  Cl  Cl41  1  0.096571  0.346697  0.105352  1
  Cl  Cl42  1  0.403429  0.346697  0.605352  1
  Cl  Cl43  1  0.903429  0.653303  0.894648  1
  Cl  Cl44  1  0.719003  0.636059  0.562201  1
  Cl  Cl45  1  0.219003  0.363941  0.937799  1
  Cl  Cl46  1  0.280997  0.363941  0.437799  1
  Cl  Cl47  1  0.780997  0.636059  0.062201  1
  Cl  Cl48  1  0.751270  0.378035  0.458768  1
  Cl  Cl49  1  0.251270  0.621965  0.041232  1
  Cl  Cl50  1  0.248730  0.621965  0.541232  1
  Cl  Cl51  1  0.748730  0.378035  0.958768  1
  Cl  Cl52  1  0.363507  0.899032  0.323159  1
  Cl  Cl53  1  0.863507  0.100968  0.176841  1
  Cl  Cl54  1  0.732517  0.962518  0.877769  1
  Cl  Cl55  1  0.232517  0.037482  0.622231  1
  Cl  Cl56  1  0.267483  0.037482  0.122231  1
  Cl  Cl57  1  0.767483  0.962518  0.377769  1
  Cl  Cl58  1  0.491628  0.823600  0.615643  1
  Cl  Cl59  1  0.136493  0.899032  0.823159  1
