# generated using pymatgen
data_Y5Er5AlSb5
_symmetry_space_group_name_H-M   'P 1'
_cell_length_a   6.35162400
_cell_length_b   8.90605321
_cell_length_c   8.89508812
_cell_angle_alpha   120.04078658
_cell_angle_beta   89.99958133
_cell_angle_gamma   90.00085344
_symmetry_Int_Tables_number   1
_chemical_formula_structural   Y5Er5AlSb5
_chemical_formula_sum   'Y5 Er5 Al1 Sb5'
_cell_volume   435.58439699
_cell_formula_units_Z   1
loop_
 _symmetry_equiv_pos_site_id
 _symmetry_equiv_pos_as_xyz
  1  'x, y, z'
loop_
 _atom_site_type_symbol
 _atom_site_label
 _atom_site_symmetry_multiplicity
 _atom_site_fract_x
 _atom_site_fract_y
 _atom_site_fract_z
 _atom_site_occupancy
  Y  Y0  1  0.750008  0.248169  0.000000  1
  Y  Y1  1  0.749995  0.752798  0.762270  1
  Y  Y2  1  0.749995  0.990528  0.237730  1
  Y  Y3  1  0.250007  0.245906  0.244803  1
  Y  Y4  1  0.250007  0.001103  0.755197  1
  Er  Er5  1  0.501144  0.338471  0.673052  1
  Er  Er6  1  0.501144  0.665419  0.326948  1
  Er  Er7  1  0.998854  0.665426  0.326953  1
  Er  Er8  1  0.998854  0.338473  0.673047  1
  Er  Er9  1  0.250003  0.756572  0.000000  1
  Al  Al10  1  0.749999  0.603379  0.000000  1
  Sb  Sb11  1  0.749998  0.388733  0.390606  1
  Sb  Sb12  1  0.749998  0.998125  0.609394  1
  Sb  Sb13  1  0.249994  0.393933  0.000000  1
  Sb  Sb14  1  0.250002  0.610861  0.608759  1
  Sb  Sb15  1  0.250002  0.002103  0.391241  1
