# generated using pymatgen
data_Ca5Cd(RuO6)2
_symmetry_space_group_name_H-M   'P 1'
_cell_length_a   6.54504426
_cell_length_b   6.56952891
_cell_length_c   6.55755891
_cell_angle_alpha   91.87601065
_cell_angle_beta   91.21692994
_cell_angle_gamma   91.72655423
_symmetry_Int_Tables_number   1
_chemical_formula_structural   Ca5Cd(RuO6)2
_chemical_formula_sum   'Ca5 Cd1 Ru2 O12'
_cell_volume   281.61220499
_cell_formula_units_Z   1
loop_
 _symmetry_equiv_pos_site_id
 _symmetry_equiv_pos_as_xyz
  1  'x, y, z'
loop_
 _atom_site_type_symbol
 _atom_site_label
 _atom_site_symmetry_multiplicity
 _atom_site_fract_x
 _atom_site_fract_y
 _atom_site_fract_z
 _atom_site_occupancy
  Ca  Ca0  1  0.744914  0.931036  0.435878  1
  Ca  Ca1  1  0.568813  0.254575  0.066599  1
  Ca  Ca2  1  0.436037  0.744927  0.929091  1
  Ca  Ca3  1  0.250639  0.071777  0.567864  1
  Ca  Ca4  1  0.069376  0.563449  0.254387  1
  Cd  Cd5  1  0.932592  0.442280  0.748638  1
  Ru  Ru6  1  0.000342  0.998743  0.000569  1
  Ru  Ru7  1  0.498553  0.500234  0.498410  1
  O  O8  1  0.939615  0.282116  0.069194  1
  O  O9  1  0.926863  0.060580  0.719773  1
  O  O10  1  0.783159  0.577315  0.450855  1
  O  O11  1  0.717418  0.928849  0.064455  1
  O  O12  1  0.579982  0.453046  0.782071  1
  O  O13  1  0.546050  0.217523  0.420853  1
  O  O14  1  0.448211  0.782913  0.576062  1
  O  O15  1  0.423676  0.548457  0.215564  1
  O  O16  1  0.283778  0.068456  0.937347  1
  O  O17  1  0.213182  0.420188  0.548378  1
  O  O18  1  0.069684  0.937686  0.283213  1
  O  O19  1  0.067117  0.715850  0.930798  1
