# generated using pymatgen
data_Dy2LuMg3IrPb2
_symmetry_space_group_name_H-M   'P 1'
_cell_length_a   7.45053869
_cell_length_b   7.45053786
_cell_length_c   4.52244000
_cell_angle_alpha   90.00000000
_cell_angle_beta   90.00000000
_cell_angle_gamma   119.69146749
_symmetry_Int_Tables_number   1
_chemical_formula_structural   Dy2LuMg3IrPb2
_chemical_formula_sum   'Dy2 Lu1 Mg3 Ir1 Pb2'
_cell_volume   218.08238060
_cell_formula_units_Z   1
loop_
 _symmetry_equiv_pos_site_id
 _symmetry_equiv_pos_as_xyz
  1  'x, y, z'
loop_
 _atom_site_type_symbol
 _atom_site_label
 _atom_site_symmetry_multiplicity
 _atom_site_fract_x
 _atom_site_fract_y
 _atom_site_fract_z
 _atom_site_occupancy
  Dy  Dy0  1  0.612115  0.000562  0.500000  1
  Dy  Dy1  1  0.000562  0.612115  0.500000  1
  Lu  Lu2  1  0.380791  0.380791  0.500000  1
  Mg  Mg3  1  0.776663  0.776663  0.000000  1
  Mg  Mg4  1  0.225851  0.999757  0.000000  1
  Mg  Mg5  1  0.999757  0.225851  0.000000  1
  Ir  Ir6  1  0.004310  0.004310  0.500000  1
  Pb  Pb7  1  0.665056  0.334897  0.000000  1
  Pb  Pb8  1  0.334897  0.665056  0.000000  1
