# generated using pymatgen
data_Pr3In3CuHgPd
_symmetry_space_group_name_H-M   'P 1'
_cell_length_a   7.92340200
_cell_length_b   7.92340127
_cell_length_c   4.08177000
_cell_angle_alpha   90.00000000
_cell_angle_beta   90.00000000
_cell_angle_gamma   120.00001138
_symmetry_Int_Tables_number   1
_chemical_formula_structural   Pr3In3CuHgPd
_chemical_formula_sum   'Pr3 In3 Cu1 Hg1 Pd1'
_cell_volume   221.92307068
_cell_formula_units_Z   1
loop_
 _symmetry_equiv_pos_site_id
 _symmetry_equiv_pos_as_xyz
  1  'x, y, z'
loop_
 _atom_site_type_symbol
 _atom_site_label
 _atom_site_symmetry_multiplicity
 _atom_site_fract_x
 _atom_site_fract_y
 _atom_site_fract_z
 _atom_site_occupancy
  Pr  Pr0  1  0.399183  0.414831  0.500000  1
  Pr  Pr1  1  0.585169  0.984352  0.500000  1
  Pr  Pr2  1  0.015648  0.600817  0.500000  1
  In  In3  1  0.754461  0.760757  0.000000  1
  In  In4  1  0.239243  0.993704  0.000000  1
  In  In5  1  0.006296  0.245539  0.000000  1
  Cu  Cu6  1  0.000000  0.000000  0.500000  1
  Hg  Hg7  1  0.666667  0.333333  0.000000  1
  Pd  Pd8  1  0.333333  0.666667  0.000000  1
