# generated using pymatgen
data_Pr6SiPI6
_symmetry_space_group_name_H-M   'P 1'
_cell_length_a   10.85289471
_cell_length_b   10.85289501
_cell_length_c   10.84967955
_cell_angle_alpha   109.46896800
_cell_angle_beta   109.46896559
_cell_angle_gamma   109.48773286
_symmetry_Int_Tables_number   1
_chemical_formula_structural   Pr6SiPI6
_chemical_formula_sum   'Pr12 Si2 P2 I12'
_cell_volume   983.60752361
_cell_formula_units_Z   2
loop_
 _symmetry_equiv_pos_site_id
 _symmetry_equiv_pos_as_xyz
  1  'x, y, z'
loop_
 _atom_site_type_symbol
 _atom_site_label
 _atom_site_symmetry_multiplicity
 _atom_site_fract_x
 _atom_site_fract_y
 _atom_site_fract_z
 _atom_site_occupancy
  Pr  Pr0  1  0.462022  0.484021  0.228989  1
  Pr  Pr1  1  0.755031  0.233033  0.271011  1
  Pr  Pr2  1  0.754546  0.020999  0.484412  1
  Pr  Pr3  1  0.229866  0.463413  0.484412  1
  Pr  Pr4  1  0.266967  0.744969  0.228989  1
  Pr  Pr5  1  0.036587  0.270134  0.015588  1
  Pr  Pr6  1  0.015979  0.037978  0.271011  1
  Pr  Pr7  1  0.479001  0.745454  0.015588  1
  Pr  Pr8  1  0.483280  0.233280  0.466560  1
  Pr  Pr9  1  0.020086  0.479914  0.750000  1
  Pr  Pr10  1  0.266720  0.016720  0.033440  1
  Pr  Pr11  1  0.229914  0.270086  0.750000  1
  Si  Si12  1  0.249118  0.250882  0.250000  1
  Si  Si13  1  0.500882  0.999118  0.250000  1
  P  P14  1  0.001283  0.251283  0.502564  1
  P  P15  1  0.248717  0.498717  0.997436  1
  I  I16  1  0.249605  0.756953  0.741752  1
  I  I17  1  0.515200  0.507853  0.758248  1
  I  I18  1  0.985036  0.741970  0.992527  1
  I  I19  1  0.743047  0.250395  0.758248  1
  I  I20  1  0.992147  0.984800  0.741752  1
  I  I21  1  0.249443  0.992507  0.507473  1
  I  I22  1  0.758030  0.514964  0.507473  1
  I  I23  1  0.507493  0.250557  0.992527  1
  I  I24  1  0.758054  0.741946  0.250000  1
  I  I25  1  0.742806  0.992806  0.985614  1
  I  I26  1  0.991946  0.508054  0.250000  1
  I  I27  1  0.507194  0.757194  0.514386  1
