# generated using pymatgen
data_Cs16ZrSn3S16
_symmetry_space_group_name_H-M   'P 1'
_cell_length_a   8.77826001
_cell_length_b   10.50166800
_cell_length_c   15.38462000
_cell_angle_alpha   90.00000000
_cell_angle_beta   90.15472293
_cell_angle_gamma   90.00000000
_symmetry_Int_Tables_number   1
_chemical_formula_structural   Cs16ZrSn3S16
_chemical_formula_sum   'Cs16 Zr1 Sn3 S16'
_cell_volume   1418.24713446
_cell_formula_units_Z   1
loop_
 _symmetry_equiv_pos_site_id
 _symmetry_equiv_pos_as_xyz
  1  'x, y, z'
loop_
 _atom_site_type_symbol
 _atom_site_label
 _atom_site_symmetry_multiplicity
 _atom_site_fract_x
 _atom_site_fract_y
 _atom_site_fract_z
 _atom_site_occupancy
  Cs  Cs0  1  0.000229  0.997653  0.999660  1
  Cs  Cs1  1  0.500516  0.003319  0.498975  1
  Cs  Cs2  1  0.000229  0.502347  0.999660  1
  Cs  Cs3  1  0.500516  0.496681  0.498975  1
  Cs  Cs4  1  0.994076  0.750000  0.422866  1
  Cs  Cs5  1  0.492587  0.250000  0.077407  1
  Cs  Cs6  1  0.006197  0.250000  0.575380  1
  Cs  Cs7  1  0.508267  0.750000  0.922885  1
  Cs  Cs8  1  0.834332  0.056135  0.278425  1
  Cs  Cs9  1  0.334122  0.943634  0.221109  1
  Cs  Cs10  1  0.167527  0.554631  0.720490  1
  Cs  Cs11  1  0.666167  0.440499  0.780175  1
  Cs  Cs12  1  0.167527  0.945369  0.720490  1
  Cs  Cs13  1  0.666167  0.059501  0.780175  1
  Cs  Cs14  1  0.834332  0.443865  0.278425  1
  Cs  Cs15  1  0.334122  0.556366  0.221109  1
  Zr  Zr16  1  0.760370  0.750000  0.665307  1
  Sn  Sn17  1  0.237043  0.250000  0.336164  1
  Sn  Sn18  1  0.736224  0.750000  0.163348  1
  Sn  Sn19  1  0.263296  0.250000  0.837011  1
  S  S20  1  0.986333  0.250000  0.827202  1
  S  S21  1  0.514340  0.250000  0.326804  1
  S  S22  1  0.483912  0.750000  0.672938  1
  S  S23  1  0.013419  0.750000  0.173509  1
  S  S24  1  0.650652  0.560410  0.089147  1
  S  S25  1  0.151859  0.439681  0.410047  1
  S  S26  1  0.349479  0.060531  0.911026  1
  S  S27  1  0.845943  0.938370  0.590351  1
  S  S28  1  0.349479  0.439469  0.911026  1
  S  S29  1  0.845943  0.561630  0.590351  1
  S  S30  1  0.650652  0.939590  0.089147  1
  S  S31  1  0.151859  0.060319  0.410047  1
  S  S32  1  0.633554  0.750000  0.311376  1
  S  S33  1  0.133189  0.250000  0.188233  1
  S  S34  1  0.366978  0.250000  0.688960  1
  S  S35  1  0.868562  0.750000  0.811802  1
