# generated using pymatgen
data_Y2TmCo9(SiB2)2
_symmetry_space_group_name_H-M   'P 1'
_cell_length_a   5.10165900
_cell_length_b   5.10166036
_cell_length_c   9.33038100
_cell_angle_alpha   90.00000000
_cell_angle_beta   90.00000000
_cell_angle_gamma   120.00001063
_symmetry_Int_Tables_number   1
_chemical_formula_structural   Y2TmCo9(SiB2)2
_chemical_formula_sum   'Y2 Tm1 Co9 Si2 B4'
_cell_volume   210.30661456
_cell_formula_units_Z   1
loop_
 _symmetry_equiv_pos_site_id
 _symmetry_equiv_pos_as_xyz
  1  'x, y, z'
loop_
 _atom_site_type_symbol
 _atom_site_label
 _atom_site_symmetry_multiplicity
 _atom_site_fract_x
 _atom_site_fract_y
 _atom_site_fract_z
 _atom_site_occupancy
  Y  Y0  1  0.000000  0.000000  0.000274  1
  Y  Y1  1  0.000000  0.000000  0.661152  1
  Tm  Tm2  1  0.000000  0.000000  0.338443  1
  Co  Co3  1  0.500000  0.500000  0.499589  1
  Co  Co4  1  0.500000  0.000000  0.499589  1
  Co  Co5  1  0.000000  0.500000  0.499589  1
  Co  Co6  1  0.500000  0.500000  0.803759  1
  Co  Co7  1  0.500000  0.000000  0.803759  1
  Co  Co8  1  0.000000  0.500000  0.803759  1
  Co  Co9  1  0.500000  0.500000  0.196701  1
  Co  Co10  1  0.500000  0.000000  0.196701  1
  Co  Co11  1  0.000000  0.500000  0.196701  1
  Si  Si12  1  0.666667  0.333333  0.999981  1
  Si  Si13  1  0.333333  0.666667  0.999981  1
  B  B14  1  0.666667  0.333333  0.654285  1
  B  B15  1  0.333333  0.666667  0.654285  1
  B  B16  1  0.333333  0.666667  0.345727  1
  B  B17  1  0.666667  0.333333  0.345727  1
