# generated using pymatgen
data_BeH6F8
_symmetry_space_group_name_H-M   'P 1'
_cell_length_a   4.35117408
_cell_length_b   4.30740305
_cell_length_c   9.08060579
_cell_angle_alpha   78.77508699
_cell_angle_beta   82.06263486
_cell_angle_gamma   85.64530507
_symmetry_Int_Tables_number   1
_chemical_formula_structural   BeH6F8
_chemical_formula_sum   'Be1 H6 F8'
_cell_volume   165.12524614
_cell_formula_units_Z   1
loop_
 _symmetry_equiv_pos_site_id
 _symmetry_equiv_pos_as_xyz
  1  'x, y, z'
loop_
 _atom_site_type_symbol
 _atom_site_label
 _atom_site_symmetry_multiplicity
 _atom_site_fract_x
 _atom_site_fract_y
 _atom_site_fract_z
 _atom_site_occupancy
  Be  Be0  1  0.888767  0.912436  0.635618  1
  H  H1  1  0.382334  0.122956  0.636107  1
  H  H2  1  0.811640  0.545615  0.870541  1
  H  H3  1  0.448795  0.503097  0.289228  1
  H  H4  1  0.022012  0.884966  0.164085  1
  H  H5  1  0.975970  0.763430  0.393586  1
  H  H6  1  0.767336  0.209308  0.026656  1
  F  F7  1  0.145734  0.774592  0.285680  1
  F  F8  1  0.628270  0.360896  0.293860  1
  F  F9  1  0.978899  0.652469  0.774897  1
  F  F10  1  0.597940  0.108306  0.696119  1
  F  F11  1  0.937521  0.958515  0.059371  1
  F  F12  1  0.166288  0.128818  0.576747  1
  F  F13  1  0.641019  0.413282  0.976129  1
  F  F14  1  0.811494  0.755294  0.506286  1
