# generated using pymatgen
data_Na28SrCaSn8
_symmetry_space_group_name_H-M   'P 1'
_cell_length_a   11.45016416
_cell_length_b   11.44667587
_cell_length_c   11.44108500
_cell_angle_alpha   109.70651746
_cell_angle_beta   109.37006327
_cell_angle_gamma   109.33183352
_symmetry_Int_Tables_number   1
_chemical_formula_structural   Na28SrCaSn8
_chemical_formula_sum   'Na28 Sr1 Ca1 Sn8'
_cell_volume   1154.41064072
_cell_formula_units_Z   1
loop_
 _symmetry_equiv_pos_site_id
 _symmetry_equiv_pos_as_xyz
  1  'x, y, z'
loop_
 _atom_site_type_symbol
 _atom_site_label
 _atom_site_symmetry_multiplicity
 _atom_site_fract_x
 _atom_site_fract_y
 _atom_site_fract_z
 _atom_site_occupancy
  Na  Na0  1  0.749719  0.874502  0.122754  1
  Na  Na1  1  0.125348  0.749455  0.876110  1
  Na  Na2  1  0.372843  0.251072  0.626186  1
  Na  Na3  1  0.875616  0.124297  0.749445  1
  Na  Na4  1  0.080626  0.267809  0.106923  1
  Na  Na5  1  0.690846  0.029796  0.916059  1
  Na  Na6  1  0.888032  0.471244  0.153645  1
  Na  Na7  1  0.160342  0.893008  0.472048  1
  Na  Na8  1  0.337648  0.810189  0.730944  1
  Na  Na9  1  0.722466  0.334506  0.808195  1
  Na  Na10  1  0.028067  0.916326  0.691575  1
  Na  Na11  1  0.224948  0.308393  0.839736  1
  Na  Na12  1  0.192616  0.411241  0.533207  1
  Na  Na13  1  0.970893  0.385233  0.662802  1
  Na  Na14  1  0.308951  0.842435  0.220451  1
  Na  Na15  1  0.522763  0.185100  0.421661  1
  Na  Na16  1  0.388035  0.665434  0.971474  1
  Na  Na17  1  0.111519  0.083127  0.275330  1
  Na  Na18  1  0.261493  0.101048  0.076327  1
  Na  Na19  1  0.848279  0.216723  0.309611  1
  Na  Na20  1  0.412047  0.536399  0.185112  1
  Na  Na21  1  0.662817  0.971393  0.386753  1
  Na  Na22  1  0.624461  0.778992  0.589390  1
  Na  Na23  1  0.584177  0.614156  0.778434  1
  Na  Na24  1  0.784673  0.593859  0.630375  1
  Na  Na25  1  0.815458  0.738280  0.338883  1
  Na  Na26  1  0.916508  0.692866  0.030470  1
  Na  Na27  1  0.461722  0.152314  0.869501  1
  Sr  Sr28  1  0.624741  0.374109  0.249539  1
  Ca  Ca29  1  0.251925  0.627081  0.377237  1
  Sn  Sn30  1  0.417455  0.424653  0.413386  1
  Sn  Sn31  1  0.490852  0.984928  0.575256  1
  Sn  Sn32  1  0.583186  0.495877  0.003404  1
  Sn  Sn33  1  0.000717  0.578554  0.490843  1
  Sn  Sn34  1  0.089146  0.505494  0.011021  1
  Sn  Sn35  1  0.002647  0.087600  0.503082  1
  Sn  Sn36  1  0.502834  0.008450  0.086993  1
  Sn  Sn37  1  0.913583  0.914060  0.915841  1
