# generated using pymatgen
data_Ba6Y2Mn2O13
_symmetry_space_group_name_H-M   'P 1'
_cell_length_a   11.61752200
_cell_length_b   11.61752255
_cell_length_c   5.84613200
_cell_angle_alpha   90.00000000
_cell_angle_beta   90.00000000
_cell_angle_gamma   150.78992359
_symmetry_Int_Tables_number   1
_chemical_formula_structural   Ba6Y2Mn2O13
_chemical_formula_sum   'Ba6 Y2 Mn2 O13'
_cell_volume   385.05891848
_cell_formula_units_Z   1
loop_
 _symmetry_equiv_pos_site_id
 _symmetry_equiv_pos_as_xyz
  1  'x, y, z'
loop_
 _atom_site_type_symbol
 _atom_site_label
 _atom_site_symmetry_multiplicity
 _atom_site_fract_x
 _atom_site_fract_y
 _atom_site_fract_z
 _atom_site_occupancy
  Ba  Ba0  1  0.500000  0.500000  0.000000  1
  Ba  Ba1  1  0.000000  0.000000  0.500000  1
  Ba  Ba2  1  0.182835  0.817165  0.500000  1
  Ba  Ba3  1  0.684367  0.315633  0.000000  1
  Ba  Ba4  1  0.315633  0.684367  0.000000  1
  Ba  Ba5  1  0.817165  0.182835  0.500000  1
  Y  Y6  1  0.902785  0.097215  0.000000  1
  Y  Y7  1  0.097215  0.902785  0.000000  1
  Mn  Mn8  1  0.392315  0.607685  0.500000  1
  Mn  Mn9  1  0.607685  0.392315  0.500000  1
  O  O10  1  0.633681  0.820477  0.725458  1
  O  O11  1  0.179523  0.366319  0.274542  1
  O  O12  1  0.820477  0.633681  0.725458  1
  O  O13  1  0.366319  0.179523  0.274542  1
  O  O14  1  0.179523  0.366319  0.725458  1
  O  O15  1  0.633681  0.820477  0.274542  1
  O  O16  1  0.366319  0.179523  0.725458  1
  O  O17  1  0.820477  0.633681  0.274542  1
  O  O18  1  0.309811  0.690189  0.500000  1
  O  O19  1  0.802010  0.197990  0.000000  1
  O  O20  1  0.197990  0.802010  0.000000  1
  O  O21  1  0.690189  0.309811  0.500000  1
  O  O22  1  0.000000  0.000000  0.000000  1
