# generated using pymatgen
data_Er6NbCo17(SiP2)4
_symmetry_space_group_name_H-M   'P 1'
_cell_length_a   3.70753400
_cell_length_b   10.61180500
_cell_length_c   12.30945200
_cell_angle_alpha   90.00000000
_cell_angle_beta   90.00000000
_cell_angle_gamma   90.00000000
_symmetry_Int_Tables_number   1
_chemical_formula_structural   Er6NbCo17(SiP2)4
_chemical_formula_sum   'Er6 Nb1 Co17 Si4 P8'
_cell_volume   484.29849839
_cell_formula_units_Z   1
loop_
 _symmetry_equiv_pos_site_id
 _symmetry_equiv_pos_as_xyz
  1  'x, y, z'
loop_
 _atom_site_type_symbol
 _atom_site_label
 _atom_site_symmetry_multiplicity
 _atom_site_fract_x
 _atom_site_fract_y
 _atom_site_fract_z
 _atom_site_occupancy
  Er  Er0  1  0.750000  0.250000  0.473364  1
  Er  Er1  1  0.250000  0.750000  0.525726  1
  Er  Er2  1  0.250000  0.931142  0.793393  1
  Er  Er3  1  0.250000  0.568858  0.793393  1
  Er  Er4  1  0.750000  0.068381  0.201001  1
  Er  Er5  1  0.750000  0.431619  0.201001  1
  Nb  Nb6  1  0.250000  0.250000  0.846649  1
  Co  Co7  1  0.750000  0.750000  0.165184  1
  Co  Co8  1  0.250000  0.250000  0.296624  1
  Co  Co9  1  0.750000  0.750000  0.699457  1
  Co  Co10  1  0.750000  0.250000  0.015338  1
  Co  Co11  1  0.250000  0.750000  0.973477  1
  Co  Co12  1  0.250000  0.420386  0.009420  1
  Co  Co13  1  0.250000  0.079614  0.009420  1
  Co  Co14  1  0.750000  0.587804  0.991857  1
  Co  Co15  1  0.750000  0.912196  0.991857  1
  Co  Co16  1  0.250000  0.455283  0.570933  1
  Co  Co17  1  0.250000  0.044717  0.570933  1
  Co  Co18  1  0.750000  0.553644  0.433278  1
  Co  Co19  1  0.750000  0.946356  0.433278  1
  Co  Co20  1  0.250000  0.866248  0.296341  1
  Co  Co21  1  0.250000  0.633752  0.296341  1
  Co  Co22  1  0.750000  0.127802  0.705290  1
  Co  Co23  1  0.750000  0.372198  0.705290  1
  Si  Si24  1  0.250000  0.442193  0.383453  1
  Si  Si25  1  0.250000  0.057807  0.383453  1
  Si  Si26  1  0.250000  0.890502  0.109760  1
  Si  Si27  1  0.250000  0.609498  0.109760  1
  P  P28  1  0.250000  0.250000  0.117447  1
  P  P29  1  0.750000  0.750000  0.878776  1
  P  P30  1  0.250000  0.250000  0.645252  1
  P  P31  1  0.750000  0.750000  0.346779  1
  P  P32  1  0.750000  0.560040  0.615062  1
  P  P33  1  0.750000  0.939960  0.615062  1
  P  P34  1  0.750000  0.088635  0.898177  1
  P  P35  1  0.750000  0.411365  0.898177  1
