# generated using pymatgen
data_SmTh3(PdPt)6
_symmetry_space_group_name_H-M   'P 1'
_cell_length_a   5.94119200
_cell_length_b   5.94769218
_cell_length_c   9.80431915
_cell_angle_alpha   89.95201937
_cell_angle_beta   90.00000000
_cell_angle_gamma   119.96385401
_symmetry_Int_Tables_number   1
_chemical_formula_structural   SmTh3(PdPt)6
_chemical_formula_sum   'Sm1 Th3 Pd6 Pt6'
_cell_volume   300.14285451
_cell_formula_units_Z   1
loop_
 _symmetry_equiv_pos_site_id
 _symmetry_equiv_pos_as_xyz
  1  'x, y, z'
loop_
 _atom_site_type_symbol
 _atom_site_label
 _atom_site_symmetry_multiplicity
 _atom_site_fract_x
 _atom_site_fract_y
 _atom_site_fract_z
 _atom_site_occupancy
  Sm  Sm0  1  0.999882  0.999764  0.499715  1
  Th  Th1  1  0.999857  0.999714  0.000311  1
  Th  Th2  1  0.333565  0.667130  0.253412  1
  Th  Th3  1  0.666716  0.333432  0.746507  1
  Pd  Pd4  1  0.499980  0.999961  0.500423  1
  Pd  Pd5  1  0.349372  0.174380  0.249200  1
  Pd  Pd6  1  0.825007  0.174380  0.249200  1
  Pd  Pd7  1  0.175564  0.351128  0.750479  1
  Pd  Pd8  1  0.650221  0.825216  0.750826  1
  Pd  Pd9  1  0.174996  0.825216  0.750826  1
  Pt  Pt10  1  0.500196  0.500046  0.500237  1
  Pt  Pt11  1  0.999849  0.500046  0.500237  1
  Pt  Pt12  1  0.500029  0.499873  0.999747  1
  Pt  Pt13  1  0.499986  0.999972  0.999502  1
  Pt  Pt14  1  0.999844  0.499873  0.999747  1
  Pt  Pt15  1  0.824935  0.649871  0.249630  1
