# generated using pymatgen
data_YbPr3Ni14
_symmetry_space_group_name_H-M   'P 1'
_cell_length_a   4.99452159
_cell_length_b   4.99452194
_cell_length_c   12.40135432
_cell_angle_alpha   78.38291666
_cell_angle_beta   78.38291665
_cell_angle_gamma   59.99998784
_symmetry_Int_Tables_number   1
_chemical_formula_structural   YbPr3Ni14
_chemical_formula_sum   'Yb1 Pr3 Ni14'
_cell_volume   260.56604471
_cell_formula_units_Z   1
loop_
 _symmetry_equiv_pos_site_id
 _symmetry_equiv_pos_as_xyz
  1  'x, y, z'
loop_
 _atom_site_type_symbol
 _atom_site_label
 _atom_site_symmetry_multiplicity
 _atom_site_fract_x
 _atom_site_fract_y
 _atom_site_fract_z
 _atom_site_occupancy
  Yb  Yb0  1  0.147156  0.147156  0.558534  1
  Pr  Pr1  1  0.948810  0.948810  0.153570  1
  Pr  Pr2  1  0.052871  0.052871  0.841387  1
  Pr  Pr3  1  0.850261  0.850261  0.449216  1
  Ni  Ni4  1  0.499421  0.499421  0.501737  1
  Ni  Ni5  1  0.722061  0.722061  0.833815  1
  Ni  Ni6  1  0.278262  0.278262  0.165216  1
  Ni  Ni7  1  0.611914  0.611914  0.164257  1
  Ni  Ni8  1  0.388070  0.388070  0.835790  1
  Ni  Ni9  1  0.999949  0.500367  0.999317  1
  Ni  Ni10  1  0.500367  0.999949  0.999317  1
  Ni  Ni11  1  0.500367  0.500367  0.999317  1
  Ni  Ni12  1  0.390400  0.390400  0.328851  1
  Ni  Ni13  1  0.890349  0.390400  0.328851  1
  Ni  Ni14  1  0.390400  0.890349  0.328851  1
  Ni  Ni15  1  0.609239  0.609239  0.670659  1
  Ni  Ni16  1  0.110863  0.609239  0.670659  1
  Ni  Ni17  1  0.609239  0.110863  0.670659  1
