# generated using pymatgen
data_LiTlP2S5
_symmetry_space_group_name_H-M   'P 1'
_cell_length_a   7.87110900
_cell_length_b   10.33797565
_cell_length_c   12.98536100
_cell_angle_alpha   59.64449262
_cell_angle_beta   90.00000000
_cell_angle_gamma   90.00000000
_symmetry_Int_Tables_number   1
_chemical_formula_structural   LiTlP2S5
_chemical_formula_sum   'Li4 Tl4 P8 S20'
_cell_volume   911.77804865
_cell_formula_units_Z   4
loop_
 _symmetry_equiv_pos_site_id
 _symmetry_equiv_pos_as_xyz
  1  'x, y, z'
loop_
 _atom_site_type_symbol
 _atom_site_label
 _atom_site_symmetry_multiplicity
 _atom_site_fract_x
 _atom_site_fract_y
 _atom_site_fract_z
 _atom_site_occupancy
  Li  Li0  1  0.333485  0.859349  0.324665  1
  Li  Li1  1  0.833485  0.140651  0.175335  1
  Li  Li2  1  0.166515  0.859349  0.824665  1
  Li  Li3  1  0.666515  0.140651  0.675335  1
  Tl  Tl4  1  0.631273  0.618665  0.776881  1
  Tl  Tl5  1  0.368727  0.381335  0.223119  1
  Tl  Tl6  1  0.868727  0.618665  0.276881  1
  Tl  Tl7  1  0.131273  0.381335  0.723119  1
  P  P8  1  0.651343  0.194577  0.917308  1
  P  P9  1  0.935623  0.829120  0.458810  1
  P  P10  1  0.064377  0.170880  0.541190  1
  P  P11  1  0.848657  0.194577  0.417308  1
  P  P12  1  0.348657  0.805423  0.082692  1
  P  P13  1  0.151343  0.805423  0.582692  1
  P  P14  1  0.564377  0.829120  0.958810  1
  P  P15  1  0.435623  0.170880  0.041190  1
  S  S16  1  0.684097  0.634271  0.029915  1
  S  S17  1  0.565193  0.303154  0.750327  1
  S  S18  1  0.152772  0.712687  0.044821  1
  S  S19  1  0.474961  0.919713  0.790872  1
  S  S20  1  0.184097  0.365729  0.470085  1
  S  S21  1  0.347228  0.712687  0.544821  1
  S  S22  1  0.315903  0.365729  0.970085  1
  S  S23  1  0.974961  0.080287  0.709128  1
  S  S24  1  0.742025  0.969794  0.982709  1
  S  S25  1  0.242025  0.030206  0.517291  1
  S  S26  1  0.847228  0.287313  0.955179  1
  S  S27  1  0.757975  0.969794  0.482709  1
  S  S28  1  0.065193  0.696846  0.749673  1
  S  S29  1  0.025039  0.919713  0.290872  1
  S  S30  1  0.652772  0.287313  0.455179  1
  S  S31  1  0.434807  0.696846  0.249673  1
  S  S32  1  0.934807  0.303154  0.250327  1
  S  S33  1  0.525039  0.080287  0.209128  1
  S  S34  1  0.257975  0.030206  0.017291  1
  S  S35  1  0.815903  0.634271  0.529915  1
