# generated using pymatgen
data_SrLaIr2O7
_symmetry_space_group_name_H-M   'P 1'
_cell_length_a   7.45874202
_cell_length_b   7.45874082
_cell_length_c   7.49830600
_cell_angle_alpha   59.82436269
_cell_angle_beta   59.82436806
_cell_angle_gamma   59.64378686
_symmetry_Int_Tables_number   1
_chemical_formula_structural   SrLaIr2O7
_chemical_formula_sum   'Sr2 La2 Ir4 O14'
_cell_volume   293.38953396
_cell_formula_units_Z   2
loop_
 _symmetry_equiv_pos_site_id
 _symmetry_equiv_pos_as_xyz
  1  'x, y, z'
loop_
 _atom_site_type_symbol
 _atom_site_label
 _atom_site_symmetry_multiplicity
 _atom_site_fract_x
 _atom_site_fract_y
 _atom_site_fract_z
 _atom_site_occupancy
  Sr  Sr0  1  0.625000  0.125000  0.125000  1
  Sr  Sr1  1  0.125000  0.625000  0.125000  1
  La  La2  1  0.125000  0.125000  0.625000  1
  La  La3  1  0.125000  0.125000  0.125000  1
  Ir  Ir4  1  0.125000  0.625000  0.625000  1
  Ir  Ir5  1  0.625000  0.125000  0.625000  1
  Ir  Ir6  1  0.625000  0.625000  0.125000  1
  Ir  Ir7  1  0.625000  0.625000  0.625000  1
  O  O8  1  0.695462  0.695462  0.304538  1
  O  O9  1  0.299081  0.299081  0.700919  1
  O  O10  1  0.700205  0.300980  0.696847  1
  O  O11  1  0.300980  0.700205  0.301968  1
  O  O12  1  0.300980  0.700205  0.696847  1
  O  O13  1  0.700205  0.300980  0.301968  1
  O  O14  1  0.554538  0.554538  0.945462  1
  O  O15  1  0.950919  0.950919  0.549081  1
  O  O16  1  0.549795  0.949020  0.553153  1
  O  O17  1  0.949020  0.549795  0.948032  1
  O  O18  1  0.949020  0.549795  0.553153  1
  O  O19  1  0.549795  0.949020  0.948032  1
  O  O20  1  0.241061  0.241061  0.258939  1
  O  O21  1  0.008939  0.008939  0.991061  1
