# generated using pymatgen
data_Y20Cd3Ir2Au3
_symmetry_space_group_name_H-M   'P 1'
_cell_length_a   9.65458200
_cell_length_b   9.65458090
_cell_length_c   9.64621700
_cell_angle_alpha   90.00000000
_cell_angle_beta   90.00000000
_cell_angle_gamma   120.00000378
_symmetry_Int_Tables_number   1
_chemical_formula_structural   Y20Cd3Ir2Au3
_chemical_formula_sum   'Y20 Cd3 Ir2 Au3'
_cell_volume   778.67197439
_cell_formula_units_Z   1
loop_
 _symmetry_equiv_pos_site_id
 _symmetry_equiv_pos_as_xyz
  1  'x, y, z'
loop_
 _atom_site_type_symbol
 _atom_site_label
 _atom_site_symmetry_multiplicity
 _atom_site_fract_x
 _atom_site_fract_y
 _atom_site_fract_z
 _atom_site_occupancy
  Y  Y0  1  0.000000  0.000000  0.460037  1
  Y  Y1  1  0.000000  0.000000  0.039963  1
  Y  Y2  1  0.208682  0.791318  0.440921  1
  Y  Y3  1  0.208682  0.417364  0.440921  1
  Y  Y4  1  0.582636  0.791318  0.440921  1
  Y  Y5  1  0.792298  0.207702  0.557235  1
  Y  Y6  1  0.792298  0.584594  0.557235  1
  Y  Y7  1  0.415406  0.207702  0.557235  1
  Y  Y8  1  0.792298  0.207702  0.942765  1
  Y  Y9  1  0.792298  0.584594  0.942765  1
  Y  Y10  1  0.415406  0.207702  0.942765  1
  Y  Y11  1  0.208682  0.791318  0.059079  1
  Y  Y12  1  0.208682  0.417364  0.059079  1
  Y  Y13  1  0.582636  0.791318  0.059079  1
  Y  Y14  1  0.540583  0.459417  0.250000  1
  Y  Y15  1  0.540583  0.081165  0.250000  1
  Y  Y16  1  0.918835  0.459417  0.250000  1
  Y  Y17  1  0.458384  0.541616  0.750000  1
  Y  Y18  1  0.458384  0.916768  0.750000  1
  Y  Y19  1  0.083232  0.541616  0.750000  1
  Cd  Cd20  1  0.109840  0.890160  0.750000  1
  Cd  Cd21  1  0.109840  0.219679  0.750000  1
  Cd  Cd22  1  0.780321  0.890160  0.750000  1
  Ir  Ir23  1  0.333333  0.666667  0.250000  1
  Ir  Ir24  1  0.666667  0.333333  0.750000  1
  Au  Au25  1  0.869996  0.130004  0.250000  1
  Au  Au26  1  0.869996  0.739992  0.250000  1
  Au  Au27  1  0.260008  0.130004  0.250000  1
