# generated using pymatgen
data_CeNdTh(SnIr)3
_symmetry_space_group_name_H-M   'P 1'
_cell_length_a   7.59157038
_cell_length_b   7.56394636
_cell_length_c   4.09976200
_cell_angle_alpha   90.00000000
_cell_angle_beta   90.00000000
_cell_angle_gamma   120.41619845
_symmetry_Int_Tables_number   1
_chemical_formula_structural   CeNdTh(SnIr)3
_chemical_formula_sum   'Ce1 Nd1 Th1 Sn3 Ir3'
_cell_volume   203.01710763
_cell_formula_units_Z   1
loop_
 _symmetry_equiv_pos_site_id
 _symmetry_equiv_pos_as_xyz
  1  'x, y, z'
loop_
 _atom_site_type_symbol
 _atom_site_label
 _atom_site_symmetry_multiplicity
 _atom_site_fract_x
 _atom_site_fract_y
 _atom_site_fract_z
 _atom_site_occupancy
  Ce  Ce0  1  0.000290  0.587932  0.000000  1
  Nd  Nd1  1  0.409827  0.409024  0.000000  1
  Th  Th2  1  0.586954  0.000052  0.000000  1
  Sn  Sn3  1  0.246768  0.002460  0.500000  1
  Sn  Sn4  1  0.007826  0.257043  0.500000  1
  Sn  Sn5  1  0.744496  0.740014  0.500000  1
  Ir  Ir6  1  0.334648  0.681396  0.500000  1
  Ir  Ir7  1  0.679084  0.328487  0.500000  1
  Ir  Ir8  1  0.990107  0.993593  0.000000  1
