# generated using pymatgen
data_Pr2Ir5Rh
_symmetry_space_group_name_H-M   'P 1'
_cell_length_a   5.39605500
_cell_length_b   5.39605413
_cell_length_c   17.67585700
_cell_angle_alpha   90.00000000
_cell_angle_beta   90.00000000
_cell_angle_gamma   119.99999917
_symmetry_Int_Tables_number   1
_chemical_formula_structural   Pr2Ir5Rh
_chemical_formula_sum   'Pr6 Ir15 Rh3'
_cell_volume   445.72170214
_cell_formula_units_Z   3
loop_
 _symmetry_equiv_pos_site_id
 _symmetry_equiv_pos_as_xyz
  1  'x, y, z'
loop_
 _atom_site_type_symbol
 _atom_site_label
 _atom_site_symmetry_multiplicity
 _atom_site_fract_x
 _atom_site_fract_y
 _atom_site_fract_z
 _atom_site_occupancy
  Pr  Pr0  1  0.333333  0.666667  0.959222  1
  Pr  Pr1  1  0.666667  0.333333  0.040638  1
  Pr  Pr2  1  0.666667  0.333333  0.459362  1
  Pr  Pr3  1  0.333333  0.666667  0.540778  1
  Pr  Pr4  1  0.333333  0.666667  0.750000  1
  Pr  Pr5  1  0.666667  0.333333  0.250000  1
  Ir  Ir6  1  0.166045  0.833955  0.372105  1
  Ir  Ir7  1  0.166045  0.332090  0.372105  1
  Ir  Ir8  1  0.667910  0.833955  0.372105  1
  Ir  Ir9  1  0.833501  0.166499  0.627679  1
  Ir  Ir10  1  0.833501  0.667001  0.627679  1
  Ir  Ir11  1  0.332999  0.166499  0.627679  1
  Ir  Ir12  1  0.833501  0.166499  0.872321  1
  Ir  Ir13  1  0.833501  0.667001  0.872321  1
  Ir  Ir14  1  0.332999  0.166499  0.872321  1
  Ir  Ir15  1  0.166045  0.833955  0.127895  1
  Ir  Ir16  1  0.166045  0.332090  0.127895  1
  Ir  Ir17  1  0.667910  0.833955  0.127895  1
  Ir  Ir18  1  0.333333  0.666667  0.250000  1
  Ir  Ir19  1  0.000000  0.000000  0.500507  1
  Ir  Ir20  1  0.000000  0.000000  0.999493  1
  Rh  Rh21  1  0.666667  0.333333  0.750000  1
  Rh  Rh22  1  0.000000  0.000000  0.250000  1
  Rh  Rh23  1  0.000000  0.000000  0.750000  1
