# generated using pymatgen
data_Dy9HoRu6
_symmetry_space_group_name_H-M   'P 1'
_cell_length_a   10.80656100
_cell_length_b   10.80656100
_cell_length_c   6.36890800
_cell_angle_alpha   90.00000000
_cell_angle_beta   90.00000000
_cell_angle_gamma   90.00000000
_symmetry_Int_Tables_number   1
_chemical_formula_structural   Dy9HoRu6
_chemical_formula_sum   'Dy18 Ho2 Ru12'
_cell_volume   743.77228964
_cell_formula_units_Z   2
loop_
 _symmetry_equiv_pos_site_id
 _symmetry_equiv_pos_as_xyz
  1  'x, y, z'
loop_
 _atom_site_type_symbol
 _atom_site_label
 _atom_site_symmetry_multiplicity
 _atom_site_fract_x
 _atom_site_fract_y
 _atom_site_fract_z
 _atom_site_occupancy
  Dy  Dy0  1  0.291500  0.086902  0.378718  1
  Dy  Dy1  1  0.291500  0.913098  0.878718  1
  Dy  Dy2  1  0.708500  0.086902  0.878718  1
  Dy  Dy3  1  0.708500  0.913098  0.378718  1
  Dy  Dy4  1  0.586888  0.791680  0.878994  1
  Dy  Dy5  1  0.586888  0.208320  0.378994  1
  Dy  Dy6  1  0.413112  0.791680  0.378994  1
  Dy  Dy7  1  0.413112  0.208320  0.878994  1
  Dy  Dy8  1  0.208320  0.413112  0.621006  1
  Dy  Dy9  1  0.208320  0.586888  0.121006  1
  Dy  Dy10  1  0.791680  0.413112  0.121006  1
  Dy  Dy11  1  0.791680  0.586888  0.621006  1
  Dy  Dy12  1  0.913098  0.708500  0.121282  1
  Dy  Dy13  1  0.913098  0.291500  0.621282  1
  Dy  Dy14  1  0.086902  0.708500  0.621282  1
  Dy  Dy15  1  0.086902  0.291500  0.121282  1
  Dy  Dy16  1  0.500000  0.500000  0.000000  1
  Dy  Dy17  1  0.500000  0.500000  0.500000  1
  Ho  Ho18  1  0.000000  0.000000  0.500000  1
  Ho  Ho19  1  0.000000  0.000000  0.000000  1
  Ru  Ru20  1  0.847341  0.152659  0.250000  1
  Ru  Ru21  1  0.847341  0.847341  0.750000  1
  Ru  Ru22  1  0.152659  0.152659  0.750000  1
  Ru  Ru23  1  0.152659  0.847341  0.250000  1
  Ru  Ru24  1  0.653297  0.346703  0.750000  1
  Ru  Ru25  1  0.653297  0.653297  0.250000  1
  Ru  Ru26  1  0.346703  0.346703  0.250000  1
  Ru  Ru27  1  0.346703  0.653297  0.750000  1
  Ru  Ru28  1  0.500000  0.000000  0.127425  1
  Ru  Ru29  1  0.500000  0.000000  0.627425  1
  Ru  Ru30  1  0.000000  0.500000  0.872575  1
  Ru  Ru31  1  0.000000  0.500000  0.372575  1
