# generated using pymatgen
data_Rb2Pt(WO4)3
_symmetry_space_group_name_H-M   'P 1'
_cell_length_a   7.31980520
_cell_length_b   7.31980594
_cell_length_c   7.32101116
_cell_angle_alpha   60.77036786
_cell_angle_beta   60.77036890
_cell_angle_gamma   60.89154808
_symmetry_Int_Tables_number   1
_chemical_formula_structural   Rb2Pt(WO4)3
_chemical_formula_sum   'Rb2 Pt1 W3 O12'
_cell_volume   282.43822839
_cell_formula_units_Z   1
loop_
 _symmetry_equiv_pos_site_id
 _symmetry_equiv_pos_as_xyz
  1  'x, y, z'
loop_
 _atom_site_type_symbol
 _atom_site_label
 _atom_site_symmetry_multiplicity
 _atom_site_fract_x
 _atom_site_fract_y
 _atom_site_fract_z
 _atom_site_occupancy
  Rb  Rb0  1  0.832426  0.893405  0.378677  1
  Rb  Rb1  1  0.106595  0.167574  0.621323  1
  Pt  Pt2  1  0.502353  0.497647  0.000000  1
  W  W3  1  0.990923  0.510430  0.003240  1
  W  W4  1  0.489570  0.009077  0.996760  1
  W  W5  1  0.492417  0.507583  0.500000  1
  O  O6  1  0.185755  0.190300  0.059294  1
  O  O7  1  0.569694  0.565158  0.676609  1
  O  O8  1  0.181435  0.562339  0.065670  1
  O  O9  1  0.557430  0.190369  0.687744  1
  O  O10  1  0.569840  0.172885  0.069190  1
  O  O11  1  0.187101  0.560490  0.689105  1
  O  O12  1  0.809700  0.814245  0.940706  1
  O  O13  1  0.434842  0.430306  0.323391  1
  O  O14  1  0.827115  0.430160  0.930810  1
  O  O15  1  0.439510  0.812899  0.310895  1
  O  O16  1  0.437661  0.818565  0.934330  1
  O  O17  1  0.809631  0.442570  0.312256  1
