# generated using pymatgen
data_CePr8Sm(Ga2Ru3)2
_symmetry_space_group_name_H-M   'P 1'
_cell_length_a   8.64088644
_cell_length_b   8.64221817
_cell_length_c   8.48813367
_cell_angle_alpha   110.48410837
_cell_angle_beta   108.94877290
_cell_angle_gamma   109.68160189
_symmetry_Int_Tables_number   1
_chemical_formula_structural   CePr8Sm(Ga2Ru3)2
_chemical_formula_sum   'Ce1 Pr8 Sm1 Ga4 Ru6'
_cell_volume   483.61701990
_cell_formula_units_Z   1
loop_
 _symmetry_equiv_pos_site_id
 _symmetry_equiv_pos_as_xyz
  1  'x, y, z'
loop_
 _atom_site_type_symbol
 _atom_site_label
 _atom_site_symmetry_multiplicity
 _atom_site_fract_x
 _atom_site_fract_y
 _atom_site_fract_z
 _atom_site_occupancy
  Ce  Ce0  1  0.196804  0.947760  0.249891  1
  Pr  Pr1  1  0.780305  0.785736  0.785228  1
  Pr  Pr2  1  0.309139  0.559259  0.748848  1
  Pr  Pr3  1  0.755180  0.314565  0.563455  1
  Pr  Pr4  1  0.563157  0.749171  0.310943  1
  Pr  Pr5  1  0.720995  0.499884  0.996999  1
  Pr  Pr6  1  0.003428  0.723130  0.501888  1
  Pr  Pr7  1  0.501024  0.995913  0.716003  1
  Pr  Pr8  1  0.249830  0.190544  0.936121  1
  Sm  Sm9  1  0.936373  0.252309  0.187457  1
  Ga  Ga10  1  0.410905  0.409448  0.404847  1
  Ga  Ga11  1  0.094340  0.500136  0.009281  1
  Ga  Ga12  1  0.992971  0.088339  0.491656  1
  Ga  Ga13  1  0.506006  0.006829  0.094129  1
  Ru  Ru14  1  0.878420  0.129075  0.751406  1
  Ru  Ru15  1  0.739263  0.874701  0.119278  1
  Ru  Ru16  1  0.133846  0.769138  0.923034  1
  Ru  Ru17  1  0.252744  0.616633  0.381502  1
  Ru  Ru18  1  0.347960  0.211395  0.578870  1
  Ru  Ru19  1  0.627309  0.376037  0.249167  1
