# generated using pymatgen
data_Tm4UPaTc6
_symmetry_space_group_name_H-M   'P 1'
_cell_length_a   5.75748200
_cell_length_b   5.75748142
_cell_length_c   8.25750700
_cell_angle_alpha   90.00000000
_cell_angle_beta   90.00000000
_cell_angle_gamma   120.00000335
_symmetry_Int_Tables_number   1
_chemical_formula_structural   Tm4UPaTc6
_chemical_formula_sum   'Tm4 U1 Pa1 Tc6'
_cell_volume   237.05258812
_cell_formula_units_Z   1
loop_
 _symmetry_equiv_pos_site_id
 _symmetry_equiv_pos_as_xyz
  1  'x, y, z'
loop_
 _atom_site_type_symbol
 _atom_site_label
 _atom_site_symmetry_multiplicity
 _atom_site_fract_x
 _atom_site_fract_y
 _atom_site_fract_z
 _atom_site_occupancy
  Tm  Tm0  1  0.333333  0.666667  0.439958  1
  Tm  Tm1  1  0.666667  0.333333  0.560042  1
  Tm  Tm2  1  0.666667  0.333333  0.939395  1
  Tm  Tm3  1  0.333333  0.666667  0.060605  1
  U  U4  1  0.000000  0.000000  0.000000  1
  Pa  Pa5  1  0.000000  0.000000  0.500000  1
  Tc  Tc6  1  0.832481  0.167519  0.244901  1
  Tc  Tc7  1  0.832481  0.664963  0.244901  1
  Tc  Tc8  1  0.335037  0.167519  0.244901  1
  Tc  Tc9  1  0.167519  0.832481  0.755099  1
  Tc  Tc10  1  0.167519  0.335037  0.755099  1
  Tc  Tc11  1  0.664963  0.832481  0.755099  1
