# generated using pymatgen
data_Tb7Th9(CdTc)4
_symmetry_space_group_name_H-M   'P 1'
_cell_length_a   9.82784545
_cell_length_b   9.82784582
_cell_length_c   9.83123100
_cell_angle_alpha   59.98860173
_cell_angle_beta   59.98860048
_cell_angle_gamma   60.48884756
_symmetry_Int_Tables_number   1
_chemical_formula_structural   Tb7Th9(CdTc)4
_chemical_formula_sum   'Tb7 Th9 Cd4 Tc4'
_cell_volume   673.77204143
_cell_formula_units_Z   1
loop_
 _symmetry_equiv_pos_site_id
 _symmetry_equiv_pos_as_xyz
  1  'x, y, z'
loop_
 _atom_site_type_symbol
 _atom_site_label
 _atom_site_symmetry_multiplicity
 _atom_site_fract_x
 _atom_site_fract_y
 _atom_site_fract_z
 _atom_site_occupancy
  Tb  Tb0  1  0.805132  0.805132  0.194868  1
  Tb  Tb1  1  0.935917  0.564135  0.564080  1
  Tb  Tb2  1  0.564135  0.935917  0.935867  1
  Tb  Tb3  1  0.564135  0.935917  0.564080  1
  Tb  Tb4  1  0.935917  0.564135  0.935867  1
  Tb  Tb5  1  0.563121  0.563121  0.936879  1
  Tb  Tb6  1  0.938422  0.938422  0.561578  1
  Th  Th7  1  0.347171  0.347171  0.347316  1
  Th  Th8  1  0.347171  0.347171  0.958344  1
  Th  Th9  1  0.349570  0.959812  0.345309  1
  Th  Th10  1  0.959812  0.349570  0.345309  1
  Th  Th11  1  0.808499  0.187149  0.191148  1
  Th  Th12  1  0.187149  0.808499  0.813204  1
  Th  Th13  1  0.187149  0.808499  0.191148  1
  Th  Th14  1  0.808499  0.187149  0.813204  1
  Th  Th15  1  0.188572  0.188572  0.811428  1
  Cd  Cd16  1  0.582648  0.582648  0.580017  1
  Cd  Cd17  1  0.582648  0.582648  0.254684  1
  Cd  Cd18  1  0.582083  0.253129  0.582393  1
  Cd  Cd19  1  0.253129  0.582083  0.582393  1
  Tc  Tc20  1  0.136462  0.136462  0.138876  1
  Tc  Tc21  1  0.136462  0.136462  0.588200  1
  Tc  Tc22  1  0.151179  0.585018  0.131902  1
  Tc  Tc23  1  0.585018  0.151179  0.131902  1
