# generated using pymatgen
data_Pr10Si4HgPt
_symmetry_space_group_name_H-M   'P 1'
_cell_length_a   7.73796535
_cell_length_b   7.73796578
_cell_length_c   9.33441091
_cell_angle_alpha   114.48694817
_cell_angle_beta   114.48694632
_cell_angle_gamma   90.00000938
_symmetry_Int_Tables_number   1
_chemical_formula_structural   Pr10Si4HgPt
_chemical_formula_sum   'Pr10 Si4 Hg1 Pt1'
_cell_volume   452.82010729
_cell_formula_units_Z   1
loop_
 _symmetry_equiv_pos_site_id
 _symmetry_equiv_pos_as_xyz
  1  'x, y, z'
loop_
 _atom_site_type_symbol
 _atom_site_label
 _atom_site_symmetry_multiplicity
 _atom_site_fract_x
 _atom_site_fract_y
 _atom_site_fract_z
 _atom_site_occupancy
  Pr  Pr0  1  0.472109  0.472109  0.944217  1
  Pr  Pr1  1  0.027891  0.027891  0.055783  1
  Pr  Pr2  1  0.948020  0.798955  0.280762  1
  Pr  Pr3  1  0.332743  0.481808  0.280762  1
  Pr  Pr4  1  0.798955  0.332743  0.280762  1
  Pr  Pr5  1  0.481808  0.948020  0.280762  1
  Pr  Pr6  1  0.018192  0.167257  0.719238  1
  Pr  Pr7  1  0.701045  0.551980  0.719238  1
  Pr  Pr8  1  0.167257  0.701045  0.719238  1
  Pr  Pr9  1  0.551980  0.018192  0.719238  1
  Si  Si10  1  0.615136  0.884864  0.000000  1
  Si  Si11  1  0.384864  0.115136  0.000000  1
  Si  Si12  1  0.884864  0.384864  0.000000  1
  Si  Si13  1  0.115136  0.615136  0.000000  1
  Hg  Hg14  1  0.250000  0.250000  0.500000  1
  Pt  Pt15  1  0.750000  0.750000  0.500000  1
