# generated using pymatgen
data_CaY3Sc6(Si5Ir2)4
_symmetry_space_group_name_H-M   'P 1'
_cell_length_a   12.50912281
_cell_length_b   12.50912288
_cell_length_c   4.15884300
_cell_angle_alpha   90.00000000
_cell_angle_beta   90.00000000
_cell_angle_gamma   90.00037559
_symmetry_Int_Tables_number   1
_chemical_formula_structural   CaY3Sc6(Si5Ir2)4
_chemical_formula_sum   'Ca1 Y3 Sc6 Si20 Ir8'
_cell_volume   650.76807662
_cell_formula_units_Z   1
loop_
 _symmetry_equiv_pos_site_id
 _symmetry_equiv_pos_as_xyz
  1  'x, y, z'
loop_
 _atom_site_type_symbol
 _atom_site_label
 _atom_site_symmetry_multiplicity
 _atom_site_fract_x
 _atom_site_fract_y
 _atom_site_fract_z
 _atom_site_occupancy
  Ca  Ca0  1  0.384552  0.115448  0.500000  1
  Y  Y1  1  0.115645  0.615694  0.500000  1
  Y  Y2  1  0.884306  0.384355  0.500000  1
  Y  Y3  1  0.616143  0.883857  0.500000  1
  Sc  Sc4  1  0.673923  0.174624  0.500000  1
  Sc  Sc5  1  0.325376  0.826077  0.500000  1
  Sc  Sc6  1  0.173516  0.326484  0.500000  1
  Sc  Sc7  1  0.826223  0.673777  0.500000  1
  Sc  Sc8  1  0.000198  0.999933  0.000000  1
  Sc  Sc9  1  0.500067  0.499802  0.000000  1
  Si  Si10  1  0.568139  0.067868  0.000000  1
  Si  Si11  1  0.432132  0.931861  0.000000  1
  Si  Si12  1  0.068033  0.431967  0.000000  1
  Si  Si13  1  0.932150  0.567850  0.000000  1
  Si  Si14  1  0.199545  0.165368  0.000000  1
  Si  Si15  1  0.800549  0.834425  0.000000  1
  Si  Si16  1  0.165226  0.800129  0.000000  1
  Si  Si17  1  0.699871  0.334774  0.000000  1
  Si  Si18  1  0.834511  0.199571  0.000000  1
  Si  Si19  1  0.300429  0.665489  0.000000  1
  Si  Si20  1  0.665575  0.699451  0.000000  1
  Si  Si21  1  0.334632  0.300455  0.000000  1
  Si  Si22  1  0.008024  0.150956  0.500000  1
  Si  Si23  1  0.992496  0.849521  0.500000  1
  Si  Si24  1  0.151081  0.993462  0.500000  1
  Si  Si25  1  0.506538  0.348919  0.500000  1
  Si  Si26  1  0.849457  0.008030  0.500000  1
  Si  Si27  1  0.491970  0.650543  0.500000  1
  Si  Si28  1  0.650479  0.507504  0.500000  1
  Si  Si29  1  0.349044  0.491976  0.500000  1
  Ir  Ir30  1  0.020273  0.244072  0.000000  1
  Ir  Ir31  1  0.978979  0.756016  0.000000  1
  Ir  Ir32  1  0.243415  0.978389  0.000000  1
  Ir  Ir33  1  0.521611  0.256585  0.000000  1
  Ir  Ir34  1  0.756042  0.020062  0.000000  1
  Ir  Ir35  1  0.479938  0.743958  0.000000  1
  Ir  Ir36  1  0.743984  0.521021  0.000000  1
  Ir  Ir37  1  0.255928  0.479727  0.000000  1
