# generated using pymatgen
data_SrNp2Se5
_symmetry_space_group_name_H-M   'P 1'
_cell_length_a   7.82183200
_cell_length_b   8.60735485
_cell_length_c   12.28915886
_cell_angle_alpha   90.04687284
_cell_angle_beta   90.00000000
_cell_angle_gamma   90.00000000
_symmetry_Int_Tables_number   1
_chemical_formula_structural   SrNp2Se5
_chemical_formula_sum   'Sr4 Np8 Se20'
_cell_volume   827.37082842
_cell_formula_units_Z   4
loop_
 _symmetry_equiv_pos_site_id
 _symmetry_equiv_pos_as_xyz
  1  'x, y, z'
loop_
 _atom_site_type_symbol
 _atom_site_label
 _atom_site_symmetry_multiplicity
 _atom_site_fract_x
 _atom_site_fract_y
 _atom_site_fract_z
 _atom_site_occupancy
  Sr  Sr0  1  0.961651  0.505431  0.827225  1
  Sr  Sr1  1  0.461651  0.494569  0.672775  1
  Sr  Sr2  1  0.038349  0.494569  0.172775  1
  Sr  Sr3  1  0.538349  0.505431  0.327225  1
  Np  Np4  1  0.571927  0.247739  0.008324  1
  Np  Np5  1  0.928073  0.247739  0.508324  1
  Np  Np6  1  0.428073  0.752261  0.991676  1
  Np  Np7  1  0.071927  0.752261  0.491676  1
  Np  Np8  1  0.516821  0.000834  0.318933  1
  Np  Np9  1  0.016821  0.999166  0.181067  1
  Np  Np10  1  0.483179  0.999166  0.681067  1
  Np  Np11  1  0.983179  0.000834  0.818933  1
  Se  Se12  1  0.838817  0.953761  0.599034  1
  Se  Se13  1  0.830846  0.776750  0.314926  1
  Se  Se14  1  0.669154  0.776750  0.814926  1
  Se  Se15  1  0.169154  0.223250  0.685074  1
  Se  Se16  1  0.544967  0.217992  0.501042  1
  Se  Se17  1  0.044967  0.782008  0.998958  1
  Se  Se18  1  0.455033  0.782008  0.498958  1
  Se  Se19  1  0.955033  0.217992  0.001042  1
  Se  Se20  1  0.196534  0.766506  0.715957  1
  Se  Se21  1  0.696534  0.233494  0.784043  1
  Se  Se22  1  0.803466  0.233494  0.284043  1
  Se  Se23  1  0.661183  0.953761  0.099034  1
  Se  Se24  1  0.828527  0.541948  0.582386  1
  Se  Se25  1  0.328527  0.458052  0.917614  1
  Se  Se26  1  0.171473  0.458052  0.417614  1
  Se  Se27  1  0.671473  0.541948  0.082386  1
  Se  Se28  1  0.303466  0.766506  0.215957  1
  Se  Se29  1  0.338817  0.046239  0.900966  1
  Se  Se30  1  0.161183  0.046239  0.400966  1
  Se  Se31  1  0.330846  0.223250  0.185074  1
