# generated using pymatgen
data_LiLaY15Cd3Ni4
_symmetry_space_group_name_H-M   'P 1'
_cell_length_a   9.69293130
_cell_length_b   9.69293132
_cell_length_c   9.69293105
_cell_angle_alpha   59.75535130
_cell_angle_beta   59.75535316
_cell_angle_gamma   59.75535872
_symmetry_Int_Tables_number   1
_chemical_formula_structural   LiLaY15Cd3Ni4
_chemical_formula_sum   'Li1 La1 Y15 Cd3 Ni4'
_cell_volume   640.37014483
_cell_formula_units_Z   1
loop_
 _symmetry_equiv_pos_site_id
 _symmetry_equiv_pos_as_xyz
  1  'x, y, z'
loop_
 _atom_site_type_symbol
 _atom_site_label
 _atom_site_symmetry_multiplicity
 _atom_site_fract_x
 _atom_site_fract_y
 _atom_site_fract_z
 _atom_site_occupancy
  Li  Li0  1  0.820553  0.820553  0.820553  1
  La  La1  1  0.596787  0.596787  0.596787  1
  Y  Y2  1  0.598072  0.598072  0.202179  1
  Y  Y3  1  0.598072  0.202179  0.598072  1
  Y  Y4  1  0.202179  0.598072  0.598072  1
  Y  Y5  1  0.064053  0.439947  0.439947  1
  Y  Y6  1  0.437352  0.064131  0.064131  1
  Y  Y7  1  0.439947  0.064053  0.439947  1
  Y  Y8  1  0.064131  0.437352  0.064131  1
  Y  Y9  1  0.439947  0.439947  0.064053  1
  Y  Y10  1  0.064131  0.064131  0.437352  1
  Y  Y11  1  0.186983  0.814724  0.814724  1
  Y  Y12  1  0.813826  0.186829  0.186829  1
  Y  Y13  1  0.814724  0.186983  0.814724  1
  Y  Y14  1  0.186829  0.813826  0.186829  1
  Y  Y15  1  0.814724  0.814724  0.186983  1
  Y  Y16  1  0.186829  0.186829  0.813826  1
  Cd  Cd17  1  0.833584  0.833584  0.504882  1
  Cd  Cd18  1  0.833584  0.504882  0.833584  1
  Cd  Cd19  1  0.504882  0.833584  0.833584  1
  Ni  Ni20  1  0.393024  0.393024  0.393024  1
  Ni  Ni21  1  0.390723  0.390723  0.824341  1
  Ni  Ni22  1  0.390723  0.824341  0.390723  1
  Ni  Ni23  1  0.824341  0.390723  0.390723  1
