# generated using pymatgen
data_Dy2HoLu9Os4
_symmetry_space_group_name_H-M   'P 1'
_cell_length_a   6.20013555
_cell_length_b   7.37040711
_cell_length_c   8.81937500
_cell_angle_alpha   90.00000000
_cell_angle_beta   90.00000000
_cell_angle_gamma   89.87968875
_symmetry_Int_Tables_number   1
_chemical_formula_structural   Dy2HoLu9Os4
_chemical_formula_sum   'Dy2 Ho1 Lu9 Os4'
_cell_volume   403.02270423
_cell_formula_units_Z   1
loop_
 _symmetry_equiv_pos_site_id
 _symmetry_equiv_pos_as_xyz
  1  'x, y, z'
loop_
 _atom_site_type_symbol
 _atom_site_label
 _atom_site_symmetry_multiplicity
 _atom_site_fract_x
 _atom_site_fract_y
 _atom_site_fract_z
 _atom_site_occupancy
  Dy  Dy0  1  0.872907  0.539422  0.250000  1
  Dy  Dy1  1  0.126639  0.460920  0.750000  1
  Ho  Ho2  1  0.372741  0.960834  0.750000  1
  Lu  Lu3  1  0.337267  0.674403  0.062804  1
  Lu  Lu4  1  0.164723  0.173775  0.436838  1
  Lu  Lu5  1  0.663295  0.325144  0.561937  1
  Lu  Lu6  1  0.835719  0.827322  0.938217  1
  Lu  Lu7  1  0.663295  0.325144  0.938063  1
  Lu  Lu8  1  0.835719  0.827322  0.561783  1
  Lu  Lu9  1  0.337267  0.674403  0.437196  1
  Lu  Lu10  1  0.164723  0.173775  0.063162  1
  Lu  Lu11  1  0.626900  0.038866  0.250000  1
  Os  Os12  1  0.039049  0.883203  0.250000  1
  Os  Os13  1  0.459265  0.379515  0.250000  1
  Os  Os14  1  0.957520  0.117035  0.750000  1
  Os  Os15  1  0.542971  0.618918  0.750000  1
