# generated using pymatgen
data_CaFeNi2(PO4)3
_symmetry_space_group_name_H-M   'P 1'
_cell_length_a   9.03573238
_cell_length_b   9.03573247
_cell_length_c   9.03573268
_cell_angle_alpha   137.84947705
_cell_angle_beta   109.56491034
_cell_angle_gamma   85.62643699
_symmetry_Int_Tables_number   1
_chemical_formula_structural   CaFeNi2(PO4)3
_chemical_formula_sum   'Ca2 Fe2 Ni4 P6 O24'
_cell_volume   448.89280558
_cell_formula_units_Z   2
loop_
 _symmetry_equiv_pos_site_id
 _symmetry_equiv_pos_as_xyz
  1  'x, y, z'
loop_
 _atom_site_type_symbol
 _atom_site_label
 _atom_site_symmetry_multiplicity
 _atom_site_fract_x
 _atom_site_fract_y
 _atom_site_fract_z
 _atom_site_occupancy
  Ca  Ca0  1  0.250000  0.342430  0.092430  1
  Ca  Ca1  1  0.750000  0.657570  0.907570  1
  Fe  Fe2  1  0.000000  0.500000  0.500000  1
  Fe  Fe3  1  0.500000  0.000000  0.500000  1
  Ni  Ni4  1  0.116260  0.116260  0.500000  1
  Ni  Ni5  1  0.383740  0.883740  0.000000  1
  Ni  Ni6  1  0.616260  0.116260  0.000000  1
  Ni  Ni7  1  0.883740  0.883740  0.500000  1
  P  P8  1  0.250000  0.836022  0.586022  1
  P  P9  1  0.750000  0.163978  0.413978  1
  P  P10  1  0.323230  0.323230  0.500000  1
  P  P11  1  0.176770  0.676770  0.000000  1
  P  P12  1  0.823230  0.323230  0.000000  1
  P  P13  1  0.676770  0.676770  0.500000  1
  O  O14  1  0.343385  0.788305  0.444921  1
  O  O15  1  0.656615  0.211695  0.555079  1
  O  O16  1  0.843385  0.398464  0.555079  1
  O  O17  1  0.156615  0.601536  0.444921  1
  O  O18  1  0.132889  0.986099  0.618987  1
  O  O19  1  0.632889  0.013901  0.146790  1
  O  O20  1  0.867111  0.013901  0.381013  1
  O  O21  1  0.367111  0.986099  0.853210  1
  O  O22  1  0.344579  0.204687  0.273443  1
  O  O23  1  0.068756  0.795313  0.139892  1
  O  O24  1  0.844579  0.571136  0.139892  1
  O  O25  1  0.568756  0.428864  0.273443  1
  O  O26  1  0.655421  0.795313  0.726557  1
  O  O27  1  0.931244  0.204687  0.860108  1
  O  O28  1  0.155421  0.428864  0.860108  1
  O  O29  1  0.431244  0.571136  0.726557  1
  O  O30  1  0.133268  0.288793  0.432674  1
  O  O31  1  0.143882  0.711207  0.844476  1
  O  O32  1  0.633268  0.200594  0.844476  1
  O  O33  1  0.643882  0.799406  0.432674  1
  O  O34  1  0.866732  0.711207  0.567326  1
  O  O35  1  0.856118  0.288793  0.155524  1
  O  O36  1  0.366732  0.799406  0.155524  1
  O  O37  1  0.356118  0.200594  0.567326  1
