# generated using pymatgen
data_YbEr2Tm(Ga2Ag)4
_symmetry_space_group_name_H-M   'P 1'
_cell_length_a   4.34493700
_cell_length_b   6.95419996
_cell_length_c   10.26939425
_cell_angle_alpha   90.40247479
_cell_angle_beta   90.00000000
_cell_angle_gamma   90.00000000
_symmetry_Int_Tables_number   1
_chemical_formula_structural   YbEr2Tm(Ga2Ag)4
_chemical_formula_sum   'Yb1 Er2 Tm1 Ga8 Ag4'
_cell_volume   310.28785002
_cell_formula_units_Z   1
loop_
 _symmetry_equiv_pos_site_id
 _symmetry_equiv_pos_as_xyz
  1  'x, y, z'
loop_
 _atom_site_type_symbol
 _atom_site_label
 _atom_site_symmetry_multiplicity
 _atom_site_fract_x
 _atom_site_fract_y
 _atom_site_fract_z
 _atom_site_occupancy
  Yb  Yb0  1  0.250000  0.275467  0.671880  1
  Er  Er1  1  0.750000  0.224250  0.172635  1
  Er  Er2  1  0.750000  0.722277  0.328105  1
  Tm  Tm3  1  0.250000  0.778764  0.827409  1
  Ga  Ga4  1  0.250000  0.705399  0.536484  1
  Ga  Ga5  1  0.750000  0.297312  0.463703  1
  Ga  Ga6  1  0.750000  0.793851  0.037404  1
  Ga  Ga7  1  0.250000  0.200686  0.964542  1
  Ga  Ga8  1  0.250000  0.927771  0.154954  1
  Ga  Ga9  1  0.750000  0.070032  0.848225  1
  Ga  Ga10  1  0.750000  0.572174  0.651638  1
  Ga  Ga11  1  0.250000  0.429056  0.344789  1
  Ag  Ag12  1  0.250000  0.543448  0.097393  1
  Ag  Ag13  1  0.750000  0.456768  0.901562  1
  Ag  Ag14  1  0.750000  0.958368  0.597636  1
  Ag  Ag15  1  0.250000  0.044377  0.401639  1
