# generated using pymatgen
data_Sr4MgAl2MoH20
_symmetry_space_group_name_H-M   'P 1'
_cell_length_a   4.71366158
_cell_length_b   5.17363207
_cell_length_c   12.51945910
_cell_angle_alpha   94.95548493
_cell_angle_beta   90.98531700
_cell_angle_gamma   90.12311325
_symmetry_Int_Tables_number   1
_chemical_formula_structural   Sr4MgAl2MoH20
_chemical_formula_sum   'Sr4 Mg1 Al2 Mo1 H20'
_cell_volume   304.12071757
_cell_formula_units_Z   1
loop_
 _symmetry_equiv_pos_site_id
 _symmetry_equiv_pos_as_xyz
  1  'x, y, z'
loop_
 _atom_site_type_symbol
 _atom_site_label
 _atom_site_symmetry_multiplicity
 _atom_site_fract_x
 _atom_site_fract_y
 _atom_site_fract_z
 _atom_site_occupancy
  Sr  Sr0  1  0.273382  0.178333  0.653400  1
  Sr  Sr1  1  0.775191  0.322380  0.337996  1
  Sr  Sr2  1  0.231694  0.780946  0.152051  1
  Sr  Sr3  1  0.728945  0.716488  0.847462  1
  Mg  Mg4  1  0.238136  0.235289  0.933072  1
  Al  Al5  1  0.172783  0.848302  0.409810  1
  Al  Al6  1  0.672738  0.648383  0.584310  1
  Mo  Mo7  1  0.764744  0.262883  0.053356  1
  H  H8  1  0.534370  0.388772  0.508514  1
  H  H9  1  0.028121  0.106297  0.481875  1
  H  H10  1  0.967581  0.523794  0.009857  1
  H  H11  1  0.503424  0.022366  0.014917  1
  H  H12  1  0.247787  0.956263  0.822127  1
  H  H13  1  0.695109  0.507219  0.159929  1
  H  H14  1  0.325746  0.049161  0.323354  1
  H  H15  1  0.827522  0.446722  0.673096  1
  H  H16  1  0.253579  0.464796  0.823198  1
  H  H17  1  0.687373  0.069202  0.160542  1
  H  H18  1  0.291267  0.573295  0.335691  1
  H  H19  1  0.796196  0.925663  0.659056  1
  H  H20  1  0.747001  0.230229  0.908758  1
  H  H21  1  0.063053  0.280261  0.141822  1
  H  H22  1  0.880331  0.827883  0.320690  1
  H  H23  1  0.385524  0.665551  0.665891  1
  H  H24  1  0.964290  0.981530  0.011382  1
  H  H25  1  0.503642  0.486374  0.014537  1
  H  H26  1  0.470619  0.862659  0.499813  1
  H  H27  1  0.969850  0.638957  0.493494  1
