# generated using pymatgen
data_TbTh(Ga3Ir)3
_symmetry_space_group_name_H-M   'P 1'
_cell_length_a   7.66617903
_cell_length_b   7.67260314
_cell_length_c   9.49775300
_cell_angle_alpha   90.00000000
_cell_angle_beta   90.00000000
_cell_angle_gamma   119.79668337
_symmetry_Int_Tables_number   1
_chemical_formula_structural   TbTh(Ga3Ir)3
_chemical_formula_sum   'Tb2 Th2 Ga18 Ir6'
_cell_volume   484.79632260
_cell_formula_units_Z   2
loop_
 _symmetry_equiv_pos_site_id
 _symmetry_equiv_pos_as_xyz
  1  'x, y, z'
loop_
 _atom_site_type_symbol
 _atom_site_label
 _atom_site_symmetry_multiplicity
 _atom_site_fract_x
 _atom_site_fract_y
 _atom_site_fract_z
 _atom_site_occupancy
  Tb  Tb0  1  0.668367  0.996004  0.250000  1
  Tb  Tb1  1  0.331633  0.003996  0.750000  1
  Th  Th2  1  0.996528  0.668949  0.250000  1
  Th  Th3  1  0.003472  0.331051  0.750000  1
  Ga  Ga4  1  0.129154  0.130346  0.250000  1
  Ga  Ga5  1  0.870846  0.869654  0.750000  1
  Ga  Ga6  1  0.998976  0.329010  0.081930  1
  Ga  Ga7  1  0.001024  0.670990  0.918070  1
  Ga  Ga8  1  0.001024  0.670990  0.581930  1
  Ga  Ga9  1  0.339985  0.003691  0.422225  1
  Ga  Ga10  1  0.998976  0.329010  0.418070  1
  Ga  Ga11  1  0.660015  0.996309  0.577775  1
  Ga  Ga12  1  0.660015  0.996309  0.922225  1
  Ga  Ga13  1  0.339985  0.003691  0.077775  1
  Ga  Ga14  1  0.336431  0.331547  0.563602  1
  Ga  Ga15  1  0.663569  0.668453  0.436398  1
  Ga  Ga16  1  0.663569  0.668453  0.063602  1
  Ga  Ga17  1  0.336431  0.331547  0.936398  1
  Ga  Ga18  1  0.342187  0.546109  0.250000  1
  Ga  Ga19  1  0.657813  0.453891  0.750000  1
  Ga  Ga20  1  0.541688  0.335811  0.250000  1
  Ga  Ga21  1  0.458312  0.664189  0.750000  1
  Ir  Ir22  1  0.675320  0.331638  0.000080  1
  Ir  Ir23  1  0.324680  0.668362  0.999920  1
  Ir  Ir24  1  0.324680  0.668362  0.500080  1
  Ir  Ir25  1  0.675320  0.331638  0.499920  1
  Ir  Ir26  1  0.000000  0.000000  0.000000  1
  Ir  Ir27  1  0.000000  0.000000  0.500000  1
