# generated using pymatgen
data_Nb12Fe9Os3(CN)2
_symmetry_space_group_name_H-M   'P 1'
_cell_length_a   8.10184224
_cell_length_b   8.08900748
_cell_length_c   8.08900661
_cell_angle_alpha   60.35749498
_cell_angle_beta   60.39995912
_cell_angle_gamma   60.39996110
_symmetry_Int_Tables_number   1
_chemical_formula_structural   Nb12Fe9Os3(CN)2
_chemical_formula_sum   'Nb12 Fe9 Os3 C2 N2'
_cell_volume   378.12214363
_cell_formula_units_Z   1
loop_
 _symmetry_equiv_pos_site_id
 _symmetry_equiv_pos_as_xyz
  1  'x, y, z'
loop_
 _atom_site_type_symbol
 _atom_site_label
 _atom_site_symmetry_multiplicity
 _atom_site_fract_x
 _atom_site_fract_y
 _atom_site_fract_z
 _atom_site_occupancy
  Nb  Nb0  1  0.804079  0.803687  0.198409  1
  Nb  Nb1  1  0.194307  0.195603  0.804341  1
  Nb  Nb2  1  0.804079  0.198409  0.803687  1
  Nb  Nb3  1  0.194307  0.804341  0.195603  1
  Nb  Nb4  1  0.196677  0.804850  0.804850  1
  Nb  Nb5  1  0.803753  0.196118  0.196118  1
  Nb  Nb6  1  0.445921  0.446313  0.051591  1
  Nb  Nb7  1  0.055693  0.054397  0.445659  1
  Nb  Nb8  1  0.445921  0.051591  0.446313  1
  Nb  Nb9  1  0.055693  0.445659  0.054397  1
  Nb  Nb10  1  0.053323  0.445150  0.445150  1
  Nb  Nb11  1  0.446247  0.053882  0.053882  1
  Fe  Fe12  1  0.625000  0.625000  0.625000  1
  Fe  Fe13  1  0.728126  0.428087  0.428087  1
  Fe  Fe14  1  0.427628  0.728609  0.428163  1
  Fe  Fe15  1  0.427628  0.428163  0.728609  1
  Fe  Fe16  1  0.422963  0.423686  0.423686  1
  Fe  Fe17  1  0.521874  0.821913  0.821913  1
  Fe  Fe18  1  0.822372  0.521391  0.821837  1
  Fe  Fe19  1  0.822372  0.821837  0.521391  1
  Fe  Fe20  1  0.827037  0.826314  0.826314  1
  Os  Os21  1  0.125000  0.625000  0.625000  1
  Os  Os22  1  0.625000  0.125000  0.625000  1
  Os  Os23  1  0.625000  0.625000  0.125000  1
  C  C24  1  0.625000  0.125000  0.125000  1
  C  C25  1  0.125000  0.125000  0.125000  1
  N  N26  1  0.125000  0.625000  0.125000  1
  N  N27  1  0.125000  0.125000  0.625000  1
