# generated using pymatgen
data_Dy3HoMn16(CoP3)4
_symmetry_space_group_name_H-M   'P 1'
_cell_length_a   3.60287600
_cell_length_b   10.55297505
_cell_length_c   12.18383406
_cell_angle_alpha   89.98907835
_cell_angle_beta   90.00000000
_cell_angle_gamma   90.00000000
_symmetry_Int_Tables_number   1
_chemical_formula_structural   Dy3HoMn16(CoP3)4
_chemical_formula_sum   'Dy3 Ho1 Mn16 Co4 P12'
_cell_volume   463.24228367
_cell_formula_units_Z   1
loop_
 _symmetry_equiv_pos_site_id
 _symmetry_equiv_pos_as_xyz
  1  'x, y, z'
loop_
 _atom_site_type_symbol
 _atom_site_label
 _atom_site_symmetry_multiplicity
 _atom_site_fract_x
 _atom_site_fract_y
 _atom_site_fract_z
 _atom_site_occupancy
  Dy  Dy0  1  0.250000  0.915781  0.208084  1
  Dy  Dy1  1  0.750000  0.415717  0.291933  1
  Dy  Dy2  1  0.750000  0.084209  0.791888  1
  Ho  Ho3  1  0.250000  0.584203  0.708138  1
  Mn  Mn4  1  0.250000  0.712211  0.987504  1
  Mn  Mn5  1  0.250000  0.787756  0.487598  1
  Mn  Mn6  1  0.750000  0.287760  0.012494  1
  Mn  Mn7  1  0.750000  0.212385  0.512589  1
  Mn  Mn8  1  0.250000  0.407444  0.493075  1
  Mn  Mn9  1  0.250000  0.092616  0.992963  1
  Mn  Mn10  1  0.750000  0.592528  0.507215  1
  Mn  Mn11  1  0.750000  0.907373  0.007003  1
  Mn  Mn12  1  0.250000  0.216576  0.176635  1
  Mn  Mn13  1  0.250000  0.283605  0.676667  1
  Mn  Mn14  1  0.750000  0.783281  0.823242  1
  Mn  Mn15  1  0.750000  0.716535  0.323314  1
  Mn  Mn16  1  0.250000  0.878106  0.697319  1
  Mn  Mn17  1  0.250000  0.621650  0.197247  1
  Mn  Mn18  1  0.750000  0.121738  0.302638  1
  Mn  Mn19  1  0.750000  0.378506  0.802607  1
  Co  Co20  1  0.250000  0.464596  0.933921  1
  Co  Co21  1  0.250000  0.035551  0.434105  1
  Co  Co22  1  0.750000  0.535619  0.065738  1
  Co  Co23  1  0.750000  0.964223  0.566063  1
  P  P24  1  0.250000  0.420292  0.111602  1
  P  P25  1  0.250000  0.079676  0.611741  1
  P  P26  1  0.750000  0.579760  0.887990  1
  P  P27  1  0.750000  0.920242  0.388334  1
  P  P28  1  0.250000  0.266172  0.872396  1
  P  P29  1  0.250000  0.233888  0.372374  1
  P  P30  1  0.750000  0.733799  0.127575  1
  P  P31  1  0.750000  0.765818  0.627809  1
  P  P32  1  0.250000  0.593161  0.386230  1
  P  P33  1  0.250000  0.906772  0.886180  1
  P  P34  1  0.750000  0.407232  0.613983  1
  P  P35  1  0.750000  0.093217  0.113808  1
