# generated using pymatgen
data_CeTm4P12IrRu18
_symmetry_space_group_name_H-M   'P 1'
_cell_length_a   12.50081500
_cell_length_b   12.50081481
_cell_length_c   3.96620600
_cell_angle_alpha   90.00000000
_cell_angle_beta   90.00000000
_cell_angle_gamma   119.99999257
_symmetry_Int_Tables_number   1
_chemical_formula_structural   CeTm4P12IrRu18
_chemical_formula_sum   'Ce1 Tm4 P12 Ir1 Ru18'
_cell_volume   536.76301148
_cell_formula_units_Z   1
loop_
 _symmetry_equiv_pos_site_id
 _symmetry_equiv_pos_as_xyz
  1  'x, y, z'
loop_
 _atom_site_type_symbol
 _atom_site_label
 _atom_site_symmetry_multiplicity
 _atom_site_fract_x
 _atom_site_fract_y
 _atom_site_fract_z
 _atom_site_occupancy
  Ce  Ce0  1  0.333333  0.666667  0.500000  1
  Tm  Tm1  1  0.666667  0.333333  0.500000  1
  Tm  Tm2  1  0.186670  0.186623  0.000000  1
  Tm  Tm3  1  0.813377  0.000048  0.000000  1
  Tm  Tm4  1  0.999952  0.813330  0.000000  1
  P  P5  1  0.306517  0.831579  0.000000  1
  P  P6  1  0.168421  0.474939  0.000000  1
  P  P7  1  0.525061  0.693483  0.000000  1
  P  P8  1  0.828743  0.306623  0.000000  1
  P  P9  1  0.477880  0.171257  0.000000  1
  P  P10  1  0.693377  0.522120  0.000000  1
  P  P11  1  0.372447  0.371771  0.500000  1
  P  P12  1  0.628229  0.000676  0.500000  1
  P  P13  1  0.999324  0.627553  0.500000  1
  P  P14  1  0.816485  0.815354  0.500000  1
  P  P15  1  0.184646  0.001131  0.500000  1
  P  P16  1  0.998869  0.183515  0.500000  1
  Ir  Ir17  1  0.000000  0.000000  0.500000  1
  Ru  Ru18  1  0.190793  0.815780  0.500000  1
  Ru  Ru19  1  0.184220  0.375014  0.500000  1
  Ru  Ru20  1  0.624986  0.809207  0.500000  1
  Ru  Ru21  1  0.814543  0.191078  0.500000  1
  Ru  Ru22  1  0.376535  0.185457  0.500000  1
  Ru  Ru23  1  0.808922  0.623465  0.500000  1
  Ru  Ru24  1  0.126295  0.634731  0.000000  1
  Ru  Ru25  1  0.365269  0.491563  0.000000  1
  Ru  Ru26  1  0.508437  0.873705  0.000000  1
  Ru  Ru27  1  0.634447  0.127446  0.000000  1
  Ru  Ru28  1  0.492998  0.365553  0.000000  1
  Ru  Ru29  1  0.872554  0.507002  0.000000  1
  Ru  Ru30  1  0.554755  0.554931  0.500000  1
  Ru  Ru31  1  0.445069  0.999824  0.500000  1
  Ru  Ru32  1  0.000176  0.445245  0.500000  1
  Ru  Ru33  1  0.720441  0.719238  0.000000  1
  Ru  Ru34  1  0.280762  0.001204  0.000000  1
  Ru  Ru35  1  0.998796  0.279559  0.000000  1
