# generated using pymatgen
data_PrDy9(In2Rh)4
_symmetry_space_group_name_H-M   'P 1'
_cell_length_a   3.65194000
_cell_length_b   8.02573684
_cell_length_c   18.38204000
_cell_angle_alpha   89.87586688
_cell_angle_beta   90.00000000
_cell_angle_gamma   90.00000000
_symmetry_Int_Tables_number   1
_chemical_formula_structural   PrDy9(In2Rh)4
_chemical_formula_sum   'Pr1 Dy9 In8 Rh4'
_cell_volume   538.76730936
_cell_formula_units_Z   1
loop_
 _symmetry_equiv_pos_site_id
 _symmetry_equiv_pos_as_xyz
  1  'x, y, z'
loop_
 _atom_site_type_symbol
 _atom_site_label
 _atom_site_symmetry_multiplicity
 _atom_site_fract_x
 _atom_site_fract_y
 _atom_site_fract_z
 _atom_site_occupancy
  Pr  Pr0  1  0.500000  0.500000  0.000000  1
  Dy  Dy1  1  0.500000  0.382994  0.588609  1
  Dy  Dy2  1  0.500000  0.881224  0.910732  1
  Dy  Dy3  1  0.500000  0.118776  0.089268  1
  Dy  Dy4  1  0.500000  0.753284  0.720935  1
  Dy  Dy5  1  0.500000  0.252508  0.777897  1
  Dy  Dy6  1  0.500000  0.747492  0.222103  1
  Dy  Dy7  1  0.500000  0.246716  0.279065  1
  Dy  Dy8  1  0.500000  0.000000  0.500000  1
  Dy  Dy9  1  0.500000  0.617006  0.411391  1
  In  In10  1  0.000000  0.797243  0.070417  1
  In  In11  1  0.000000  0.929431  0.350020  1
  In  In12  1  0.000000  0.070569  0.649980  1
  In  In13  1  0.000000  0.570905  0.847059  1
  In  In14  1  0.000000  0.707108  0.568391  1
  In  In15  1  0.000000  0.202757  0.929583  1
  In  In16  1  0.000000  0.292892  0.431609  1
  In  In17  1  0.000000  0.429095  0.152941  1
  Rh  Rh18  1  0.000000  0.976620  0.804857  1
  Rh  Rh19  1  0.000000  0.522661  0.305850  1
  Rh  Rh20  1  0.000000  0.477339  0.694150  1
  Rh  Rh21  1  0.000000  0.023380  0.195143  1
