# generated using pymatgen
data_Sr4ThSi12Ir19
_symmetry_space_group_name_H-M   'P 1'
_cell_length_a   12.96262300
_cell_length_b   12.96262477
_cell_length_c   4.06609400
_cell_angle_alpha   90.00000000
_cell_angle_beta   90.00000000
_cell_angle_gamma   120.00000313
_symmetry_Int_Tables_number   1
_chemical_formula_structural   Sr4ThSi12Ir19
_chemical_formula_sum   'Sr4 Th1 Si12 Ir19'
_cell_volume   591.68951383
_cell_formula_units_Z   1
loop_
 _symmetry_equiv_pos_site_id
 _symmetry_equiv_pos_as_xyz
  1  'x, y, z'
loop_
 _atom_site_type_symbol
 _atom_site_label
 _atom_site_symmetry_multiplicity
 _atom_site_fract_x
 _atom_site_fract_y
 _atom_site_fract_z
 _atom_site_occupancy
  Sr  Sr0  1  0.000392  0.817372  0.500000  1
  Sr  Sr1  1  0.182628  0.183020  0.500000  1
  Sr  Sr2  1  0.816980  0.999608  0.500000  1
  Sr  Sr3  1  0.666667  0.333333  0.000000  1
  Th  Th4  1  0.333333  0.666667  0.000000  1
  Si  Si5  1  0.999283  0.185479  0.000000  1
  Si  Si6  1  0.814521  0.813803  0.000000  1
  Si  Si7  1  0.186197  0.000717  0.000000  1
  Si  Si8  1  0.523504  0.689637  0.500000  1
  Si  Si9  1  0.310363  0.833866  0.500000  1
  Si  Si10  1  0.166134  0.476496  0.500000  1
  Si  Si11  1  0.479285  0.167662  0.500000  1
  Si  Si12  1  0.688377  0.520715  0.500000  1
  Si  Si13  1  0.832338  0.311623  0.500000  1
  Si  Si14  1  0.998246  0.628937  0.000000  1
  Si  Si15  1  0.371063  0.369309  0.000000  1
  Si  Si16  1  0.630691  0.001754  0.000000  1
  Ir  Ir17  1  0.999760  0.285612  0.500000  1
  Ir  Ir18  1  0.714388  0.714148  0.500000  1
  Ir  Ir19  1  0.285852  0.000240  0.500000  1
  Ir  Ir20  1  0.618522  0.803290  0.000000  1
  Ir  Ir21  1  0.196710  0.815232  0.000000  1
  Ir  Ir22  1  0.184768  0.381478  0.000000  1
  Ir  Ir23  1  0.380241  0.182918  0.000000  1
  Ir  Ir24  1  0.802676  0.619759  0.000000  1
  Ir  Ir25  1  0.817082  0.197324  0.000000  1
  Ir  Ir26  1  0.508365  0.871131  0.500000  1
  Ir  Ir27  1  0.128869  0.637234  0.500000  1
  Ir  Ir28  1  0.362766  0.491635  0.500000  1
  Ir  Ir29  1  0.484734  0.362331  0.500000  1
  Ir  Ir30  1  0.877597  0.515266  0.500000  1
  Ir  Ir31  1  0.637669  0.122403  0.500000  1
  Ir  Ir32  1  0.000000  0.000000  0.000000  1
  Ir  Ir33  1  0.002034  0.449207  0.000000  1
  Ir  Ir34  1  0.550793  0.552827  0.000000  1
  Ir  Ir35  1  0.447173  0.997966  0.000000  1
