# generated using pymatgen
data_NdYOsC2
_symmetry_space_group_name_H-M   'P 1'
_cell_length_a   5.29526100
_cell_length_b   6.53196800
_cell_length_c   9.91190800
_cell_angle_alpha   90.00000000
_cell_angle_beta   90.00000000
_cell_angle_gamma   90.00000000
_symmetry_Int_Tables_number   1
_chemical_formula_structural   NdYOsC2
_chemical_formula_sum   'Nd4 Y4 Os4 C8'
_cell_volume   342.83778606
_cell_formula_units_Z   4
loop_
 _symmetry_equiv_pos_site_id
 _symmetry_equiv_pos_as_xyz
  1  'x, y, z'
loop_
 _atom_site_type_symbol
 _atom_site_label
 _atom_site_symmetry_multiplicity
 _atom_site_fract_x
 _atom_site_fract_y
 _atom_site_fract_z
 _atom_site_occupancy
  Nd  Nd0  1  0.250000  0.523019  0.215012  1
  Nd  Nd1  1  0.750000  0.476981  0.784988  1
  Nd  Nd2  1  0.750000  0.976981  0.715012  1
  Nd  Nd3  1  0.250000  0.023019  0.284988  1
  Y  Y4  1  0.250000  0.682222  0.551622  1
  Y  Y5  1  0.750000  0.317778  0.448378  1
  Y  Y6  1  0.750000  0.817778  0.051622  1
  Y  Y7  1  0.250000  0.182222  0.948378  1
  Os  Os8  1  0.250000  0.730505  0.861738  1
  Os  Os9  1  0.750000  0.269495  0.138262  1
  Os  Os10  1  0.750000  0.769495  0.361738  1
  Os  Os11  1  0.250000  0.230505  0.638262  1
  C  C12  1  0.250000  0.465055  0.758708  1
  C  C13  1  0.750000  0.534945  0.241292  1
  C  C14  1  0.750000  0.034945  0.258708  1
  C  C15  1  0.250000  0.965055  0.741292  1
  C  C16  1  0.250000  0.827190  0.045587  1
  C  C17  1  0.750000  0.172810  0.954413  1
  C  C18  1  0.750000  0.672810  0.545587  1
  C  C19  1  0.250000  0.327190  0.454413  1
