# generated using pymatgen
data_Rb8Pa(MnBr8)3
_symmetry_space_group_name_H-M   'P 1'
_cell_length_a   13.30319420
_cell_length_b   13.30319467
_cell_length_c   13.30319522
_cell_angle_alpha   132.01806484
_cell_angle_beta   132.01806633
_cell_angle_gamma   70.20049557
_symmetry_Int_Tables_number   1
_chemical_formula_structural   Rb8Pa(MnBr8)3
_chemical_formula_sum   'Rb8 Pa1 Mn3 Br24'
_cell_volume   1273.73262094
_cell_formula_units_Z   1
loop_
 _symmetry_equiv_pos_site_id
 _symmetry_equiv_pos_as_xyz
  1  'x, y, z'
loop_
 _atom_site_type_symbol
 _atom_site_label
 _atom_site_symmetry_multiplicity
 _atom_site_fract_x
 _atom_site_fract_y
 _atom_site_fract_z
 _atom_site_occupancy
  Rb  Rb0  1  0.379383  0.347108  0.488068  1
  Rb  Rb1  1  0.108685  0.620617  0.967724  1
  Rb  Rb2  1  0.859039  0.891315  0.511932  1
  Rb  Rb3  1  0.114598  0.148544  0.497532  1
  Rb  Rb4  1  0.382935  0.885402  0.033947  1
  Rb  Rb5  1  0.651012  0.617065  0.502468  1
  Rb  Rb6  1  0.652892  0.140961  0.032276  1
  Rb  Rb7  1  0.851456  0.348988  0.966053  1
  Pa  Pa8  1  0.250000  0.750000  0.500000  1
  Mn  Mn9  1  0.500000  0.500000  0.000000  1
  Mn  Mn10  1  0.750000  0.250000  0.500000  1
  Mn  Mn11  1  0.000000  0.000000  0.000000  1
  Br  Br12  1  0.999854  0.775205  0.275650  1
  Br  Br13  1  0.010958  0.233145  0.240402  1
  Br  Br14  1  0.275795  0.000146  0.775351  1
  Br  Br15  1  0.979232  0.232808  0.710759  1
  Br  Br16  1  0.125074  0.625074  0.500000  1
  Br  Br17  1  0.271322  0.519215  0.788782  1
  Br  Br18  1  0.499556  0.724205  0.724350  1
  Br  Br19  1  0.522049  0.268472  0.289241  1
  Br  Br20  1  0.480785  0.269567  0.752108  1
  Br  Br21  1  0.613863  0.613863  0.000000  1
  Br  Br22  1  0.517461  0.728678  0.247892  1
  Br  Br23  1  0.115058  0.115058  0.000000  1
  Br  Br24  1  0.884942  0.884942  0.000000  1
  Br  Br25  1  0.992742  0.770556  0.759598  1
  Br  Br26  1  0.766855  0.007258  0.777814  1
  Br  Br27  1  0.229444  0.989042  0.222186  1
  Br  Br28  1  0.730433  0.482539  0.211218  1
  Br  Br29  1  0.224795  0.500444  0.224649  1
  Br  Br30  1  0.374926  0.874926  0.500000  1
  Br  Br31  1  0.869831  0.369831  0.500000  1
  Br  Br32  1  0.386137  0.386137  0.000000  1
  Br  Br33  1  0.630169  0.130169  0.500000  1
  Br  Br34  1  0.767192  0.477951  0.746424  1
  Br  Br35  1  0.731528  0.020768  0.253576  1
