# generated using pymatgen
data_Er10Tm2GaCo4Os
_symmetry_space_group_name_H-M   'P 1'
_cell_length_a   8.16347726
_cell_length_b   8.16484714
_cell_length_c   8.16283711
_cell_angle_alpha   111.30864453
_cell_angle_beta   110.58183734
_cell_angle_gamma   106.58564902
_symmetry_Int_Tables_number   1
_chemical_formula_structural   Er10Tm2GaCo4Os
_chemical_formula_sum   'Er10 Tm2 Ga1 Co4 Os1'
_cell_volume   417.89984447
_cell_formula_units_Z   1
loop_
 _symmetry_equiv_pos_site_id
 _symmetry_equiv_pos_as_xyz
  1  'x, y, z'
loop_
 _atom_site_type_symbol
 _atom_site_label
 _atom_site_symmetry_multiplicity
 _atom_site_fract_x
 _atom_site_fract_y
 _atom_site_fract_z
 _atom_site_occupancy
  Er  Er0  1  0.578718  0.271634  0.307503  1
  Er  Er1  1  0.180845  0.224218  0.404877  1
  Er  Er2  1  0.180608  0.775989  0.956357  1
  Er  Er3  1  0.682327  0.487238  0.804329  1
  Er  Er4  1  0.682324  0.877880  0.195281  1
  Er  Er5  1  0.964178  0.271191  0.692713  1
  Er  Er6  1  0.036022  0.728736  0.307685  1
  Er  Er7  1  0.317407  0.121728  0.804455  1
  Er  Er8  1  0.317776  0.513281  0.195923  1
  Er  Er9  1  0.819109  0.223675  0.043001  1
  Tm  Tm10  1  0.819457  0.775714  0.595363  1
  Tm  Tm11  1  0.421271  0.728304  0.692704  1
  Ga  Ga12  1  0.500052  0.999948  0.500120  1
  Co  Co13  1  0.886808  0.886976  0.999545  1
  Co  Co14  1  0.371874  0.500151  0.871745  1
  Co  Co15  1  0.628211  0.500116  0.128352  1
  Co  Co16  1  0.112585  0.112634  0.999597  1
  Os  Os17  1  0.000428  0.500586  0.500452  1
