# generated using pymatgen
data_YMgIn4Rh
_symmetry_space_group_name_H-M   'P 1'
_cell_length_a   4.59541700
_cell_length_b   4.65222400
_cell_length_c   7.56197600
_cell_angle_alpha   90.00000000
_cell_angle_beta   90.00000000
_cell_angle_gamma   90.00000000
_symmetry_Int_Tables_number   1
_chemical_formula_structural   YMgIn4Rh
_chemical_formula_sum   'Y1 Mg1 In4 Rh1'
_cell_volume   161.66679871
_cell_formula_units_Z   1
loop_
 _symmetry_equiv_pos_site_id
 _symmetry_equiv_pos_as_xyz
  1  'x, y, z'
loop_
 _atom_site_type_symbol
 _atom_site_label
 _atom_site_symmetry_multiplicity
 _atom_site_fract_x
 _atom_site_fract_y
 _atom_site_fract_z
 _atom_site_occupancy
  Y  Y0  1  0.000000  0.000000  0.993346  1
  Mg  Mg1  1  0.000000  0.500000  0.310026  1
  In  In2  1  0.000000  0.500000  0.695172  1
  In  In3  1  0.500000  0.000000  0.297962  1
  In  In4  1  0.500000  0.000000  0.695988  1
  In  In5  1  0.500000  0.500000  0.008795  1
  Rh  Rh6  1  0.000000  0.000000  0.498711  1
