# generated using pymatgen
data_DyHo2Mg2Sb3O14
_symmetry_space_group_name_H-M   'P 1'
_cell_length_a   7.18808581
_cell_length_b   7.18901393
_cell_length_c   7.18903534
_cell_angle_alpha   118.21043384
_cell_angle_beta   61.80888717
_cell_angle_gamma   118.19105995
_symmetry_Int_Tables_number   1
_chemical_formula_structural   DyHo2Mg2Sb3O14
_chemical_formula_sum   'Dy1 Ho2 Mg2 Sb3 O14'
_cell_volume   273.29250268
_cell_formula_units_Z   1
loop_
 _symmetry_equiv_pos_site_id
 _symmetry_equiv_pos_as_xyz
  1  'x, y, z'
loop_
 _atom_site_type_symbol
 _atom_site_label
 _atom_site_symmetry_multiplicity
 _atom_site_fract_x
 _atom_site_fract_y
 _atom_site_fract_z
 _atom_site_occupancy
  Dy  Dy0  1  0.999983  0.500063  0.999991  1
  Ho  Ho1  1  0.500011  0.000045  0.999933  1
  Ho  Ho2  1  0.500044  0.500112  0.499961  1
  Mg  Mg3  1  0.500112  0.499936  0.000036  1
  Mg  Mg4  1  0.999780  0.999808  0.499961  1
  Sb  Sb5  1  0.500066  0.000003  0.499983  1
  Sb  Sb6  1  0.999995  0.499984  0.500023  1
  Sb  Sb7  1  0.999981  0.999978  0.000049  1
  O  O8  1  0.616311  0.381709  0.118279  1
  O  O9  1  0.383521  0.618432  0.881552  1
  O  O10  1  0.084149  0.327017  0.172988  1
  O  O11  1  0.672868  0.915837  0.172837  1
  O  O12  1  0.672892  0.327145  0.584110  1
  O  O13  1  0.915764  0.672929  0.827077  1
  O  O14  1  0.327063  0.083956  0.827116  1
  O  O15  1  0.327085  0.672860  0.415983  1
  O  O16  1  0.651948  0.908314  0.591701  1
  O  O17  1  0.092046  0.347939  0.591130  1
  O  O18  1  0.092018  0.908916  0.152162  1
  O  O19  1  0.348346  0.091780  0.408231  1
  O  O20  1  0.908023  0.652133  0.408934  1
  O  O21  1  0.907998  0.091107  0.847963  1
