# generated using pymatgen
data_Ca6ZnAg2Pb3
_symmetry_space_group_name_H-M   'P 1'
_cell_length_a   5.45524629
_cell_length_b   7.63436300
_cell_length_c   16.30701900
_cell_angle_alpha   90.00000000
_cell_angle_beta   90.15625149
_cell_angle_gamma   90.00000000
_symmetry_Int_Tables_number   1
_chemical_formula_structural   Ca6ZnAg2Pb3
_chemical_formula_sum   'Ca12 Zn2 Ag4 Pb6'
_cell_volume   679.14128268
_cell_formula_units_Z   2
loop_
 _symmetry_equiv_pos_site_id
 _symmetry_equiv_pos_as_xyz
  1  'x, y, z'
loop_
 _atom_site_type_symbol
 _atom_site_label
 _atom_site_symmetry_multiplicity
 _atom_site_fract_x
 _atom_site_fract_y
 _atom_site_fract_z
 _atom_site_occupancy
  Ca  Ca0  1  0.499983  0.250597  0.998370  1
  Ca  Ca1  1  0.499983  0.749404  0.998370  1
  Ca  Ca2  1  0.000007  0.249381  0.168285  1
  Ca  Ca3  1  0.000007  0.750620  0.168285  1
  Ca  Ca4  1  0.500085  0.248114  0.335638  1
  Ca  Ca5  1  0.500085  0.751886  0.335638  1
  Ca  Ca6  1  0.000061  0.250232  0.500911  1
  Ca  Ca7  1  0.000061  0.749768  0.500911  1
  Ca  Ca8  1  0.499948  0.249779  0.665725  1
  Ca  Ca9  1  0.499948  0.750221  0.665725  1
  Ca  Ca10  1  0.999912  0.251867  0.831047  1
  Ca  Ca11  1  0.999912  0.748134  0.831047  1
  Zn  Zn12  1  0.000011  0.000000  0.997190  1
  Zn  Zn13  1  0.499974  0.500000  0.169495  1
  Ag  Ag14  1  0.000247  0.000000  0.336344  1
  Ag  Ag15  1  0.500042  0.500000  0.500256  1
  Ag  Ag16  1  0.999963  0.000000  0.666394  1
  Ag  Ag17  1  0.499779  0.500000  0.830361  1
  Pb  Pb18  1  0.999826  0.500000  0.001022  1
  Pb  Pb19  1  0.500186  0.000000  0.165653  1
  Pb  Pb20  1  0.000236  0.500000  0.333942  1
  Pb  Pb21  1  0.499963  0.000000  0.501100  1
  Pb  Pb22  1  0.000019  0.500000  0.665568  1
  Pb  Pb23  1  0.499760  0.000000  0.832727  1
