# generated using pymatgen
data_Dy2Y3Ho(Co3P2)6
_symmetry_space_group_name_H-M   'P 1'
_cell_length_a   3.70039100
_cell_length_b   10.51083801
_cell_length_c   12.18154301
_cell_angle_alpha   90.00468161
_cell_angle_beta   90.00000000
_cell_angle_gamma   90.00000000
_symmetry_Int_Tables_number   1
_chemical_formula_structural   Dy2Y3Ho(Co3P2)6
_chemical_formula_sum   'Dy2 Y3 Ho1 Co18 P12'
_cell_volume   473.79149489
_cell_formula_units_Z   1
loop_
 _symmetry_equiv_pos_site_id
 _symmetry_equiv_pos_as_xyz
  1  'x, y, z'
loop_
 _atom_site_type_symbol
 _atom_site_label
 _atom_site_symmetry_multiplicity
 _atom_site_fract_x
 _atom_site_fract_y
 _atom_site_fract_z
 _atom_site_occupancy
  Dy  Dy0  1  0.500000  0.817331  0.205763  1
  Dy  Dy1  1  0.500000  0.182672  0.205697  1
  Y  Y2  1  0.000000  0.500027  0.521792  1
  Y  Y3  1  0.500000  0.999983  0.478161  1
  Y  Y4  1  0.000000  0.317275  0.794285  1
  Ho  Ho5  1  0.000000  0.682777  0.794275  1
  Co  Co6  1  0.500000  0.500066  0.158521  1
  Co  Co7  1  0.000000  0.999852  0.841453  1
  Co  Co8  1  0.500000  0.500644  0.703710  1
  Co  Co9  1  0.000000  0.999940  0.296287  1
  Co  Co10  1  0.000000  0.500251  0.986066  1
  Co  Co11  1  0.500000  0.999734  0.013935  1
  Co  Co12  1  0.500000  0.333473  0.994808  1
  Co  Co13  1  0.500000  0.666760  0.994663  1
  Co  Co14  1  0.000000  0.166504  0.005330  1
  Co  Co15  1  0.000000  0.833278  0.005087  1
  Co  Co16  1  0.500000  0.297389  0.430337  1
  Co  Co17  1  0.500000  0.702647  0.430540  1
  Co  Co18  1  0.000000  0.202602  0.569433  1
  Co  Co19  1  0.000000  0.797288  0.569776  1
  Co  Co20  1  0.500000  0.879119  0.710221  1
  Co  Co21  1  0.500000  0.120338  0.709922  1
  Co  Co22  1  0.000000  0.620609  0.289986  1
  Co  Co23  1  0.000000  0.379411  0.289919  1
  P  P24  1  0.500000  0.500509  0.882711  1
  P  P25  1  0.000000  0.999893  0.117127  1
  P  P26  1  0.500000  0.500006  0.343261  1
  P  P27  1  0.000000  0.999968  0.656727  1
  P  P28  1  0.500000  0.310441  0.615922  1
  P  P29  1  0.500000  0.689756  0.616422  1
  P  P30  1  0.000000  0.189772  0.383861  1
  P  P31  1  0.000000  0.810166  0.383986  1
  P  P32  1  0.500000  0.847225  0.893199  1
  P  P33  1  0.500000  0.152212  0.893441  1
  P  P34  1  0.000000  0.652597  0.106738  1
  P  P35  1  0.000000  0.347488  0.106642  1
