# generated using pymatgen
data_NaLa6TcBr12
_symmetry_space_group_name_H-M   'P 1'
_cell_length_a   9.79451649
_cell_length_b   9.80108096
_cell_length_c   9.62069415
_cell_angle_alpha   107.09806434
_cell_angle_beta   107.32817674
_cell_angle_gamma   107.34045777
_symmetry_Int_Tables_number   1
_chemical_formula_structural   NaLa6TcBr12
_chemical_formula_sum   'Na1 La6 Tc1 Br12'
_cell_volume   763.71760666
_cell_formula_units_Z   1
loop_
 _symmetry_equiv_pos_site_id
 _symmetry_equiv_pos_as_xyz
  1  'x, y, z'
loop_
 _atom_site_type_symbol
 _atom_site_label
 _atom_site_symmetry_multiplicity
 _atom_site_fract_x
 _atom_site_fract_y
 _atom_site_fract_z
 _atom_site_occupancy
  Na  Na0  1  0.500000  0.500000  0.500000  1
  La  La1  1  0.326326  0.116862  0.030626  1
  La  La2  1  0.031113  0.324998  0.116030  1
  La  La3  1  0.107944  0.028608  0.307113  1
  La  La4  1  0.892055  0.971392  0.692887  1
  La  La5  1  0.968887  0.675002  0.883969  1
  La  La6  1  0.673674  0.883138  0.969373  1
  Tc  Tc7  1  0.000000  0.000000  0.000000  1
  Br  Br8  1  0.684622  0.215298  0.070906  1
  Br  Br9  1  0.370251  0.453681  0.157544  1
  Br  Br10  1  0.072447  0.684710  0.217897  1
  Br  Br11  1  0.784749  0.928747  0.316937  1
  Br  Br12  1  0.453678  0.158524  0.372434  1
  Br  Br13  1  0.159456  0.371015  0.455733  1
  Br  Br14  1  0.840545  0.628985  0.544268  1
  Br  Br15  1  0.546322  0.841477  0.627566  1
  Br  Br16  1  0.215250  0.071253  0.683063  1
  Br  Br17  1  0.927553  0.315290  0.782102  1
  Br  Br18  1  0.629750  0.546320  0.842456  1
  Br  Br19  1  0.315378  0.784701  0.929094  1
