# generated using pymatgen
data_Lu4Ga2B4(IrRh)5
_symmetry_space_group_name_H-M   'P 1'
_cell_length_a   9.45288944
_cell_length_b   9.45061544
_cell_length_c   3.17008800
_cell_angle_alpha   90.00000000
_cell_angle_beta   90.00000000
_cell_angle_gamma   89.96519851
_symmetry_Int_Tables_number   1
_chemical_formula_structural   Lu4Ga2B4(IrRh)5
_chemical_formula_sum   'Lu4 Ga2 B4 Ir5 Rh5'
_cell_volume   283.20173362
_cell_formula_units_Z   1
loop_
 _symmetry_equiv_pos_site_id
 _symmetry_equiv_pos_as_xyz
  1  'x, y, z'
loop_
 _atom_site_type_symbol
 _atom_site_label
 _atom_site_symmetry_multiplicity
 _atom_site_fract_x
 _atom_site_fract_y
 _atom_site_fract_z
 _atom_site_occupancy
  Lu  Lu0  1  0.823000  0.324312  0.000000  1
  Lu  Lu1  1  0.324538  0.176449  0.000000  1
  Lu  Lu2  1  0.676522  0.822928  0.000000  1
  Lu  Lu3  1  0.176266  0.675838  0.000000  1
  Ga  Ga4  1  0.999705  0.998830  0.000000  1
  Ga  Ga5  1  0.499934  0.500252  0.000000  1
  B  B6  1  0.624614  0.121561  0.000000  1
  B  B7  1  0.121943  0.375447  0.000000  1
  B  B8  1  0.877989  0.622349  0.000000  1
  B  B9  1  0.375608  0.878442  0.000000  1
  Ir  Ir10  1  0.069589  0.218870  0.500000  1
  Ir  Ir11  1  0.218902  0.930417  0.500000  1
  Ir  Ir12  1  0.781597  0.070429  0.500000  1
  Ir  Ir13  1  0.500668  0.999590  0.500000  1
  Ir  Ir14  1  0.999399  0.500752  0.500000  1
  Rh  Rh15  1  0.929900  0.782278  0.500000  1
  Rh  Rh16  1  0.429937  0.717244  0.500000  1
  Rh  Rh17  1  0.569581  0.283039  0.500000  1
  Rh  Rh18  1  0.717969  0.570983  0.500000  1
  Rh  Rh19  1  0.282338  0.429989  0.500000  1
