# generated using pymatgen
data_NdY3(Co2Tc)2
_symmetry_space_group_name_H-M   'P 1'
_cell_length_a   5.59422957
_cell_length_b   5.59422934
_cell_length_c   7.10229086
_cell_angle_alpha   90.23632102
_cell_angle_beta   89.76367716
_cell_angle_gamma   121.46552814
_symmetry_Int_Tables_number   1
_chemical_formula_structural   NdY3(Co2Tc)2
_chemical_formula_sum   'Nd1 Y3 Co4 Tc2'
_cell_volume   189.58324376
_cell_formula_units_Z   1
loop_
 _symmetry_equiv_pos_site_id
 _symmetry_equiv_pos_as_xyz
  1  'x, y, z'
loop_
 _atom_site_type_symbol
 _atom_site_label
 _atom_site_symmetry_multiplicity
 _atom_site_fract_x
 _atom_site_fract_y
 _atom_site_fract_z
 _atom_site_occupancy
  Nd  Nd0  1  0.167596  0.832404  0.597230  1
  Y  Y1  1  0.665350  0.334650  0.905595  1
  Y  Y2  1  0.334141  0.665859  0.097227  1
  Y  Y3  1  0.833845  0.166155  0.399329  1
  Co  Co4  1  0.671698  0.830969  0.751306  1
  Co  Co5  1  0.829100  0.667309  0.247963  1
  Co  Co6  1  0.332691  0.170900  0.247963  1
  Co  Co7  1  0.169031  0.328302  0.751306  1
  Tc  Tc8  1  0.498948  0.501052  0.499111  1
  Tc  Tc9  1  0.997600  0.002400  0.002969  1
