# generated using pymatgen
data_Ce4V5(Ni5P4)3
_symmetry_space_group_name_H-M   'P 1'
_cell_length_a   3.68140600
_cell_length_b   10.58700481
_cell_length_c   12.23493616
_cell_angle_alpha   90.02379003
_cell_angle_beta   90.00000000
_cell_angle_gamma   90.00000000
_symmetry_Int_Tables_number   1
_chemical_formula_structural   Ce4V5(Ni5P4)3
_chemical_formula_sum   'Ce4 V5 Ni15 P12'
_cell_volume   476.85736699
_cell_formula_units_Z   1
loop_
 _symmetry_equiv_pos_site_id
 _symmetry_equiv_pos_as_xyz
  1  'x, y, z'
loop_
 _atom_site_type_symbol
 _atom_site_label
 _atom_site_symmetry_multiplicity
 _atom_site_fract_x
 _atom_site_fract_y
 _atom_site_fract_z
 _atom_site_occupancy
  Ce  Ce0  1  0.250000  0.585945  0.710578  1
  Ce  Ce1  1  0.250000  0.918343  0.205891  1
  Ce  Ce2  1  0.750000  0.417324  0.289644  1
  Ce  Ce3  1  0.750000  0.080878  0.793874  1
  V  V4  1  0.250000  0.704836  0.987928  1
  V  V5  1  0.250000  0.794981  0.487938  1
  V  V6  1  0.750000  0.295150  0.011355  1
  V  V7  1  0.750000  0.208602  0.508953  1
  V  V8  1  0.250000  0.405751  0.491140  1
  Ni  Ni9  1  0.250000  0.092542  0.989498  1
  Ni  Ni10  1  0.750000  0.593314  0.510055  1
  Ni  Ni11  1  0.750000  0.908174  0.010462  1
  Ni  Ni12  1  0.250000  0.218299  0.172182  1
  Ni  Ni13  1  0.250000  0.275178  0.678182  1
  Ni  Ni14  1  0.750000  0.783217  0.828072  1
  Ni  Ni15  1  0.750000  0.719186  0.324215  1
  Ni  Ni16  1  0.250000  0.877718  0.699214  1
  Ni  Ni17  1  0.250000  0.624598  0.198641  1
  Ni  Ni18  1  0.750000  0.119499  0.298904  1
  Ni  Ni19  1  0.750000  0.379860  0.802191  1
  Ni  Ni20  1  0.250000  0.465571  0.932404  1
  Ni  Ni21  1  0.250000  0.033696  0.432288  1
  Ni  Ni22  1  0.750000  0.534546  0.067239  1
  Ni  Ni23  1  0.750000  0.964798  0.567583  1
  P  P24  1  0.250000  0.418720  0.111607  1
  P  P25  1  0.250000  0.077876  0.612254  1
  P  P26  1  0.750000  0.582580  0.888926  1
  P  P27  1  0.750000  0.918256  0.387597  1
  P  P28  1  0.250000  0.267612  0.870257  1
  P  P29  1  0.250000  0.229106  0.366424  1
  P  P30  1  0.750000  0.732694  0.129829  1
  P  P31  1  0.750000  0.767179  0.629782  1
  P  P32  1  0.250000  0.603666  0.389158  1
  P  P33  1  0.250000  0.896114  0.892476  1
  P  P34  1  0.750000  0.400576  0.616031  1
  P  P35  1  0.750000  0.103618  0.107228  1
