# generated using pymatgen
data_TbTmFeIr3
_symmetry_space_group_name_H-M   'P 1'
_cell_length_a   5.16106210
_cell_length_b   5.16106252
_cell_length_c   5.16106176
_cell_angle_alpha   63.84547786
_cell_angle_beta   63.84548053
_cell_angle_gamma   63.84546996
_symmetry_Int_Tables_number   1
_chemical_formula_structural   TbTmFeIr3
_chemical_formula_sum   'Tb1 Tm1 Fe1 Ir3'
_cell_volume   105.45121671
_cell_formula_units_Z   1
loop_
 _symmetry_equiv_pos_site_id
 _symmetry_equiv_pos_as_xyz
  1  'x, y, z'
loop_
 _atom_site_type_symbol
 _atom_site_label
 _atom_site_symmetry_multiplicity
 _atom_site_fract_x
 _atom_site_fract_y
 _atom_site_fract_z
 _atom_site_occupancy
  Tb  Tb0  1  0.373854  0.373854  0.373854  1
  Tm  Tm1  1  0.626771  0.626771  0.626771  1
  Fe  Fe2  1  0.999951  0.999951  0.999951  1
  Ir  Ir3  1  0.999537  0.500351  0.999537  1
  Ir  Ir4  1  0.500351  0.999537  0.999537  1
  Ir  Ir5  1  0.999537  0.999537  0.500351  1
