# generated using pymatgen
data_Yb4MnB16Os3
_symmetry_space_group_name_H-M   'P 1'
_cell_length_a   3.50135900
_cell_length_b   5.93828626
_cell_length_c   11.48722451
_cell_angle_alpha   89.96597565
_cell_angle_beta   90.00000000
_cell_angle_gamma   90.00000000
_symmetry_Int_Tables_number   1
_chemical_formula_structural   Yb4MnB16Os3
_chemical_formula_sum   'Yb4 Mn1 B16 Os3'
_cell_volume   238.84315745
_cell_formula_units_Z   1
loop_
 _symmetry_equiv_pos_site_id
 _symmetry_equiv_pos_as_xyz
  1  'x, y, z'
loop_
 _atom_site_type_symbol
 _atom_site_label
 _atom_site_symmetry_multiplicity
 _atom_site_fract_x
 _atom_site_fract_y
 _atom_site_fract_z
 _atom_site_occupancy
  Yb  Yb0  1  0.000000  0.129301  0.652513  1
  Yb  Yb1  1  0.000000  0.870766  0.348527  1
  Yb  Yb2  1  0.000000  0.626402  0.850892  1
  Yb  Yb3  1  0.000000  0.372414  0.148787  1
  Mn  Mn4  1  0.000000  0.131374  0.915942  1
  B  B5  1  0.500000  0.473217  0.692972  1
  B  B6  1  0.500000  0.525903  0.307558  1
  B  B7  1  0.500000  0.977828  0.808907  1
  B  B8  1  0.500000  0.024175  0.191253  1
  B  B9  1  0.500000  0.282419  0.817331  1
  B  B10  1  0.500000  0.715508  0.183689  1
  B  B11  1  0.500000  0.786223  0.686035  1
  B  B12  1  0.500000  0.214100  0.314099  1
  B  B13  1  0.500000  0.362877  0.967651  1
  B  B14  1  0.500000  0.635744  0.030722  1
  B  B15  1  0.500000  0.864068  0.530978  1
  B  B16  1  0.500000  0.135582  0.469541  1
  B  B17  1  0.500000  0.385913  0.547815  1
  B  B18  1  0.500000  0.613347  0.452635  1
  B  B19  1  0.500000  0.887442  0.951862  1
  B  B20  1  0.500000  0.114535  0.046315  1
  Os  Os21  1  0.000000  0.870629  0.083744  1
  Os  Os22  1  0.000000  0.635026  0.588331  1
  Os  Os23  1  0.000000  0.365207  0.411902  1
