# generated using pymatgen
data_Ta2TiNb(B2Mo)2
_symmetry_space_group_name_H-M   'P 1'
_cell_length_a   6.10105764
_cell_length_b   6.10105777
_cell_length_c   3.25976100
_cell_angle_alpha   90.00000000
_cell_angle_beta   90.00000000
_cell_angle_gamma   89.47811227
_symmetry_Int_Tables_number   1
_chemical_formula_structural   Ta2TiNb(B2Mo)2
_chemical_formula_sum   'Ta2 Ti1 Nb1 B4 Mo2'
_cell_volume   121.33274080
_cell_formula_units_Z   1
loop_
 _symmetry_equiv_pos_site_id
 _symmetry_equiv_pos_as_xyz
  1  'x, y, z'
loop_
 _atom_site_type_symbol
 _atom_site_label
 _atom_site_symmetry_multiplicity
 _atom_site_fract_x
 _atom_site_fract_y
 _atom_site_fract_z
 _atom_site_occupancy
  Ta  Ta0  1  0.178788  0.320346  0.500000  1
  Ta  Ta1  1  0.820346  0.678788  0.500000  1
  Ti  Ti2  1  0.679253  0.179253  0.500000  1
  Nb  Nb3  1  0.321333  0.821333  0.500000  1
  B  B4  1  0.107109  0.607109  0.000000  1
  B  B5  1  0.890259  0.390259  0.000000  1
  B  B6  1  0.609212  0.895366  0.000000  1
  B  B7  1  0.395366  0.109212  0.000000  1
  Mo  Mo8  1  0.996657  0.001676  0.000000  1
  Mo  Mo9  1  0.501676  0.496657  0.000000  1
