# generated using pymatgen
data_Cs3P2Br9
_symmetry_space_group_name_H-M   'P 1'
_cell_length_a   7.80476500
_cell_length_b   7.80476459
_cell_length_c   19.52246900
_cell_angle_alpha   90.00000000
_cell_angle_beta   90.00000000
_cell_angle_gamma   120.00000597
_symmetry_Int_Tables_number   1
_chemical_formula_structural   Cs3P2Br9
_chemical_formula_sum   'Cs6 P4 Br18'
_cell_volume   1029.87611687
_cell_formula_units_Z   2
loop_
 _symmetry_equiv_pos_site_id
 _symmetry_equiv_pos_as_xyz
  1  'x, y, z'
loop_
 _atom_site_type_symbol
 _atom_site_label
 _atom_site_symmetry_multiplicity
 _atom_site_fract_x
 _atom_site_fract_y
 _atom_site_fract_z
 _atom_site_occupancy
  Cs  Cs0  1  0.000000  0.000000  0.250000  1
  Cs  Cs1  1  0.000000  0.000000  0.750000  1
  Cs  Cs2  1  0.333333  0.666667  0.418243  1
  Cs  Cs3  1  0.666667  0.333333  0.581757  1
  Cs  Cs4  1  0.666667  0.333333  0.918243  1
  Cs  Cs5  1  0.333333  0.666667  0.081757  1
  P  P6  1  0.333333  0.666667  0.657998  1
  P  P7  1  0.666667  0.333333  0.342002  1
  P  P8  1  0.666667  0.333333  0.157998  1
  P  P9  1  0.333333  0.666667  0.842002  1
  Br  Br10  1  0.506759  0.493241  0.250000  1
  Br  Br11  1  0.506759  0.013518  0.250000  1
  Br  Br12  1  0.986482  0.493241  0.250000  1
  Br  Br13  1  0.493241  0.506759  0.750000  1
  Br  Br14  1  0.493241  0.986482  0.750000  1
  Br  Br15  1  0.013518  0.506759  0.750000  1
  Br  Br16  1  0.819033  0.180967  0.409352  1
  Br  Br17  1  0.819033  0.638067  0.409352  1
  Br  Br18  1  0.361933  0.180967  0.409352  1
  Br  Br19  1  0.180967  0.819033  0.590648  1
  Br  Br20  1  0.180967  0.361933  0.590648  1
  Br  Br21  1  0.638067  0.819033  0.590648  1
  Br  Br22  1  0.180967  0.819033  0.909352  1
  Br  Br23  1  0.180967  0.361933  0.909352  1
  Br  Br24  1  0.638067  0.819033  0.909352  1
  Br  Br25  1  0.819033  0.180967  0.090648  1
  Br  Br26  1  0.819033  0.638067  0.090648  1
  Br  Br27  1  0.361933  0.180967  0.090648  1
