# generated using pymatgen
data_Y3Ho2Re2C7
_symmetry_space_group_name_H-M   'P 1'
_cell_length_a   8.33047823
_cell_length_b   8.32790331
_cell_length_c   3.42484100
_cell_angle_alpha   90.00000000
_cell_angle_beta   90.00000000
_cell_angle_gamma   122.54281807
_symmetry_Int_Tables_number   1
_chemical_formula_structural   Y3Ho2Re2C7
_chemical_formula_sum   'Y3 Ho2 Re2 C7'
_cell_volume   200.29415634
_cell_formula_units_Z   1
loop_
 _symmetry_equiv_pos_site_id
 _symmetry_equiv_pos_as_xyz
  1  'x, y, z'
loop_
 _atom_site_type_symbol
 _atom_site_label
 _atom_site_symmetry_multiplicity
 _atom_site_fract_x
 _atom_site_fract_y
 _atom_site_fract_z
 _atom_site_occupancy
  Y  Y0  1  0.500000  0.500000  0.000000  1
  Y  Y1  1  0.075525  0.334308  0.500000  1
  Y  Y2  1  0.924475  0.665692  0.500000  1
  Ho  Ho3  1  0.664076  0.923765  0.500000  1
  Ho  Ho4  1  0.335924  0.076235  0.500000  1
  Re  Re5  1  0.714259  0.285251  0.000000  1
  Re  Re6  1  0.285741  0.714749  0.000000  1
  C  C7  1  0.626151  0.371805  0.500000  1
  C  C8  1  0.373849  0.628195  0.500000  1
  C  C9  1  0.000000  0.000000  0.000000  1
  C  C10  1  0.170305  0.168780  0.000000  1
  C  C11  1  0.829695  0.831220  0.000000  1
  C  C12  1  0.000000  0.500000  0.000000  1
  C  C13  1  0.500000  0.000000  0.000000  1
