# generated using pymatgen
data_ScCo4P3Rh
_symmetry_space_group_name_H-M   'P 1'
_cell_length_a   3.63169400
_cell_length_b   10.28579200
_cell_length_c   11.72403300
_cell_angle_alpha   90.00000000
_cell_angle_beta   90.00000000
_cell_angle_gamma   90.00000000
_symmetry_Int_Tables_number   1
_chemical_formula_structural   ScCo4P3Rh
_chemical_formula_sum   'Sc4 Co16 P12 Rh4'
_cell_volume   437.94948346
_cell_formula_units_Z   4
loop_
 _symmetry_equiv_pos_site_id
 _symmetry_equiv_pos_as_xyz
  1  'x, y, z'
loop_
 _atom_site_type_symbol
 _atom_site_label
 _atom_site_symmetry_multiplicity
 _atom_site_fract_x
 _atom_site_fract_y
 _atom_site_fract_z
 _atom_site_occupancy
  Sc  Sc0  1  0.250000  0.582602  0.703732  1
  Sc  Sc1  1  0.250000  0.917398  0.203732  1
  Sc  Sc2  1  0.750000  0.417398  0.296268  1
  Sc  Sc3  1  0.750000  0.082602  0.796268  1
  Co  Co4  1  0.250000  0.410027  0.484394  1
  Co  Co5  1  0.250000  0.089973  0.984394  1
  Co  Co6  1  0.750000  0.589973  0.515606  1
  Co  Co7  1  0.750000  0.910027  0.015606  1
  Co  Co8  1  0.250000  0.221883  0.177202  1
  Co  Co9  1  0.250000  0.278118  0.677202  1
  Co  Co10  1  0.750000  0.778118  0.822798  1
  Co  Co11  1  0.750000  0.721882  0.322798  1
  Co  Co12  1  0.250000  0.885176  0.702303  1
  Co  Co13  1  0.250000  0.614824  0.202303  1
  Co  Co14  1  0.750000  0.114824  0.297697  1
  Co  Co15  1  0.750000  0.385176  0.797697  1
  Co  Co16  1  0.250000  0.464281  0.929100  1
  Co  Co17  1  0.250000  0.035719  0.429100  1
  Co  Co18  1  0.750000  0.535719  0.070900  1
  Co  Co19  1  0.750000  0.964281  0.570900  1
  P  P20  1  0.250000  0.421306  0.115444  1
  P  P21  1  0.250000  0.078694  0.615444  1
  P  P22  1  0.750000  0.578694  0.884556  1
  P  P23  1  0.750000  0.921306  0.384556  1
  P  P24  1  0.250000  0.265668  0.864638  1
  P  P25  1  0.250000  0.234332  0.364638  1
  P  P26  1  0.750000  0.734332  0.135362  1
  P  P27  1  0.750000  0.765668  0.635362  1
  P  P28  1  0.250000  0.592609  0.387078  1
  P  P29  1  0.250000  0.907391  0.887078  1
  P  P30  1  0.750000  0.407391  0.612922  1
  P  P31  1  0.750000  0.092609  0.112922  1
  Rh  Rh32  1  0.250000  0.718419  0.991681  1
  Rh  Rh33  1  0.250000  0.781581  0.491681  1
  Rh  Rh34  1  0.750000  0.281581  0.008319  1
  Rh  Rh35  1  0.750000  0.218419  0.508319  1
