# generated using pymatgen
data_Ce5Th(ZnCo3)2
_symmetry_space_group_name_H-M   'P 1'
_cell_length_a   4.88349977
_cell_length_b   4.88350089
_cell_length_c   13.95126145
_cell_angle_alpha   89.87133966
_cell_angle_beta   90.12865848
_cell_angle_gamma   126.69605721
_symmetry_Int_Tables_number   1
_chemical_formula_structural   Ce5Th(ZnCo3)2
_chemical_formula_sum   'Ce5 Th1 Zn2 Co6'
_cell_volume   266.77779821
_cell_formula_units_Z   1
loop_
 _symmetry_equiv_pos_site_id
 _symmetry_equiv_pos_as_xyz
  1  'x, y, z'
loop_
 _atom_site_type_symbol
 _atom_site_label
 _atom_site_symmetry_multiplicity
 _atom_site_fract_x
 _atom_site_fract_y
 _atom_site_fract_z
 _atom_site_occupancy
  Ce  Ce0  1  0.009743  0.990255  0.254638  1
  Ce  Ce1  1  0.298998  0.701000  0.391316  1
  Ce  Ce2  1  0.698884  0.301114  0.610047  1
  Ce  Ce3  1  0.987659  0.012339  0.749322  1
  Ce  Ce4  1  0.698031  0.301967  0.889441  1
  Th  Th5  1  0.294390  0.705608  0.108983  1
  Zn  Zn6  1  0.996656  0.003344  0.998386  1
  Zn  Zn7  1  0.999381  0.000619  0.500485  1
  Co  Co8  1  0.582242  0.417756  0.081351  1
  Co  Co9  1  0.745123  0.254875  0.251297  1
  Co  Co10  1  0.561953  0.438045  0.414718  1
  Co  Co11  1  0.437514  0.562484  0.586330  1
  Co  Co12  1  0.252969  0.747029  0.749719  1
  Co  Co13  1  0.436446  0.563552  0.913968  1
