# generated using pymatgen
data_BaTb2Si3O10
_symmetry_space_group_name_H-M   'P 1'
_cell_length_a   12.36905400
_cell_length_b   5.47711020
_cell_length_c   6.94896102
_cell_angle_alpha   73.60859367
_cell_angle_beta   90.00000000
_cell_angle_gamma   90.00000000
_symmetry_Int_Tables_number   1
_chemical_formula_structural   BaTb2Si3O10
_chemical_formula_sum   'Ba2 Tb4 Si6 O20'
_cell_volume   451.63519418
_cell_formula_units_Z   2
loop_
 _symmetry_equiv_pos_site_id
 _symmetry_equiv_pos_as_xyz
  1  'x, y, z'
loop_
 _atom_site_type_symbol
 _atom_site_label
 _atom_site_symmetry_multiplicity
 _atom_site_fract_x
 _atom_site_fract_y
 _atom_site_fract_z
 _atom_site_occupancy
  Ba  Ba0  1  0.750000  0.762793  0.984975  1
  Ba  Ba1  1  0.250000  0.237207  0.015025  1
  Tb  Tb2  1  0.598668  0.158449  0.315476  1
  Tb  Tb3  1  0.901332  0.158449  0.315476  1
  Tb  Tb4  1  0.098668  0.841551  0.684524  1
  Tb  Tb5  1  0.401332  0.841551  0.684524  1
  Si  Si6  1  0.061728  0.695657  0.214184  1
  Si  Si7  1  0.250000  0.418673  0.487968  1
  Si  Si8  1  0.750000  0.581327  0.512032  1
  Si  Si9  1  0.438272  0.695657  0.214184  1
  Si  Si10  1  0.561728  0.304343  0.785816  1
  Si  Si11  1  0.938272  0.304343  0.785816  1
  O  O12  1  0.449698  0.897105  0.351455  1
  O  O13  1  0.143409  0.454044  0.338472  1
  O  O14  1  0.856591  0.545956  0.661528  1
  O  O15  1  0.356591  0.454044  0.338472  1
  O  O16  1  0.377594  0.836122  0.003973  1
  O  O17  1  0.877594  0.163878  0.996027  1
  O  O18  1  0.053592  0.434400  0.808236  1
  O  O19  1  0.949698  0.102895  0.648545  1
  O  O20  1  0.550302  0.102895  0.648545  1
  O  O21  1  0.250000  0.626417  0.616376  1
  O  O22  1  0.122406  0.836122  0.003973  1
  O  O23  1  0.553592  0.565600  0.191764  1
  O  O24  1  0.250000  0.125238  0.632898  1
  O  O25  1  0.643409  0.545956  0.661528  1
  O  O26  1  0.750000  0.874762  0.367102  1
  O  O27  1  0.946408  0.565600  0.191764  1
  O  O28  1  0.750000  0.373583  0.383624  1
  O  O29  1  0.446408  0.434400  0.808236  1
  O  O30  1  0.622406  0.163878  0.996027  1
  O  O31  1  0.050302  0.897105  0.351455  1
