# generated using pymatgen
data_Dy5Tl2Bi
_symmetry_space_group_name_H-M   'P 1'
_cell_length_a   9.00889261
_cell_length_b   9.02340365
_cell_length_c   6.71124700
_cell_angle_alpha   90.00000000
_cell_angle_beta   90.00000000
_cell_angle_gamma   120.05329422
_symmetry_Int_Tables_number   1
_chemical_formula_structural   Dy5Tl2Bi
_chemical_formula_sum   'Dy10 Tl4 Bi2'
_cell_volume   472.21760147
_cell_formula_units_Z   2
loop_
 _symmetry_equiv_pos_site_id
 _symmetry_equiv_pos_as_xyz
  1  'x, y, z'
loop_
 _atom_site_type_symbol
 _atom_site_label
 _atom_site_symmetry_multiplicity
 _atom_site_fract_x
 _atom_site_fract_y
 _atom_site_fract_z
 _atom_site_occupancy
  Dy  Dy0  1  0.991711  0.758148  0.750000  1
  Dy  Dy1  1  0.991711  0.233563  0.250000  1
  Dy  Dy2  1  0.767339  0.766569  0.250000  1
  Dy  Dy3  1  0.767339  0.000770  0.750000  1
  Dy  Dy4  1  0.233736  0.242294  0.750000  1
  Dy  Dy5  1  0.233736  0.991442  0.250000  1
  Dy  Dy6  1  0.334676  0.667338  0.500000  1
  Dy  Dy7  1  0.678488  0.339244  0.000000  1
  Dy  Dy8  1  0.678488  0.339244  0.500000  1
  Dy  Dy9  1  0.334676  0.667338  0.000000  1
  Tl  Tl10  1  0.000949  0.602373  0.250000  1
  Tl  Tl11  1  0.000949  0.398576  0.750000  1
  Tl  Tl12  1  0.599352  0.601902  0.750000  1
  Tl  Tl13  1  0.599352  0.997449  0.250000  1
  Bi  Bi14  1  0.393748  0.003128  0.750000  1
  Bi  Bi15  1  0.393748  0.390621  0.250000  1
