# generated using pymatgen
data_AlSiAsPd6
_symmetry_space_group_name_H-M   'P 1'
_cell_length_a   6.76432400
_cell_length_b   6.76432413
_cell_length_c   3.43329000
_cell_angle_alpha   90.00000000
_cell_angle_beta   90.00000000
_cell_angle_gamma   120.00000913
_symmetry_Int_Tables_number   1
_chemical_formula_structural   AlSiAsPd6
_chemical_formula_sum   'Al1 Si1 As1 Pd6'
_cell_volume   136.04728889
_cell_formula_units_Z   1
loop_
 _symmetry_equiv_pos_site_id
 _symmetry_equiv_pos_as_xyz
  1  'x, y, z'
loop_
 _atom_site_type_symbol
 _atom_site_label
 _atom_site_symmetry_multiplicity
 _atom_site_fract_x
 _atom_site_fract_y
 _atom_site_fract_z
 _atom_site_occupancy
  Al  Al0  1  0.333333  0.666667  0.000000  1
  Si  Si1  1  0.000000  0.000000  0.500000  1
  As  As2  1  0.666667  0.333333  0.000000  1
  Pd  Pd3  1  0.992834  0.737219  0.000000  1
  Pd  Pd4  1  0.262781  0.255615  0.000000  1
  Pd  Pd5  1  0.744385  0.007166  0.000000  1
  Pd  Pd6  1  0.014014  0.397461  0.500000  1
  Pd  Pd7  1  0.602539  0.616553  0.500000  1
  Pd  Pd8  1  0.383447  0.985986  0.500000  1
