# generated using pymatgen
data_Zr2V2MoOs
_symmetry_space_group_name_H-M   'P 1'
_cell_length_a   5.25504906
_cell_length_b   5.25386677
_cell_length_c   5.25504897
_cell_angle_alpha   119.56504769
_cell_angle_beta   119.87603753
_cell_angle_gamma   90.49140340
_symmetry_Int_Tables_number   1
_chemical_formula_structural   Zr2V2MoOs
_chemical_formula_sum   'Zr2 V2 Mo1 Os1'
_cell_volume   103.01551580
_cell_formula_units_Z   1
loop_
 _symmetry_equiv_pos_site_id
 _symmetry_equiv_pos_as_xyz
  1  'x, y, z'
loop_
 _atom_site_type_symbol
 _atom_site_label
 _atom_site_symmetry_multiplicity
 _atom_site_fract_x
 _atom_site_fract_y
 _atom_site_fract_z
 _atom_site_occupancy
  Zr  Zr0  1  0.373682  0.121831  0.248148  1
  Zr  Zr1  1  0.626318  0.878169  0.751852  1
  V  V2  1  0.500000  0.500000  0.000000  1
  V  V3  1  0.000000  0.500000  0.500000  1
  Mo  Mo4  1  0.000000  0.500000  0.000000  1
  Os  Os5  1  0.000000  0.000000  0.500000  1
