# generated using pymatgen
data_Nb(OsBr6)5
_symmetry_space_group_name_H-M   'P 1'
_cell_length_a   14.25127661
_cell_length_b   14.28003450
_cell_length_c   6.79507046
_cell_angle_alpha   89.42509302
_cell_angle_beta   89.27588910
_cell_angle_gamma   85.63204817
_symmetry_Int_Tables_number   1
_chemical_formula_structural   Nb(OsBr6)5
_chemical_formula_sum   'Nb1 Os5 Br30'
_cell_volume   1378.67242662
_cell_formula_units_Z   1
loop_
 _symmetry_equiv_pos_site_id
 _symmetry_equiv_pos_as_xyz
  1  'x, y, z'
loop_
 _atom_site_type_symbol
 _atom_site_label
 _atom_site_symmetry_multiplicity
 _atom_site_fract_x
 _atom_site_fract_y
 _atom_site_fract_z
 _atom_site_occupancy
  Nb  Nb0  1  0.223525  0.443049  0.474622  1
  Os  Os1  1  0.436872  0.229716  0.474624  1
  Os  Os2  1  0.767489  0.565628  0.525579  1
  Os  Os3  1  0.565290  0.768175  0.525513  1
  Os  Os4  1  0.101379  0.899343  0.999672  1
  Os  Os5  1  0.898226  0.101379  0.999770  1
  Br  Br6  1  0.528086  0.328217  0.257410  1
  Br  Br7  1  0.667706  0.476255  0.742618  1
  Br  Br8  1  0.475389  0.668491  0.742531  1
  Br  Br9  1  0.332885  0.525595  0.255277  1
  Br  Br10  1  0.570433  0.197678  0.686767  1
  Br  Br11  1  0.798496  0.432718  0.311468  1
  Br  Br12  1  0.867828  0.234313  0.781703  1
  Br  Br13  1  0.764935  0.132147  0.217857  1
  Br  Br14  1  0.131712  0.766448  0.218828  1
  Br  Br15  1  0.234634  0.868725  0.780909  1
  Br  Br16  1  0.998133  0.190673  0.208628  1
  Br  Br17  1  0.808983  0.001623  0.791078  1
  Br  Br18  1  0.001934  0.809162  0.791402  1
  Br  Br19  1  0.190858  0.998530  0.208790  1
  Br  Br20  1  0.048519  0.048421  0.794287  1
  Br  Br21  1  0.951180  0.951838  0.205034  1
  Br  Br22  1  0.287816  0.282336  0.273316  1
  Br  Br23  1  0.714909  0.715384  0.726438  1
  Br  Br24  1  0.092304  0.465526  0.247460  1
  Br  Br25  1  0.535069  0.900988  0.739524  1
  Br  Br26  1  0.900395  0.535560  0.740392  1
  Br  Br27  1  0.467853  0.096561  0.260733  1
  Br  Br28  1  0.140743  0.334015  0.694017  1
  Br  Br29  1  0.665476  0.857053  0.307998  1
  Br  Br30  1  0.857970  0.664978  0.308843  1
  Br  Br31  1  0.337701  0.139190  0.691779  1
  Br  Br32  1  0.384406  0.378854  0.675887  1
  Br  Br33  1  0.618154  0.618282  0.324579  1
  Br  Br34  1  0.200615  0.574120  0.702294  1
  Br  Br35  1  0.432096  0.799027  0.312376  1
