# generated using pymatgen
data_Y2Al9Ni2Ru
_symmetry_space_group_name_H-M   'P 1'
_cell_length_a   7.44930926
_cell_length_b   7.44930864
_cell_length_c   9.36937700
_cell_angle_alpha   90.00000000
_cell_angle_beta   90.00000000
_cell_angle_gamma   118.83242179
_symmetry_Int_Tables_number   1
_chemical_formula_structural   Y2Al9Ni2Ru
_chemical_formula_sum   'Y4 Al18 Ni4 Ru2'
_cell_volume   455.47402469
_cell_formula_units_Z   2
loop_
 _symmetry_equiv_pos_site_id
 _symmetry_equiv_pos_as_xyz
  1  'x, y, z'
loop_
 _atom_site_type_symbol
 _atom_site_label
 _atom_site_symmetry_multiplicity
 _atom_site_fract_x
 _atom_site_fract_y
 _atom_site_fract_z
 _atom_site_occupancy
  Y  Y0  1  0.994194  0.674911  0.250000  1
  Y  Y1  1  0.005806  0.325089  0.750000  1
  Y  Y2  1  0.674911  0.994194  0.250000  1
  Y  Y3  1  0.325089  0.005806  0.750000  1
  Al  Al4  1  0.132090  0.132090  0.250000  1
  Al  Al5  1  0.867910  0.867910  0.750000  1
  Al  Al6  1  0.998506  0.337005  0.073098  1
  Al  Al7  1  0.001494  0.662995  0.926902  1
  Al  Al8  1  0.001494  0.662995  0.573098  1
  Al  Al9  1  0.337005  0.998506  0.426902  1
  Al  Al10  1  0.998506  0.337005  0.426902  1
  Al  Al11  1  0.662995  0.001494  0.573098  1
  Al  Al12  1  0.662995  0.001494  0.926902  1
  Al  Al13  1  0.337005  0.998506  0.073098  1
  Al  Al14  1  0.333870  0.333870  0.547320  1
  Al  Al15  1  0.666130  0.666130  0.452680  1
  Al  Al16  1  0.666130  0.666130  0.047320  1
  Al  Al17  1  0.333870  0.333870  0.952680  1
  Al  Al18  1  0.342108  0.555126  0.250000  1
  Al  Al19  1  0.657892  0.444874  0.750000  1
  Al  Al20  1  0.555126  0.342108  0.250000  1
  Al  Al21  1  0.444874  0.657892  0.750000  1
  Ni  Ni22  1  0.670735  0.329265  0.000000  1
  Ni  Ni23  1  0.329265  0.670735  0.000000  1
  Ni  Ni24  1  0.329265  0.670735  0.500000  1
  Ni  Ni25  1  0.670735  0.329265  0.500000  1
  Ru  Ru26  1  0.000000  0.000000  0.000000  1
  Ru  Ru27  1  0.000000  0.000000  0.500000  1
