# generated using pymatgen
data_NaPr6RuCl12
_symmetry_space_group_name_H-M   'P 1'
_cell_length_a   9.31743981
_cell_length_b   9.31728082
_cell_length_c   9.31726744
_cell_angle_alpha   107.36304255
_cell_angle_beta   107.35742843
_cell_angle_gamma   107.36029926
_symmetry_Int_Tables_number   1
_chemical_formula_structural   NaPr6RuCl12
_chemical_formula_sum   'Na1 Pr6 Ru1 Cl12'
_cell_volume   666.89712454
_cell_formula_units_Z   1
loop_
 _symmetry_equiv_pos_site_id
 _symmetry_equiv_pos_as_xyz
  1  'x, y, z'
loop_
 _atom_site_type_symbol
 _atom_site_label
 _atom_site_symmetry_multiplicity
 _atom_site_fract_x
 _atom_site_fract_y
 _atom_site_fract_z
 _atom_site_occupancy
  Na  Na0  1  0.500000  0.500000  0.500000  1
  Pr  Pr1  1  0.119709  0.327215  0.031075  1
  Pr  Pr2  1  0.327207  0.031073  0.119697  1
  Pr  Pr3  1  0.031073  0.119716  0.327229  1
  Pr  Pr4  1  0.968928  0.880284  0.672772  1
  Pr  Pr5  1  0.672793  0.968928  0.880303  1
  Pr  Pr6  1  0.880291  0.672785  0.968925  1
  Ru  Ru7  1  0.000000  0.000000  0.000000  1
  Cl  Cl8  1  0.210014  0.687088  0.071233  1
  Cl  Cl9  1  0.451632  0.368065  0.163366  1
  Cl  Cl10  1  0.687089  0.071251  0.210032  1
  Cl  Cl11  1  0.928749  0.789993  0.312914  1
  Cl  Cl12  1  0.163372  0.451655  0.368078  1
  Cl  Cl13  1  0.368066  0.163378  0.451649  1
  Cl  Cl14  1  0.631934  0.836622  0.548352  1
  Cl  Cl15  1  0.836629  0.548345  0.631922  1
  Cl  Cl16  1  0.071252  0.210007  0.687087  1
  Cl  Cl17  1  0.312912  0.928750  0.789968  1
  Cl  Cl18  1  0.548368  0.631935  0.836635  1
  Cl  Cl19  1  0.789986  0.312912  0.928767  1
