# generated using pymatgen
data_Sm4Ga20Pt10Au
_symmetry_space_group_name_H-M   'P 1'
_cell_length_a   4.21000953
_cell_length_b   11.09661226
_cell_length_c   13.71389814
_cell_angle_alpha   81.95380655
_cell_angle_beta   81.17052804
_cell_angle_gamma   79.06484548
_symmetry_Int_Tables_number   1
_chemical_formula_structural   Sm4Ga20Pt10Au
_chemical_formula_sum   'Sm4 Ga20 Pt10 Au1'
_cell_volume   617.51202649
_cell_formula_units_Z   1
loop_
 _symmetry_equiv_pos_site_id
 _symmetry_equiv_pos_as_xyz
  1  'x, y, z'
loop_
 _atom_site_type_symbol
 _atom_site_label
 _atom_site_symmetry_multiplicity
 _atom_site_fract_x
 _atom_site_fract_y
 _atom_site_fract_z
 _atom_site_occupancy
  Sm  Sm0  1  0.124238  0.087975  0.663549  1
  Sm  Sm1  1  0.875762  0.912025  0.336451  1
  Sm  Sm2  1  0.774382  0.631590  0.819643  1
  Sm  Sm3  1  0.225618  0.368410  0.180357  1
  Ga  Ga4  1  0.008602  0.071130  0.911667  1
  Ga  Ga5  1  0.991398  0.928870  0.088333  1
  Ga  Ga6  1  0.066230  0.673313  0.194229  1
  Ga  Ga7  1  0.933770  0.326687  0.805771  1
  Ga  Ga8  1  0.105882  0.335846  0.452389  1
  Ga  Ga9  1  0.894118  0.664154  0.547611  1
  Ga  Ga10  1  0.202483  0.604062  0.990971  1
  Ga  Ga11  1  0.797517  0.395938  0.009029  1
  Ga  Ga12  1  0.257811  0.782835  0.701545  1
  Ga  Ga13  1  0.742189  0.217165  0.298455  1
  Ga  Ga14  1  0.302140  0.899477  0.496243  1
  Ga  Ga15  1  0.697860  0.100523  0.503757  1
  Ga  Ga16  1  0.386817  0.521582  0.704784  1
  Ga  Ga17  1  0.613183  0.478418  0.295216  1
  Ga  Ga18  1  0.397157  0.202915  0.002770  1
  Ga  Ga19  1  0.602843  0.797085  0.997230  1
  Ga  Ga20  1  0.542463  0.281452  0.633623  1
  Ga  Ga21  1  0.457537  0.718548  0.366377  1
  Ga  Ga22  1  0.635063  0.936236  0.793639  1
  Ga  Ga23  1  0.364937  0.063764  0.206361  1
  Pt  Pt24  1  0.026862  0.574085  0.372189  1
  Pt  Pt25  1  0.973138  0.425915  0.627811  1
  Pt  Pt26  1  0.136851  0.837064  0.889233  1
  Pt  Pt27  1  0.863149  0.162936  0.110767  1
  Pt  Pt28  1  0.241043  0.127057  0.390856  1
  Pt  Pt29  1  0.758957  0.872943  0.609144  1
  Pt  Pt30  1  0.345088  0.415580  0.894244  1
  Pt  Pt31  1  0.654912  0.584420  0.105756  1
  Pt  Pt32  1  0.504716  0.169783  0.820787  1
  Pt  Pt33  1  0.495284  0.830217  0.179213  1
  Au  Au34  1  0.500000  0.500000  0.500000  1
