# generated using pymatgen
data_ErTm2Zn3Si2Ag
_symmetry_space_group_name_H-M   'P 1'
_cell_length_a   6.82276800
_cell_length_b   6.82595536
_cell_length_c   4.26861200
_cell_angle_alpha   90.00000000
_cell_angle_beta   90.00000000
_cell_angle_gamma   119.98456439
_symmetry_Int_Tables_number   1
_chemical_formula_structural   ErTm2Zn3Si2Ag
_chemical_formula_sum   'Er1 Tm2 Zn3 Si2 Ag1'
_cell_volume   172.19038199
_cell_formula_units_Z   1
loop_
 _symmetry_equiv_pos_site_id
 _symmetry_equiv_pos_as_xyz
  1  'x, y, z'
loop_
 _atom_site_type_symbol
 _atom_site_label
 _atom_site_symmetry_multiplicity
 _atom_site_fract_x
 _atom_site_fract_y
 _atom_site_fract_z
 _atom_site_occupancy
  Er  Er0  1  0.574130  0.000000  0.000000  1
  Tm  Tm1  1  0.999925  0.574046  0.000000  1
  Tm  Tm2  1  0.425879  0.425954  0.000000  1
  Zn  Zn3  1  0.249897  0.000000  0.500000  1
  Zn  Zn4  1  0.000080  0.250200  0.500000  1
  Zn  Zn5  1  0.749880  0.749800  0.500000  1
  Si  Si6  1  0.333054  0.666248  0.500000  1
  Si  Si7  1  0.666807  0.333752  0.500000  1
  Ag  Ag8  1  0.000348  0.000000  0.000000  1
