# generated using pymatgen
data_SmDyLu2(WO6)2
_symmetry_space_group_name_H-M   'P 1'
_cell_length_a   5.39913900
_cell_length_b   7.68558986
_cell_length_c   11.37853109
_cell_angle_alpha   75.67680071
_cell_angle_beta   90.00000000
_cell_angle_gamma   90.00000000
_symmetry_Int_Tables_number   1
_chemical_formula_structural   SmDyLu2(WO6)2
_chemical_formula_sum   'Sm2 Dy2 Lu4 W4 O24'
_cell_volume   457.48186237
_cell_formula_units_Z   2
loop_
 _symmetry_equiv_pos_site_id
 _symmetry_equiv_pos_as_xyz
  1  'x, y, z'
loop_
 _atom_site_type_symbol
 _atom_site_label
 _atom_site_symmetry_multiplicity
 _atom_site_fract_x
 _atom_site_fract_y
 _atom_site_fract_z
 _atom_site_occupancy
  Sm  Sm0  1  0.315415  0.500000  0.750000  1
  Sm  Sm1  1  0.684585  0.500000  0.250000  1
  Dy  Dy2  1  0.256027  0.000000  0.750000  1
  Dy  Dy3  1  0.743973  0.000000  0.250000  1
  Lu  Lu4  1  0.183335  0.794633  0.078549  1
  Lu  Lu5  1  0.183335  0.205367  0.421451  1
  Lu  Lu6  1  0.816665  0.205367  0.921451  1
  Lu  Lu7  1  0.816665  0.794633  0.578549  1
  W  W8  1  0.744474  0.726570  0.885248  1
  W  W9  1  0.255526  0.726570  0.385248  1
  W  W10  1  0.744474  0.273430  0.614752  1
  W  W11  1  0.255526  0.273430  0.114752  1
  O  O12  1  0.541251  0.158327  0.067272  1
  O  O13  1  0.048016  0.057106  0.102314  1
  O  O14  1  0.016073  0.717977  0.769056  1
  O  O15  1  0.458749  0.158327  0.567272  1
  O  O16  1  0.350280  0.489583  0.387261  1
  O  O17  1  0.951984  0.057106  0.602314  1
  O  O18  1  0.546349  0.794592  0.724988  1
  O  O19  1  0.453651  0.794592  0.224988  1
  O  O20  1  0.143125  0.639109  0.548301  1
  O  O21  1  0.048016  0.942894  0.397686  1
  O  O22  1  0.458749  0.841673  0.932728  1
  O  O23  1  0.453651  0.205408  0.275012  1
  O  O24  1  0.856875  0.360891  0.451699  1
  O  O25  1  0.649720  0.489583  0.887261  1
  O  O26  1  0.350280  0.510417  0.112739  1
  O  O27  1  0.951984  0.942894  0.897686  1
  O  O28  1  0.541251  0.841673  0.432728  1
  O  O29  1  0.983927  0.282023  0.230944  1
  O  O30  1  0.546349  0.205408  0.775012  1
  O  O31  1  0.856875  0.639109  0.048301  1
  O  O32  1  0.016073  0.282023  0.730944  1
  O  O33  1  0.143125  0.360891  0.951699  1
  O  O34  1  0.983927  0.717977  0.269056  1
  O  O35  1  0.649720  0.510417  0.612739  1
