# generated using pymatgen
data_YbDy5Y4Tl3Ru
_symmetry_space_group_name_H-M   'P 1'
_cell_length_a   9.80840801
_cell_length_b   9.80842417
_cell_length_c   9.77942302
_cell_angle_alpha   89.95180487
_cell_angle_beta   90.04817113
_cell_angle_gamma   120.02779815
_symmetry_Int_Tables_number   1
_chemical_formula_structural   YbDy5Y4Tl3Ru
_chemical_formula_sum   'Yb2 Dy10 Y8 Tl6 Ru2'
_cell_volume   814.55366468
_cell_formula_units_Z   2
loop_
 _symmetry_equiv_pos_site_id
 _symmetry_equiv_pos_as_xyz
  1  'x, y, z'
loop_
 _atom_site_type_symbol
 _atom_site_label
 _atom_site_symmetry_multiplicity
 _atom_site_fract_x
 _atom_site_fract_y
 _atom_site_fract_z
 _atom_site_occupancy
  Yb  Yb0  1  0.999902  0.000098  0.500151  1
  Yb  Yb1  1  0.000262  0.999738  0.999819  1
  Dy  Dy2  1  0.210029  0.789971  0.435872  1
  Dy  Dy3  1  0.210799  0.421323  0.435720  1
  Dy  Dy4  1  0.578677  0.789202  0.435719  1
  Dy  Dy5  1  0.789685  0.210315  0.564371  1
  Dy  Dy6  1  0.789783  0.579394  0.564298  1
  Dy  Dy7  1  0.420606  0.210216  0.564298  1
  Dy  Dy8  1  0.789573  0.210428  0.935715  1
  Dy  Dy9  1  0.789868  0.579021  0.935720  1
  Dy  Dy10  1  0.420979  0.210132  0.935720  1
  Dy  Dy11  1  0.210486  0.789515  0.064407  1
  Y  Y12  1  0.209725  0.419291  0.063744  1
  Y  Y13  1  0.580709  0.790274  0.063744  1
  Y  Y14  1  0.539880  0.460120  0.250380  1
  Y  Y15  1  0.539201  0.078545  0.250589  1
  Y  Y16  1  0.921456  0.460799  0.250589  1
  Y  Y17  1  0.460896  0.539103  0.749236  1
  Y  Y18  1  0.460596  0.921317  0.749540  1
  Y  Y19  1  0.078683  0.539404  0.749541  1
  Tl  Tl20  1  0.881865  0.118136  0.249572  1
  Tl  Tl21  1  0.881541  0.763790  0.249768  1
  Tl  Tl22  1  0.236211  0.118459  0.249768  1
  Tl  Tl23  1  0.118067  0.881932  0.750276  1
  Tl  Tl24  1  0.117986  0.236348  0.750309  1
  Tl  Tl25  1  0.763652  0.882013  0.750309  1
  Ru  Ru26  1  0.332261  0.667740  0.250894  1
  Ru  Ru27  1  0.666623  0.333376  0.749927  1
