# generated using pymatgen
data_Dy16ZnIn3Ir3Rh
_symmetry_space_group_name_H-M   'P 1'
_cell_length_a   9.63978243
_cell_length_b   9.61539795
_cell_length_c   9.64875297
_cell_angle_alpha   59.99623323
_cell_angle_beta   60.03074873
_cell_angle_gamma   59.91607909
_symmetry_Int_Tables_number   1
_chemical_formula_structural   Dy16ZnIn3Ir3Rh
_chemical_formula_sum   'Dy16 Zn1 In3 Ir3 Rh1'
_cell_volume   632.12479021
_cell_formula_units_Z   1
loop_
 _symmetry_equiv_pos_site_id
 _symmetry_equiv_pos_as_xyz
  1  'x, y, z'
loop_
 _atom_site_type_symbol
 _atom_site_label
 _atom_site_symmetry_multiplicity
 _atom_site_fract_x
 _atom_site_fract_y
 _atom_site_fract_z
 _atom_site_occupancy
  Dy  Dy0  1  0.689876  0.310458  0.309789  1
  Dy  Dy1  1  0.689519  0.689846  0.311977  1
  Dy  Dy2  1  0.308658  0.689846  0.311977  1
  Dy  Dy3  1  0.936998  0.938629  0.556420  1
  Dy  Dy4  1  0.150270  0.148914  0.550546  1
  Dy  Dy5  1  0.567952  0.938629  0.556420  1
  Dy  Dy6  1  0.151104  0.149662  0.149884  1
  Dy  Dy7  1  0.307646  0.310834  0.691224  1
  Dy  Dy8  1  0.939772  0.565338  0.555117  1
  Dy  Dy9  1  0.561572  0.561496  0.937115  1
  Dy  Dy10  1  0.563385  0.939068  0.934160  1
  Dy  Dy11  1  0.939816  0.561496  0.937115  1
  Dy  Dy12  1  0.149638  0.551887  0.148834  1
  Dy  Dy13  1  0.309342  0.690194  0.691121  1
  Dy  Dy14  1  0.690297  0.310834  0.691224  1
  Dy  Dy15  1  0.549349  0.149662  0.149884  1
  Zn  Zn16  1  0.915864  0.916954  0.251318  1
  In  In17  1  0.244809  0.917126  0.921795  1
  In  In18  1  0.916578  0.244597  0.922247  1
  In  In19  1  0.916270  0.917126  0.921795  1
  Ir  Ir20  1  0.357942  0.357507  0.357806  1
  Ir  Ir21  1  0.926746  0.357507  0.357806  1
  Ir  Ir22  1  0.358249  0.357482  0.926019  1
  Rh  Rh23  1  0.358345  0.924907  0.358406  1
