# generated using pymatgen
data_Nb12AlGa7(CuC)4
_symmetry_space_group_name_H-M   'P 1'
_cell_length_a   8.31294961
_cell_length_b   8.31295031
_cell_length_c   8.31294909
_cell_angle_alpha   60.04789905
_cell_angle_beta   60.04789756
_cell_angle_gamma   60.04789952
_symmetry_Int_Tables_number   1
_chemical_formula_structural   Nb12AlGa7(CuC)4
_chemical_formula_sum   'Nb12 Al1 Ga7 Cu4 C4'
_cell_volume   406.65085883
_cell_formula_units_Z   1
loop_
 _symmetry_equiv_pos_site_id
 _symmetry_equiv_pos_as_xyz
  1  'x, y, z'
loop_
 _atom_site_type_symbol
 _atom_site_label
 _atom_site_symmetry_multiplicity
 _atom_site_fract_x
 _atom_site_fract_y
 _atom_site_fract_z
 _atom_site_occupancy
  Nb  Nb0  1  0.566285  0.934011  0.566285  1
  Nb  Nb1  1  0.315967  0.683648  0.683648  1
  Nb  Nb2  1  0.684575  0.315793  0.315793  1
  Nb  Nb3  1  0.315793  0.684575  0.315793  1
  Nb  Nb4  1  0.683648  0.683648  0.315967  1
  Nb  Nb5  1  0.315793  0.315793  0.684575  1
  Nb  Nb6  1  0.566285  0.566285  0.934011  1
  Nb  Nb7  1  0.934011  0.566285  0.566285  1
  Nb  Nb8  1  0.565563  0.934047  0.934047  1
  Nb  Nb9  1  0.934047  0.934047  0.565563  1
  Nb  Nb10  1  0.683648  0.315967  0.683648  1
  Nb  Nb11  1  0.934047  0.565563  0.934047  1
  Al  Al12  1  0.333493  0.333493  0.333493  1
  Ga  Ga13  1  0.915215  0.915215  0.915215  1
  Ga  Ga14  1  0.996039  0.334774  0.334774  1
  Ga  Ga15  1  0.334774  0.996039  0.334774  1
  Ga  Ga16  1  0.334774  0.334774  0.996039  1
  Ga  Ga17  1  0.915187  0.254499  0.915187  1
  Ga  Ga18  1  0.915187  0.915187  0.254499  1
  Ga  Ga19  1  0.254499  0.915187  0.915187  1
  Cu  Cu20  1  0.124884  0.124884  0.124884  1
  Cu  Cu21  1  0.624181  0.125983  0.125983  1
  Cu  Cu22  1  0.125983  0.624181  0.125983  1
  Cu  Cu23  1  0.125983  0.125983  0.624181  1
  C  C24  1  0.624857  0.624857  0.624857  1
  C  C25  1  0.124972  0.625155  0.625155  1
  C  C26  1  0.625155  0.124972  0.625155  1
  C  C27  1  0.625155  0.625155  0.124972  1
