# generated using pymatgen
data_EuDy5(AuO7)2
_symmetry_space_group_name_H-M   'P 1'
_cell_length_a   6.52448445
_cell_length_b   6.52448463
_cell_length_c   7.50101600
_cell_angle_alpha   90.03817386
_cell_angle_beta   89.96183492
_cell_angle_gamma   108.78426632
_symmetry_Int_Tables_number   1
_chemical_formula_structural   EuDy5(AuO7)2
_chemical_formula_sum   'Eu1 Dy5 Au2 O14'
_cell_volume   302.30270924
_cell_formula_units_Z   1
loop_
 _symmetry_equiv_pos_site_id
 _symmetry_equiv_pos_as_xyz
  1  'x, y, z'
loop_
 _atom_site_type_symbol
 _atom_site_label
 _atom_site_symmetry_multiplicity
 _atom_site_fract_x
 _atom_site_fract_y
 _atom_site_fract_z
 _atom_site_occupancy
  Eu  Eu0  1  0.500000  0.500000  0.000000  1
  Dy  Dy1  1  0.001983  0.471098  0.748600  1
  Dy  Dy2  1  0.998017  0.528902  0.251400  1
  Dy  Dy3  1  0.471098  0.001983  0.251400  1
  Dy  Dy4  1  0.528902  0.998017  0.748600  1
  Dy  Dy5  1  0.500000  0.500000  0.500000  1
  Au  Au6  1  0.000000  0.000000  0.000000  1
  Au  Au7  1  0.000000  0.000000  0.500000  1
  O  O8  1  0.080863  0.329231  0.475633  1
  O  O9  1  0.920855  0.079145  0.749812  1
  O  O10  1  0.074732  0.328600  0.023983  1
  O  O11  1  0.919137  0.670769  0.524367  1
  O  O12  1  0.638701  0.361299  0.744318  1
  O  O13  1  0.670769  0.919137  0.475633  1
  O  O14  1  0.329231  0.080863  0.524367  1
  O  O15  1  0.328600  0.074732  0.976017  1
  O  O16  1  0.671400  0.925268  0.023983  1
  O  O17  1  0.925268  0.671400  0.976017  1
  O  O18  1  0.633209  0.366791  0.255392  1
  O  O19  1  0.361299  0.638701  0.255682  1
  O  O20  1  0.366791  0.633209  0.744608  1
  O  O21  1  0.079145  0.920855  0.250188  1
