# generated using pymatgen
data_La6Sm2GePd24
_symmetry_space_group_name_H-M   'P 1'
_cell_length_a   8.52116207
_cell_length_b   8.52116207
_cell_length_c   8.52116207
_cell_angle_alpha   90.01063678
_cell_angle_beta   89.98936322
_cell_angle_gamma   89.98936322
_symmetry_Int_Tables_number   1
_chemical_formula_structural   La6Sm2GePd24
_chemical_formula_sum   'La6 Sm2 Ge1 Pd24'
_cell_volume   618.72327665
_cell_formula_units_Z   1
loop_
 _symmetry_equiv_pos_site_id
 _symmetry_equiv_pos_as_xyz
  1  'x, y, z'
loop_
 _atom_site_type_symbol
 _atom_site_label
 _atom_site_symmetry_multiplicity
 _atom_site_fract_x
 _atom_site_fract_y
 _atom_site_fract_z
 _atom_site_occupancy
  La  La0  1  0.253472  0.253305  0.253305  1
  La  La1  1  0.746528  0.746695  0.746695  1
  La  La2  1  0.746695  0.746528  0.253305  1
  La  La3  1  0.746695  0.253305  0.746528  1
  La  La4  1  0.253305  0.253472  0.746695  1
  La  La5  1  0.253305  0.746695  0.253472  1
  Sm  Sm6  1  0.253122  0.746878  0.746878  1
  Sm  Sm7  1  0.746878  0.253122  0.253122  1
  Ge  Ge8  1  0.000000  0.000000  0.000000  1
  Pd  Pd9  1  0.259825  0.500607  0.999383  1
  Pd  Pd10  1  0.740175  0.499393  0.000617  1
  Pd  Pd11  1  0.999383  0.259825  0.499393  1
  Pd  Pd12  1  0.500607  0.259825  0.000617  1
  Pd  Pd13  1  0.000617  0.740175  0.500607  1
  Pd  Pd14  1  0.499393  0.740175  0.999383  1
  Pd  Pd15  1  0.500607  0.000617  0.259825  1
  Pd  Pd16  1  0.259825  0.999383  0.500607  1
  Pd  Pd17  1  0.499393  0.999383  0.740175  1
  Pd  Pd18  1  0.740175  0.000617  0.499393  1
  Pd  Pd19  1  0.999383  0.499393  0.259825  1
  Pd  Pd20  1  0.000617  0.500607  0.740175  1
  Pd  Pd21  1  0.253254  0.500648  0.500648  1
  Pd  Pd22  1  0.746746  0.499352  0.499352  1
  Pd  Pd23  1  0.500648  0.253254  0.499352  1
  Pd  Pd24  1  0.499352  0.746746  0.500648  1
  Pd  Pd25  1  0.500648  0.499352  0.253254  1
  Pd  Pd26  1  0.499352  0.500648  0.746746  1
  Pd  Pd27  1  0.290449  0.999280  0.999280  1
  Pd  Pd28  1  0.709551  0.000720  0.000720  1
  Pd  Pd29  1  0.999280  0.290449  0.000720  1
  Pd  Pd30  1  0.000720  0.709551  0.999280  1
  Pd  Pd31  1  0.999280  0.000720  0.290449  1
  Pd  Pd32  1  0.000720  0.999280  0.709551  1
