# generated using pymatgen
data_Tb3Yb3Si24Os5Ru3
_symmetry_space_group_name_H-M   'P 1'
_cell_length_a   10.15146101
_cell_length_b   10.15133728
_cell_length_c   8.15091733
_cell_angle_alpha   89.93661590
_cell_angle_beta   90.03093812
_cell_angle_gamma   132.65164025
_symmetry_Int_Tables_number   1
_chemical_formula_structural   Tb3Yb3Si24Os5Ru3
_chemical_formula_sum   'Tb3 Yb3 Si24 Os5 Ru3'
_cell_volume   617.77858829
_cell_formula_units_Z   1
loop_
 _symmetry_equiv_pos_site_id
 _symmetry_equiv_pos_as_xyz
  1  'x, y, z'
loop_
 _atom_site_type_symbol
 _atom_site_label
 _atom_site_symmetry_multiplicity
 _atom_site_fract_x
 _atom_site_fract_y
 _atom_site_fract_z
 _atom_site_occupancy
  Tb  Tb0  1  0.000256  0.500630  0.249995  1
  Tb  Tb1  1  0.500054  0.999654  0.250041  1
  Tb  Tb2  1  0.000206  0.500284  0.750049  1
  Yb  Yb3  1  0.499736  0.499715  0.500233  1
  Yb  Yb4  1  0.000049  0.000064  0.999268  1
  Yb  Yb5  1  0.500806  0.000788  0.750084  1
  Si  Si6  1  0.795200  0.202304  0.501274  1
  Si  Si7  1  0.298220  0.705616  0.998109  1
  Si  Si8  1  0.205553  0.798174  0.502012  1
  Si  Si9  1  0.702248  0.295143  0.998838  1
  Si  Si10  1  0.333175  0.334330  0.832299  1
  Si  Si11  1  0.666288  0.668344  0.167636  1
  Si  Si12  1  0.167567  0.165447  0.330487  1
  Si  Si13  1  0.832356  0.831182  0.667295  1
  Si  Si14  1  0.122261  0.889828  0.730882  1
  Si  Si15  1  0.109727  0.878736  0.270357  1
  Si  Si16  1  0.608381  0.377281  0.229679  1
  Si  Si17  1  0.622981  0.390650  0.769798  1
  Si  Si18  1  0.878186  0.109247  0.270265  1
  Si  Si19  1  0.889844  0.122275  0.730740  1
  Si  Si20  1  0.390392  0.622759  0.769675  1
  Si  Si21  1  0.377787  0.608807  0.229531  1
  Si  Si22  1  0.346795  0.114153  0.506057  1
  Si  Si23  1  0.885888  0.654417  0.494289  1
  Si  Si24  1  0.385998  0.153351  0.006723  1
  Si  Si25  1  0.845394  0.614109  0.992454  1
  Si  Si26  1  0.653302  0.885462  0.494455  1
  Si  Si27  1  0.114187  0.345949  0.507362  1
  Si  Si28  1  0.614043  0.846235  0.993819  1
  Si  Si29  1  0.154487  0.386455  0.006871  1
  Os  Os30  1  0.671932  0.329337  0.498873  1
  Os  Os31  1  0.169862  0.827648  0.001273  1
  Os  Os32  1  0.327781  0.669815  0.498700  1
  Os  Os33  1  0.829270  0.172008  0.001101  1
  Os  Os34  1  0.126188  0.126258  0.625461  1
  Ru  Ru35  1  0.873326  0.873887  0.374544  1
  Ru  Ru36  1  0.374155  0.373625  0.124927  1
  Ru  Ru37  1  0.626125  0.626037  0.874543  1
