# generated using pymatgen
data_Pa4V3ReC8
_symmetry_space_group_name_H-M   'P 1'
_cell_length_a   3.31239100
_cell_length_b   5.65995484
_cell_length_c   10.83110452
_cell_angle_alpha   90.09241242
_cell_angle_beta   90.00000000
_cell_angle_gamma   90.00000000
_symmetry_Int_Tables_number   1
_chemical_formula_structural   Pa4V3ReC8
_chemical_formula_sum   'Pa4 V3 Re1 C8'
_cell_volume   203.06110446
_cell_formula_units_Z   1
loop_
 _symmetry_equiv_pos_site_id
 _symmetry_equiv_pos_as_xyz
  1  'x, y, z'
loop_
 _atom_site_type_symbol
 _atom_site_label
 _atom_site_symmetry_multiplicity
 _atom_site_fract_x
 _atom_site_fract_y
 _atom_site_fract_z
 _atom_site_occupancy
  Pa  Pa0  1  0.250000  0.082459  0.860738  1
  Pa  Pa1  1  0.750000  0.918043  0.142321  1
  Pa  Pa2  1  0.250000  0.581864  0.642092  1
  Pa  Pa3  1  0.750000  0.419794  0.357064  1
  V  V4  1  0.750000  0.579061  0.899559  1
  V  V5  1  0.250000  0.918172  0.398732  1
  V  V6  1  0.250000  0.418129  0.101486  1
  Re  Re7  1  0.750000  0.080088  0.600923  1
  C  C8  1  0.250000  0.724974  0.987765  1
  C  C9  1  0.750000  0.274888  0.012866  1
  C  C10  1  0.250000  0.231465  0.508499  1
  C  C11  1  0.750000  0.766364  0.486840  1
  C  C12  1  0.250000  0.165687  0.245981  1
  C  C13  1  0.750000  0.337115  0.749208  1
  C  C14  1  0.250000  0.666899  0.252489  1
  C  C15  1  0.750000  0.834999  0.753438  1
