# generated using pymatgen
data_Ho12FeCoI17
_symmetry_space_group_name_H-M   'P 1'
_cell_length_a   9.72246995
_cell_length_b   11.62723576
_cell_length_c   11.65711573
_cell_angle_alpha   93.27291668
_cell_angle_beta   105.01625629
_cell_angle_gamma   114.22381704
_symmetry_Int_Tables_number   1
_chemical_formula_structural   Ho12FeCoI17
_chemical_formula_sum   'Ho12 Fe1 Co1 I17'
_cell_volume   1140.56832765
_cell_formula_units_Z   1
loop_
 _symmetry_equiv_pos_site_id
 _symmetry_equiv_pos_as_xyz
  1  'x, y, z'
loop_
 _atom_site_type_symbol
 _atom_site_label
 _atom_site_symmetry_multiplicity
 _atom_site_fract_x
 _atom_site_fract_y
 _atom_site_fract_z
 _atom_site_occupancy
  Ho  Ho0  1  0.049502  0.498943  0.318240  1
  Ho  Ho1  1  0.993401  0.808684  0.589028  1
  Ho  Ho2  1  0.656274  0.241965  0.281013  1
  Ho  Ho3  1  0.006226  0.192016  0.408710  1
  Ho  Ho4  1  0.218117  0.671359  0.981574  1
  Ho  Ho5  1  0.253279  0.975840  0.888268  1
  Ho  Ho6  1  0.345190  0.758025  0.718674  1
  Ho  Ho7  1  0.948832  0.498726  0.680364  1
  Ho  Ho8  1  0.748588  0.026190  0.113351  1
  Ho  Ho9  1  0.140937  0.286294  0.154547  1
  Ho  Ho10  1  0.782522  0.327726  0.020124  1
  Ho  Ho11  1  0.857921  0.713451  0.846298  1
  Fe  Fe12  1  0.895398  0.262033  0.214355  1
  Co  Co13  1  0.104058  0.737889  0.785231  1
  I  I14  1  0.784768  0.530301  0.419030  1
  I  I15  1  0.645675  0.420291  0.761753  1
  I  I16  1  0.844613  0.894752  0.328777  1
  I  I17  1  0.328576  0.213539  0.369047  1
  I  I18  1  0.156077  0.103103  0.673612  1
  I  I19  1  0.583532  0.052421  0.842034  1
  I  I20  1  0.759291  0.189467  0.540505  1
  I  I21  1  0.551186  0.710323  0.953735  1
  I  I22  1  0.355388  0.581955  0.236604  1
  I  I23  1  0.216136  0.471633  0.583820  1
  I  I24  1  0.056748  0.368795  0.895982  1
  I  I25  1  0.446487  0.287637  0.044211  1
  I  I26  1  0.999857  0.998819  0.998836  1
  I  I27  1  0.242198  0.812498  0.461914  1
  I  I28  1  0.412169  0.944826  0.155514  1
  I  I29  1  0.671869  0.786518  0.632046  1
  I  I30  1  0.945187  0.633983  0.102801  1
