# generated using pymatgen
data_Ce3CdNi(SnIr)2
_symmetry_space_group_name_H-M   'P 1'
_cell_length_a   7.50444813
_cell_length_b   7.50688775
_cell_length_c   3.98815700
_cell_angle_alpha   90.00000000
_cell_angle_beta   90.00000000
_cell_angle_gamma   120.01074988
_symmetry_Int_Tables_number   1
_chemical_formula_structural   Ce3CdNi(SnIr)2
_chemical_formula_sum   'Ce3 Cd1 Ni1 Sn2 Ir2'
_cell_volume   194.55146540
_cell_formula_units_Z   1
loop_
 _symmetry_equiv_pos_site_id
 _symmetry_equiv_pos_as_xyz
  1  'x, y, z'
loop_
 _atom_site_type_symbol
 _atom_site_label
 _atom_site_symmetry_multiplicity
 _atom_site_fract_x
 _atom_site_fract_y
 _atom_site_fract_z
 _atom_site_occupancy
  Ce  Ce0  1  0.415084  0.416660  0.000000  1
  Ce  Ce1  1  0.584916  0.001576  0.000000  1
  Ce  Ce2  1  0.000000  0.583689  0.000000  1
  Cd  Cd3  1  0.000000  0.244913  0.500000  1
  Ni  Ni4  1  0.000000  0.983985  0.000000  1
  Sn  Sn5  1  0.755347  0.757221  0.500000  1
  Sn  Sn6  1  0.244653  0.001874  0.500000  1
  Ir  Ir7  1  0.661859  0.335970  0.500000  1
  Ir  Ir8  1  0.338141  0.674112  0.500000  1
