# generated using pymatgen
data_MgFe4P3Ru
_symmetry_space_group_name_H-M   'P 1'
_cell_length_a   3.65451100
_cell_length_b   10.26434700
_cell_length_c   11.72568000
_cell_angle_alpha   90.00000000
_cell_angle_beta   90.00000000
_cell_angle_gamma   90.00000000
_symmetry_Int_Tables_number   1
_chemical_formula_structural   MgFe4P3Ru
_chemical_formula_sum   'Mg4 Fe16 P12 Ru4'
_cell_volume   439.84396435
_cell_formula_units_Z   4
loop_
 _symmetry_equiv_pos_site_id
 _symmetry_equiv_pos_as_xyz
  1  'x, y, z'
loop_
 _atom_site_type_symbol
 _atom_site_label
 _atom_site_symmetry_multiplicity
 _atom_site_fract_x
 _atom_site_fract_y
 _atom_site_fract_z
 _atom_site_occupancy
  Mg  Mg0  1  0.250000  0.578766  0.703550  1
  Mg  Mg1  1  0.250000  0.921234  0.203550  1
  Mg  Mg2  1  0.750000  0.421234  0.296450  1
  Mg  Mg3  1  0.750000  0.078766  0.796450  1
  Fe  Fe4  1  0.250000  0.407788  0.487649  1
  Fe  Fe5  1  0.250000  0.092213  0.987649  1
  Fe  Fe6  1  0.750000  0.592212  0.512351  1
  Fe  Fe7  1  0.750000  0.907788  0.012351  1
  Fe  Fe8  1  0.250000  0.218701  0.178167  1
  Fe  Fe9  1  0.250000  0.281299  0.678167  1
  Fe  Fe10  1  0.750000  0.781299  0.821833  1
  Fe  Fe11  1  0.750000  0.718701  0.321833  1
  Fe  Fe12  1  0.250000  0.875279  0.705393  1
  Fe  Fe13  1  0.250000  0.624721  0.205393  1
  Fe  Fe14  1  0.750000  0.124721  0.294607  1
  Fe  Fe15  1  0.750000  0.375279  0.794607  1
  Fe  Fe16  1  0.250000  0.462855  0.929737  1
  Fe  Fe17  1  0.250000  0.037145  0.429737  1
  Fe  Fe18  1  0.750000  0.537145  0.070263  1
  Fe  Fe19  1  0.750000  0.962855  0.570263  1
  P  P20  1  0.250000  0.422699  0.115598  1
  P  P21  1  0.250000  0.077301  0.615598  1
  P  P22  1  0.750000  0.577301  0.884402  1
  P  P23  1  0.750000  0.922699  0.384402  1
  P  P24  1  0.250000  0.259052  0.868993  1
  P  P25  1  0.250000  0.240948  0.368993  1
  P  P26  1  0.750000  0.740948  0.131007  1
  P  P27  1  0.750000  0.759052  0.631007  1
  P  P28  1  0.250000  0.593330  0.394870  1
  P  P29  1  0.250000  0.906670  0.894870  1
  P  P30  1  0.750000  0.406670  0.605130  1
  P  P31  1  0.750000  0.093330  0.105130  1
  Ru  Ru32  1  0.250000  0.707591  0.987128  1
  Ru  Ru33  1  0.250000  0.792409  0.487128  1
  Ru  Ru34  1  0.750000  0.292409  0.012872  1
  Ru  Ru35  1  0.750000  0.207591  0.512872  1
