# generated using pymatgen
data_Y10In5Hg3Pd4
_symmetry_space_group_name_H-M   'P 1'
_cell_length_a   3.63335600
_cell_length_b   8.10119855
_cell_length_c   18.36383732
_cell_angle_alpha   89.94389383
_cell_angle_beta   90.00000000
_cell_angle_gamma   90.00000000
_symmetry_Int_Tables_number   1
_chemical_formula_structural   Y10In5Hg3Pd4
_chemical_formula_sum   'Y10 In5 Hg3 Pd4'
_cell_volume   540.53081485
_cell_formula_units_Z   1
loop_
 _symmetry_equiv_pos_site_id
 _symmetry_equiv_pos_as_xyz
  1  'x, y, z'
loop_
 _atom_site_type_symbol
 _atom_site_label
 _atom_site_symmetry_multiplicity
 _atom_site_fract_x
 _atom_site_fract_y
 _atom_site_fract_z
 _atom_site_occupancy
  Y  Y0  1  0.000000  0.503099  0.497811  1
  Y  Y1  1  0.000000  0.000026  0.000422  1
  Y  Y2  1  0.000000  0.743772  0.284780  1
  Y  Y3  1  0.000000  0.256718  0.719079  1
  Y  Y4  1  0.000000  0.756361  0.783842  1
  Y  Y5  1  0.000000  0.243637  0.215121  1
  Y  Y6  1  0.000000  0.610563  0.083756  1
  Y  Y7  1  0.000000  0.391400  0.917444  1
  Y  Y8  1  0.000000  0.882927  0.583409  1
  Y  Y9  1  0.000000  0.110260  0.415878  1
  In  In10  1  0.500000  0.209928  0.567318  1
  In  In11  1  0.500000  0.577313  0.649280  1
  In  In12  1  0.500000  0.417449  0.349996  1
  In  In13  1  0.500000  0.919434  0.149163  1
  In  In14  1  0.500000  0.081198  0.851544  1
  Hg  Hg15  1  0.500000  0.713033  0.933474  1
  Hg  Hg16  1  0.500000  0.289075  0.065882  1
  Hg  Hg17  1  0.500000  0.789576  0.433183  1
  Pd  Pd18  1  0.500000  0.530525  0.198221  1
  Pd  Pd19  1  0.500000  0.471291  0.802498  1
  Pd  Pd20  1  0.500000  0.972213  0.696648  1
  Pd  Pd21  1  0.500000  0.030201  0.301250  1
