# generated using pymatgen
data_Hf2TiNbP2
_symmetry_space_group_name_H-M   'P 1'
_cell_length_a   3.52546100
_cell_length_b   6.80767100
_cell_length_c   8.27086500
_cell_angle_alpha   90.00000000
_cell_angle_beta   90.00000000
_cell_angle_gamma   90.00000000
_symmetry_Int_Tables_number   1
_chemical_formula_structural   Hf2TiNbP2
_chemical_formula_sum   'Hf4 Ti2 Nb2 P4'
_cell_volume   198.50223727
_cell_formula_units_Z   2
loop_
 _symmetry_equiv_pos_site_id
 _symmetry_equiv_pos_as_xyz
  1  'x, y, z'
loop_
 _atom_site_type_symbol
 _atom_site_label
 _atom_site_symmetry_multiplicity
 _atom_site_fract_x
 _atom_site_fract_y
 _atom_site_fract_z
 _atom_site_occupancy
  Hf  Hf0  1  0.250000  0.032891  0.667638  1
  Hf  Hf1  1  0.250000  0.534927  0.832749  1
  Hf  Hf2  1  0.750000  0.467109  0.167638  1
  Hf  Hf3  1  0.750000  0.965073  0.332749  1
  Ti  Ti4  1  0.750000  0.862111  0.940737  1
  Ti  Ti5  1  0.250000  0.637889  0.440737  1
  Nb  Nb6  1  0.750000  0.361665  0.559734  1
  Nb  Nb7  1  0.250000  0.138335  0.059734  1
  P  P8  1  0.250000  0.264485  0.356900  1
  P  P9  1  0.250000  0.761704  0.142243  1
  P  P10  1  0.750000  0.738296  0.642243  1
  P  P11  1  0.750000  0.235515  0.856900  1
