# generated using pymatgen
data_Sc3In3IrPt
_symmetry_space_group_name_H-M   'P 1'
_cell_length_a   7.59376200
_cell_length_b   7.59376217
_cell_length_c   3.27032200
_cell_angle_alpha   90.00000000
_cell_angle_beta   90.00000000
_cell_angle_gamma   119.99999925
_symmetry_Int_Tables_number   1
_chemical_formula_structural   Sc3In3IrPt
_chemical_formula_sum   'Sc3 In3 Ir1 Pt1'
_cell_volume   163.31840273
_cell_formula_units_Z   1
loop_
 _symmetry_equiv_pos_site_id
 _symmetry_equiv_pos_as_xyz
  1  'x, y, z'
loop_
 _atom_site_type_symbol
 _atom_site_label
 _atom_site_symmetry_multiplicity
 _atom_site_fract_x
 _atom_site_fract_y
 _atom_site_fract_z
 _atom_site_occupancy
  Sc  Sc0  1  0.580826  0.004691  0.500001  1
  Sc  Sc1  1  0.423865  0.419174  0.500001  1
  Sc  Sc2  1  0.995309  0.576135  0.500001  1
  In  In3  1  0.235178  0.002033  0.000000  1
  In  In4  1  0.997967  0.233144  0.000000  1
  In  In5  1  0.766856  0.764822  0.000000  1
  Ir  Ir6  1  0.666667  0.333333  0.000000  1
  Pt  Pt7  1  0.333333  0.666667  0.000000  1
