# generated using pymatgen
data_Ho8Ge(PdPt)12
_symmetry_space_group_name_H-M   'P 1'
_cell_length_a   8.33276001
_cell_length_b   8.33091700
_cell_length_c   8.33846201
_cell_angle_alpha   90.00000000
_cell_angle_beta   89.99560776
_cell_angle_gamma   90.00000000
_symmetry_Int_Tables_number   1
_chemical_formula_structural   Ho8Ge(PdPt)12
_chemical_formula_sum   'Ho8 Ge1 Pd12 Pt12'
_cell_volume   578.85212830
_cell_formula_units_Z   1
loop_
 _symmetry_equiv_pos_site_id
 _symmetry_equiv_pos_as_xyz
  1  'x, y, z'
loop_
 _atom_site_type_symbol
 _atom_site_label
 _atom_site_symmetry_multiplicity
 _atom_site_fract_x
 _atom_site_fract_y
 _atom_site_fract_z
 _atom_site_occupancy
  Ho  Ho0  1  0.253768  0.253589  0.253691  1
  Ho  Ho1  1  0.746280  0.745996  0.746386  1
  Ho  Ho2  1  0.746221  0.746233  0.253616  1
  Ho  Ho3  1  0.746280  0.254004  0.746386  1
  Ho  Ho4  1  0.253727  0.253746  0.746292  1
  Ho  Ho5  1  0.253768  0.746411  0.253691  1
  Ho  Ho6  1  0.253727  0.746254  0.746292  1
  Ho  Ho7  1  0.746221  0.253767  0.253616  1
  Ge  Ge8  1  0.000130  0.000000  0.000157  1
  Pd  Pd9  1  0.500085  0.000000  0.741061  1
  Pd  Pd10  1  0.740860  0.000000  0.500077  1
  Pd  Pd11  1  0.999956  0.500000  0.258912  1
  Pd  Pd12  1  0.999954  0.500000  0.741151  1
  Pd  Pd13  1  0.500070  0.500000  0.252843  1
  Pd  Pd14  1  0.500051  0.500000  0.747129  1
  Pd  Pd15  1  0.288410  0.000000  0.999827  1
  Pd  Pd16  1  0.711568  0.000000  0.999861  1
  Pd  Pd17  1  0.999973  0.288675  0.999954  1
  Pd  Pd18  1  0.999973  0.711325  0.999954  1
  Pd  Pd19  1  0.999826  0.000000  0.288159  1
  Pd  Pd20  1  0.999851  0.000000  0.711811  1
  Pt  Pt21  1  0.259086  0.500000  0.999943  1
  Pt  Pt22  1  0.740961  0.500000  0.999924  1
  Pt  Pt23  1  0.000076  0.259236  0.500058  1
  Pt  Pt24  1  0.500049  0.259107  0.000099  1
  Pt  Pt25  1  0.000076  0.740764  0.500058  1
  Pt  Pt26  1  0.500049  0.740893  0.000099  1
  Pt  Pt27  1  0.500015  0.000000  0.258943  1
  Pt  Pt28  1  0.259150  0.000000  0.500040  1
  Pt  Pt29  1  0.252726  0.500000  0.500082  1
  Pt  Pt30  1  0.747249  0.500000  0.500092  1
  Pt  Pt31  1  0.499932  0.252889  0.499899  1
  Pt  Pt32  1  0.499932  0.747111  0.499899  1
