# generated using pymatgen
data_CaTb5DyIrBr12
_symmetry_space_group_name_H-M   'P 1'
_cell_length_a   9.25239137
_cell_length_b   9.29775970
_cell_length_c   9.29418700
_cell_angle_alpha   106.80547677
_cell_angle_beta   106.95586544
_cell_angle_gamma   106.84113948
_symmetry_Int_Tables_number   1
_chemical_formula_structural   CaTb5DyIrBr12
_chemical_formula_sum   'Ca1 Tb5 Dy1 Ir1 Br12'
_cell_volume   668.26124777
_cell_formula_units_Z   1
loop_
 _symmetry_equiv_pos_site_id
 _symmetry_equiv_pos_as_xyz
  1  'x, y, z'
loop_
 _atom_site_type_symbol
 _atom_site_label
 _atom_site_symmetry_multiplicity
 _atom_site_fract_x
 _atom_site_fract_y
 _atom_site_fract_z
 _atom_site_occupancy
  Ca  Ca0  1  0.499833  0.499987  0.500116  1
  Tb  Tb1  1  0.102562  0.315888  0.025430  1
  Tb  Tb2  1  0.308262  0.023722  0.100998  1
  Tb  Tb3  1  0.975562  0.896124  0.683424  1
  Tb  Tb4  1  0.897491  0.684206  0.974492  1
  Tb  Tb5  1  0.692066  0.976479  0.899726  1
  Dy  Dy6  1  0.024535  0.103591  0.315148  1
  Ir  Ir7  1  0.000122  0.000033  0.999959  1
  Br  Br8  1  0.155575  0.454646  0.378278  1
  Br  Br9  1  0.454869  0.376632  0.156630  1
  Br  Br10  1  0.376211  0.156395  0.454865  1
  Br  Br11  1  0.843609  0.543991  0.621750  1
  Br  Br12  1  0.545160  0.623416  0.843644  1
  Br  Br13  1  0.622476  0.843489  0.545290  1
  Br  Br14  1  0.680138  0.071481  0.221254  1
  Br  Br15  1  0.072291  0.221414  0.678314  1
  Br  Br16  1  0.222437  0.680147  0.073121  1
  Br  Br17  1  0.321245  0.928859  0.779963  1
  Br  Br18  1  0.927878  0.779568  0.320447  1
  Br  Br19  1  0.777676  0.319930  0.927153  1
