# generated using pymatgen
data_Lu4Cd2Pd3Pt
_symmetry_space_group_name_H-M   'P 1'
_cell_length_a   7.74926680
_cell_length_b   7.74926680
_cell_length_c   3.55387400
_cell_angle_alpha   90.00000000
_cell_angle_beta   90.00000000
_cell_angle_gamma   90.12749705
_symmetry_Int_Tables_number   1
_chemical_formula_structural   Lu4Cd2Pd3Pt
_chemical_formula_sum   'Lu4 Cd2 Pd3 Pt1'
_cell_volume   213.41364210
_cell_formula_units_Z   1
loop_
 _symmetry_equiv_pos_site_id
 _symmetry_equiv_pos_as_xyz
  1  'x, y, z'
loop_
 _atom_site_type_symbol
 _atom_site_label
 _atom_site_symmetry_multiplicity
 _atom_site_fract_x
 _atom_site_fract_y
 _atom_site_fract_z
 _atom_site_occupancy
  Lu  Lu0  1  0.664660  0.164660  0.500000  1
  Lu  Lu1  1  0.330239  0.830239  0.500000  1
  Lu  Lu2  1  0.167658  0.338725  0.500000  1
  Lu  Lu3  1  0.838725  0.667658  0.500000  1
  Cd  Cd4  1  0.999502  0.003638  0.000000  1
  Cd  Cd5  1  0.503638  0.499502  0.000000  1
  Pd  Pd6  1  0.865487  0.365487  0.000000  1
  Pd  Pd7  1  0.631410  0.868295  0.000000  1
  Pd  Pd8  1  0.368295  0.131410  0.000000  1
  Pt  Pt9  1  0.130386  0.630386  0.000000  1
