# generated using pymatgen
data_LiCoP3Rh4
_symmetry_space_group_name_H-M   'P 1'
_cell_length_a   3.73694400
_cell_length_b   10.65143400
_cell_length_c   12.39028400
_cell_angle_alpha   90.00000000
_cell_angle_beta   90.00000000
_cell_angle_gamma   90.00000000
_symmetry_Int_Tables_number   1
_chemical_formula_structural   LiCoP3Rh4
_chemical_formula_sum   'Li4 Co4 P12 Rh16'
_cell_volume   493.18053964
_cell_formula_units_Z   4
loop_
 _symmetry_equiv_pos_site_id
 _symmetry_equiv_pos_as_xyz
  1  'x, y, z'
loop_
 _atom_site_type_symbol
 _atom_site_label
 _atom_site_symmetry_multiplicity
 _atom_site_fract_x
 _atom_site_fract_y
 _atom_site_fract_z
 _atom_site_occupancy
  Li  Li0  1  0.250000  0.585215  0.707975  1
  Li  Li1  1  0.250000  0.914785  0.207975  1
  Li  Li2  1  0.750000  0.414785  0.292025  1
  Li  Li3  1  0.750000  0.085215  0.792025  1
  Co  Co4  1  0.250000  0.464488  0.934154  1
  Co  Co5  1  0.250000  0.035512  0.434154  1
  Co  Co6  1  0.750000  0.535512  0.065846  1
  Co  Co7  1  0.750000  0.964488  0.565846  1
  P  P8  1  0.250000  0.424749  0.106635  1
  P  P9  1  0.250000  0.075251  0.606635  1
  P  P10  1  0.750000  0.575251  0.893365  1
  P  P11  1  0.750000  0.924749  0.393365  1
  P  P12  1  0.250000  0.269756  0.870916  1
  P  P13  1  0.250000  0.230244  0.370916  1
  P  P14  1  0.750000  0.730244  0.129084  1
  P  P15  1  0.750000  0.769756  0.629084  1
  P  P16  1  0.250000  0.599871  0.389430  1
  P  P17  1  0.250000  0.900129  0.889430  1
  P  P18  1  0.750000  0.400129  0.610570  1
  P  P19  1  0.750000  0.099871  0.110570  1
  Rh  Rh20  1  0.250000  0.713845  0.988200  1
  Rh  Rh21  1  0.250000  0.786155  0.488200  1
  Rh  Rh22  1  0.750000  0.286155  0.011800  1
  Rh  Rh23  1  0.750000  0.213845  0.511800  1
  Rh  Rh24  1  0.250000  0.408236  0.481306  1
  Rh  Rh25  1  0.250000  0.091764  0.981306  1
  Rh  Rh26  1  0.750000  0.591764  0.518694  1
  Rh  Rh27  1  0.750000  0.908236  0.018694  1
  Rh  Rh28  1  0.250000  0.231373  0.179743  1
  Rh  Rh29  1  0.250000  0.268627  0.679743  1
  Rh  Rh30  1  0.750000  0.768627  0.820257  1
  Rh  Rh31  1  0.750000  0.731373  0.320257  1
  Rh  Rh32  1  0.250000  0.889865  0.701805  1
  Rh  Rh33  1  0.250000  0.610135  0.201805  1
  Rh  Rh34  1  0.750000  0.110135  0.298195  1
  Rh  Rh35  1  0.750000  0.389865  0.798195  1
