# generated using pymatgen
data_Tb2HoTm2Pb3
_symmetry_space_group_name_H-M   'P 1'
_cell_length_a   6.56934500
_cell_length_b   9.03934875
_cell_length_c   9.04522326
_cell_angle_alpha   119.97851604
_cell_angle_beta   90.00034539
_cell_angle_gamma   89.99931370
_symmetry_Int_Tables_number   1
_chemical_formula_structural   Tb2HoTm2Pb3
_chemical_formula_sum   'Tb4 Ho2 Tm4 Pb6'
_cell_volume   465.26792430
_cell_formula_units_Z   2
loop_
 _symmetry_equiv_pos_site_id
 _symmetry_equiv_pos_as_xyz
  1  'x, y, z'
loop_
 _atom_site_type_symbol
 _atom_site_label
 _atom_site_symmetry_multiplicity
 _atom_site_fract_x
 _atom_site_fract_y
 _atom_site_fract_z
 _atom_site_occupancy
  Tb  Tb0  1  0.749999  0.238539  0.000000  1
  Tb  Tb1  1  0.750005  0.761243  0.761164  1
  Tb  Tb2  1  0.750005  0.000079  0.238836  1
  Tb  Tb3  1  0.250000  0.761524  0.000000  1
  Ho  Ho4  1  0.250000  0.238703  0.238541  1
  Ho  Ho5  1  0.250000  0.000162  0.761459  1
  Tm  Tm6  1  0.499905  0.333271  0.666666  1
  Tm  Tm7  1  0.499905  0.666605  0.333334  1
  Tm  Tm8  1  0.000087  0.666643  0.333336  1
  Tm  Tm9  1  0.000087  0.333307  0.666664  1
  Pb  Pb10  1  0.749997  0.604867  0.000000  1
  Pb  Pb11  1  0.750004  0.395143  0.395095  1
  Pb  Pb12  1  0.750004  0.000048  0.604905  1
  Pb  Pb13  1  0.249994  0.394482  0.000000  1
  Pb  Pb14  1  0.250004  0.605121  0.604857  1
  Pb  Pb15  1  0.250004  0.000264  0.395143  1
