# generated using pymatgen
data_Ce6Al24Os7Au
_symmetry_space_group_name_H-M   'P 1'
_cell_length_a   8.92010458
_cell_length_b   8.92010461
_cell_length_c   9.55054999
_cell_angle_alpha   89.92159143
_cell_angle_beta   90.07840892
_cell_angle_gamma   119.75438046
_symmetry_Int_Tables_number   1
_chemical_formula_structural   Ce6Al24Os7Au
_chemical_formula_sum   'Ce6 Al24 Os7 Au1'
_cell_volume   659.73259575
_cell_formula_units_Z   1
loop_
 _symmetry_equiv_pos_site_id
 _symmetry_equiv_pos_as_xyz
  1  'x, y, z'
loop_
 _atom_site_type_symbol
 _atom_site_label
 _atom_site_symmetry_multiplicity
 _atom_site_fract_x
 _atom_site_fract_y
 _atom_site_fract_z
 _atom_site_occupancy
  Ce  Ce0  1  0.189095  0.385772  0.252266  1
  Ce  Ce1  1  0.810905  0.614228  0.747734  1
  Ce  Ce2  1  0.614228  0.810905  0.252266  1
  Ce  Ce3  1  0.385772  0.189095  0.747734  1
  Ce  Ce4  1  0.194437  0.805563  0.255497  1
  Ce  Ce5  1  0.805563  0.194437  0.744503  1
  Al  Al6  1  0.329005  0.670995  0.025626  1
  Al  Al7  1  0.670995  0.329005  0.974374  1
  Al  Al8  1  0.666217  0.333783  0.518115  1
  Al  Al9  1  0.333783  0.666217  0.481885  1
  Al  Al10  1  0.162959  0.324925  0.576065  1
  Al  Al11  1  0.837041  0.675075  0.423935  1
  Al  Al12  1  0.675075  0.837041  0.576065  1
  Al  Al13  1  0.849119  0.678708  0.078455  1
  Al  Al14  1  0.324925  0.162959  0.423935  1
  Al  Al15  1  0.150881  0.321292  0.921545  1
  Al  Al16  1  0.163301  0.836699  0.577563  1
  Al  Al17  1  0.321292  0.150881  0.078455  1
  Al  Al18  1  0.836699  0.163301  0.422437  1
  Al  Al19  1  0.678708  0.849119  0.921545  1
  Al  Al20  1  0.836478  0.163522  0.077191  1
  Al  Al21  1  0.163522  0.836478  0.922809  1
  Al  Al22  1  0.562061  0.125394  0.249418  1
  Al  Al23  1  0.437939  0.874606  0.750582  1
  Al  Al24  1  0.874606  0.437939  0.249418  1
  Al  Al25  1  0.125394  0.562061  0.750582  1
  Al  Al26  1  0.563549  0.436451  0.255448  1
  Al  Al27  1  0.436451  0.563549  0.744552  1
  Al  Al28  1  0.999306  0.000694  0.250372  1
  Al  Al29  1  0.000694  0.999306  0.749628  1
  Os  Os30  1  0.500000  0.000000  0.000000  1
  Os  Os31  1  0.000000  0.500000  0.000000  1
  Os  Os32  1  0.500000  0.000000  0.500000  1
  Os  Os33  1  0.000000  0.500000  0.500000  1
  Os  Os34  1  0.500000  0.500000  0.500000  1
  Os  Os35  1  0.000000  0.000000  0.000000  1
  Os  Os36  1  0.000000  0.000000  0.500000  1
  Au  Au37  1  0.500000  0.500000  0.000000  1
