# generated using pymatgen
data_NaYbSbI6
_symmetry_space_group_name_H-M   'P 1'
_cell_length_a   7.76473100
_cell_length_b   7.76473049
_cell_length_c   7.71990200
_cell_angle_alpha   90.00000000
_cell_angle_beta   90.00000000
_cell_angle_gamma   119.99999791
_symmetry_Int_Tables_number   1
_chemical_formula_structural   NaYbSbI6
_chemical_formula_sum   'Na1 Yb1 Sb1 I6'
_cell_volume   403.08369312
_cell_formula_units_Z   1
loop_
 _symmetry_equiv_pos_site_id
 _symmetry_equiv_pos_as_xyz
  1  'x, y, z'
loop_
 _atom_site_type_symbol
 _atom_site_label
 _atom_site_symmetry_multiplicity
 _atom_site_fract_x
 _atom_site_fract_y
 _atom_site_fract_z
 _atom_site_occupancy
  Na  Na0  1  0.333333  0.666667  0.500000  1
  Yb  Yb1  1  0.666667  0.333333  0.500000  1
  Sb  Sb2  1  0.000000  0.000000  0.500000  1
  I  I3  1  0.686139  0.674686  0.730907  1
  I  I4  1  0.988547  0.313861  0.730907  1
  I  I5  1  0.325314  0.011453  0.730907  1
  I  I6  1  0.325314  0.313861  0.269093  1
  I  I7  1  0.988547  0.674686  0.269093  1
  I  I8  1  0.686139  0.011453  0.269093  1
