# generated using pymatgen
data_Pr20Si15Te
_symmetry_space_group_name_H-M   'P 1'
_cell_length_a   8.00251146
_cell_length_b   7.95794197
_cell_length_c   15.40029984
_cell_angle_alpha   89.93794094
_cell_angle_beta   89.20955723
_cell_angle_gamma   89.72599642
_symmetry_Int_Tables_number   1
_chemical_formula_structural   Pr20Si15Te
_chemical_formula_sum   'Pr20 Si15 Te1'
_cell_volume   980.64028085
_cell_formula_units_Z   1
loop_
 _symmetry_equiv_pos_site_id
 _symmetry_equiv_pos_as_xyz
  1  'x, y, z'
loop_
 _atom_site_type_symbol
 _atom_site_label
 _atom_site_symmetry_multiplicity
 _atom_site_fract_x
 _atom_site_fract_y
 _atom_site_fract_z
 _atom_site_occupancy
  Pr  Pr0  1  0.309833  0.310981  0.001098  1
  Pr  Pr1  1  0.189784  0.809752  0.249776  1
  Pr  Pr2  1  0.798548  0.189722  0.752580  1
  Pr  Pr3  1  0.685249  0.690112  0.495159  1
  Pr  Pr4  1  0.379476  0.009429  0.445610  1
  Pr  Pr5  1  0.495510  0.874200  0.697901  1
  Pr  Pr6  1  0.510145  0.120451  0.196913  1
  Pr  Pr7  1  0.877477  0.488388  0.300321  1
  Pr  Pr8  1  0.120344  0.515995  0.806465  1
  Pr  Pr9  1  0.626240  0.985612  0.950332  1
  Pr  Pr10  1  0.998262  0.383293  0.544708  1
  Pr  Pr11  1  0.989869  0.620451  0.054484  1
  Pr  Pr12  1  0.133127  0.985888  0.877479  1
  Pr  Pr13  1  0.518142  0.628108  0.126794  1
  Pr  Pr14  1  0.490244  0.379386  0.627892  1
  Pr  Pr15  1  0.631183  0.521353  0.876571  1
  Pr  Pr16  1  0.371573  0.479046  0.373543  1
  Pr  Pr17  1  0.872323  0.018758  0.375805  1
  Pr  Pr18  1  0.982150  0.128684  0.124882  1
  Pr  Pr19  1  0.008144  0.856558  0.620564  1
  Si  Si20  1  0.330285  0.696540  0.952522  1
  Si  Si21  1  0.664735  0.303550  0.451702  1
  Si  Si22  1  0.699715  0.333889  0.050176  1
  Si  Si23  1  0.304293  0.669433  0.547795  1
  Si  Si24  1  0.803109  0.832785  0.201773  1
  Si  Si25  1  0.167621  0.196399  0.298122  1
  Si  Si26  1  0.838320  0.804059  0.798035  1
  Si  Si27  1  0.286883  0.921470  0.059539  1
  Si  Si28  1  0.577391  0.788822  0.308520  1
  Si  Si29  1  0.445035  0.210468  0.822729  1
  Si  Si30  1  0.790338  0.576158  0.690676  1
  Si  Si31  1  0.211272  0.423046  0.191351  1
  Si  Si32  1  0.705050  0.076430  0.559441  1
  Si  Si33  1  0.925131  0.289902  0.941082  1
  Si  Si34  1  0.078635  0.711845  0.439136  1
  Te  Te35  1  0.184563  0.169035  0.688523  1
