# generated using pymatgen
data_Dy8Er12Si15Au
_symmetry_space_group_name_H-M   'P 1'
_cell_length_a   7.37459735
_cell_length_b   7.65448683
_cell_length_c   14.57099746
_cell_angle_alpha   89.82261923
_cell_angle_beta   89.32736034
_cell_angle_gamma   90.11528548
_symmetry_Int_Tables_number   1
_chemical_formula_structural   Dy8Er12Si15Au
_chemical_formula_sum   'Dy8 Er12 Si15 Au1'
_cell_volume   822.45236679
_cell_formula_units_Z   1
loop_
 _symmetry_equiv_pos_site_id
 _symmetry_equiv_pos_as_xyz
  1  'x, y, z'
loop_
 _atom_site_type_symbol
 _atom_site_label
 _atom_site_symmetry_multiplicity
 _atom_site_fract_x
 _atom_site_fract_y
 _atom_site_fract_z
 _atom_site_occupancy
  Dy  Dy0  1  0.022085  0.180741  0.099050  1
  Dy  Dy1  1  0.978255  0.820045  0.902547  1
  Dy  Dy2  1  0.478691  0.681355  0.902764  1
  Dy  Dy3  1  0.982318  0.825187  0.598797  1
  Dy  Dy4  1  0.519618  0.317289  0.097476  1
  Dy  Dy5  1  0.015970  0.177071  0.399142  1
  Dy  Dy6  1  0.516078  0.318347  0.399884  1
  Dy  Dy7  1  0.485850  0.682605  0.599621  1
  Er  Er8  1  0.161018  0.511489  0.749600  1
  Er  Er9  1  0.840893  0.490136  0.251740  1
  Er  Er10  1  0.340313  0.006851  0.250291  1
  Er  Er11  1  0.661235  0.988782  0.749354  1
  Er  Er12  1  0.333250  0.177667  0.623033  1
  Er  Er13  1  0.667579  0.821550  0.375832  1
  Er  Er14  1  0.172323  0.672442  0.375496  1
  Er  Er15  1  0.675024  0.822123  0.123474  1
  Er  Er16  1  0.829151  0.325750  0.623213  1
  Er  Er17  1  0.325787  0.179262  0.877510  1
  Er  Er18  1  0.825004  0.320118  0.878009  1
  Er  Er19  1  0.173282  0.678646  0.123180  1
  Si  Si20  1  0.033433  0.109922  0.752219  1
  Si  Si21  1  0.968314  0.891870  0.249495  1
  Si  Si22  1  0.468935  0.605251  0.247617  1
  Si  Si23  1  0.533765  0.393996  0.752216  1
  Si  Si24  1  0.276766  0.876068  0.751432  1
  Si  Si25  1  0.721758  0.127372  0.248434  1
  Si  Si26  1  0.223371  0.368904  0.247236  1
  Si  Si27  1  0.778267  0.627294  0.753550  1
  Si  Si28  1  0.835141  0.531239  0.458897  1
  Si  Si29  1  0.338827  0.967520  0.459661  1
  Si  Si30  1  0.847409  0.531136  0.039168  1
  Si  Si31  1  0.659016  0.033786  0.537713  1
  Si  Si32  1  0.150314  0.468620  0.961694  1
  Si  Si33  1  0.651031  0.029323  0.960370  1
  Si  Si34  1  0.348229  0.968858  0.039675  1
  Au  Au35  1  0.161701  0.471386  0.540605  1
