# generated using pymatgen
data_Pr5Nd3Cd2TcPd
_symmetry_space_group_name_H-M   'P 1'
_cell_length_a   10.03701820
_cell_length_b   10.03775965
_cell_length_c   10.14909603
_cell_angle_alpha   59.62755363
_cell_angle_beta   59.63475785
_cell_angle_gamma   59.38860926
_symmetry_Int_Tables_number   1
_chemical_formula_structural   Pr5Nd3Cd2TcPd
_chemical_formula_sum   'Pr10 Nd6 Cd4 Tc2 Pd2'
_cell_volume   715.62497332
_cell_formula_units_Z   2
loop_
 _symmetry_equiv_pos_site_id
 _symmetry_equiv_pos_as_xyz
  1  'x, y, z'
loop_
 _atom_site_type_symbol
 _atom_site_label
 _atom_site_symmetry_multiplicity
 _atom_site_fract_x
 _atom_site_fract_y
 _atom_site_fract_z
 _atom_site_occupancy
  Pr  Pr0  1  0.190852  0.815051  0.190783  1
  Pr  Pr1  1  0.815051  0.190852  0.803313  1
  Pr  Pr2  1  0.190835  0.190835  0.809165  1
  Pr  Pr3  1  0.805785  0.805785  0.194215  1
  Pr  Pr4  1  0.937355  0.556775  0.565699  1
  Pr  Pr5  1  0.556775  0.937355  0.940171  1
  Pr  Pr6  1  0.556650  0.937344  0.565736  1
  Pr  Pr7  1  0.937344  0.556650  0.940269  1
  Pr  Pr8  1  0.563024  0.563024  0.936976  1
  Pr  Pr9  1  0.940662  0.940662  0.559338  1
  Nd  Nd10  1  0.347611  0.347280  0.355730  1
  Nd  Nd11  1  0.347280  0.347611  0.949380  1
  Nd  Nd12  1  0.342816  0.958242  0.349766  1
  Nd  Nd13  1  0.958242  0.342816  0.349178  1
  Nd  Nd14  1  0.814818  0.191071  0.190920  1
  Nd  Nd15  1  0.191071  0.814818  0.803192  1
  Cd  Cd16  1  0.579446  0.579746  0.580001  1
  Cd  Cd17  1  0.579746  0.579446  0.260807  1
  Cd  Cd18  1  0.579697  0.259726  0.580161  1
  Cd  Cd19  1  0.259726  0.579697  0.580416  1
  Tc  Tc20  1  0.141905  0.142198  0.133474  1
  Tc  Tc21  1  0.142198  0.141905  0.582424  1
  Pd  Pd22  1  0.147215  0.573897  0.139147  1
  Pd  Pd23  1  0.573897  0.147215  0.139741  1
