# generated using pymatgen
data_ErTi4Re13Tc11
_symmetry_space_group_name_H-M   'P 1'
_cell_length_a   8.37987902
_cell_length_b   8.38280834
_cell_length_c   8.37987800
_cell_angle_alpha   109.50217580
_cell_angle_beta   109.45533212
_cell_angle_gamma   109.50218294
_symmetry_Int_Tables_number   1
_chemical_formula_structural   ErTi4Re13Tc11
_chemical_formula_sum   'Er1 Ti4 Re13 Tc11'
_cell_volume   452.89347936
_cell_formula_units_Z   1
loop_
 _symmetry_equiv_pos_site_id
 _symmetry_equiv_pos_as_xyz
  1  'x, y, z'
loop_
 _atom_site_type_symbol
 _atom_site_label
 _atom_site_symmetry_multiplicity
 _atom_site_fract_x
 _atom_site_fract_y
 _atom_site_fract_z
 _atom_site_occupancy
  Er  Er0  1  0.000034  0.999660  0.000034  1
  Ti  Ti1  1  0.626697  0.999524  0.999846  1
  Ti  Ti2  1  0.000224  0.626796  0.000224  1
  Ti  Ti3  1  0.999846  0.999524  0.626697  1
  Ti  Ti4  1  0.372315  0.373842  0.372315  1
  Re  Re5  1  0.598971  0.279658  0.598971  1
  Re  Re6  1  0.378583  0.194606  0.999824  1
  Re  Re7  1  0.183899  0.805273  0.805176  1
  Re  Re8  1  0.378926  0.000874  0.195122  1
  Re  Re9  1  0.194932  0.378503  0.000143  1
  Re  Re10  1  0.000143  0.378503  0.194932  1
  Re  Re11  1  0.805527  0.182710  0.805527  1
  Re  Re12  1  0.805176  0.805273  0.183899  1
  Re  Re13  1  0.999824  0.194606  0.378583  1
  Re  Re14  1  0.195122  0.000874  0.378926  1
  Re  Re15  1  0.621031  0.621244  0.815906  1
  Re  Re16  1  0.815906  0.621244  0.621031  1
  Re  Re17  1  0.620701  0.814646  0.620701  1
  Tc  Tc18  1  0.401395  0.681861  0.000515  1
  Tc  Tc19  1  0.720536  0.319058  0.318312  1
  Tc  Tc20  1  0.401565  0.000390  0.681326  1
  Tc  Tc21  1  0.681933  0.401448  0.000011  1
  Tc  Tc22  1  0.000011  0.401448  0.681933  1
  Tc  Tc23  1  0.317963  0.719815  0.317963  1
  Tc  Tc24  1  0.318312  0.319058  0.720536  1
  Tc  Tc25  1  0.000515  0.681861  0.401395  1
  Tc  Tc26  1  0.681326  0.000390  0.401565  1
  Tc  Tc27  1  0.598746  0.598654  0.279843  1
  Tc  Tc28  1  0.279843  0.598654  0.598746  1
