# generated using pymatgen
data_Sr3Eu3(BiN)2
_symmetry_space_group_name_H-M   'P 1'
_cell_length_a   7.34409500
_cell_length_b   7.34409489
_cell_length_c   12.36399600
_cell_angle_alpha   90.00000000
_cell_angle_beta   90.00000000
_cell_angle_gamma   119.99999599
_symmetry_Int_Tables_number   1
_chemical_formula_structural   Sr3Eu3(BiN)2
_chemical_formula_sum   'Sr6 Eu6 Bi4 N4'
_cell_volume   577.51872606
_cell_formula_units_Z   2
loop_
 _symmetry_equiv_pos_site_id
 _symmetry_equiv_pos_as_xyz
  1  'x, y, z'
loop_
 _atom_site_type_symbol
 _atom_site_label
 _atom_site_symmetry_multiplicity
 _atom_site_fract_x
 _atom_site_fract_y
 _atom_site_fract_z
 _atom_site_occupancy
  Sr  Sr0  1  0.500000  0.500000  0.000000  1
  Sr  Sr1  1  0.000000  0.500000  0.000000  1
  Sr  Sr2  1  0.500000  0.500000  0.500000  1
  Sr  Sr3  1  0.500000  0.000000  0.000000  1
  Sr  Sr4  1  0.000000  0.500000  0.500000  1
  Sr  Sr5  1  0.500000  0.000000  0.500000  1
  Eu  Eu6  1  0.818714  0.181286  0.750000  1
  Eu  Eu7  1  0.181286  0.818714  0.250000  1
  Eu  Eu8  1  0.362572  0.181286  0.750000  1
  Eu  Eu9  1  0.637428  0.818714  0.250000  1
  Eu  Eu10  1  0.818714  0.637428  0.750000  1
  Eu  Eu11  1  0.181286  0.362572  0.250000  1
  Bi  Bi12  1  0.000000  0.000000  0.000000  1
  Bi  Bi13  1  0.000000  0.000000  0.500000  1
  Bi  Bi14  1  0.666667  0.333333  0.250000  1
  Bi  Bi15  1  0.333333  0.666667  0.750000  1
  N  N16  1  0.666667  0.333333  0.876295  1
  N  N17  1  0.333333  0.666667  0.123705  1
  N  N18  1  0.333333  0.666667  0.376295  1
  N  N19  1  0.666667  0.333333  0.623705  1
