# generated using pymatgen
data_Hf9TaCoMo2W
_symmetry_space_group_name_H-M   'P 1'
_cell_length_a   8.71233127
_cell_length_b   8.71233072
_cell_length_c   8.45609600
_cell_angle_alpha   90.00000000
_cell_angle_beta   90.00000000
_cell_angle_gamma   119.87580747
_symmetry_Int_Tables_number   1
_chemical_formula_structural   Hf9TaCoMo2W
_chemical_formula_sum   'Hf18 Ta2 Co2 Mo4 W2'
_cell_volume   556.55925153
_cell_formula_units_Z   2
loop_
 _symmetry_equiv_pos_site_id
 _symmetry_equiv_pos_as_xyz
  1  'x, y, z'
loop_
 _atom_site_type_symbol
 _atom_site_label
 _atom_site_symmetry_multiplicity
 _atom_site_fract_x
 _atom_site_fract_y
 _atom_site_fract_z
 _atom_site_occupancy
  Hf  Hf0  1  0.202717  0.797283  0.441308  1
  Hf  Hf1  1  0.202156  0.404900  0.441504  1
  Hf  Hf2  1  0.595100  0.797844  0.441504  1
  Hf  Hf3  1  0.798473  0.201527  0.559713  1
  Hf  Hf4  1  0.797580  0.595937  0.559221  1
  Hf  Hf5  1  0.404063  0.202420  0.559221  1
  Hf  Hf6  1  0.798473  0.201527  0.940287  1
  Hf  Hf7  1  0.797580  0.595937  0.940779  1
  Hf  Hf8  1  0.404063  0.202420  0.940779  1
  Hf  Hf9  1  0.202717  0.797283  0.058692  1
  Hf  Hf10  1  0.202156  0.404900  0.058496  1
  Hf  Hf11  1  0.595100  0.797844  0.058496  1
  Hf  Hf12  1  0.542545  0.457455  0.250000  1
  Hf  Hf13  1  0.542584  0.085275  0.250000  1
  Hf  Hf14  1  0.914725  0.457416  0.250000  1
  Hf  Hf15  1  0.457733  0.542267  0.750000  1
  Hf  Hf16  1  0.458623  0.915992  0.750000  1
  Hf  Hf17  1  0.084008  0.541377  0.750000  1
  Ta  Ta18  1  0.000332  0.999668  0.497661  1
  Ta  Ta19  1  0.000332  0.999668  0.002339  1
  Co  Co20  1  0.333098  0.666902  0.250000  1
  Co  Co21  1  0.666372  0.333628  0.750000  1
  Mo  Mo22  1  0.884838  0.115162  0.250000  1
  Mo  Mo23  1  0.884756  0.768754  0.250000  1
  Mo  Mo24  1  0.231246  0.115244  0.250000  1
  Mo  Mo25  1  0.113997  0.886003  0.750000  1
  W  W26  1  0.113622  0.228993  0.750000  1
  W  W27  1  0.771007  0.886378  0.750000  1
