# generated using pymatgen
data_NdNbReB6
_symmetry_space_group_name_H-M   'P 1'
_cell_length_a   3.60566100
_cell_length_b   9.04123300
_cell_length_c   11.46038700
_cell_angle_alpha   90.00000000
_cell_angle_beta   90.00000000
_cell_angle_gamma   90.00000000
_symmetry_Int_Tables_number   1
_chemical_formula_structural   NdNbReB6
_chemical_formula_sum   'Nd4 Nb4 Re4 B24'
_cell_volume   373.60427523
_cell_formula_units_Z   4
loop_
 _symmetry_equiv_pos_site_id
 _symmetry_equiv_pos_as_xyz
  1  'x, y, z'
loop_
 _atom_site_type_symbol
 _atom_site_label
 _atom_site_symmetry_multiplicity
 _atom_site_fract_x
 _atom_site_fract_y
 _atom_site_fract_z
 _atom_site_occupancy
  Nd  Nd0  1  0.000000  0.322847  0.414285  1
  Nd  Nd1  1  0.000000  0.677153  0.585715  1
  Nd  Nd2  1  0.000000  0.822847  0.085715  1
  Nd  Nd3  1  0.000000  0.177153  0.914285  1
  Nb  Nb4  1  0.000000  0.947291  0.375631  1
  Nb  Nb5  1  0.000000  0.052709  0.624369  1
  Nb  Nb6  1  0.000000  0.447291  0.124369  1
  Nb  Nb7  1  0.000000  0.552709  0.875631  1
  Re  Re8  1  0.000000  0.645868  0.316035  1
  Re  Re9  1  0.000000  0.354132  0.683965  1
  Re  Re10  1  0.000000  0.145868  0.183965  1
  Re  Re11  1  0.000000  0.854132  0.816035  1
  B  B12  1  0.500000  0.556365  0.430566  1
  B  B13  1  0.500000  0.443635  0.569434  1
  B  B14  1  0.500000  0.056365  0.069434  1
  B  B15  1  0.500000  0.943635  0.930566  1
  B  B16  1  0.500000  0.755922  0.416057  1
  B  B17  1  0.500000  0.244078  0.583943  1
  B  B18  1  0.500000  0.255922  0.083943  1
  B  B19  1  0.500000  0.744078  0.916057  1
  B  B20  1  0.500000  0.797665  0.264343  1
  B  B21  1  0.500000  0.202335  0.735657  1
  B  B22  1  0.500000  0.297665  0.235657  1
  B  B23  1  0.500000  0.702335  0.764343  1
  B  B24  1  0.500000  0.628805  0.181859  1
  B  B25  1  0.500000  0.371195  0.818141  1
  B  B26  1  0.500000  0.128805  0.318141  1
  B  B27  1  0.500000  0.871195  0.681859  1
  B  B28  1  0.500000  0.983291  0.215044  1
  B  B29  1  0.500000  0.016709  0.784956  1
  B  B30  1  0.500000  0.483291  0.284956  1
  B  B31  1  0.500000  0.516709  0.715044  1
  B  B32  1  0.500000  0.597468  0.025845  1
  B  B33  1  0.500000  0.402532  0.974155  1
  B  B34  1  0.500000  0.097468  0.474155  1
  B  B35  1  0.500000  0.902532  0.525845  1
