# generated using pymatgen
data_Yb5Tm2Lu(Si4Mo3)4
_symmetry_space_group_name_H-M   'P 1'
_cell_length_a   6.71124543
_cell_length_b   6.93305161
_cell_length_c   12.98058405
_cell_angle_alpha   89.89158646
_cell_angle_beta   89.97467630
_cell_angle_gamma   89.92496203
_symmetry_Int_Tables_number   1
_chemical_formula_structural   Yb5Tm2Lu(Si4Mo3)4
_chemical_formula_sum   'Yb5 Tm2 Lu1 Si16 Mo12'
_cell_volume   603.97727218
_cell_formula_units_Z   1
loop_
 _symmetry_equiv_pos_site_id
 _symmetry_equiv_pos_as_xyz
  1  'x, y, z'
loop_
 _atom_site_type_symbol
 _atom_site_label
 _atom_site_symmetry_multiplicity
 _atom_site_fract_x
 _atom_site_fract_y
 _atom_site_fract_z
 _atom_site_occupancy
  Yb  Yb0  1  0.497995  0.334273  0.090480  1
  Yb  Yb1  1  0.997993  0.167716  0.408440  1
  Yb  Yb2  1  0.501521  0.668088  0.591705  1
  Yb  Yb3  1  0.001566  0.831514  0.908163  1
  Yb  Yb4  1  0.501402  0.667342  0.909368  1
  Tm  Tm5  1  0.000948  0.829355  0.593792  1
  Tm  Tm6  1  0.498989  0.329932  0.406245  1
  Lu  Lu7  1  0.998345  0.170057  0.093769  1
  Si  Si8  1  0.661043  0.041598  0.544644  1
  Si  Si9  1  0.158984  0.456997  0.955272  1
  Si  Si10  1  0.338653  0.958752  0.045969  1
  Si  Si11  1  0.838851  0.541655  0.454782  1
  Si  Si12  1  0.339402  0.958364  0.454758  1
  Si  Si13  1  0.841357  0.541669  0.045814  1
  Si  Si14  1  0.660405  0.041740  0.955035  1
  Si  Si15  1  0.160644  0.458576  0.544632  1
  Si  Si16  1  0.534120  0.372058  0.750158  1
  Si  Si17  1  0.034392  0.127018  0.749153  1
  Si  Si18  1  0.465706  0.630448  0.249860  1
  Si  Si19  1  0.966072  0.871312  0.249874  1
  Si  Si20  1  0.800538  0.630206  0.750446  1
  Si  Si21  1  0.302771  0.868957  0.750564  1
  Si  Si22  1  0.197882  0.368854  0.249769  1
  Si  Si23  1  0.697986  0.131583  0.249767  1
  Mo  Mo24  1  0.832430  0.332726  0.625636  1
  Mo  Mo25  1  0.332071  0.167933  0.873049  1
  Mo  Mo26  1  0.167290  0.666803  0.126513  1
  Mo  Mo27  1  0.668864  0.833402  0.374377  1
  Mo  Mo28  1  0.167522  0.667524  0.374005  1
  Mo  Mo29  1  0.668950  0.834482  0.126963  1
  Mo  Mo30  1  0.835155  0.330197  0.873117  1
  Mo  Mo31  1  0.332886  0.167891  0.625346  1
  Mo  Mo32  1  0.662710  0.006761  0.749157  1
  Mo  Mo33  1  0.161744  0.493026  0.748804  1
  Mo  Mo34  1  0.336151  0.996832  0.250447  1
  Mo  Mo35  1  0.836661  0.504363  0.250130  1
