# generated using pymatgen
data_Ta16Ni8C3N
_symmetry_space_group_name_H-M   'P 1'
_cell_length_a   8.25053843
_cell_length_b   8.23268754
_cell_length_c   8.25053900
_cell_angle_alpha   59.92824916
_cell_angle_beta   60.00000173
_cell_angle_gamma   59.92825090
_symmetry_Int_Tables_number   1
_chemical_formula_structural   Ta16Ni8C3N
_chemical_formula_sum   'Ta16 Ni8 C3 N1'
_cell_volume   395.83975445
_cell_formula_units_Z   1
loop_
 _symmetry_equiv_pos_site_id
 _symmetry_equiv_pos_as_xyz
  1  'x, y, z'
loop_
 _atom_site_type_symbol
 _atom_site_label
 _atom_site_symmetry_multiplicity
 _atom_site_fract_x
 _atom_site_fract_y
 _atom_site_fract_z
 _atom_site_occupancy
  Ta  Ta0  1  0.125000  0.625000  0.625000  1
  Ta  Ta1  1  0.625000  0.125000  0.625000  1
  Ta  Ta2  1  0.625000  0.625000  0.125000  1
  Ta  Ta3  1  0.625000  0.625000  0.625000  1
  Ta  Ta4  1  0.817569  0.817441  0.182495  1
  Ta  Ta5  1  0.183164  0.184652  0.816092  1
  Ta  Ta6  1  0.816092  0.184652  0.816092  1
  Ta  Ta7  1  0.182495  0.817441  0.182495  1
  Ta  Ta8  1  0.182495  0.817441  0.817569  1
  Ta  Ta9  1  0.816092  0.184652  0.183164  1
  Ta  Ta10  1  0.432431  0.432559  0.067505  1
  Ta  Ta11  1  0.066836  0.065348  0.433908  1
  Ta  Ta12  1  0.433908  0.065348  0.433908  1
  Ta  Ta13  1  0.067505  0.432559  0.067505  1
  Ta  Ta14  1  0.067505  0.432559  0.432431  1
  Ta  Ta15  1  0.433908  0.065348  0.066836  1
  Ni  Ni16  1  0.742395  0.420292  0.418657  1
  Ni  Ni17  1  0.419506  0.741483  0.419506  1
  Ni  Ni18  1  0.418657  0.420292  0.742395  1
  Ni  Ni19  1  0.418657  0.420292  0.418657  1
  Ni  Ni20  1  0.507605  0.829708  0.831343  1
  Ni  Ni21  1  0.830494  0.508517  0.830494  1
  Ni  Ni22  1  0.831343  0.829708  0.507605  1
  Ni  Ni23  1  0.831343  0.829708  0.831343  1
  C  C24  1  0.625000  0.125000  0.125000  1
  C  C25  1  0.125000  0.125000  0.625000  1
  C  C26  1  0.125000  0.125000  0.125000  1
  N  N27  1  0.125000  0.625000  0.125000  1
