# generated using pymatgen
data_Hf2Zr4Ga6(PdPt)3
_symmetry_space_group_name_H-M   'P 1'
_cell_length_a   7.21730133
_cell_length_b   7.18804089
_cell_length_c   7.07748153
_cell_angle_alpha   90.01954304
_cell_angle_beta   89.95567568
_cell_angle_gamma   119.93604301
_symmetry_Int_Tables_number   1
_chemical_formula_structural   Hf2Zr4Ga6(PdPt)3
_chemical_formula_sum   'Hf2 Zr4 Ga6 Pd3 Pt3'
_cell_volume   318.18093474
_cell_formula_units_Z   1
loop_
 _symmetry_equiv_pos_site_id
 _symmetry_equiv_pos_as_xyz
  1  'x, y, z'
loop_
 _atom_site_type_symbol
 _atom_site_label
 _atom_site_symmetry_multiplicity
 _atom_site_fract_x
 _atom_site_fract_y
 _atom_site_fract_z
 _atom_site_occupancy
  Hf  Hf0  1  0.387876  0.971717  0.749385  1
  Hf  Hf1  1  0.583734  0.611716  0.749538  1
  Zr  Zr2  1  0.612272  0.587008  0.250714  1
  Zr  Zr3  1  0.027773  0.415039  0.750184  1
  Zr  Zr4  1  0.414313  0.026240  0.250469  1
  Zr  Zr5  1  0.975259  0.389509  0.250763  1
  Ga  Ga6  1  0.267136  0.266182  0.501328  1
  Ga  Ga7  1  0.733917  0.001138  0.501612  1
  Ga  Ga8  1  0.998625  0.732060  0.500941  1
  Ga  Ga9  1  0.735596  0.004092  0.000145  1
  Ga  Ga10  1  0.268398  0.264575  0.000470  1
  Ga  Ga11  1  0.995886  0.730895  0.000875  1
  Pd  Pd12  1  0.000328  0.997553  0.749971  1
  Pd  Pd13  1  0.000324  0.999974  0.252026  1
  Pd  Pd14  1  0.664009  0.332810  0.956479  1
  Pt  Pt15  1  0.334964  0.668388  0.466275  1
  Pt  Pt16  1  0.335402  0.668444  0.032778  1
  Pt  Pt17  1  0.664187  0.332660  0.536045  1
