# generated using pymatgen
data_K6Ga5Ge3Pt8
_symmetry_space_group_name_H-M   'P 1'
_cell_length_a   6.74379821
_cell_length_b   6.80186757
_cell_length_c   11.84927000
_cell_angle_alpha   90.00000000
_cell_angle_beta   90.00000000
_cell_angle_gamma   104.90211489
_symmetry_Int_Tables_number   1
_chemical_formula_structural   K6Ga5Ge3Pt8
_chemical_formula_sum   'K6 Ga5 Ge3 Pt8'
_cell_volume   525.25021594
_cell_formula_units_Z   1
loop_
 _symmetry_equiv_pos_site_id
 _symmetry_equiv_pos_as_xyz
  1  'x, y, z'
loop_
 _atom_site_type_symbol
 _atom_site_label
 _atom_site_symmetry_multiplicity
 _atom_site_fract_x
 _atom_site_fract_y
 _atom_site_fract_z
 _atom_site_occupancy
  K  K0  1  0.204968  0.797334  0.499831  1
  K  K1  1  0.204968  0.797334  0.000169  1
  K  K2  1  0.796259  0.203399  0.500564  1
  K  K3  1  0.796259  0.203399  0.999436  1
  K  K4  1  0.023734  0.019108  0.250000  1
  K  K5  1  0.976785  0.977338  0.750000  1
  Ga  Ga6  1  0.886096  0.501603  0.250000  1
  Ga  Ga7  1  0.353142  0.351081  0.421281  1
  Ga  Ga8  1  0.646964  0.647027  0.580557  1
  Ga  Ga9  1  0.353142  0.351081  0.078719  1
  Ga  Ga10  1  0.646964  0.647027  0.919443  1
  Ge  Ge11  1  0.509046  0.890581  0.250000  1
  Ge  Ge12  1  0.115830  0.496586  0.750000  1
  Ge  Ge13  1  0.493490  0.112852  0.750000  1
  Pt  Pt14  1  0.533307  0.251618  0.250000  1
  Pt  Pt15  1  0.749899  0.459507  0.750000  1
  Pt  Pt16  1  0.462777  0.750967  0.750000  1
  Pt  Pt17  1  0.256291  0.539375  0.250000  1
  Pt  Pt18  1  0.337301  0.336915  0.872633  1
  Pt  Pt19  1  0.657739  0.664478  0.126101  1
  Pt  Pt20  1  0.337301  0.336915  0.627367  1
  Pt  Pt21  1  0.657739  0.664478  0.373899  1
