# generated using pymatgen
data_Hf2NbRe3Si2Ge
_symmetry_space_group_name_H-M   'P 1'
_cell_length_a   6.95881064
_cell_length_b   6.95248655
_cell_length_c   3.38603000
_cell_angle_alpha   90.00000000
_cell_angle_beta   90.00000000
_cell_angle_gamma   119.39369642
_symmetry_Int_Tables_number   1
_chemical_formula_structural   Hf2NbRe3Si2Ge
_chemical_formula_sum   'Hf2 Nb1 Re3 Si2 Ge1'
_cell_volume   142.73078318
_cell_formula_units_Z   1
loop_
 _symmetry_equiv_pos_site_id
 _symmetry_equiv_pos_as_xyz
  1  'x, y, z'
loop_
 _atom_site_type_symbol
 _atom_site_label
 _atom_site_symmetry_multiplicity
 _atom_site_fract_x
 _atom_site_fract_y
 _atom_site_fract_z
 _atom_site_occupancy
  Hf  Hf0  1  0.405136  0.008360  0.500000  1
  Hf  Hf1  1  0.997110  0.399623  0.500000  1
  Nb  Nb2  1  0.600625  0.594038  0.500000  1
  Re  Re3  1  0.747398  0.003276  0.000000  1
  Re  Re4  1  0.993214  0.742391  0.000000  1
  Re  Re5  1  0.255481  0.250835  0.000000  1
  Si  Si6  1  0.666572  0.338003  0.000000  1
  Si  Si7  1  0.997021  0.996951  0.500000  1
  Ge  Ge8  1  0.337441  0.666522  0.000000  1
