# generated using pymatgen
data_Tm12TcOs3
_symmetry_space_group_name_H-M   'P 1'
_cell_length_a   7.36728193
_cell_length_b   8.91948800
_cell_length_c   6.22698566
_cell_angle_alpha   90.00000000
_cell_angle_beta   89.91660217
_cell_angle_gamma   90.00000000
_symmetry_Int_Tables_number   1
_chemical_formula_structural   Tm12TcOs3
_chemical_formula_sum   'Tm12 Tc1 Os3'
_cell_volume   409.18963217
_cell_formula_units_Z   1
loop_
 _symmetry_equiv_pos_site_id
 _symmetry_equiv_pos_as_xyz
  1  'x, y, z'
loop_
 _atom_site_type_symbol
 _atom_site_label
 _atom_site_symmetry_multiplicity
 _atom_site_fract_x
 _atom_site_fract_y
 _atom_site_fract_z
 _atom_site_occupancy
  Tm  Tm0  1  0.040121  0.250000  0.627778  1
  Tm  Tm1  1  0.959747  0.750000  0.370755  1
  Tm  Tm2  1  0.460340  0.750000  0.129418  1
  Tm  Tm3  1  0.539430  0.250000  0.874154  1
  Tm  Tm4  1  0.174638  0.062152  0.164490  1
  Tm  Tm5  1  0.824836  0.938226  0.833565  1
  Tm  Tm6  1  0.325394  0.937617  0.665115  1
  Tm  Tm7  1  0.824836  0.561774  0.833565  1
  Tm  Tm8  1  0.674994  0.062329  0.334662  1
  Tm  Tm9  1  0.174638  0.437848  0.164490  1
  Tm  Tm10  1  0.674994  0.437671  0.334662  1
  Tm  Tm11  1  0.325394  0.562383  0.665115  1
  Tc  Tc12  1  0.382469  0.250000  0.463898  1
  Os  Os13  1  0.618433  0.750000  0.538593  1
  Os  Os14  1  0.117716  0.750000  0.962284  1
  Os  Os15  1  0.882018  0.250000  0.037454  1
