# generated using pymatgen
data_Li4In4PdRh3
_symmetry_space_group_name_H-M   'P 1'
_cell_length_a   5.48989749
_cell_length_b   4.45626500
_cell_length_c   8.17841515
_cell_angle_alpha   90.00000000
_cell_angle_beta   90.97563443
_cell_angle_gamma   90.00000000
_symmetry_Int_Tables_number   1
_chemical_formula_structural   Li4In4PdRh3
_chemical_formula_sum   'Li4 In4 Pd1 Rh3'
_cell_volume   200.05132419
_cell_formula_units_Z   1
loop_
 _symmetry_equiv_pos_site_id
 _symmetry_equiv_pos_as_xyz
  1  'x, y, z'
loop_
 _atom_site_type_symbol
 _atom_site_label
 _atom_site_symmetry_multiplicity
 _atom_site_fract_x
 _atom_site_fract_y
 _atom_site_fract_z
 _atom_site_occupancy
  Li  Li0  1  0.458324  0.750001  0.234581  1
  Li  Li1  1  0.953743  0.750001  0.268224  1
  Li  Li2  1  0.039495  0.250001  0.732389  1
  Li  Li3  1  0.547036  0.250001  0.764474  1
  In  In4  1  0.177327  0.250001  0.081365  1
  In  In5  1  0.679561  0.250001  0.423995  1
  In  In6  1  0.322469  0.750001  0.572430  1
  In  In7  1  0.820250  0.750001  0.922046  1
  Pd  Pd8  1  0.327774  0.750001  0.909066  1
  Rh  Rh9  1  0.672445  0.250001  0.091098  1
  Rh  Rh10  1  0.171977  0.250001  0.409584  1
  Rh  Rh11  1  0.829601  0.750001  0.590745  1
