# generated using pymatgen
data_YHo2Tm2(In2Pt)2
_symmetry_space_group_name_H-M   'P 1'
_cell_length_a   3.60199500
_cell_length_b   8.14856600
_cell_length_c   18.18710400
_cell_angle_alpha   90.00000000
_cell_angle_beta   90.00000000
_cell_angle_gamma   90.00000000
_symmetry_Int_Tables_number   1
_chemical_formula_structural   YHo2Tm2(In2Pt)2
_chemical_formula_sum   'Y2 Ho4 Tm4 In8 Pt4'
_cell_volume   533.81139889
_cell_formula_units_Z   2
loop_
 _symmetry_equiv_pos_site_id
 _symmetry_equiv_pos_as_xyz
  1  'x, y, z'
loop_
 _atom_site_type_symbol
 _atom_site_label
 _atom_site_symmetry_multiplicity
 _atom_site_fract_x
 _atom_site_fract_y
 _atom_site_fract_z
 _atom_site_occupancy
  Y  Y0  1  0.000000  0.000000  0.000000  1
  Y  Y1  1  0.000000  0.500000  0.500000  1
  Ho  Ho2  1  0.000000  0.242882  0.220117  1
  Ho  Ho3  1  0.000000  0.757118  0.779883  1
  Ho  Ho4  1  0.000000  0.257118  0.720117  1
  Ho  Ho5  1  0.000000  0.742882  0.279883  1
  Tm  Tm6  1  0.000000  0.116777  0.414248  1
  Tm  Tm7  1  0.000000  0.883223  0.585752  1
  Tm  Tm8  1  0.000000  0.383223  0.914248  1
  Tm  Tm9  1  0.000000  0.616777  0.085752  1
  In  In10  1  0.500000  0.422352  0.350830  1
  In  In11  1  0.500000  0.577648  0.649170  1
  In  In12  1  0.500000  0.077648  0.850830  1
  In  In13  1  0.500000  0.922352  0.149170  1
  In  In14  1  0.500000  0.294192  0.066336  1
  In  In15  1  0.500000  0.705808  0.933664  1
  In  In16  1  0.500000  0.205808  0.566336  1
  In  In17  1  0.500000  0.794192  0.433664  1
  Pt  Pt18  1  0.500000  0.025284  0.304045  1
  Pt  Pt19  1  0.500000  0.974716  0.695955  1
  Pt  Pt20  1  0.500000  0.474716  0.804045  1
  Pt  Pt21  1  0.500000  0.525284  0.195955  1
