# generated using pymatgen
data_Pr12In3PbI12
_symmetry_space_group_name_H-M   'P 1'
_cell_length_a   11.17837576
_cell_length_b   11.17825197
_cell_length_c   11.17817200
_cell_angle_alpha   109.47252050
_cell_angle_beta   109.47256963
_cell_angle_gamma   109.47299714
_symmetry_Int_Tables_number   1
_chemical_formula_structural   Pr12In3PbI12
_chemical_formula_sum   'Pr12 In3 Pb1 I12'
_cell_volume   1075.17157695
_cell_formula_units_Z   1
loop_
 _symmetry_equiv_pos_site_id
 _symmetry_equiv_pos_as_xyz
  1  'x, y, z'
loop_
 _atom_site_type_symbol
 _atom_site_label
 _atom_site_symmetry_multiplicity
 _atom_site_fract_x
 _atom_site_fract_y
 _atom_site_fract_z
 _atom_site_occupancy
  Pr  Pr0  1  0.482250  0.492596  0.239813  1
  Pr  Pr1  1  0.750000  0.240496  0.259503  1
  Pr  Pr2  1  0.750001  0.009625  0.490374  1
  Pr  Pr3  1  0.239815  0.482251  0.492596  1
  Pr  Pr4  1  0.259504  0.750000  0.240497  1
  Pr  Pr5  1  0.017751  0.260188  0.007405  1
  Pr  Pr6  1  0.007405  0.017750  0.260187  1
  Pr  Pr7  1  0.490374  0.749998  0.009626  1
  Pr  Pr8  1  0.492594  0.239815  0.482251  1
  Pr  Pr9  1  0.009627  0.490373  0.750001  1
  Pr  Pr10  1  0.260185  0.007405  0.017749  1
  Pr  Pr11  1  0.240495  0.259504  0.749999  1
  In  In12  1  0.499677  0.000322  0.250000  1
  In  In13  1  0.000323  0.250002  0.499679  1
  In  In14  1  0.249999  0.499676  0.000320  1
  Pb  Pb15  1  0.249999  0.250002  0.250000  1
  I  I16  1  0.250000  0.755207  0.744792  1
  I  I17  1  0.510228  0.505129  0.754927  1
  I  I18  1  0.989772  0.745072  0.994871  1
  I  I19  1  0.744793  0.250001  0.755209  1
  I  I20  1  0.994871  0.989771  0.745073  1
  I  I21  1  0.250000  0.995084  0.504917  1
  I  I22  1  0.754927  0.510228  0.505130  1
  I  I23  1  0.504917  0.250000  0.995083  1
  I  I24  1  0.755208  0.744792  0.250000  1
  I  I25  1  0.745074  0.994870  0.989772  1
  I  I26  1  0.995084  0.504917  0.250000  1
  I  I27  1  0.505129  0.754927  0.510228  1
