# generated using pymatgen
data_SrYHg2(Ir2O7)2
_symmetry_space_group_name_H-M   'P 1'
_cell_length_a   7.34076719
_cell_length_b   7.48647707
_cell_length_c   7.34076754
_cell_angle_alpha   59.13577222
_cell_angle_beta   59.06209020
_cell_angle_gamma   59.13576307
_symmetry_Int_Tables_number   1
_chemical_formula_structural   SrYHg2(Ir2O7)2
_chemical_formula_sum   'Sr1 Y1 Hg2 Ir4 O14'
_cell_volume   279.48308844
_cell_formula_units_Z   1
loop_
 _symmetry_equiv_pos_site_id
 _symmetry_equiv_pos_as_xyz
  1  'x, y, z'
loop_
 _atom_site_type_symbol
 _atom_site_label
 _atom_site_symmetry_multiplicity
 _atom_site_fract_x
 _atom_site_fract_y
 _atom_site_fract_z
 _atom_site_occupancy
  Sr  Sr0  1  0.125000  0.625000  0.125000  1
  Y  Y1  1  0.125000  0.125000  0.125000  1
  Hg  Hg2  1  0.625000  0.125000  0.125000  1
  Hg  Hg3  1  0.125000  0.125000  0.625000  1
  Ir  Ir4  1  0.125000  0.625000  0.625000  1
  Ir  Ir5  1  0.625000  0.125000  0.625000  1
  Ir  Ir6  1  0.625000  0.625000  0.125000  1
  Ir  Ir7  1  0.625000  0.625000  0.625000  1
  O  O8  1  0.694734  0.696305  0.301773  1
  O  O9  1  0.299360  0.301605  0.715485  1
  O  O10  1  0.693291  0.305040  0.693291  1
  O  O11  1  0.292399  0.720134  0.292399  1
  O  O12  1  0.301773  0.696305  0.694734  1
  O  O13  1  0.715485  0.301605  0.299360  1
  O  O14  1  0.555266  0.553695  0.948227  1
  O  O15  1  0.950640  0.948395  0.534515  1
  O  O16  1  0.556709  0.944960  0.556709  1
  O  O17  1  0.957601  0.529866  0.957601  1
  O  O18  1  0.948227  0.553695  0.555266  1
  O  O19  1  0.534515  0.948395  0.950640  1
  O  O20  1  0.263111  0.218614  0.263111  1
  O  O21  1  0.986889  0.031386  0.986889  1
