# generated using pymatgen
data_Zr2TaGa2Sn
_symmetry_space_group_name_H-M   'P 1'
_cell_length_a   5.62229700
_cell_length_b   8.65602900
_cell_length_c   9.32892700
_cell_angle_alpha   90.00000000
_cell_angle_beta   90.00000000
_cell_angle_gamma   90.00000000
_symmetry_Int_Tables_number   1
_chemical_formula_structural   Zr2TaGa2Sn
_chemical_formula_sum   'Zr8 Ta4 Ga8 Sn4'
_cell_volume   454.00870621
_cell_formula_units_Z   4
loop_
 _symmetry_equiv_pos_site_id
 _symmetry_equiv_pos_as_xyz
  1  'x, y, z'
loop_
 _atom_site_type_symbol
 _atom_site_label
 _atom_site_symmetry_multiplicity
 _atom_site_fract_x
 _atom_site_fract_y
 _atom_site_fract_z
 _atom_site_occupancy
  Zr  Zr0  1  0.750000  0.468314  0.611827  1
  Zr  Zr1  1  0.250000  0.531686  0.388173  1
  Zr  Zr2  1  0.750000  0.968314  0.388173  1
  Zr  Zr3  1  0.250000  0.031686  0.611827  1
  Zr  Zr4  1  0.750000  0.375247  0.195196  1
  Zr  Zr5  1  0.250000  0.624753  0.804804  1
  Zr  Zr6  1  0.750000  0.875247  0.804804  1
  Zr  Zr7  1  0.250000  0.124753  0.195196  1
  Ta  Ta8  1  0.000000  0.750000  0.119835  1
  Ta  Ta9  1  0.500000  0.250000  0.880165  1
  Ta  Ta10  1  0.000000  0.250000  0.880165  1
  Ta  Ta11  1  0.500000  0.750000  0.119835  1
  Ga  Ga12  1  0.000000  0.750000  0.571609  1
  Ga  Ga13  1  0.500000  0.250000  0.428391  1
  Ga  Ga14  1  0.000000  0.250000  0.428391  1
  Ga  Ga15  1  0.500000  0.750000  0.571609  1
  Ga  Ga16  1  0.750000  0.139072  0.649322  1
  Ga  Ga17  1  0.250000  0.860928  0.350678  1
  Ga  Ga18  1  0.750000  0.639072  0.350678  1
  Ga  Ga19  1  0.250000  0.360928  0.649322  1
  Sn  Sn20  1  0.750000  0.050083  0.082218  1
  Sn  Sn21  1  0.250000  0.949917  0.917782  1
  Sn  Sn22  1  0.750000  0.550083  0.917782  1
  Sn  Sn23  1  0.250000  0.449917  0.082218  1
