# generated using pymatgen
data_Ce2Al19Fe4Si
_symmetry_space_group_name_H-M   'P 1'
_cell_length_a   6.78713476
_cell_length_b   6.78713427
_cell_length_c   9.01212912
_cell_angle_alpha   90.22795489
_cell_angle_beta   89.77204244
_cell_angle_gamma   97.87479768
_symmetry_Int_Tables_number   1
_chemical_formula_structural   Ce2Al19Fe4Si
_chemical_formula_sum   'Ce2 Al19 Fe4 Si1'
_cell_volume   411.22486407
_cell_formula_units_Z   1
loop_
 _symmetry_equiv_pos_site_id
 _symmetry_equiv_pos_as_xyz
  1  'x, y, z'
loop_
 _atom_site_type_symbol
 _atom_site_label
 _atom_site_symmetry_multiplicity
 _atom_site_fract_x
 _atom_site_fract_y
 _atom_site_fract_z
 _atom_site_occupancy
  Ce  Ce0  1  0.877849  0.122151  0.746736  1
  Ce  Ce1  1  0.119905  0.880095  0.251776  1
  Al  Al2  1  0.412960  0.133573  0.750071  1
  Al  Al3  1  0.133974  0.414172  0.249795  1
  Al  Al4  1  0.585828  0.866026  0.249795  1
  Al  Al5  1  0.866427  0.587040  0.750071  1
  Al  Al6  1  0.522396  0.777933  0.750402  1
  Al  Al7  1  0.777953  0.521859  0.249645  1
  Al  Al8  1  0.478141  0.222047  0.249645  1
  Al  Al9  1  0.222067  0.477604  0.750402  1
  Al  Al10  1  0.162970  0.837030  0.601075  1
  Al  Al11  1  0.837904  0.162096  0.100922  1
  Al  Al12  1  0.160055  0.839945  0.901773  1
  Al  Al13  1  0.624832  0.375168  0.950464  1
  Al  Al14  1  0.374462  0.625538  0.049111  1
  Al  Al15  1  0.625378  0.374622  0.549565  1
  Al  Al16  1  0.376097  0.623903  0.448951  1
  Al  Al17  1  0.774451  0.775922  0.000227  1
  Al  Al18  1  0.776437  0.775072  0.498911  1
  Al  Al19  1  0.224078  0.225549  0.000227  1
  Al  Al20  1  0.224928  0.223563  0.498911  1
  Fe  Fe21  1  0.500049  0.001160  0.001876  1
  Fe  Fe22  1  0.998840  0.499951  0.001876  1
  Fe  Fe23  1  0.507723  0.002791  0.498439  1
  Fe  Fe24  1  0.997209  0.492277  0.498439  1
  Si  Si25  1  0.837087  0.162913  0.400893  1
