# generated using pymatgen
data_Sc6C2O3
_symmetry_space_group_name_H-M   'P 1'
_cell_length_a   5.58951750
_cell_length_b   5.60883856
_cell_length_c   5.61755715
_cell_angle_alpha   120.05021523
_cell_angle_beta   80.43548303
_cell_angle_gamma   109.51975360
_symmetry_Int_Tables_number   1
_chemical_formula_structural   Sc6C2O3
_chemical_formula_sum   'Sc6 C2 O3'
_cell_volume   143.68071327
_cell_formula_units_Z   1
loop_
 _symmetry_equiv_pos_site_id
 _symmetry_equiv_pos_as_xyz
  1  'x, y, z'
loop_
 _atom_site_type_symbol
 _atom_site_label
 _atom_site_symmetry_multiplicity
 _atom_site_fract_x
 _atom_site_fract_y
 _atom_site_fract_z
 _atom_site_occupancy
  Sc  Sc0  1  0.091552  0.323037  0.985359  1
  Sc  Sc1  1  0.565902  0.836753  0.986914  1
  Sc  Sc2  1  0.089065  0.004865  0.321384  1
  Sc  Sc3  1  0.569189  0.490120  0.321220  1
  Sc  Sc4  1  0.571803  0.143650  0.639536  1
  Sc  Sc5  1  0.086078  0.670236  0.637637  1
  C  C6  1  0.328863  0.077807  0.981911  1
  C  C7  1  0.329119  0.744407  0.314479  1
  O  O8  1  0.828675  0.911770  0.648636  1
  O  O9  1  0.328931  0.410132  0.646105  1
  O  O10  1  0.828947  0.244350  0.316550  1
