# generated using pymatgen
data_CeDy3(GaPd2)4
_symmetry_space_group_name_H-M   'P 1'
_cell_length_a   5.65427558
_cell_length_b   7.17314100
_cell_length_c   7.38223656
_cell_angle_alpha   90.00000000
_cell_angle_beta   89.67957019
_cell_angle_gamma   90.00000000
_symmetry_Int_Tables_number   1
_chemical_formula_structural   CeDy3(GaPd2)4
_chemical_formula_sum   'Ce1 Dy3 Ga4 Pd8'
_cell_volume   299.41082995
_cell_formula_units_Z   1
loop_
 _symmetry_equiv_pos_site_id
 _symmetry_equiv_pos_as_xyz
  1  'x, y, z'
loop_
 _atom_site_type_symbol
 _atom_site_label
 _atom_site_symmetry_multiplicity
 _atom_site_fract_x
 _atom_site_fract_y
 _atom_site_fract_z
 _atom_site_occupancy
  Ce  Ce0  1  0.354092  0.750000  0.032051  1
  Dy  Dy1  1  0.146323  0.750000  0.529062  1
  Dy  Dy2  1  0.650939  0.250000  0.969627  1
  Dy  Dy3  1  0.853165  0.250000  0.468168  1
  Ga  Ga4  1  0.646061  0.750000  0.388901  1
  Ga  Ga5  1  0.854919  0.750000  0.882458  1
  Ga  Ga6  1  0.354665  0.250000  0.616101  1
  Ga  Ga7  1  0.146201  0.250000  0.115128  1
  Pd  Pd8  1  0.912692  0.551903  0.184416  1
  Pd  Pd9  1  0.586270  0.949533  0.683524  1
  Pd  Pd10  1  0.083922  0.051863  0.814866  1
  Pd  Pd11  1  0.413934  0.448531  0.316447  1
  Pd  Pd12  1  0.083922  0.448137  0.814866  1
  Pd  Pd13  1  0.413934  0.051469  0.316447  1
  Pd  Pd14  1  0.912692  0.948097  0.184416  1
  Pd  Pd15  1  0.586270  0.550467  0.683524  1
