# generated using pymatgen
data_Dy2HoTl5
_symmetry_space_group_name_H-M   'P 1'
_cell_length_a   6.65422500
_cell_length_b   10.55428600
_cell_length_c   12.41452500
_cell_angle_alpha   90.00000000
_cell_angle_beta   90.00000000
_cell_angle_gamma   90.00000000
_symmetry_Int_Tables_number   1
_chemical_formula_structural   Dy2HoTl5
_chemical_formula_sum   'Dy8 Ho4 Tl20'
_cell_volume   871.87946198
_cell_formula_units_Z   4
loop_
 _symmetry_equiv_pos_site_id
 _symmetry_equiv_pos_as_xyz
  1  'x, y, z'
loop_
 _atom_site_type_symbol
 _atom_site_label
 _atom_site_symmetry_multiplicity
 _atom_site_fract_x
 _atom_site_fract_y
 _atom_site_fract_z
 _atom_site_occupancy
  Dy  Dy0  1  0.886965  0.507492  0.357375  1
  Dy  Dy1  1  0.613035  0.992508  0.857375  1
  Dy  Dy2  1  0.113035  0.007492  0.642625  1
  Dy  Dy3  1  0.386965  0.492508  0.142625  1
  Dy  Dy4  1  0.113035  0.492508  0.642625  1
  Dy  Dy5  1  0.386965  0.007492  0.142625  1
  Dy  Dy6  1  0.886965  0.992508  0.357375  1
  Dy  Dy7  1  0.613035  0.507492  0.857375  1
  Ho  Ho8  1  0.857200  0.750000  0.055029  1
  Ho  Ho9  1  0.642800  0.750000  0.555029  1
  Ho  Ho10  1  0.142800  0.250000  0.944971  1
  Ho  Ho11  1  0.357200  0.250000  0.444971  1
  Tl  Tl12  1  0.865817  0.039248  0.100294  1
  Tl  Tl13  1  0.634183  0.460752  0.600294  1
  Tl  Tl14  1  0.134183  0.539248  0.899706  1
  Tl  Tl15  1  0.365817  0.960752  0.399706  1
  Tl  Tl16  1  0.134183  0.960752  0.899706  1
  Tl  Tl17  1  0.365817  0.539248  0.399706  1
  Tl  Tl18  1  0.865817  0.460752  0.100294  1
  Tl  Tl19  1  0.634183  0.039248  0.600294  1
  Tl  Tl20  1  0.150868  0.750000  0.242879  1
  Tl  Tl21  1  0.349132  0.750000  0.742879  1
  Tl  Tl22  1  0.849132  0.250000  0.757121  1
  Tl  Tl23  1  0.650868  0.250000  0.257121  1
  Tl  Tl24  1  0.401326  0.750000  0.011247  1
  Tl  Tl25  1  0.098674  0.750000  0.511247  1
  Tl  Tl26  1  0.598674  0.250000  0.988753  1
  Tl  Tl27  1  0.901326  0.250000  0.488753  1
  Tl  Tl28  1  0.632292  0.750000  0.284979  1
  Tl  Tl29  1  0.867708  0.750000  0.784979  1
  Tl  Tl30  1  0.367708  0.250000  0.715021  1
  Tl  Tl31  1  0.132292  0.250000  0.215021  1
