# generated using pymatgen
data_Tb5Er11Cd3AgIr4
_symmetry_space_group_name_H-M   'P 1'
_cell_length_a   9.58974729
_cell_length_b   9.58511184
_cell_length_c   9.58511188
_cell_angle_alpha   59.84147156
_cell_angle_beta   59.84850215
_cell_angle_gamma   59.84850677
_symmetry_Int_Tables_number   1
_chemical_formula_structural   Tb5Er11Cd3AgIr4
_chemical_formula_sum   'Tb5 Er11 Cd3 Ag1 Ir4'
_cell_volume   620.82275770
_cell_formula_units_Z   1
loop_
 _symmetry_equiv_pos_site_id
 _symmetry_equiv_pos_as_xyz
  1  'x, y, z'
loop_
 _atom_site_type_symbol
 _atom_site_label
 _atom_site_symmetry_multiplicity
 _atom_site_fract_x
 _atom_site_fract_y
 _atom_site_fract_z
 _atom_site_occupancy
  Tb  Tb0  1  0.810789  0.187907  0.187907  1
  Tb  Tb1  1  0.811702  0.186162  0.810852  1
  Tb  Tb2  1  0.187790  0.810879  0.187130  1
  Tb  Tb3  1  0.811702  0.810852  0.186162  1
  Tb  Tb4  1  0.187790  0.187130  0.810879  1
  Er  Er5  1  0.598673  0.598725  0.598725  1
  Er  Er6  1  0.599632  0.600332  0.202866  1
  Er  Er7  1  0.599632  0.202866  0.600332  1
  Er  Er8  1  0.202290  0.600201  0.600201  1
  Er  Er9  1  0.060750  0.438788  0.438788  1
  Er  Er10  1  0.437064  0.060904  0.060904  1
  Er  Er11  1  0.438561  0.060492  0.439215  1
  Er  Er12  1  0.060867  0.437636  0.060526  1
  Er  Er13  1  0.438561  0.439215  0.060492  1
  Er  Er14  1  0.060867  0.060526  0.437636  1
  Er  Er15  1  0.187192  0.810542  0.810542  1
  Cd  Cd16  1  0.830951  0.831027  0.509301  1
  Cd  Cd17  1  0.830951  0.509301  0.831027  1
  Cd  Cd18  1  0.508987  0.830925  0.830925  1
  Ag  Ag19  1  0.833443  0.832386  0.832386  1
  Ir  Ir20  1  0.391899  0.391901  0.391901  1
  Ir  Ir21  1  0.392188  0.393325  0.825434  1
  Ir  Ir22  1  0.392188  0.825434  0.393325  1
  Ir  Ir23  1  0.825534  0.392546  0.392546  1
