# generated using pymatgen
data_Dy2Ho6In3Rh
_symmetry_space_group_name_H-M   'P 1'
_cell_length_a   10.40743200
_cell_length_b   10.40775665
_cell_length_c   7.00701700
_cell_angle_alpha   89.99859055
_cell_angle_beta   89.99947408
_cell_angle_gamma   119.99853180
_symmetry_Int_Tables_number   1
_chemical_formula_structural   Dy2Ho6In3Rh
_chemical_formula_sum   'Dy4 Ho12 In6 Rh2'
_cell_volume   657.31105843
_cell_formula_units_Z   2
loop_
 _symmetry_equiv_pos_site_id
 _symmetry_equiv_pos_as_xyz
  1  'x, y, z'
loop_
 _atom_site_type_symbol
 _atom_site_label
 _atom_site_symmetry_multiplicity
 _atom_site_fract_x
 _atom_site_fract_y
 _atom_site_fract_z
 _atom_site_occupancy
  Dy  Dy0  1  0.532786  0.065573  0.507409  1
  Dy  Dy1  1  0.934510  0.467258  0.507440  1
  Dy  Dy2  1  0.532751  0.467259  0.507440  1
  Dy  Dy3  1  0.467160  0.934320  0.007389  1
  Ho  Ho4  1  0.065812  0.532889  0.007464  1
  Ho  Ho5  1  0.467080  0.532889  0.007465  1
  Ho  Ho6  1  0.176455  0.352905  0.713143  1
  Ho  Ho7  1  0.647204  0.823545  0.713062  1
  Ho  Ho8  1  0.176341  0.823547  0.713065  1
  Ho  Ho9  1  0.823571  0.647144  0.212784  1
  Ho  Ho10  1  0.352799  0.176498  0.212869  1
  Ho  Ho11  1  0.823699  0.176499  0.212869  1
  Ho  Ho12  1  0.666715  0.333432  0.887891  1
  Ho  Ho13  1  0.333274  0.666549  0.387671  1
  Ho  Ho14  1  0.999984  0.999969  0.493616  1
  Ho  Ho15  1  0.999999  0.999999  0.993730  1
  In  In16  1  0.837445  0.674890  0.751493  1
  In  In17  1  0.325108  0.162562  0.751461  1
  In  In18  1  0.837455  0.162562  0.751464  1
  In  In19  1  0.162615  0.325231  0.251310  1
  In  In20  1  0.674848  0.837372  0.251370  1
  In  In21  1  0.162522  0.837370  0.251371  1
  Rh  Rh22  1  0.666666  0.333332  0.282016  1
  Rh  Rh23  1  0.333199  0.666405  0.782248  1
