# generated using pymatgen
data_Nd12IrOs2Ru
_symmetry_space_group_name_H-M   'P 1'
_cell_length_a   6.51024219
_cell_length_b   7.48049655
_cell_length_c   9.76155000
_cell_angle_alpha   90.00000000
_cell_angle_beta   90.00000000
_cell_angle_gamma   89.98016357
_symmetry_Int_Tables_number   1
_chemical_formula_structural   Nd12IrOs2Ru
_chemical_formula_sum   'Nd12 Ir1 Os2 Ru1'
_cell_volume   475.38593633
_cell_formula_units_Z   1
loop_
 _symmetry_equiv_pos_site_id
 _symmetry_equiv_pos_as_xyz
  1  'x, y, z'
loop_
 _atom_site_type_symbol
 _atom_site_label
 _atom_site_symmetry_multiplicity
 _atom_site_fract_x
 _atom_site_fract_y
 _atom_site_fract_z
 _atom_site_occupancy
  Nd  Nd0  1  0.328105  0.675945  0.068730  1
  Nd  Nd1  1  0.170310  0.176430  0.432573  1
  Nd  Nd2  1  0.670526  0.322010  0.566491  1
  Nd  Nd3  1  0.831633  0.825058  0.933704  1
  Nd  Nd4  1  0.670526  0.322010  0.933509  1
  Nd  Nd5  1  0.831633  0.825058  0.566296  1
  Nd  Nd6  1  0.328105  0.675945  0.431270  1
  Nd  Nd7  1  0.170310  0.176430  0.067427  1
  Nd  Nd8  1  0.854306  0.538905  0.250000  1
  Nd  Nd9  1  0.643932  0.037488  0.250000  1
  Nd  Nd10  1  0.142498  0.459978  0.750000  1
  Nd  Nd11  1  0.355897  0.963358  0.750000  1
  Ir  Ir12  1  0.556594  0.616819  0.750000  1
  Os  Os13  1  0.054557  0.883051  0.250000  1
  Os  Os14  1  0.942650  0.117065  0.750000  1
  Ru  Ru15  1  0.448413  0.384450  0.250000  1
