# generated using pymatgen
data_Hf9ZrIn3Ga2Pb3
_symmetry_space_group_name_H-M   'P 1'
_cell_length_a   8.73755825
_cell_length_b   8.74117422
_cell_length_c   5.89801800
_cell_angle_alpha   90.00000000
_cell_angle_beta   90.00000000
_cell_angle_gamma   120.01369104
_symmetry_Int_Tables_number   1
_chemical_formula_structural   Hf9ZrIn3Ga2Pb3
_chemical_formula_sum   'Hf9 Zr1 In3 Ga2 Pb3'
_cell_volume   390.06470407
_cell_formula_units_Z   1
loop_
 _symmetry_equiv_pos_site_id
 _symmetry_equiv_pos_as_xyz
  1  'x, y, z'
loop_
 _atom_site_type_symbol
 _atom_site_label
 _atom_site_symmetry_multiplicity
 _atom_site_fract_x
 _atom_site_fract_y
 _atom_site_fract_z
 _atom_site_occupancy
  Hf  Hf0  1  0.666558  0.333104  0.994962  1
  Hf  Hf1  1  0.333442  0.666547  0.994962  1
  Hf  Hf2  1  0.333442  0.666547  0.505038  1
  Hf  Hf3  1  0.666558  0.333104  0.505038  1
  Hf  Hf4  1  0.732418  0.733075  0.750000  1
  Hf  Hf5  1  0.267582  0.000658  0.750000  1
  Hf  Hf6  1  0.000000  0.267737  0.750000  1
  Hf  Hf7  1  0.259644  0.258656  0.250000  1
  Hf  Hf8  1  0.740356  0.999012  0.250000  1
  Zr  Zr9  1  0.000000  0.741126  0.250000  1
  In  In10  1  0.385321  0.385232  0.750000  1
  In  In11  1  0.614679  0.999911  0.750000  1
  In  In12  1  0.000000  0.615275  0.750000  1
  Ga  Ga13  1  0.000000  0.000790  0.990921  1
  Ga  Ga14  1  0.000000  0.000790  0.509079  1
  Pb  Pb15  1  0.608759  0.608902  0.250000  1
  Pb  Pb16  1  0.391241  0.000143  0.250000  1
  Pb  Pb17  1  0.000000  0.389393  0.250000  1
