# generated using pymatgen
data_Cs12Na8Ti3SnSb12
_symmetry_space_group_name_H-M   'P 1'
_cell_length_a   11.67521149
_cell_length_b   11.67521183
_cell_length_c   17.57503969
_cell_angle_alpha   89.95738733
_cell_angle_beta   89.95738802
_cell_angle_gamma   142.83383530
_symmetry_Int_Tables_number   1
_chemical_formula_structural   Cs12Na8Ti3SnSb12
_chemical_formula_sum   'Cs12 Na8 Ti3 Sn1 Sb12'
_cell_volume   1447.28504426
_cell_formula_units_Z   1
loop_
 _symmetry_equiv_pos_site_id
 _symmetry_equiv_pos_as_xyz
  1  'x, y, z'
loop_
 _atom_site_type_symbol
 _atom_site_label
 _atom_site_symmetry_multiplicity
 _atom_site_fract_x
 _atom_site_fract_y
 _atom_site_fract_z
 _atom_site_occupancy
  Cs  Cs0  1  0.943085  0.607400  0.829863  1
  Cs  Cs1  1  0.556045  0.892408  0.327435  1
  Cs  Cs2  1  0.392600  0.056915  0.170137  1
  Cs  Cs3  1  0.057524  0.393466  0.171964  1
  Cs  Cs4  1  0.898620  0.565257  0.327873  1
  Cs  Cs5  1  0.434743  0.101380  0.672127  1
  Cs  Cs6  1  0.606534  0.942476  0.828036  1
  Cs  Cs7  1  0.274347  0.272535  0.320088  1
  Cs  Cs8  1  0.776861  0.776795  0.178651  1
  Cs  Cs9  1  0.223205  0.223139  0.821349  1
  Cs  Cs10  1  0.727465  0.725653  0.679912  1
  Cs  Cs11  1  0.107592  0.443955  0.672565  1
  Na  Na12  1  0.919657  0.080343  0.000000  1
  Na  Na13  1  0.581175  0.418825  0.500000  1
  Na  Na14  1  0.080285  0.919715  0.000000  1
  Na  Na15  1  0.418698  0.581302  0.500000  1
  Na  Na16  1  0.754344  0.245656  0.000000  1
  Na  Na17  1  0.745783  0.254217  0.500000  1
  Na  Na18  1  0.245755  0.754245  0.000000  1
  Na  Na19  1  0.254565  0.745435  0.500000  1
  Ti  Ti20  1  0.585178  0.414822  0.000000  1
  Ti  Ti21  1  0.916032  0.083968  0.500000  1
  Ti  Ti22  1  0.414827  0.585173  0.000000  1
  Sn  Sn23  1  0.084605  0.915395  0.500000  1
  Sb  Sb24  1  0.866015  0.555726  0.090964  1
  Sb  Sb25  1  0.444274  0.133985  0.909036  1
  Sb  Sb26  1  0.636254  0.945852  0.591183  1
  Sb  Sb27  1  0.935496  0.617691  0.597882  1
  Sb  Sb28  1  0.134055  0.444213  0.909118  1
  Sb  Sb29  1  0.555787  0.865945  0.090882  1
  Sb  Sb30  1  0.382309  0.064504  0.402118  1
  Sb  Sb31  1  0.200371  0.208142  0.588570  1
  Sb  Sb32  1  0.694612  0.694705  0.917524  1
  Sb  Sb33  1  0.305295  0.305388  0.082476  1
  Sb  Sb34  1  0.054148  0.363746  0.408817  1
  Sb  Sb35  1  0.791858  0.799629  0.411430  1
