# generated using pymatgen
data_HoBi3Ru2O11
_symmetry_space_group_name_H-M   'P 1'
_cell_length_a   6.52859142
_cell_length_b   7.52217573
_cell_length_c   9.80088256
_cell_angle_alpha   100.99154749
_cell_angle_beta   91.26600932
_cell_angle_gamma   90.16129559
_symmetry_Int_Tables_number   1
_chemical_formula_structural   HoBi3Ru2O11
_chemical_formula_sum   'Ho2 Bi6 Ru4 O22'
_cell_volume   472.35662744
_cell_formula_units_Z   2
loop_
 _symmetry_equiv_pos_site_id
 _symmetry_equiv_pos_as_xyz
  1  'x, y, z'
loop_
 _atom_site_type_symbol
 _atom_site_label
 _atom_site_symmetry_multiplicity
 _atom_site_fract_x
 _atom_site_fract_y
 _atom_site_fract_z
 _atom_site_occupancy
  Ho  Ho0  1  0.749217  0.371595  0.478431  1
  Ho  Ho1  1  0.250783  0.628405  0.521569  1
  Bi  Bi2  1  0.757362  0.869935  0.491376  1
  Bi  Bi3  1  0.242638  0.130065  0.508624  1
  Bi  Bi4  1  0.470533  0.952693  0.820230  1
  Bi  Bi5  1  0.529467  0.047307  0.179770  1
  Bi  Bi6  1  0.397128  0.453346  0.825012  1
  Bi  Bi7  1  0.602872  0.546654  0.174988  1
  Ru  Ru8  1  0.932916  0.702493  0.810361  1
  Ru  Ru9  1  0.067084  0.297507  0.189639  1
  Ru  Ru10  1  0.929858  0.203720  0.812042  1
  Ru  Ru11  1  0.070142  0.796280  0.187958  1
  O  O12  1  0.228478  0.719908  0.759662  1
  O  O13  1  0.771522  0.280092  0.240338  1
  O  O14  1  0.636561  0.674351  0.833578  1
  O  O15  1  0.363439  0.325649  0.166422  1
  O  O16  1  0.634766  0.243469  0.847284  1
  O  O17  1  0.365234  0.756531  0.152716  1
  O  O18  1  0.882803  0.184067  0.607710  1
  O  O19  1  0.117197  0.815933  0.392290  1
  O  O20  1  0.224587  0.157914  0.760301  1
  O  O21  1  0.775413  0.842086  0.239699  1
  O  O22  1  0.903403  0.626563  0.601033  1
  O  O23  1  0.096597  0.373437  0.398967  1
  O  O24  1  0.005673  0.542694  0.171724  1
  O  O25  1  0.994327  0.457306  0.828276  1
  O  O26  1  0.998220  0.786058  0.999394  1
  O  O27  1  0.001780  0.213942  0.000606  1
  O  O28  1  0.569224  0.600444  0.397893  1
  O  O29  1  0.430776  0.399556  0.602107  1
  O  O30  1  0.158334  0.055007  0.222306  1
  O  O31  1  0.841666  0.944993  0.777694  1
  O  O32  1  0.549357  0.104346  0.401903  1
  O  O33  1  0.450643  0.895654  0.598097  1
