# generated using pymatgen
data_Cu2B2F9
_symmetry_space_group_name_H-M   'P 1'
_cell_length_a   4.72788761
_cell_length_b   5.62108863
_cell_length_c   7.89532099
_cell_angle_alpha   73.85269555
_cell_angle_beta   90.15063546
_cell_angle_gamma   116.42522241
_symmetry_Int_Tables_number   1
_chemical_formula_structural   Cu2B2F9
_chemical_formula_sum   'Cu2 B2 F9'
_cell_volume   178.69024904
_cell_formula_units_Z   1
loop_
 _symmetry_equiv_pos_site_id
 _symmetry_equiv_pos_as_xyz
  1  'x, y, z'
loop_
 _atom_site_type_symbol
 _atom_site_label
 _atom_site_symmetry_multiplicity
 _atom_site_fract_x
 _atom_site_fract_y
 _atom_site_fract_z
 _atom_site_occupancy
  Cu  Cu0  1  0.543861  0.081713  0.958095  1
  Cu  Cu1  1  0.085008  0.047418  0.334143  1
  B  B2  1  0.330809  0.620245  0.326857  1
  B  B3  1  0.923294  0.819827  0.759122  1
  F  F4  1  0.302666  0.164964  0.101561  1
  F  F5  1  0.116603  0.536564  0.207594  1
  F  F6  1  0.211271  0.707978  0.447490  1
  F  F7  1  0.396112  0.399775  0.418799  1
  F  F8  1  0.833524  0.894331  0.586054  1
  F  F9  1  0.630833  0.854731  0.228403  1
  F  F10  1  0.739143  0.859613  0.881376  1
  F  F11  1  0.865200  0.540667  0.811233  1
  F  F12  1  0.250773  0.999612  0.753217  1
