# generated using pymatgen
data_Zr7Co3
_symmetry_space_group_name_H-M   'P 1'
_cell_length_a   8.98210000
_cell_length_b   8.98210056
_cell_length_c   5.59233800
_cell_angle_alpha   90.00000000
_cell_angle_beta   90.00000000
_cell_angle_gamma   119.99999058
_symmetry_Int_Tables_number   1
_chemical_formula_structural   Zr7Co3
_chemical_formula_sum   'Zr14 Co6'
_cell_volume   390.73281283
_cell_formula_units_Z   2
loop_
 _symmetry_equiv_pos_site_id
 _symmetry_equiv_pos_as_xyz
  1  'x, y, z'
loop_
 _atom_site_type_symbol
 _atom_site_label
 _atom_site_symmetry_multiplicity
 _atom_site_fract_x
 _atom_site_fract_y
 _atom_site_fract_z
 _atom_site_occupancy
  Zr  Zr0  1  0.333333  0.666667  0.047009  1
  Zr  Zr1  1  0.666667  0.333333  0.547009  1
  Zr  Zr2  1  0.129167  0.870833  0.244607  1
  Zr  Zr3  1  0.258335  0.129167  0.744607  1
  Zr  Zr4  1  0.870833  0.741665  0.744607  1
  Zr  Zr5  1  0.129167  0.258335  0.244607  1
  Zr  Zr6  1  0.741665  0.870833  0.244607  1
  Zr  Zr7  1  0.870833  0.129167  0.744607  1
  Zr  Zr8  1  0.538433  0.461567  0.048422  1
  Zr  Zr9  1  0.076864  0.538433  0.548422  1
  Zr  Zr10  1  0.461567  0.923136  0.548422  1
  Zr  Zr11  1  0.538433  0.076864  0.048422  1
  Zr  Zr12  1  0.923136  0.461567  0.048422  1
  Zr  Zr13  1  0.461567  0.538433  0.548422  1
  Co  Co14  1  0.810700  0.189300  0.301302  1
  Co  Co15  1  0.621400  0.810700  0.801302  1
  Co  Co16  1  0.189300  0.378600  0.801302  1
  Co  Co17  1  0.810700  0.621400  0.301302  1
  Co  Co18  1  0.378600  0.189300  0.301302  1
  Co  Co19  1  0.189300  0.810700  0.801302  1
