# generated using pymatgen
data_Li30Si7Te
_symmetry_space_group_name_H-M   'P 1'
_cell_length_a   9.23300657
_cell_length_b   9.23317366
_cell_length_c   9.23277932
_cell_angle_alpha   109.45391375
_cell_angle_beta   109.44114638
_cell_angle_gamma   109.37818656
_symmetry_Int_Tables_number   1
_chemical_formula_structural   Li30Si7Te
_chemical_formula_sum   'Li30 Si7 Te1'
_cell_volume   606.95272861
_cell_formula_units_Z   1
loop_
 _symmetry_equiv_pos_site_id
 _symmetry_equiv_pos_as_xyz
  1  'x, y, z'
loop_
 _atom_site_type_symbol
 _atom_site_label
 _atom_site_symmetry_multiplicity
 _atom_site_fract_x
 _atom_site_fract_y
 _atom_site_fract_z
 _atom_site_occupancy
  Li  Li0  1  0.055057  0.536268  0.288358  1
  Li  Li1  1  0.259382  0.787569  0.718355  1
  Li  Li2  1  0.186150  0.962835  0.972161  1
  Li  Li3  1  0.974310  0.192091  0.016280  1
  Li  Li4  1  0.035548  0.013335  0.223239  1
  Li  Li5  1  0.790584  0.812197  0.776969  1
  Li  Li6  1  0.473765  0.756579  0.547010  1
  Li  Li7  1  0.209780  0.940721  0.475393  1
  Li  Li8  1  0.712606  0.346561  0.060843  1
  Li  Li9  1  0.941677  0.391846  0.850040  1
  Li  Li10  1  0.286642  0.663943  0.930370  1
  Li  Li11  1  0.537532  0.092575  0.133988  1
  Li  Li12  1  0.691366  0.850587  0.085175  1
  Li  Li13  1  0.506948  0.922013  0.349448  1
  Li  Li14  1  0.561397  0.152284  0.665353  1
  Li  Li15  1  0.763338  0.598932  0.910108  1
  Li  Li16  1  0.843376  0.508888  0.412120  1
  Li  Li17  1  0.413526  0.304366  0.161229  1
  Li  Li18  1  0.141051  0.224556  0.817608  1
  Li  Li19  1  0.096956  0.436784  0.588038  1
  Li  Li20  1  0.902663  0.040743  0.437254  1
  Li  Li21  1  0.347592  0.285221  0.637908  1
  Li  Li22  1  0.600090  0.459815  0.565649  1
  Li  Li23  1  0.672752  0.724002  0.382128  1
  Li  Li24  1  0.004694  0.872693  0.626081  1
  Li  Li25  1  0.244905  0.365185  0.384371  1
  Li  Li26  1  0.115370  0.759945  0.120333  1
  Li  Li27  1  0.622455  0.000694  0.878922  1
  Li  Li28  1  0.509884  0.494923  0.990054  1
  Li  Li29  1  0.750867  0.254066  0.497685  1
  Si  Si30  1  0.374992  0.125607  0.836013  1
  Si  Si31  1  0.961161  0.625607  0.750681  1
  Si  Si32  1  0.876014  0.211279  0.250454  1
  Si  Si33  1  0.372973  0.123853  0.332085  1
  Si  Si34  1  0.787722  0.038107  0.663006  1
  Si  Si35  1  0.457115  0.623187  0.749180  1
  Si  Si36  1  0.874280  0.706917  0.247735  1
  Te  Te37  1  0.293483  0.543220  0.168382  1
