# generated using pymatgen
data_Ho17Lu3Si15Au
_symmetry_space_group_name_H-M   'P 1'
_cell_length_a   7.37952467
_cell_length_b   7.64117028
_cell_length_c   14.54401225
_cell_angle_alpha   89.83578502
_cell_angle_beta   89.46212368
_cell_angle_gamma   90.13494955
_symmetry_Int_Tables_number   1
_chemical_formula_structural   Ho17Lu3Si15Au
_chemical_formula_sum   'Ho17 Lu3 Si15 Au1'
_cell_volume   820.06890521
_cell_formula_units_Z   1
loop_
 _symmetry_equiv_pos_site_id
 _symmetry_equiv_pos_as_xyz
  1  'x, y, z'
loop_
 _atom_site_type_symbol
 _atom_site_label
 _atom_site_symmetry_multiplicity
 _atom_site_fract_x
 _atom_site_fract_y
 _atom_site_fract_z
 _atom_site_occupancy
  Ho  Ho0  1  0.349710  0.011013  0.750556  1
  Ho  Ho1  1  0.976380  0.820236  0.100825  1
  Ho  Ho2  1  0.473257  0.683263  0.401262  1
  Ho  Ho3  1  0.522986  0.318602  0.900329  1
  Ho  Ho4  1  0.028155  0.182087  0.597819  1
  Ho  Ho5  1  0.026397  0.179073  0.900546  1
  Ho  Ho6  1  0.528138  0.317326  0.597492  1
  Ho  Ho7  1  0.477172  0.681730  0.101073  1
  Ho  Ho8  1  0.971111  0.817435  0.400558  1
  Ho  Ho9  1  0.676134  0.821273  0.877326  1
  Ho  Ho10  1  0.180050  0.680332  0.621411  1
  Ho  Ho11  1  0.820162  0.327952  0.124027  1
  Ho  Ho12  1  0.317256  0.176952  0.376204  1
  Ho  Ho13  1  0.322651  0.178014  0.124591  1
  Ho  Ho14  1  0.820074  0.321701  0.376865  1
  Ho  Ho15  1  0.179047  0.673748  0.877327  1
  Ho  Ho16  1  0.681610  0.821676  0.622183  1
  Lu  Lu17  1  0.649643  0.992032  0.249843  1
  Lu  Lu18  1  0.151830  0.510761  0.248965  1
  Lu  Lu19  1  0.847163  0.488331  0.750553  1
  Si  Si20  1  0.770143  0.632932  0.252588  1
  Si  Si21  1  0.269968  0.869404  0.251181  1
  Si  Si22  1  0.732872  0.127219  0.748564  1
  Si  Si23  1  0.228491  0.372788  0.746526  1
  Si  Si24  1  0.019234  0.103531  0.250193  1
  Si  Si25  1  0.521882  0.396919  0.252333  1
  Si  Si26  1  0.475143  0.604320  0.747096  1
  Si  Si27  1  0.976982  0.893624  0.748168  1
  Si  Si28  1  0.353427  0.972029  0.539833  1
  Si  Si29  1  0.651422  0.029486  0.042270  1
  Si  Si30  1  0.148485  0.470094  0.459627  1
  Si  Si31  1  0.159716  0.472464  0.043821  1
  Si  Si32  1  0.646166  0.028741  0.458456  1
  Si  Si33  1  0.349368  0.967829  0.962322  1
  Si  Si34  1  0.853108  0.529261  0.539734  1
  Au  Au35  1  0.844664  0.525823  0.957531  1
