# generated using pymatgen
data_ZnCo3Ag4(PO4)4
_symmetry_space_group_name_H-M   'P 1'
_cell_length_a   10.60002626
_cell_length_b   5.24834652
_cell_length_c   9.07657807
_cell_angle_alpha   55.13451309
_cell_angle_beta   89.98988327
_cell_angle_gamma   90.01354306
_symmetry_Int_Tables_number   1
_chemical_formula_structural   ZnCo3Ag4(PO4)4
_chemical_formula_sum   'Zn1 Co3 Ag4 P4 O16'
_cell_volume   414.31266594
_cell_formula_units_Z   1
loop_
 _symmetry_equiv_pos_site_id
 _symmetry_equiv_pos_as_xyz
  1  'x, y, z'
loop_
 _atom_site_type_symbol
 _atom_site_label
 _atom_site_symmetry_multiplicity
 _atom_site_fract_x
 _atom_site_fract_y
 _atom_site_fract_z
 _atom_site_occupancy
  Zn  Zn0  1  0.841160  0.665883  0.524912  1
  Co  Co1  1  0.341276  0.336296  0.973957  1
  Co  Co2  1  0.158621  0.336270  0.474274  1
  Co  Co3  1  0.658715  0.663832  0.025762  1
  Ag  Ag4  1  0.392726  0.820506  0.479266  1
  Ag  Ag5  1  0.107237  0.820536  0.979234  1
  Ag  Ag6  1  0.607103  0.179796  0.520752  1
  Ag  Ag7  1  0.892710  0.179206  0.020794  1
  P  P8  1  0.395059  0.600604  0.209449  1
  P  P9  1  0.104698  0.600772  0.709099  1
  P  P10  1  0.605300  0.399256  0.790388  1
  P  P11  1  0.895006  0.399308  0.291368  1
  O  O12  1  0.377727  0.914004  0.189454  1
  O  O13  1  0.122031  0.913919  0.689417  1
  O  O14  1  0.622269  0.085811  0.810487  1
  O  O15  1  0.877591  0.085811  0.311176  1
  O  O16  1  0.537953  0.514340  0.225743  1
  O  O17  1  0.961867  0.513492  0.725207  1
  O  O18  1  0.462415  0.486138  0.774010  1
  O  O19  1  0.037933  0.485250  0.274487  1
  O  O20  1  0.336233  0.629638  0.044251  1
  O  O21  1  0.164065  0.629842  0.544202  1
  O  O22  1  0.663996  0.370373  0.955595  1
  O  O23  1  0.836380  0.370135  0.456722  1
  O  O24  1  0.331340  0.337918  0.388476  1
  O  O25  1  0.168356  0.338181  0.888349  1
  O  O26  1  0.668956  0.661887  0.611096  1
  O  O27  1  0.831279  0.660996  0.112073  1
