# generated using pymatgen
data_Ca3NdAl18(IrPd2)2
_symmetry_space_group_name_H-M   'P 1'
_cell_length_a   7.66158380
_cell_length_b   7.64437427
_cell_length_c   9.58498330
_cell_angle_alpha   89.92462387
_cell_angle_beta   89.97450925
_cell_angle_gamma   119.51090320
_symmetry_Int_Tables_number   1
_chemical_formula_structural   Ca3NdAl18(IrPd2)2
_chemical_formula_sum   'Ca3 Nd1 Al18 Ir2 Pd4'
_cell_volume   488.54114735
_cell_formula_units_Z   1
loop_
 _symmetry_equiv_pos_site_id
 _symmetry_equiv_pos_as_xyz
  1  'x, y, z'
loop_
 _atom_site_type_symbol
 _atom_site_label
 _atom_site_symmetry_multiplicity
 _atom_site_fract_x
 _atom_site_fract_y
 _atom_site_fract_z
 _atom_site_occupancy
  Ca  Ca0  1  0.994521  0.669659  0.251932  1
  Ca  Ca1  1  0.003517  0.329091  0.748365  1
  Ca  Ca2  1  0.672218  0.996211  0.251797  1
  Nd  Nd3  1  0.329592  0.002276  0.748472  1
  Al  Al4  1  0.130974  0.132699  0.251210  1
  Al  Al5  1  0.868480  0.867614  0.748585  1
  Al  Al6  1  0.002404  0.335013  0.076250  1
  Al  Al7  1  0.995772  0.662993  0.924838  1
  Al  Al8  1  0.998363  0.658765  0.571951  1
  Al  Al9  1  0.339299  0.999925  0.423487  1
  Al  Al10  1  0.999308  0.339402  0.427128  1
  Al  Al11  1  0.663976  0.000318  0.571188  1
  Al  Al12  1  0.667138  0.997649  0.924798  1
  Al  Al13  1  0.334838  0.002474  0.079172  1
  Al  Al14  1  0.334589  0.336041  0.545849  1
  Al  Al15  1  0.664508  0.665225  0.452273  1
  Al  Al16  1  0.664645  0.665017  0.056700  1
  Al  Al17  1  0.334601  0.335945  0.945710  1
  Al  Al18  1  0.338419  0.546811  0.253930  1
  Al  Al19  1  0.661097  0.454499  0.746322  1
  Al  Al20  1  0.546496  0.340111  0.253603  1
  Al  Al21  1  0.455668  0.662038  0.746281  1
  Ir  Ir22  1  0.329044  0.671454  0.500525  1
  Ir  Ir23  1  0.669737  0.328621  0.500083  1
  Pd  Pd24  1  0.670639  0.328513  0.999943  1
  Pd  Pd25  1  0.328830  0.671604  0.999532  1
  Pd  Pd26  1  0.000546  0.999919  0.999827  1
  Pd  Pd27  1  0.000781  0.000114  0.500248  1
