# generated using pymatgen
data_La3PrNd2(RuBr3)2
_symmetry_space_group_name_H-M   'P 1'
_cell_length_a   4.25951600
_cell_length_b   9.15578602
_cell_length_c   12.22610261
_cell_angle_alpha   87.41874927
_cell_angle_beta   90.00000000
_cell_angle_gamma   90.00000000
_symmetry_Int_Tables_number   1
_chemical_formula_structural   La3PrNd2(RuBr3)2
_chemical_formula_sum   'La3 Pr1 Nd2 Ru2 Br6'
_cell_volume   476.32464085
_cell_formula_units_Z   1
loop_
 _symmetry_equiv_pos_site_id
 _symmetry_equiv_pos_as_xyz
  1  'x, y, z'
loop_
 _atom_site_type_symbol
 _atom_site_label
 _atom_site_symmetry_multiplicity
 _atom_site_fract_x
 _atom_site_fract_y
 _atom_site_fract_z
 _atom_site_occupancy
  La  La0  1  0.250000  0.322204  0.379586  1
  La  La1  1  0.250000  0.897465  0.390601  1
  La  La2  1  0.250000  0.880462  0.836158  1
  Pr  Pr3  1  0.750000  0.120663  0.157563  1
  Nd  Nd4  1  0.750000  0.675973  0.622690  1
  Nd  Nd5  1  0.750000  0.102850  0.610817  1
  Ru  Ru6  1  0.250000  0.885151  0.629263  1
  Ru  Ru7  1  0.750000  0.115066  0.376762  1
  Br  Br8  1  0.250000  0.395717  0.629912  1
  Br  Br9  1  0.750000  0.605533  0.375625  1
  Br  Br10  1  0.250000  0.886788  0.115041  1
  Br  Br11  1  0.750000  0.119506  0.881984  1
  Br  Br12  1  0.250000  0.351914  0.123870  1
  Br  Br13  1  0.750000  0.640707  0.870132  1
