# generated using pymatgen
data_Zr4ReOs6W
_symmetry_space_group_name_H-M   'P 1'
_cell_length_a   5.19047842
_cell_length_b   5.19047977
_cell_length_c   8.71164300
_cell_angle_alpha   90.00000000
_cell_angle_beta   90.00000000
_cell_angle_gamma   117.63723902
_symmetry_Int_Tables_number   1
_chemical_formula_structural   Zr4ReOs6W
_chemical_formula_sum   'Zr4 Re1 Os6 W1'
_cell_volume   207.92216058
_cell_formula_units_Z   1
loop_
 _symmetry_equiv_pos_site_id
 _symmetry_equiv_pos_as_xyz
  1  'x, y, z'
loop_
 _atom_site_type_symbol
 _atom_site_label
 _atom_site_symmetry_multiplicity
 _atom_site_fract_x
 _atom_site_fract_y
 _atom_site_fract_z
 _atom_site_occupancy
  Zr  Zr0  1  0.333477  0.666523  0.434232  1
  Zr  Zr1  1  0.668331  0.331669  0.564638  1
  Zr  Zr2  1  0.668331  0.331669  0.935362  1
  Zr  Zr3  1  0.333477  0.666523  0.065768  1
  Re  Re4  1  0.829309  0.170691  0.250000  1
  Os  Os5  1  0.999516  0.000484  0.498242  1
  Os  Os6  1  0.999516  0.000484  0.001758  1
  Os  Os7  1  0.830694  0.654720  0.250000  1
  Os  Os8  1  0.345280  0.169306  0.250000  1
  Os  Os9  1  0.170405  0.346121  0.750000  1
  Os  Os10  1  0.653879  0.829595  0.750000  1
  W  W11  1  0.167788  0.832212  0.750000  1
