# generated using pymatgen
data_Sr4HoU7Se20
_symmetry_space_group_name_H-M   'P 1'
_cell_length_a   7.81855030
_cell_length_b   8.57309199
_cell_length_c   12.31267178
_cell_angle_alpha   90.42285008
_cell_angle_beta   90.05078499
_cell_angle_gamma   89.86612959
_symmetry_Int_Tables_number   1
_chemical_formula_structural   Sr4HoU7Se20
_chemical_formula_sum   'Sr4 Ho1 U7 Se20'
_cell_volume   825.28289496
_cell_formula_units_Z   1
loop_
 _symmetry_equiv_pos_site_id
 _symmetry_equiv_pos_as_xyz
  1  'x, y, z'
loop_
 _atom_site_type_symbol
 _atom_site_label
 _atom_site_symmetry_multiplicity
 _atom_site_fract_x
 _atom_site_fract_y
 _atom_site_fract_z
 _atom_site_occupancy
  Sr  Sr0  1  0.040180  0.008296  0.326971  1
  Sr  Sr1  1  0.542224  0.996911  0.174062  1
  Sr  Sr2  1  0.959319  0.994764  0.671994  1
  Sr  Sr3  1  0.458073  0.004282  0.827298  1
  Ho  Ho4  1  0.021128  0.503404  0.318912  1
  U  U5  1  0.521516  0.499363  0.180319  1
  U  U6  1  0.979387  0.499537  0.679752  1
  U  U7  1  0.479958  0.500704  0.819799  1
  U  U8  1  0.071431  0.745543  0.010247  1
  U  U9  1  0.571376  0.251209  0.492569  1
  U  U10  1  0.928031  0.252009  0.991925  1
  U  U11  1  0.427419  0.746013  0.505880  1
  Se  Se12  1  0.164400  0.452408  0.096876  1
  Se  Se13  1  0.662002  0.542771  0.402423  1
  Se  Se14  1  0.837036  0.545664  0.901503  1
  Se  Se15  1  0.337622  0.454179  0.599582  1
  Se  Se16  1  0.455098  0.720421  0.000145  1
  Se  Se17  1  0.953668  0.281410  0.500554  1
  Se  Se18  1  0.544708  0.281123  0.998016  1
  Se  Se19  1  0.046611  0.720106  0.501840  1
  Se  Se20  1  0.335822  0.272257  0.314404  1
  Se  Se21  1  0.829933  0.726199  0.184344  1
  Se  Se22  1  0.664847  0.724793  0.685863  1
  Se  Se23  1  0.165529  0.274237  0.813154  1
  Se  Se24  1  0.673664  0.958110  0.418667  1
  Se  Se25  1  0.172393  0.041808  0.081923  1
  Se  Se26  1  0.329463  0.040483  0.583350  1
  Se  Se27  1  0.828488  0.958562  0.917082  1
  Se  Se28  1  0.306409  0.736099  0.281614  1
  Se  Se29  1  0.808180  0.268117  0.215166  1
  Se  Se30  1  0.692714  0.265747  0.717471  1
  Se  Se31  1  0.191372  0.733469  0.786296  1
