# generated using pymatgen
data_YbLuPa2(Al3Ir)6
_symmetry_space_group_name_H-M   'P 1'
_cell_length_a   7.58837827
_cell_length_b   7.59472069
_cell_length_c   9.36786300
_cell_angle_alpha   90.00000000
_cell_angle_beta   90.00000000
_cell_angle_gamma   119.67197264
_symmetry_Int_Tables_number   1
_chemical_formula_structural   YbLuPa2(Al3Ir)6
_chemical_formula_sum   'Yb1 Lu1 Pa2 Al18 Ir6'
_cell_volume   469.09196903
_cell_formula_units_Z   1
loop_
 _symmetry_equiv_pos_site_id
 _symmetry_equiv_pos_as_xyz
  1  'x, y, z'
loop_
 _atom_site_type_symbol
 _atom_site_label
 _atom_site_symmetry_multiplicity
 _atom_site_fract_x
 _atom_site_fract_y
 _atom_site_fract_z
 _atom_site_occupancy
  Yb  Yb0  1  0.670457  0.993750  0.250000  1
  Lu  Lu1  1  0.330423  0.007042  0.750000  1
  Pa  Pa2  1  0.998497  0.671412  0.250000  1
  Pa  Pa3  1  0.001793  0.328347  0.750000  1
  Al  Al4  1  0.131711  0.126712  0.250000  1
  Al  Al5  1  0.869058  0.872675  0.750000  1
  Al  Al6  1  0.999573  0.330628  0.079122  1
  Al  Al7  1  0.999991  0.669286  0.920549  1
  Al  Al8  1  0.999991  0.669286  0.579451  1
  Al  Al9  1  0.339266  0.003364  0.425414  1
  Al  Al10  1  0.999573  0.330628  0.420878  1
  Al  Al11  1  0.660723  0.996207  0.574382  1
  Al  Al12  1  0.660723  0.996207  0.925618  1
  Al  Al13  1  0.339266  0.003364  0.074586  1
  Al  Al14  1  0.335227  0.332971  0.554516  1
  Al  Al15  1  0.664668  0.667005  0.446063  1
  Al  Al16  1  0.664668  0.667005  0.053937  1
  Al  Al17  1  0.335227  0.332971  0.945484  1
  Al  Al18  1  0.340598  0.547698  0.250000  1
  Al  Al19  1  0.658132  0.451837  0.750000  1
  Al  Al20  1  0.549602  0.342361  0.250000  1
  Al  Al21  1  0.451034  0.659773  0.750000  1
  Ir  Ir22  1  0.675761  0.330109  0.998154  1
  Ir  Ir23  1  0.322609  0.669382  0.999526  1
  Ir  Ir24  1  0.322609  0.669382  0.500474  1
  Ir  Ir25  1  0.675761  0.330109  0.501846  1
  Ir  Ir26  1  0.001528  0.000244  0.998765  1
  Ir  Ir27  1  0.001528  0.000244  0.501235  1
