# generated using pymatgen
data_Tb4NiB16Ir3
_symmetry_space_group_name_H-M   'P 1'
_cell_length_a   6.98661006
_cell_length_b   6.98661021
_cell_length_c   6.98660998
_cell_angle_alpha   112.24406693
_cell_angle_beta   111.33350770
_cell_angle_gamma   104.93074021
_symmetry_Int_Tables_number   1
_chemical_formula_structural   Tb4NiB16Ir3
_chemical_formula_sum   'Tb4 Ni1 B16 Ir3'
_cell_volume   261.28761410
_cell_formula_units_Z   1
loop_
 _symmetry_equiv_pos_site_id
 _symmetry_equiv_pos_as_xyz
  1  'x, y, z'
loop_
 _atom_site_type_symbol
 _atom_site_label
 _atom_site_symmetry_multiplicity
 _atom_site_fract_x
 _atom_site_fract_y
 _atom_site_fract_z
 _atom_site_occupancy
  Tb  Tb0  1  0.214499  0.211701  0.002798  1
  Tb  Tb1  1  0.791098  0.788299  0.002798  1
  Tb  Tb2  1  0.749327  0.248704  0.500622  1
  Tb  Tb3  1  0.251918  0.751296  0.500622  1
  Ni  Ni4  1  0.257422  0.500000  0.757422  1
  B  B5  1  0.108928  0.270475  0.379403  1
  B  B6  1  0.893764  0.734920  0.628684  1
  B  B7  1  0.893764  0.265080  0.158845  1
  B  B8  1  0.108928  0.729525  0.838452  1
  B  B9  1  0.731541  0.891734  0.623275  1
  B  B10  1  0.264839  0.109033  0.373871  1
  B  B11  1  0.731541  0.108266  0.839806  1
  B  B12  1  0.264839  0.890967  0.155807  1
  B  B13  1  0.413438  0.418268  0.530936  1
  B  B14  1  0.890058  0.890197  0.474839  1
  B  B15  1  0.584643  0.109803  0.999861  1
  B  B16  1  0.112668  0.581732  0.995170  1
  B  B17  1  0.584643  0.584782  0.474839  1
  B  B18  1  0.112668  0.117498  0.530936  1
  B  B19  1  0.890058  0.415218  0.999861  1
  B  B20  1  0.413438  0.882502  0.995170  1
  Ir  Ir21  1  0.496813  0.267209  0.764022  1
  Ir  Ir22  1  0.496813  0.732791  0.229604  1
  Ir  Ir23  1  0.742356  0.500000  0.242356  1
