# generated using pymatgen
data_TbTh2In3IrRh2
_symmetry_space_group_name_H-M   'P 1'
_cell_length_a   7.66245170
_cell_length_b   7.75991344
_cell_length_c   3.92259500
_cell_angle_alpha   90.00000000
_cell_angle_beta   90.00000000
_cell_angle_gamma   119.78590882
_symmetry_Int_Tables_number   1
_chemical_formula_structural   TbTh2In3IrRh2
_chemical_formula_sum   'Tb1 Th2 In3 Ir1 Rh2'
_cell_volume   202.42381547
_cell_formula_units_Z   1
loop_
 _symmetry_equiv_pos_site_id
 _symmetry_equiv_pos_as_xyz
  1  'x, y, z'
loop_
 _atom_site_type_symbol
 _atom_site_label
 _atom_site_symmetry_multiplicity
 _atom_site_fract_x
 _atom_site_fract_y
 _atom_site_fract_z
 _atom_site_occupancy
  Tb  Tb0  1  0.588957  0.995684  0.500000  1
  Th  Th1  1  0.999982  0.587142  0.500000  1
  Th  Th2  1  0.412056  0.415562  0.500000  1
  In  In3  1  0.748385  0.759735  0.000000  1
  In  In4  1  0.985852  0.239464  0.000000  1
  In  In5  1  0.265992  0.001277  0.000000  1
  Ir  Ir6  1  0.317541  0.647657  0.000000  1
  Rh  Rh7  1  0.011902  0.000087  0.500000  1
  Rh  Rh8  1  0.669334  0.353393  0.000000  1
