# generated using pymatgen
data_LaPr4Bi3O14
_symmetry_space_group_name_H-M   'P 1'
_cell_length_a   6.79817094
_cell_length_b   6.86751122
_cell_length_c   8.01795111
_cell_angle_alpha   106.68874414
_cell_angle_beta   89.68248526
_cell_angle_gamma   97.77067063
_symmetry_Int_Tables_number   1
_chemical_formula_structural   LaPr4Bi3O14
_chemical_formula_sum   'La1 Pr4 Bi3 O14'
_cell_volume   355.05181925
_cell_formula_units_Z   1
loop_
 _symmetry_equiv_pos_site_id
 _symmetry_equiv_pos_as_xyz
  1  'x, y, z'
loop_
 _atom_site_type_symbol
 _atom_site_label
 _atom_site_symmetry_multiplicity
 _atom_site_fract_x
 _atom_site_fract_y
 _atom_site_fract_z
 _atom_site_occupancy
  La  La0  1  0.754197  0.487288  0.619498  1
  Pr  Pr1  1  0.456279  0.007371  0.254930  1
  Pr  Pr2  1  0.538148  0.002903  0.750345  1
  Pr  Pr3  1  0.266740  0.530933  0.881815  1
  Pr  Pr4  1  0.745093  0.462496  0.115802  1
  Bi  Bi5  1  0.993276  0.998661  0.499466  1
  Bi  Bi6  1  0.998406  0.995394  0.997462  1
  Bi  Bi7  1  0.291081  0.538542  0.389959  1
  O  O8  1  0.442664  0.646000  0.173653  1
  O  O9  1  0.561602  0.362049  0.837737  1
  O  O10  1  0.294808  0.920833  0.953251  1
  O  O11  1  0.703724  0.072224  0.048539  1
  O  O12  1  0.288941  0.925482  0.512705  1
  O  O13  1  0.704230  0.084369  0.492947  1
  O  O14  1  0.546348  0.365792  0.344196  1
  O  O15  1  0.455713  0.639022  0.650014  1
  O  O16  1  0.925817  0.669830  0.948272  1
  O  O17  1  0.069772  0.313163  0.026181  1
  O  O18  1  0.073073  0.323799  0.624170  1
  O  O19  1  0.903025  0.677025  0.385148  1
  O  O20  1  0.884139  0.910794  0.728145  1
  O  O21  1  0.102925  0.066031  0.265766  1
