# generated using pymatgen
data_TmLu9(SiPb3)2
_symmetry_space_group_name_H-M   'P 1'
_cell_length_a   9.16788200
_cell_length_b   9.16060773
_cell_length_c   6.38333700
_cell_angle_alpha   90.00000000
_cell_angle_beta   90.00000000
_cell_angle_gamma   120.02627147
_symmetry_Int_Tables_number   1
_chemical_formula_structural   TmLu9(SiPb3)2
_chemical_formula_sum   'Tm1 Lu9 Si2 Pb6'
_cell_volume   464.14820484
_cell_formula_units_Z   1
loop_
 _symmetry_equiv_pos_site_id
 _symmetry_equiv_pos_as_xyz
  1  'x, y, z'
loop_
 _atom_site_type_symbol
 _atom_site_label
 _atom_site_symmetry_multiplicity
 _atom_site_fract_x
 _atom_site_fract_y
 _atom_site_fract_z
 _atom_site_occupancy
  Tm  Tm0  1  0.249297  0.000000  0.750000  1
  Lu  Lu1  1  0.751144  0.000000  0.250000  1
  Lu  Lu2  1  0.999959  0.248710  0.750000  1
  Lu  Lu3  1  0.999921  0.751174  0.250000  1
  Lu  Lu4  1  0.751248  0.751290  0.750000  1
  Lu  Lu5  1  0.248747  0.248826  0.250000  1
  Lu  Lu6  1  0.333372  0.666614  0.499979  1
  Lu  Lu7  1  0.666759  0.333386  0.499979  1
  Lu  Lu8  1  0.666759  0.333386  0.000021  1
  Lu  Lu9  1  0.333372  0.666614  0.000021  1
  Si  Si10  1  0.999556  0.000000  0.499355  1
  Si  Si11  1  0.999556  0.000000  0.000645  1
  Pb  Pb12  1  0.606547  0.000000  0.750000  1
  Pb  Pb13  1  0.393794  0.000000  0.250000  1
  Pb  Pb14  1  0.999747  0.605735  0.750000  1
  Pb  Pb15  1  0.000044  0.393876  0.250000  1
  Pb  Pb16  1  0.394012  0.394265  0.750000  1
  Pb  Pb17  1  0.606168  0.606124  0.250000  1
