# generated using pymatgen
data_Nd12N11
_symmetry_space_group_name_H-M   'P 1'
_cell_length_a   9.67857415
_cell_length_b   9.67857475
_cell_length_c   6.32380706
_cell_angle_alpha   89.89280166
_cell_angle_beta   89.89279892
_cell_angle_gamma   44.46083074
_symmetry_Int_Tables_number   1
_chemical_formula_structural   Nd12N11
_chemical_formula_sum   'Nd12 N11'
_cell_volume   414.91580854
_cell_formula_units_Z   1
loop_
 _symmetry_equiv_pos_site_id
 _symmetry_equiv_pos_as_xyz
  1  'x, y, z'
loop_
 _atom_site_type_symbol
 _atom_site_label
 _atom_site_symmetry_multiplicity
 _atom_site_fract_x
 _atom_site_fract_y
 _atom_site_fract_z
 _atom_site_occupancy
  Nd  Nd0  1  0.500000  0.000000  0.500000  1
  Nd  Nd1  1  0.175397  0.650413  0.827459  1
  Nd  Nd2  1  0.824603  0.349587  0.172541  1
  Nd  Nd3  1  0.349587  0.824603  0.172541  1
  Nd  Nd4  1  0.000000  0.500000  0.500000  1
  Nd  Nd5  1  0.650413  0.175397  0.827459  1
  Nd  Nd6  1  0.912798  0.912798  0.352019  1
  Nd  Nd7  1  0.583101  0.583101  0.672322  1
  Nd  Nd8  1  0.247826  0.247826  0.001162  1
  Nd  Nd9  1  0.416899  0.416899  0.327678  1
  Nd  Nd10  1  0.087202  0.087202  0.647981  1
  Nd  Nd11  1  0.752174  0.752174  0.998838  1
  N  N12  1  0.753649  0.246351  0.500000  1
  N  N13  1  0.414651  0.917257  0.834196  1
  N  N14  1  0.082743  0.585349  0.165804  1
  N  N15  1  0.585349  0.082743  0.165804  1
  N  N16  1  0.246351  0.753649  0.500000  1
  N  N17  1  0.917257  0.414651  0.834196  1
  N  N18  1  0.835243  0.835243  0.661767  1
  N  N19  1  0.500000  0.500000  0.000000  1
  N  N20  1  0.164757  0.164757  0.338233  1
  N  N21  1  0.664112  0.664112  0.326567  1
  N  N22  1  0.335888  0.335888  0.673433  1
