# generated using pymatgen
data_TbDy3Zn4Si3Ge
_symmetry_space_group_name_H-M   'P 1'
_cell_length_a   4.17873100
_cell_length_b   4.17873194
_cell_length_c   15.63759700
_cell_angle_alpha   90.00000000
_cell_angle_beta   90.00000000
_cell_angle_gamma   120.00000046
_symmetry_Int_Tables_number   1
_chemical_formula_structural   TbDy3Zn4Si3Ge
_chemical_formula_sum   'Tb1 Dy3 Zn4 Si3 Ge1'
_cell_volume   236.47736310
_cell_formula_units_Z   1
loop_
 _symmetry_equiv_pos_site_id
 _symmetry_equiv_pos_as_xyz
  1  'x, y, z'
loop_
 _atom_site_type_symbol
 _atom_site_label
 _atom_site_symmetry_multiplicity
 _atom_site_fract_x
 _atom_site_fract_y
 _atom_site_fract_z
 _atom_site_occupancy
  Tb  Tb0  1  0.000000  0.000000  0.499692  1
  Dy  Dy1  1  0.000000  0.000000  0.250315  1
  Dy  Dy2  1  0.000000  0.000000  0.748195  1
  Dy  Dy3  1  0.000000  0.000000  0.001728  1
  Zn  Zn4  1  0.333333  0.666667  0.141079  1
  Zn  Zn5  1  0.666667  0.333333  0.855331  1
  Zn  Zn6  1  0.666667  0.333333  0.639436  1
  Zn  Zn7  1  0.333333  0.666667  0.359794  1
  Si  Si8  1  0.333333  0.666667  0.617881  1
  Si  Si9  1  0.666667  0.333333  0.382192  1
  Si  Si10  1  0.666667  0.333333  0.118616  1
  Ge  Ge11  1  0.333333  0.666667  0.885741  1
