# generated using pymatgen
data_Tm2Lu2(Ga8Pt3)3
_symmetry_space_group_name_H-M   'P 1'
_cell_length_a   7.47775968
_cell_length_b   7.56249997
_cell_length_c   13.32577909
_cell_angle_alpha   84.78869189
_cell_angle_beta   79.59797312
_cell_angle_gamma   60.28037555
_symmetry_Int_Tables_number   1
_chemical_formula_structural   Tm2Lu2(Ga8Pt3)3
_chemical_formula_sum   'Tm2 Lu2 Ga24 Pt9'
_cell_volume   643.69892970
_cell_formula_units_Z   1
loop_
 _symmetry_equiv_pos_site_id
 _symmetry_equiv_pos_as_xyz
  1  'x, y, z'
loop_
 _atom_site_type_symbol
 _atom_site_label
 _atom_site_symmetry_multiplicity
 _atom_site_fract_x
 _atom_site_fract_y
 _atom_site_fract_z
 _atom_site_occupancy
  Tm  Tm0  1  0.732862  0.496993  0.811479  1
  Tm  Tm1  1  0.267138  0.503007  0.188521  1
  Lu  Lu2  1  0.393548  0.169170  0.811108  1
  Lu  Lu3  1  0.606452  0.830830  0.188892  1
  Ga  Ga4  1  0.684588  0.833865  0.937637  1
  Ga  Ga5  1  0.315412  0.166135  0.062363  1
  Ga  Ga6  1  0.145063  0.833273  0.559208  1
  Ga  Ga7  1  0.854937  0.166727  0.440792  1
  Ga  Ga8  1  0.477668  0.166967  0.556110  1
  Ga  Ga9  1  0.522332  0.833033  0.443890  1
  Ga  Ga10  1  0.221808  0.165600  0.321837  1
  Ga  Ga11  1  0.778192  0.834400  0.678163  1
  Ga  Ga12  1  0.437365  0.503078  0.677322  1
  Ga  Ga13  1  0.562635  0.496922  0.322678  1
  Ga  Ga14  1  0.106308  0.163905  0.676860  1
  Ga  Ga15  1  0.893692  0.836095  0.323140  1
  Ga  Ga16  1  0.358877  0.497162  0.937772  1
  Ga  Ga17  1  0.641123  0.502838  0.062228  1
  Ga  Ga18  1  0.020868  0.170245  0.941906  1
  Ga  Ga19  1  0.979132  0.829755  0.058094  1
  Ga  Ga20  1  0.187525  0.499147  0.443168  1
  Ga  Ga21  1  0.812475  0.500853  0.556832  1
  Ga  Ga22  1  0.733309  0.163785  0.181713  1
  Ga  Ga23  1  0.266691  0.836215  0.818287  1
  Ga  Ga24  1  0.060833  0.630529  0.817514  1
  Ga  Ga25  1  0.939167  0.369471  0.182486  1
  Ga  Ga26  1  0.855560  0.040257  0.817307  1
  Ga  Ga27  1  0.144440  0.959743  0.182693  1
  Pt  Pt28  1  0.117127  0.495092  0.639721  1
  Pt  Pt29  1  0.882873  0.504908  0.360279  1
  Pt  Pt30  1  0.660331  0.169857  0.998974  1
  Pt  Pt31  1  0.339669  0.830143  0.001026  1
  Pt  Pt32  1  0.540887  0.166689  0.359663  1
  Pt  Pt33  1  0.459113  0.833311  0.640337  1
  Pt  Pt34  1  0.778423  0.172526  0.637894  1
  Pt  Pt35  1  0.221577  0.827474  0.362106  1
  Pt  Pt36  1  0.000000  0.500000  0.000000  1
