# generated using pymatgen
data_ScGa4(Fe3Sn)2
_symmetry_space_group_name_H-M   'P 1'
_cell_length_a   5.09670100
_cell_length_b   5.09670215
_cell_length_c   8.54360900
_cell_angle_alpha   90.00000000
_cell_angle_beta   90.00000000
_cell_angle_gamma   120.00001203
_symmetry_Int_Tables_number   1
_chemical_formula_structural   ScGa4(Fe3Sn)2
_chemical_formula_sum   'Sc1 Ga4 Fe6 Sn2'
_cell_volume   192.19865932
_cell_formula_units_Z   1
loop_
 _symmetry_equiv_pos_site_id
 _symmetry_equiv_pos_as_xyz
  1  'x, y, z'
loop_
 _atom_site_type_symbol
 _atom_site_label
 _atom_site_symmetry_multiplicity
 _atom_site_fract_x
 _atom_site_fract_y
 _atom_site_fract_z
 _atom_site_occupancy
  Sc  Sc0  1  0.000000  0.000000  0.000000  1
  Ga  Ga1  1  0.666667  0.333333  0.000000  1
  Ga  Ga2  1  0.333333  0.666667  0.000000  1
  Ga  Ga3  1  0.666667  0.333333  0.500000  1
  Ga  Ga4  1  0.333333  0.666667  0.500000  1
  Fe  Fe5  1  0.500000  0.500000  0.757486  1
  Fe  Fe6  1  0.500000  0.000000  0.757486  1
  Fe  Fe7  1  0.000000  0.500000  0.757486  1
  Fe  Fe8  1  0.500000  0.500000  0.242514  1
  Fe  Fe9  1  0.500000  0.000000  0.242514  1
  Fe  Fe10  1  0.000000  0.500000  0.242514  1
  Sn  Sn11  1  0.000000  0.000000  0.662812  1
  Sn  Sn12  1  0.000000  0.000000  0.337188  1
