# generated using pymatgen
data_Tb4CuNiPt2
_symmetry_space_group_name_H-M   'P 1'
_cell_length_a   4.45212400
_cell_length_b   5.54661376
_cell_length_c   7.10130386
_cell_angle_alpha   90.24398209
_cell_angle_beta   90.00000000
_cell_angle_gamma   90.00000000
_symmetry_Int_Tables_number   1
_chemical_formula_structural   Tb4CuNiPt2
_chemical_formula_sum   'Tb4 Cu1 Ni1 Pt2'
_cell_volume   175.35951472
_cell_formula_units_Z   1
loop_
 _symmetry_equiv_pos_site_id
 _symmetry_equiv_pos_as_xyz
  1  'x, y, z'
loop_
 _atom_site_type_symbol
 _atom_site_label
 _atom_site_symmetry_multiplicity
 _atom_site_fract_x
 _atom_site_fract_y
 _atom_site_fract_z
 _atom_site_occupancy
  Tb  Tb0  1  0.000000  0.113397  0.674352  1
  Tb  Tb1  1  0.000000  0.884623  0.189495  1
  Tb  Tb2  1  0.500000  0.388336  0.321465  1
  Tb  Tb3  1  0.500000  0.611149  0.815914  1
  Cu  Cu4  1  0.500000  0.111222  0.962185  1
  Ni  Ni5  1  0.500000  0.896948  0.460762  1
  Pt  Pt6  1  0.000000  0.612058  0.539720  1
  Pt  Pt7  1  0.000000  0.382266  0.036110  1
