# generated using pymatgen
data_ErThReC2
_symmetry_space_group_name_H-M   'P 1'
_cell_length_a   5.25951500
_cell_length_b   6.62247400
_cell_length_c   9.86082000
_cell_angle_alpha   90.00000000
_cell_angle_beta   90.00000000
_cell_angle_gamma   90.00000000
_symmetry_Int_Tables_number   1
_chemical_formula_structural   ErThReC2
_chemical_formula_sum   'Er4 Th4 Re4 C8'
_cell_volume   343.46223463
_cell_formula_units_Z   4
loop_
 _symmetry_equiv_pos_site_id
 _symmetry_equiv_pos_as_xyz
  1  'x, y, z'
loop_
 _atom_site_type_symbol
 _atom_site_label
 _atom_site_symmetry_multiplicity
 _atom_site_fract_x
 _atom_site_fract_y
 _atom_site_fract_z
 _atom_site_occupancy
  Er  Er0  1  0.750000  0.825206  0.053380  1
  Er  Er1  1  0.250000  0.674794  0.553380  1
  Er  Er2  1  0.750000  0.325206  0.446620  1
  Er  Er3  1  0.250000  0.174794  0.946620  1
  Th  Th4  1  0.750000  0.468939  0.784394  1
  Th  Th5  1  0.250000  0.031061  0.284394  1
  Th  Th6  1  0.750000  0.968939  0.715606  1
  Th  Th7  1  0.250000  0.531061  0.215606  1
  Re  Re8  1  0.750000  0.276137  0.135098  1
  Re  Re9  1  0.250000  0.223863  0.635098  1
  Re  Re10  1  0.750000  0.776137  0.364902  1
  Re  Re11  1  0.250000  0.723863  0.864902  1
  C  C12  1  0.750000  0.170001  0.947749  1
  C  C13  1  0.250000  0.829999  0.052251  1
  C  C14  1  0.750000  0.670001  0.552251  1
  C  C15  1  0.250000  0.329999  0.447749  1
  C  C16  1  0.750000  0.044015  0.260554  1
  C  C17  1  0.250000  0.455985  0.760554  1
  C  C18  1  0.750000  0.544015  0.239446  1
  C  C19  1  0.250000  0.955985  0.739446  1
