# generated using pymatgen
data_Ca3Y2Np(Si3Os)8
_symmetry_space_group_name_H-M   'P 1'
_cell_length_a   10.17148824
_cell_length_b   10.17392457
_cell_length_c   8.17505426
_cell_angle_alpha   90.22659210
_cell_angle_beta   89.79791126
_cell_angle_gamma   132.60684438
_symmetry_Int_Tables_number   1
_chemical_formula_structural   Ca3Y2Np(Si3Os)8
_chemical_formula_sum   'Ca3 Y2 Np1 Si24 Os8'
_cell_volume   622.65482956
_cell_formula_units_Z   1
loop_
 _symmetry_equiv_pos_site_id
 _symmetry_equiv_pos_as_xyz
  1  'x, y, z'
loop_
 _atom_site_type_symbol
 _atom_site_label
 _atom_site_symmetry_multiplicity
 _atom_site_fract_x
 _atom_site_fract_y
 _atom_site_fract_z
 _atom_site_occupancy
  Ca  Ca0  1  0.499467  0.999610  0.750242  1
  Ca  Ca1  1  0.999403  0.499585  0.249710  1
  Ca  Ca2  1  0.000487  0.000645  0.999059  1
  Y  Y3  1  0.002204  0.502049  0.750225  1
  Y  Y4  1  0.500589  0.500649  0.501379  1
  Np  Np5  1  0.495530  0.997415  0.249184  1
  Si  Si6  1  0.793725  0.202418  0.497523  1
  Si  Si7  1  0.702584  0.294398  0.002192  1
  Si  Si8  1  0.207596  0.796183  0.497581  1
  Si  Si9  1  0.297147  0.707392  0.002203  1
  Si  Si10  1  0.664554  0.673869  0.166254  1
  Si  Si11  1  0.170912  0.161672  0.330671  1
  Si  Si12  1  0.840752  0.829453  0.668692  1
  Si  Si13  1  0.326553  0.337551  0.834384  1
  Si  Si14  1  0.847004  0.613711  0.989278  1
  Si  Si15  1  0.110719  0.344992  0.510253  1
  Si  Si16  1  0.652325  0.887193  0.489064  1
  Si  Si17  1  0.384885  0.151335  0.011225  1
  Si  Si18  1  0.154079  0.388490  0.004606  1
  Si  Si19  1  0.890867  0.655560  0.496518  1
  Si  Si20  1  0.122099  0.887722  0.728243  1
  Si  Si21  1  0.387450  0.622212  0.773480  1
  Si  Si22  1  0.377512  0.613064  0.229573  1
  Si  Si23  1  0.112479  0.877589  0.269043  1
  Si  Si24  1  0.869737  0.104323  0.267588  1
  Si  Si25  1  0.604292  0.368773  0.231014  1
  Si  Si26  1  0.627444  0.393070  0.772247  1
  Si  Si27  1  0.893402  0.126735  0.729335  1
  Si  Si28  1  0.613643  0.848271  0.995835  1
  Si  Si29  1  0.346712  0.111052  0.503099  1
  Os  Os30  1  0.626171  0.625653  0.872785  1
  Os  Os31  1  0.128997  0.129401  0.623882  1
  Os  Os32  1  0.376517  0.375607  0.128331  1
  Os  Os33  1  0.872176  0.873239  0.374935  1
  Os  Os34  1  0.169571  0.830418  0.999052  1
  Os  Os35  1  0.330716  0.667427  0.501609  1
  Os  Os36  1  0.829212  0.171605  0.999229  1
  Os  Os37  1  0.670491  0.329662  0.500480  1
