# generated using pymatgen
data_Y11ErCo4SnRh
_symmetry_space_group_name_H-M   'P 1'
_cell_length_a   8.32396019
_cell_length_b   8.32880853
_cell_length_c   8.32880914
_cell_angle_alpha   110.90886080
_cell_angle_beta   110.61703363
_cell_angle_gamma   106.94012770
_symmetry_Int_Tables_number   1
_chemical_formula_structural   Y11ErCo4SnRh
_chemical_formula_sum   'Y11 Er1 Co4 Sn1 Rh1'
_cell_volume   443.72336661
_cell_formula_units_Z   1
loop_
 _symmetry_equiv_pos_site_id
 _symmetry_equiv_pos_as_xyz
  1  'x, y, z'
loop_
 _atom_site_type_symbol
 _atom_site_label
 _atom_site_symmetry_multiplicity
 _atom_site_fract_x
 _atom_site_fract_y
 _atom_site_fract_z
 _atom_site_occupancy
  Y  Y0  1  0.592809  0.788278  0.804531  1
  Y  Y1  1  0.016839  0.211975  0.804863  1
  Y  Y2  1  0.983900  0.788159  0.195742  1
  Y  Y3  1  0.186678  0.291283  0.477320  1
  Y  Y4  1  0.812908  0.707729  0.521420  1
  Y  Y5  1  0.186678  0.709358  0.895394  1
  Y  Y6  1  0.812908  0.291488  0.105179  1
  Y  Y7  1  0.313338  0.617747  0.305059  1
  Y  Y8  1  0.686383  0.381462  0.694104  1
  Y  Y9  1  0.313338  0.008279  0.695591  1
  Y  Y10  1  0.686383  0.992279  0.304920  1
  Er  Er11  1  0.406092  0.210298  0.195794  1
  Co  Co12  1  0.380000  0.000776  0.379224  1
  Co  Co13  1  0.619393  0.999860  0.619533  1
  Co  Co14  1  0.110852  0.610751  0.500101  1
  Co  Co15  1  0.888803  0.389100  0.499704  1
  Sn  Sn16  1  0.500051  0.499918  0.000133  1
  Rh  Rh17  1  0.002650  0.001262  0.001388  1
