# generated using pymatgen
data_CeDy15(AlIr)4
_symmetry_space_group_name_H-M   'P 1'
_cell_length_a   9.54008323
_cell_length_b   9.54008372
_cell_length_c   9.54008302
_cell_angle_alpha   60.13561846
_cell_angle_beta   60.13561477
_cell_angle_gamma   60.13562345
_symmetry_Int_Tables_number   1
_chemical_formula_structural   CeDy15(AlIr)4
_chemical_formula_sum   'Ce1 Dy15 Al4 Ir4'
_cell_volume   615.84822115
_cell_formula_units_Z   1
loop_
 _symmetry_equiv_pos_site_id
 _symmetry_equiv_pos_as_xyz
  1  'x, y, z'
loop_
 _atom_site_type_symbol
 _atom_site_label
 _atom_site_symmetry_multiplicity
 _atom_site_fract_x
 _atom_site_fract_y
 _atom_site_fract_z
 _atom_site_occupancy
  Ce  Ce0  1  0.596264  0.596264  0.596264  1
  Dy  Dy1  1  0.603441  0.603441  0.191945  1
  Dy  Dy2  1  0.603441  0.191945  0.603441  1
  Dy  Dy3  1  0.191945  0.603441  0.603441  1
  Dy  Dy4  1  0.057525  0.442940  0.442940  1
  Dy  Dy5  1  0.444109  0.056176  0.056176  1
  Dy  Dy6  1  0.442940  0.057525  0.442940  1
  Dy  Dy7  1  0.056176  0.444109  0.056176  1
  Dy  Dy8  1  0.442940  0.442940  0.057525  1
  Dy  Dy9  1  0.056176  0.056176  0.444109  1
  Dy  Dy10  1  0.189333  0.813163  0.813163  1
  Dy  Dy11  1  0.811778  0.189448  0.189448  1
  Dy  Dy12  1  0.813163  0.189333  0.813163  1
  Dy  Dy13  1  0.189448  0.811778  0.189448  1
  Dy  Dy14  1  0.813163  0.813163  0.189333  1
  Dy  Dy15  1  0.189448  0.189448  0.811778  1
  Al  Al16  1  0.827763  0.827763  0.827763  1
  Al  Al17  1  0.826029  0.826029  0.518756  1
  Al  Al18  1  0.826029  0.518756  0.826029  1
  Al  Al19  1  0.518756  0.826029  0.826029  1
  Ir  Ir20  1  0.392423  0.392423  0.392423  1
  Ir  Ir21  1  0.391801  0.391801  0.824104  1
  Ir  Ir22  1  0.391801  0.824104  0.391801  1
  Ir  Ir23  1  0.824104  0.391801  0.391801  1
