# generated using pymatgen
data_Mn14ZnCr6(WC3)2
_symmetry_space_group_name_H-M   'P 1'
_cell_length_a   7.43381160
_cell_length_b   7.45266083
_cell_length_c   7.45266017
_cell_angle_alpha   60.19542002
_cell_angle_beta   60.08361591
_cell_angle_gamma   60.08361876
_symmetry_Int_Tables_number   1
_chemical_formula_structural   Mn14ZnCr6(WC3)2
_chemical_formula_sum   'Mn14 Zn1 Cr6 W2 C6'
_cell_volume   292.75605802
_cell_formula_units_Z   1
loop_
 _symmetry_equiv_pos_site_id
 _symmetry_equiv_pos_as_xyz
  1  'x, y, z'
loop_
 _atom_site_type_symbol
 _atom_site_label
 _atom_site_symmetry_multiplicity
 _atom_site_fract_x
 _atom_site_fract_y
 _atom_site_fract_z
 _atom_site_occupancy
  Mn  Mn0  1  0.616828  0.614462  0.151883  1
  Mn  Mn1  1  0.616828  0.151882  0.614462  1
  Mn  Mn2  1  0.152109  0.616365  0.616365  1
  Mn  Mn3  1  0.615162  0.616365  0.616365  1
  Mn  Mn4  1  0.384770  0.381546  0.848913  1
  Mn  Mn5  1  0.384770  0.848913  0.381546  1
  Mn  Mn6  1  0.849643  0.383313  0.383313  1
  Mn  Mn7  1  0.383732  0.383313  0.383313  1
  Mn  Mn8  1  0.999779  0.000189  0.341774  1
  Mn  Mn9  1  0.658258  0.000189  0.341774  1
  Mn  Mn10  1  0.997825  0.660102  0.344249  1
  Mn  Mn11  1  0.658258  0.341774  0.000189  1
  Mn  Mn12  1  0.999779  0.341774  0.000189  1
  Mn  Mn13  1  0.997825  0.344249  0.660102  1
  Zn  Zn14  1  0.998025  0.001975  0.001975  1
  Cr  Cr15  1  0.341650  0.656510  0.001166  1
  Cr  Cr16  1  0.341650  0.001166  0.656510  1
  Cr  Cr17  1  0.341939  0.999706  0.999706  1
  Cr  Cr18  1  0.000674  0.001166  0.656510  1
  Cr  Cr19  1  0.000674  0.656510  0.001166  1
  Cr  Cr20  1  0.658649  0.999706  0.999706  1
  W  W21  1  0.750921  0.749079  0.749079  1
  W  W22  1  0.249770  0.250230  0.250230  1
  C  C23  1  0.721689  0.721882  0.280207  1
  C  C24  1  0.276222  0.721882  0.280207  1
  C  C25  1  0.724504  0.275496  0.275496  1
  C  C26  1  0.276222  0.280207  0.721882  1
  C  C27  1  0.721689  0.280207  0.721882  1
  C  C28  1  0.280157  0.719843  0.719843  1
