# generated using pymatgen
data_Dy5Ho2Co3Sn23Ru3
_symmetry_space_group_name_H-M   'P 1'
_cell_length_a   9.78454401
_cell_length_b   9.78419438
_cell_length_c   10.03147701
_cell_angle_alpha   89.99999683
_cell_angle_beta   90.00481703
_cell_angle_gamma   119.99882168
_symmetry_Int_Tables_number   1
_chemical_formula_structural   Dy5Ho2Co3Sn23Ru3
_chemical_formula_sum   'Dy5 Ho2 Co3 Sn23 Ru3'
_cell_volume   831.69929172
_cell_formula_units_Z   1
loop_
 _symmetry_equiv_pos_site_id
 _symmetry_equiv_pos_as_xyz
  1  'x, y, z'
loop_
 _atom_site_type_symbol
 _atom_site_label
 _atom_site_symmetry_multiplicity
 _atom_site_fract_x
 _atom_site_fract_y
 _atom_site_fract_z
 _atom_site_occupancy
  Dy  Dy0  1  0.999996  0.999998  0.985243  1
  Dy  Dy1  1  0.517823  0.482189  0.694893  1
  Dy  Dy2  1  0.517823  0.035633  0.694893  1
  Dy  Dy3  1  0.964363  0.482181  0.694912  1
  Dy  Dy4  1  0.038508  0.519255  0.306336  1
  Ho  Ho5  1  0.480758  0.961525  0.306353  1
  Ho  Ho6  1  0.480758  0.519234  0.306353  1
  Co  Co7  1  0.338656  0.169328  0.200428  1
  Co  Co8  1  0.830660  0.661367  0.200425  1
  Co  Co9  1  0.830660  0.169294  0.200425  1
  Sn  Sn10  1  0.666654  0.333327  0.184032  1
  Sn  Sn11  1  0.666663  0.333331  0.880250  1
  Sn  Sn12  1  0.333400  0.666701  0.123147  1
  Sn  Sn13  1  0.350008  0.345940  0.004855  1
  Sn  Sn14  1  0.995934  0.649992  0.004844  1
  Sn  Sn15  1  0.654057  0.004055  0.004859  1
  Sn  Sn16  1  0.654057  0.650002  0.004859  1
  Sn  Sn17  1  0.333338  0.666670  0.820100  1
  Sn  Sn18  1  0.436160  0.218080  0.452928  1
  Sn  Sn19  1  0.220064  0.780011  0.542742  1
  Sn  Sn20  1  0.220064  0.440050  0.542742  1
  Sn  Sn21  1  0.559960  0.779979  0.542716  1
  Sn  Sn22  1  0.117040  0.883005  0.270906  1
  Sn  Sn23  1  0.781849  0.563825  0.452945  1
  Sn  Sn24  1  0.781849  0.218025  0.452945  1
  Sn  Sn25  1  0.350008  0.004069  0.004855  1
  Sn  Sn26  1  0.117040  0.234035  0.270906  1
  Sn  Sn27  1  0.765955  0.882977  0.270917  1
  Sn  Sn28  1  0.237620  0.118810  0.722944  1
  Sn  Sn29  1  0.881179  0.762369  0.722952  1
  Sn  Sn30  1  0.881179  0.118811  0.722952  1
  Sn  Sn31  1  0.999995  0.999998  0.495464  1
  Sn  Sn32  1  0.995934  0.345941  0.004844  1
  Ru  Ru33  1  0.168180  0.831811  0.803010  1
  Ru  Ru34  1  0.168180  0.336369  0.803010  1
  Ru  Ru35  1  0.663626  0.831813  0.803009  1
