# generated using pymatgen
data_Rb8Na4Tb3NdSb8
_symmetry_space_group_name_H-M   'P 1'
_cell_length_a   11.39925271
_cell_length_b   11.39925276
_cell_length_c   7.53023362
_cell_angle_alpha   89.93063078
_cell_angle_beta   90.06936477
_cell_angle_gamma   98.12636393
_symmetry_Int_Tables_number   1
_chemical_formula_structural   Rb8Na4Tb3NdSb8
_chemical_formula_sum   'Rb8 Na4 Tb3 Nd1 Sb8'
_cell_volume   968.67422211
_cell_formula_units_Z   1
loop_
 _symmetry_equiv_pos_site_id
 _symmetry_equiv_pos_as_xyz
  1  'x, y, z'
loop_
 _atom_site_type_symbol
 _atom_site_label
 _atom_site_symmetry_multiplicity
 _atom_site_fract_x
 _atom_site_fract_y
 _atom_site_fract_z
 _atom_site_occupancy
  Rb  Rb0  1  0.069873  0.430043  0.249821  1
  Rb  Rb1  1  0.430043  0.069873  0.750179  1
  Rb  Rb2  1  0.930673  0.569823  0.750354  1
  Rb  Rb3  1  0.569823  0.930673  0.249646  1
  Rb  Rb4  1  0.677100  0.322442  0.214385  1
  Rb  Rb5  1  0.822974  0.177000  0.714807  1
  Rb  Rb6  1  0.322442  0.677100  0.785615  1
  Rb  Rb7  1  0.177000  0.822974  0.285193  1
  Na  Na8  1  0.382044  0.382044  0.000000  1
  Na  Na9  1  0.117802  0.117802  0.500000  1
  Na  Na10  1  0.617798  0.617798  0.000000  1
  Na  Na11  1  0.882677  0.882677  0.500000  1
  Tb  Tb12  1  0.131001  0.131001  0.000000  1
  Tb  Tb13  1  0.367805  0.367805  0.500000  1
  Tb  Tb14  1  0.869446  0.869446  0.000000  1
  Nd  Nd15  1  0.631991  0.631991  0.500000  1
  Sb  Sb16  1  0.851028  0.653325  0.245193  1
  Sb  Sb17  1  0.653325  0.851028  0.754807  1
  Sb  Sb18  1  0.153166  0.346793  0.749845  1
  Sb  Sb19  1  0.346793  0.153166  0.250155  1
  Sb  Sb20  1  0.900081  0.100166  0.212062  1
  Sb  Sb21  1  0.599106  0.395843  0.715289  1
  Sb  Sb22  1  0.100166  0.900081  0.787938  1
  Sb  Sb23  1  0.395843  0.599106  0.284711  1
