# generated using pymatgen
data_Ba20Si11P
_symmetry_space_group_name_H-M   'P 1'
_cell_length_a   8.43239800
_cell_length_b   8.43239800
_cell_length_c   16.82312600
_cell_angle_alpha   90.00000000
_cell_angle_beta   90.00000000
_cell_angle_gamma   90.00000000
_symmetry_Int_Tables_number   1
_chemical_formula_structural   Ba20Si11P
_chemical_formula_sum   'Ba20 Si11 P1'
_cell_volume   1196.21402731
_cell_formula_units_Z   1
loop_
 _symmetry_equiv_pos_site_id
 _symmetry_equiv_pos_as_xyz
  1  'x, y, z'
loop_
 _atom_site_type_symbol
 _atom_site_label
 _atom_site_symmetry_multiplicity
 _atom_site_fract_x
 _atom_site_fract_y
 _atom_site_fract_z
 _atom_site_occupancy
  Ba  Ba0  1  0.306580  0.670695  0.105829  1
  Ba  Ba1  1  0.170695  0.193420  0.105829  1
  Ba  Ba2  1  0.500000  0.000000  0.728342  1
  Ba  Ba3  1  0.328491  0.692206  0.393202  1
  Ba  Ba4  1  0.673833  0.690401  0.894517  1
  Ba  Ba5  1  0.192206  0.171509  0.393202  1
  Ba  Ba6  1  0.671509  0.307794  0.393202  1
  Ba  Ba7  1  0.172092  0.808064  0.606429  1
  Ba  Ba8  1  0.326167  0.309599  0.894517  1
  Ba  Ba9  1  0.190401  0.826167  0.894517  1
  Ba  Ba10  1  0.500000  0.000000  0.227975  1
  Ba  Ba11  1  0.827908  0.191936  0.606429  1
  Ba  Ba12  1  0.308064  0.327908  0.606429  1
  Ba  Ba13  1  0.807794  0.828491  0.393202  1
  Ba  Ba14  1  0.809599  0.173833  0.894517  1
  Ba  Ba15  1  0.829305  0.806580  0.105829  1
  Ba  Ba16  1  0.000000  0.500000  0.273919  1
  Ba  Ba17  1  0.000000  0.500000  0.771215  1
  Ba  Ba18  1  0.693420  0.329305  0.105829  1
  Ba  Ba19  1  0.691936  0.672092  0.606429  1
  Si  Si20  1  0.101351  0.101591  0.751246  1
  Si  Si21  1  0.398409  0.601351  0.751246  1
  Si  Si22  1  0.601694  0.601444  0.248911  1
  Si  Si23  1  0.500000  0.000000  0.015109  1
  Si  Si24  1  0.101444  0.898306  0.248911  1
  Si  Si25  1  0.601591  0.398649  0.751246  1
  Si  Si26  1  0.898649  0.898409  0.751246  1
  Si  Si27  1  0.398306  0.398556  0.248911  1
  Si  Si28  1  0.898556  0.101694  0.248911  1
  Si  Si29  1  0.500000  0.000000  0.515070  1
  Si  Si30  1  0.000000  0.500000  0.485557  1
  P  P31  1  0.000000  0.500000  0.982281  1
