# generated using pymatgen
data_Cs13Rb3(ZrSe4)4
_symmetry_space_group_name_H-M   'P 1'
_cell_length_a   9.13411666
_cell_length_b   10.97606251
_cell_length_c   16.32166365
_cell_angle_alpha   89.67278894
_cell_angle_beta   89.78681570
_cell_angle_gamma   89.88728791
_symmetry_Int_Tables_number   1
_chemical_formula_structural   Cs13Rb3(ZrSe4)4
_chemical_formula_sum   'Cs13 Rb3 Zr4 Se16'
_cell_volume   1636.31397214
_cell_formula_units_Z   1
loop_
 _symmetry_equiv_pos_site_id
 _symmetry_equiv_pos_as_xyz
  1  'x, y, z'
loop_
 _atom_site_type_symbol
 _atom_site_label
 _atom_site_symmetry_multiplicity
 _atom_site_fract_x
 _atom_site_fract_y
 _atom_site_fract_z
 _atom_site_occupancy
  Cs  Cs0  1  0.000893  0.999306  0.998358  1
  Cs  Cs1  1  0.498726  0.001419  0.500464  1
  Cs  Cs2  1  0.999233  0.498741  0.002183  1
  Cs  Cs3  1  0.500218  0.500835  0.498124  1
  Cs  Cs4  1  0.987922  0.751520  0.425973  1
  Cs  Cs5  1  0.489787  0.249733  0.074003  1
  Cs  Cs6  1  0.010986  0.252238  0.573432  1
  Cs  Cs7  1  0.511024  0.748238  0.927786  1
  Cs  Cs8  1  0.834450  0.057459  0.278792  1
  Cs  Cs9  1  0.333934  0.942142  0.220979  1
  Cs  Cs10  1  0.164511  0.556511  0.720962  1
  Cs  Cs11  1  0.665884  0.441951  0.779456  1
  Cs  Cs12  1  0.163022  0.944822  0.721277  1
  Rb  Rb13  1  0.658600  0.052676  0.774707  1
  Rb  Rb14  1  0.843279  0.447497  0.274828  1
  Rb  Rb15  1  0.343250  0.552479  0.225516  1
  Zr  Zr16  1  0.757155  0.753028  0.667517  1
  Zr  Zr17  1  0.240584  0.255230  0.331397  1
  Zr  Zr18  1  0.741116  0.744828  0.168981  1
  Zr  Zr19  1  0.260782  0.247213  0.832657  1
  Se  Se20  1  0.980349  0.242477  0.823961  1
  Se  Se21  1  0.520908  0.258635  0.322428  1
  Se  Se22  1  0.477858  0.752006  0.675465  1
  Se  Se23  1  0.021426  0.740888  0.177369  1
  Se  Se24  1  0.650643  0.554326  0.097280  1
  Se  Se25  1  0.150137  0.446093  0.403299  1
  Se  Se26  1  0.353908  0.057778  0.906399  1
  Se  Se27  1  0.841876  0.946105  0.594690  1
  Se  Se28  1  0.343231  0.437981  0.906970  1
  Se  Se29  1  0.845806  0.563583  0.592883  1
  Se  Se30  1  0.656641  0.935828  0.093724  1
  Se  Se31  1  0.155135  0.064406  0.406906  1
  Se  Se32  1  0.630064  0.743668  0.313755  1
  Se  Se33  1  0.130677  0.256187  0.186802  1
  Se  Se34  1  0.372167  0.249087  0.687718  1
  Se  Se35  1  0.863819  0.753086  0.812960  1
