# generated using pymatgen
data_LaErSe3
_symmetry_space_group_name_H-M   'P 1'
_cell_length_a   6.94023195
_cell_length_b   6.94023244
_cell_length_c   10.08722100
_cell_angle_alpha   90.00000000
_cell_angle_beta   90.00000000
_cell_angle_gamma   145.62862944
_symmetry_Int_Tables_number   1
_chemical_formula_structural   LaErSe3
_chemical_formula_sum   'La2 Er2 Se6'
_cell_volume   274.29981831
_cell_formula_units_Z   2
loop_
 _symmetry_equiv_pos_site_id
 _symmetry_equiv_pos_as_xyz
  1  'x, y, z'
loop_
 _atom_site_type_symbol
 _atom_site_label
 _atom_site_symmetry_multiplicity
 _atom_site_fract_x
 _atom_site_fract_y
 _atom_site_fract_z
 _atom_site_occupancy
  La  La0  1  0.252443  0.747557  0.750000  1
  La  La1  1  0.747557  0.252443  0.250000  1
  Er  Er2  1  0.000000  0.000000  0.000000  1
  Er  Er3  1  0.000000  0.000000  0.500000  1
  Se  Se4  1  0.085523  0.914477  0.250000  1
  Se  Se5  1  0.914477  0.085523  0.750000  1
  Se  Se6  1  0.642944  0.357056  0.561716  1
  Se  Se7  1  0.357056  0.642944  0.438284  1
  Se  Se8  1  0.642944  0.357056  0.938284  1
  Se  Se9  1  0.357056  0.642944  0.061716  1
