# generated using pymatgen
data_Sc4Sn3P3Ir7
_symmetry_space_group_name_H-M   'P 1'
_cell_length_a   7.13164731
_cell_length_b   7.13164789
_cell_length_c   7.32428100
_cell_angle_alpha   110.01932988
_cell_angle_beta   110.01933157
_cell_angle_gamma   108.91758641
_symmetry_Int_Tables_number   1
_chemical_formula_structural   Sc4Sn3P3Ir7
_chemical_formula_sum   'Sc4 Sn3 P3 Ir7'
_cell_volume   284.80022673
_cell_formula_units_Z   1
loop_
 _symmetry_equiv_pos_site_id
 _symmetry_equiv_pos_as_xyz
  1  'x, y, z'
loop_
 _atom_site_type_symbol
 _atom_site_label
 _atom_site_symmetry_multiplicity
 _atom_site_fract_x
 _atom_site_fract_y
 _atom_site_fract_z
 _atom_site_occupancy
  Sc  Sc0  1  0.000000  0.000000  0.556869  1
  Sc  Sc1  1  0.000000  0.461799  0.988300  1
  Sc  Sc2  1  0.461799  0.000000  0.988300  1
  Sc  Sc3  1  0.538201  0.538201  0.526501  1
  Sn  Sn4  1  0.717862  0.717862  0.018913  1
  Sn  Sn5  1  0.282138  0.000000  0.301051  1
  Sn  Sn6  1  0.000000  0.282138  0.301051  1
  P  P7  1  0.340444  0.340444  0.001314  1
  P  P8  1  0.659556  0.000000  0.660870  1
  P  P9  1  0.000000  0.659556  0.660870  1
  Ir  Ir10  1  0.750026  0.254905  0.512324  1
  Ir  Ir11  1  0.745095  0.495121  0.257419  1
  Ir  Ir12  1  0.504879  0.249974  0.762297  1
  Ir  Ir13  1  0.249974  0.504879  0.762297  1
  Ir  Ir14  1  0.254905  0.750026  0.512324  1
  Ir  Ir15  1  0.495121  0.745095  0.257419  1
  Ir  Ir16  1  0.000000  0.000000  0.931882  1
