# generated using pymatgen
data_La2CoSi2Tc
_symmetry_space_group_name_H-M   'P 1'
_cell_length_a   4.21105500
_cell_length_b   4.21105500
_cell_length_c   7.09447300
_cell_angle_alpha   90.00000000
_cell_angle_beta   90.00000000
_cell_angle_gamma   90.00000000
_symmetry_Int_Tables_number   1
_chemical_formula_structural   La2CoSi2Tc
_chemical_formula_sum   'La2 Co1 Si2 Tc1'
_cell_volume   125.80617771
_cell_formula_units_Z   1
loop_
 _symmetry_equiv_pos_site_id
 _symmetry_equiv_pos_as_xyz
  1  'x, y, z'
loop_
 _atom_site_type_symbol
 _atom_site_label
 _atom_site_symmetry_multiplicity
 _atom_site_fract_x
 _atom_site_fract_y
 _atom_site_fract_z
 _atom_site_occupancy
  La  La0  1  0.000000  0.500000  0.313365  1
  La  La1  1  0.500000  0.000000  0.686635  1
  Co  Co2  1  0.500000  0.500000  0.000000  1
  Si  Si3  1  0.000000  0.500000  0.831443  1
  Si  Si4  1  0.500000  0.000000  0.168557  1
  Tc  Tc5  1  0.000000  0.000000  0.000000  1
