# generated using pymatgen
data_Zr10Tl3Zn2BiPb2
_symmetry_space_group_name_H-M   'P 1'
_cell_length_a   8.81800100
_cell_length_b   8.82400273
_cell_length_c   5.96657400
_cell_angle_alpha   90.00000000
_cell_angle_beta   90.00000000
_cell_angle_gamma   119.97750681
_symmetry_Int_Tables_number   1
_chemical_formula_structural   Zr10Tl3Zn2BiPb2
_chemical_formula_sum   'Zr10 Tl3 Zn2 Bi1 Pb2'
_cell_volume   402.15162816
_cell_formula_units_Z   1
loop_
 _symmetry_equiv_pos_site_id
 _symmetry_equiv_pos_as_xyz
  1  'x, y, z'
loop_
 _atom_site_type_symbol
 _atom_site_label
 _atom_site_symmetry_multiplicity
 _atom_site_fract_x
 _atom_site_fract_y
 _atom_site_fract_z
 _atom_site_occupancy
  Zr  Zr0  1  0.332563  0.665910  0.996790  1
  Zr  Zr1  1  0.666654  0.334090  0.503210  1
  Zr  Zr2  1  0.666654  0.334090  0.996790  1
  Zr  Zr3  1  0.332563  0.665910  0.503210  1
  Zr  Zr4  1  0.259427  0.000000  0.250000  1
  Zr  Zr5  1  0.265132  0.265473  0.750000  1
  Zr  Zr6  1  0.999658  0.734527  0.750000  1
  Zr  Zr7  1  0.000491  0.258817  0.250000  1
  Zr  Zr8  1  0.741674  0.741183  0.250000  1
  Zr  Zr9  1  0.735530  0.000000  0.750000  1
  Tl  Tl10  1  0.615960  0.616751  0.750000  1
  Tl  Tl11  1  0.999209  0.383249  0.750000  1
  Tl  Tl12  1  0.382632  0.000000  0.750000  1
  Zn  Zn13  1  0.001018  0.000000  0.991388  1
  Zn  Zn14  1  0.001018  0.000000  0.508612  1
  Bi  Bi15  1  0.612776  0.000000  0.250000  1
  Pb  Pb16  1  0.000075  0.613105  0.250000  1
  Pb  Pb17  1  0.386970  0.386895  0.250000  1
