# generated using pymatgen
data_Y3Re(Ni4P3)2
_symmetry_space_group_name_H-M   'P 1'
_cell_length_a   3.78358300
_cell_length_b   10.55596400
_cell_length_c   12.39399000
_cell_angle_alpha   90.00000000
_cell_angle_beta   90.00000000
_cell_angle_gamma   90.00000000
_symmetry_Int_Tables_number   1
_chemical_formula_structural   Y3Re(Ni4P3)2
_chemical_formula_sum   'Y6 Re2 Ni16 P12'
_cell_volume   495.00810205
_cell_formula_units_Z   2
loop_
 _symmetry_equiv_pos_site_id
 _symmetry_equiv_pos_as_xyz
  1  'x, y, z'
loop_
 _atom_site_type_symbol
 _atom_site_label
 _atom_site_symmetry_multiplicity
 _atom_site_fract_x
 _atom_site_fract_y
 _atom_site_fract_z
 _atom_site_occupancy
  Y  Y0  1  0.751827  0.000000  0.476814  1
  Y  Y1  1  0.251827  0.500000  0.523186  1
  Y  Y2  1  0.251809  0.684616  0.791704  1
  Y  Y3  1  0.251809  0.315384  0.791704  1
  Y  Y4  1  0.751809  0.815384  0.208296  1
  Y  Y5  1  0.751809  0.184616  0.208296  1
  Re  Re6  1  0.251875  0.000000  0.846508  1
  Re  Re7  1  0.751875  0.500000  0.153492  1
  Ni  Ni8  1  0.751895  0.000000  0.016819  1
  Ni  Ni9  1  0.251895  0.500000  0.983181  1
  Ni  Ni10  1  0.251859  0.197067  0.571829  1
  Ni  Ni11  1  0.251859  0.802933  0.571829  1
  Ni  Ni12  1  0.751859  0.302933  0.428171  1
  Ni  Ni13  1  0.751859  0.697067  0.428171  1
  Ni  Ni14  1  0.251669  0.619065  0.289139  1
  Ni  Ni15  1  0.251669  0.380935  0.289139  1
  Ni  Ni16  1  0.751669  0.880935  0.710861  1
  Ni  Ni17  1  0.751669  0.119065  0.710861  1
  Ni  Ni18  1  0.251934  0.168019  0.014601  1
  Ni  Ni19  1  0.251934  0.831981  0.014601  1
  Ni  Ni20  1  0.751934  0.331981  0.985399  1
  Ni  Ni21  1  0.751934  0.668019  0.985399  1
  Ni  Ni22  1  0.251827  0.000000  0.300225  1
  Ni  Ni23  1  0.751827  0.500000  0.699775  1
  P  P24  1  0.251782  0.186689  0.386300  1
  P  P25  1  0.251782  0.813311  0.386300  1
  P  P26  1  0.751782  0.313311  0.613700  1
  P  P27  1  0.751782  0.686689  0.613700  1
  P  P28  1  0.251779  0.000000  0.124262  1
  P  P29  1  0.751779  0.500000  0.875738  1
  P  P30  1  0.251807  0.650987  0.107344  1
  P  P31  1  0.251807  0.349013  0.107344  1
  P  P32  1  0.751807  0.849013  0.892656  1
  P  P33  1  0.751807  0.150987  0.892656  1
  P  P34  1  0.251880  0.000000  0.652891  1
  P  P35  1  0.751880  0.500000  0.347109  1
