# generated using pymatgen
data_SrLi4(ThSi2)2
_symmetry_space_group_name_H-M   'P 1'
_cell_length_a   4.43650328
_cell_length_b   6.78986033
_cell_length_c   8.44408805
_cell_angle_alpha   113.70627904
_cell_angle_beta   105.23026350
_cell_angle_gamma   90.00000296
_symmetry_Int_Tables_number   1
_chemical_formula_structural   SrLi4(ThSi2)2
_chemical_formula_sum   'Sr1 Li4 Th2 Si4'
_cell_volume   223.10814303
_cell_formula_units_Z   1
loop_
 _symmetry_equiv_pos_site_id
 _symmetry_equiv_pos_as_xyz
  1  'x, y, z'
loop_
 _atom_site_type_symbol
 _atom_site_label
 _atom_site_symmetry_multiplicity
 _atom_site_fract_x
 _atom_site_fract_y
 _atom_site_fract_z
 _atom_site_occupancy
  Sr  Sr0  1  0.866453  0.366453  0.732905  1
  Li  Li1  1  0.670414  0.984337  0.340828  1
  Li  Li2  1  0.330570  0.022454  0.661142  1
  Li  Li3  1  0.330570  0.638688  0.661142  1
  Li  Li4  1  0.670414  0.356491  0.340828  1
  Th  Th5  1  0.999942  0.999942  0.999883  1
  Th  Th6  1  0.131746  0.631746  0.263490  1
  Si  Si7  1  0.506957  0.688920  0.013913  1
  Si  Si8  1  0.506957  0.324993  0.013913  1
  Si  Si9  1  0.783259  0.783259  0.566518  1
  Si  Si10  1  0.202718  0.202718  0.405438  1
