# generated using pymatgen
data_Ac9LaAlSi4Ge
_symmetry_space_group_name_H-M   'P 1'
_cell_length_a   8.20025800
_cell_length_b   9.68780797
_cell_length_c   8.20025800
_cell_angle_alpha   115.03841209
_cell_angle_beta   90.00000000
_cell_angle_gamma   115.03841209
_symmetry_Int_Tables_number   1
_chemical_formula_structural   Ac9LaAlSi4Ge
_chemical_formula_sum   'Ac9 La1 Al1 Si4 Ge1'
_cell_volume   521.87541822
_cell_formula_units_Z   1
loop_
 _symmetry_equiv_pos_site_id
 _symmetry_equiv_pos_as_xyz
  1  'x, y, z'
loop_
 _atom_site_type_symbol
 _atom_site_label
 _atom_site_symmetry_multiplicity
 _atom_site_fract_x
 _atom_site_fract_y
 _atom_site_fract_z
 _atom_site_occupancy
  Ac  Ac0  1  0.525218  0.050435  0.525218  1
  Ac  Ac1  1  0.527084  0.718189  0.676212  1
  Ac  Ac2  1  0.191107  0.718189  0.041980  1
  Ac  Ac3  1  0.676212  0.718189  0.191107  1
  Ac  Ac4  1  0.041980  0.718189  0.527084  1
  Ac  Ac5  1  0.455925  0.282432  0.305078  1
  Ac  Ac6  1  0.826505  0.282432  0.977352  1
  Ac  Ac7  1  0.305078  0.282432  0.826505  1
  Ac  Ac8  1  0.977352  0.282432  0.455925  1
  La  La9  1  0.974217  0.948434  0.974217  1
  Al  Al10  1  0.751013  0.502026  0.751013  1
  Si  Si11  1  0.888241  0.999092  0.615502  1
  Si  Si12  1  0.110851  0.999092  0.383590  1
  Si  Si13  1  0.615502  0.999092  0.110851  1
  Si  Si14  1  0.383590  0.999092  0.888241  1
  Ge  Ge15  1  0.250126  0.500251  0.250126  1
