# generated using pymatgen
data_Yb8Zn3Si12Hg
_symmetry_space_group_name_H-M   'P 1'
_cell_length_a   8.23654900
_cell_length_b   8.23654903
_cell_length_c   8.45674400
_cell_angle_alpha   90.00000000
_cell_angle_beta   90.00000000
_cell_angle_gamma   119.99999585
_symmetry_Int_Tables_number   1
_chemical_formula_structural   Yb8Zn3Si12Hg
_chemical_formula_sum   'Yb8 Zn3 Si12 Hg1'
_cell_volume   496.84898666
_cell_formula_units_Z   1
loop_
 _symmetry_equiv_pos_site_id
 _symmetry_equiv_pos_as_xyz
  1  'x, y, z'
loop_
 _atom_site_type_symbol
 _atom_site_label
 _atom_site_symmetry_multiplicity
 _atom_site_fract_x
 _atom_site_fract_y
 _atom_site_fract_z
 _atom_site_occupancy
  Yb  Yb0  1  0.000003  0.000000  0.252076  1
  Yb  Yb1  1  0.000007  0.000003  0.747909  1
  Yb  Yb2  1  0.502598  0.497395  0.251995  1
  Yb  Yb3  1  0.502602  0.005202  0.251994  1
  Yb  Yb4  1  0.994797  0.497397  0.251996  1
  Yb  Yb5  1  0.500484  0.499512  0.748145  1
  Yb  Yb6  1  0.500485  0.000975  0.748142  1
  Yb  Yb7  1  0.999026  0.499511  0.748145  1
  Zn  Zn8  1  0.333355  0.666663  0.494844  1
  Zn  Zn9  1  0.666646  0.333336  0.505462  1
  Zn  Zn10  1  0.666649  0.333329  0.995246  1
  Si  Si11  1  0.165156  0.834825  0.500402  1
  Si  Si12  1  0.165159  0.330339  0.500403  1
  Si  Si13  1  0.669651  0.834827  0.500401  1
  Si  Si14  1  0.835097  0.164921  0.499560  1
  Si  Si15  1  0.835091  0.670163  0.499560  1
  Si  Si16  1  0.329848  0.164923  0.499562  1
  Si  Si17  1  0.834001  0.166015  0.999991  1
  Si  Si18  1  0.833993  0.667981  0.999992  1
  Si  Si19  1  0.332028  0.166020  0.999991  1
  Si  Si20  1  0.158596  0.841390  0.999984  1
  Si  Si21  1  0.158594  0.317203  0.999982  1
  Si  Si22  1  0.682791  0.841396  0.999985  1
  Hg  Hg23  1  0.333346  0.666673  0.004232  1
