# generated using pymatgen
data_Tb5Nd6DyIn20
_symmetry_space_group_name_H-M   'P 1'
_cell_length_a   6.66001501
_cell_length_b   10.51101038
_cell_length_c   12.40588500
_cell_angle_alpha   89.99168174
_cell_angle_beta   89.99671367
_cell_angle_gamma   90.13750721
_symmetry_Int_Tables_number   1
_chemical_formula_structural   Tb5Nd6DyIn20
_chemical_formula_sum   'Tb5 Nd6 Dy1 In20'
_cell_volume   868.45269669
_cell_formula_units_Z   1
loop_
 _symmetry_equiv_pos_site_id
 _symmetry_equiv_pos_as_xyz
  1  'x, y, z'
loop_
 _atom_site_type_symbol
 _atom_site_label
 _atom_site_symmetry_multiplicity
 _atom_site_fract_x
 _atom_site_fract_y
 _atom_site_fract_z
 _atom_site_occupancy
  Tb  Tb0  1  0.349663  0.748227  0.057635  1
  Tb  Tb1  1  0.150429  0.751759  0.557712  1
  Tb  Tb2  1  0.649166  0.248603  0.942145  1
  Tb  Tb3  1  0.888548  0.009818  0.142841  1
  Tb  Tb4  1  0.611425  0.490065  0.642831  1
  Nd  Nd5  1  0.887159  0.489539  0.144169  1
  Nd  Nd6  1  0.612706  0.010544  0.643994  1
  Nd  Nd7  1  0.110786  0.990376  0.856625  1
  Nd  Nd8  1  0.389109  0.509744  0.356638  1
  Nd  Nd9  1  0.110612  0.509849  0.857031  1
  Nd  Nd10  1  0.389364  0.990138  0.357055  1
  Dy  Dy11  1  0.850919  0.251410  0.441921  1
  In  In12  1  0.619047  0.748212  0.505728  1
  In  In13  1  0.881178  0.751759  0.005674  1
  In  In14  1  0.386481  0.251254  0.498089  1
  In  In15  1  0.114724  0.248867  0.998152  1
  In  In16  1  0.655131  0.752564  0.242784  1
  In  In17  1  0.844758  0.747427  0.742750  1
  In  In18  1  0.346794  0.252282  0.755579  1
  In  In19  1  0.152899  0.247670  0.255720  1
  In  In20  1  0.110863  0.750340  0.281509  1
  In  In21  1  0.389004  0.749689  0.781492  1
  In  In22  1  0.886090  0.253582  0.716410  1
  In  In23  1  0.613849  0.246373  0.216693  1
  In  In24  1  0.874849  0.545445  0.404479  1
  In  In25  1  0.625132  0.954280  0.904465  1
  In  In26  1  0.124775  0.046946  0.596323  1
  In  In27  1  0.374805  0.453257  0.096538  1
  In  In28  1  0.127606  0.456350  0.597285  1
  In  In29  1  0.372142  0.043424  0.097345  1
  In  In30  1  0.874685  0.956149  0.401169  1
  In  In31  1  0.625302  0.544053  0.901221  1
