# generated using pymatgen
data_Mn2Se3S
_symmetry_space_group_name_H-M   'P 1'
_cell_length_a   3.45013362
_cell_length_b   6.86259140
_cell_length_c   8.57759270
_cell_angle_alpha   128.11272788
_cell_angle_beta   107.85310095
_cell_angle_gamma   96.86003502
_symmetry_Int_Tables_number   1
_chemical_formula_structural   Mn2Se3S
_chemical_formula_sum   'Mn2 Se3 S1'
_cell_volume   138.57719307
_cell_formula_units_Z   1
loop_
 _symmetry_equiv_pos_site_id
 _symmetry_equiv_pos_as_xyz
  1  'x, y, z'
loop_
 _atom_site_type_symbol
 _atom_site_label
 _atom_site_symmetry_multiplicity
 _atom_site_fract_x
 _atom_site_fract_y
 _atom_site_fract_z
 _atom_site_occupancy
  Mn  Mn0  1  0.657271  0.924384  0.056512  1
  Mn  Mn1  1  0.668825  0.436153  0.566863  1
  Se  Se2  1  0.992080  0.590454  0.944171  1
  Se  Se3  1  0.990792  0.093714  0.439369  1
  Se  Se4  1  0.333831  0.264358  0.182379  1
  S  S5  1  0.333213  0.743575  0.688345  1
