# generated using pymatgen
data_Dy8Ho4Tc2Ni2SnRh
_symmetry_space_group_name_H-M   'P 1'
_cell_length_a   8.37796699
_cell_length_b   8.37796972
_cell_length_c   8.37796835
_cell_angle_alpha   113.49862189
_cell_angle_beta   110.03754293
_cell_angle_gamma   104.98921921
_symmetry_Int_Tables_number   1
_chemical_formula_structural   Dy8Ho4Tc2Ni2SnRh
_chemical_formula_sum   'Dy8 Ho4 Tc2 Ni2 Sn1 Rh1'
_cell_volume   450.17915733
_cell_formula_units_Z   1
loop_
 _symmetry_equiv_pos_site_id
 _symmetry_equiv_pos_as_xyz
  1  'x, y, z'
loop_
 _atom_site_type_symbol
 _atom_site_label
 _atom_site_symmetry_multiplicity
 _atom_site_fract_x
 _atom_site_fract_y
 _atom_site_fract_z
 _atom_site_occupancy
  Dy  Dy0  1  0.421029  0.231433  0.189593  1
  Dy  Dy1  1  0.578971  0.768567  0.810407  1
  Dy  Dy2  1  0.041839  0.231433  0.810407  1
  Dy  Dy3  1  0.958161  0.768567  0.189593  1
  Dy  Dy4  1  0.178413  0.275963  0.454377  1
  Dy  Dy5  1  0.821587  0.724037  0.545623  1
  Dy  Dy6  1  0.178413  0.724037  0.902451  1
  Dy  Dy7  1  0.821587  0.275963  0.097549  1
  Ho  Ho8  1  0.331255  0.646757  0.315502  1
  Ho  Ho9  1  0.668745  0.353243  0.684498  1
  Ho  Ho10  1  0.331255  0.015752  0.684498  1
  Ho  Ho11  1  0.668745  0.984248  0.315502  1
  Tc  Tc12  1  0.329952  0.000000  0.329952  1
  Tc  Tc13  1  0.670048  0.000000  0.670048  1
  Ni  Ni14  1  0.115472  0.615472  0.500000  1
  Ni  Ni15  1  0.884528  0.384528  0.500000  1
  Sn  Sn16  1  0.500000  0.500000  0.000000  1
  Rh  Rh17  1  0.000000  0.000000  0.000000  1
