# generated using pymatgen
data_Yb5CdAu2
_symmetry_space_group_name_H-M   'P 1'
_cell_length_a   9.17621724
_cell_length_b   9.17621725
_cell_length_c   9.17621701
_cell_angle_alpha   128.30985219
_cell_angle_beta   128.30985701
_cell_angle_gamma   76.12361060
_symmetry_Int_Tables_number   1
_chemical_formula_structural   Yb5CdAu2
_chemical_formula_sum   'Yb10 Cd2 Au4'
_cell_volume   462.45410735
_cell_formula_units_Z   2
loop_
 _symmetry_equiv_pos_site_id
 _symmetry_equiv_pos_as_xyz
  1  'x, y, z'
loop_
 _atom_site_type_symbol
 _atom_site_label
 _atom_site_symmetry_multiplicity
 _atom_site_fract_x
 _atom_site_fract_y
 _atom_site_fract_z
 _atom_site_occupancy
  Yb  Yb0  1  0.500000  0.500000  0.000000  1
  Yb  Yb1  1  0.000000  0.000000  0.000000  1
  Yb  Yb2  1  0.526486  0.026486  0.829442  1
  Yb  Yb3  1  0.197045  0.697045  0.170558  1
  Yb  Yb4  1  0.026486  0.197045  0.500000  1
  Yb  Yb5  1  0.697045  0.526486  0.500000  1
  Yb  Yb6  1  0.473514  0.973514  0.170558  1
  Yb  Yb7  1  0.802955  0.302955  0.829442  1
  Yb  Yb8  1  0.973514  0.802955  0.500000  1
  Yb  Yb9  1  0.302955  0.473514  0.500000  1
  Cd  Cd10  1  0.250000  0.250000  0.000000  1
  Cd  Cd11  1  0.750000  0.750000  0.000000  1
  Au  Au12  1  0.135891  0.635891  0.771784  1
  Au  Au13  1  0.864109  0.364109  0.228216  1
  Au  Au14  1  0.635891  0.864109  0.500000  1
  Au  Au15  1  0.364109  0.135891  0.500000  1
