# generated using pymatgen
data_Ca6TbDySb6
_symmetry_space_group_name_H-M   'P 1'
_cell_length_a   8.14631530
_cell_length_b   8.14567585
_cell_length_c   8.21091004
_cell_angle_alpha   70.53911802
_cell_angle_beta   70.52229295
_cell_angle_gamma   109.05399338
_symmetry_Int_Tables_number   1
_chemical_formula_structural   Ca6TbDySb6
_chemical_formula_sum   'Ca6 Tb1 Dy1 Sb6'
_cell_volume   421.58831394
_cell_formula_units_Z   1
loop_
 _symmetry_equiv_pos_site_id
 _symmetry_equiv_pos_as_xyz
  1  'x, y, z'
loop_
 _atom_site_type_symbol
 _atom_site_label
 _atom_site_symmetry_multiplicity
 _atom_site_fract_x
 _atom_site_fract_y
 _atom_site_fract_z
 _atom_site_occupancy
  Ca  Ca0  1  0.000655  0.359453  0.496162  1
  Ca  Ca1  1  0.496612  0.496853  0.146453  1
  Ca  Ca2  1  0.643300  0.146310  0.357668  1
  Ca  Ca3  1  0.359325  0.000612  0.996308  1
  Ca  Ca4  1  0.497073  0.496791  0.646409  1
  Ca  Ca5  1  0.146276  0.643383  0.857508  1
  Tb  Tb6  1  0.856075  0.000500  0.999400  1
  Dy  Dy7  1  0.000486  0.856261  0.499420  1
  Sb  Sb8  1  0.634545  0.874220  0.749831  1
  Sb  Sb9  1  0.874270  0.634010  0.250643  1
  Sb  Sb10  1  0.239527  0.117991  0.628581  1
  Sb  Sb11  1  0.756456  0.377865  0.870914  1
  Sb  Sb12  1  0.377107  0.756380  0.371258  1
  Sb  Sb13  1  0.118291  0.239368  0.129443  1
