# generated using pymatgen
data_K2Li2SnS4
_symmetry_space_group_name_H-M   'P 1'
_cell_length_a   5.79227700
_cell_length_b   7.36900353
_cell_length_c   11.31323700
_cell_angle_alpha   67.70448729
_cell_angle_beta   90.00000000
_cell_angle_gamma   90.00000000
_symmetry_Int_Tables_number   1
_chemical_formula_structural   K2Li2SnS4
_chemical_formula_sum   'K4 Li4 Sn2 S8'
_cell_volume   446.78553769
_cell_formula_units_Z   2
loop_
 _symmetry_equiv_pos_site_id
 _symmetry_equiv_pos_as_xyz
  1  'x, y, z'
loop_
 _atom_site_type_symbol
 _atom_site_label
 _atom_site_symmetry_multiplicity
 _atom_site_fract_x
 _atom_site_fract_y
 _atom_site_fract_z
 _atom_site_occupancy
  K  K0  1  0.518747  0.000000  0.250000  1
  K  K1  1  0.000000  0.000000  0.000000  1
  K  K2  1  0.481253  0.000000  0.750000  1
  K  K3  1  0.000000  0.000000  0.500000  1
  Li  Li4  1  0.750426  0.500907  0.027083  1
  Li  Li5  1  0.249574  0.500907  0.527083  1
  Li  Li6  1  0.249574  0.499093  0.972917  1
  Li  Li7  1  0.750426  0.499093  0.472917  1
  Sn  Sn8  1  0.249606  0.500000  0.250000  1
  Sn  Sn9  1  0.750394  0.500000  0.750000  1
  S  S10  1  0.032588  0.713396  0.326710  1
  S  S11  1  0.532730  0.286221  0.932218  1
  S  S12  1  0.467270  0.713779  0.067782  1
  S  S13  1  0.532730  0.713779  0.567782  1
  S  S14  1  0.032588  0.286604  0.173290  1
  S  S15  1  0.467270  0.286221  0.432218  1
  S  S16  1  0.967412  0.713396  0.826710  1
  S  S17  1  0.967412  0.286604  0.673290  1
