# generated using pymatgen
data_Nd4Ho4Re3TcB24
_symmetry_space_group_name_H-M   'P 1'
_cell_length_a   3.72819800
_cell_length_b   9.24406981
_cell_length_c   11.70271604
_cell_angle_alpha   90.01904211
_cell_angle_beta   90.00000000
_cell_angle_gamma   90.00000000
_symmetry_Int_Tables_number   1
_chemical_formula_structural   Nd4Ho4Re3TcB24
_chemical_formula_sum   'Nd4 Ho4 Re3 Tc1 B24'
_cell_volume   403.31913695
_cell_formula_units_Z   1
loop_
 _symmetry_equiv_pos_site_id
 _symmetry_equiv_pos_as_xyz
  1  'x, y, z'
loop_
 _atom_site_type_symbol
 _atom_site_label
 _atom_site_symmetry_multiplicity
 _atom_site_fract_x
 _atom_site_fract_y
 _atom_site_fract_z
 _atom_site_occupancy
  Nd  Nd0  1  0.000000  0.323101  0.414167  1
  Nd  Nd1  1  0.000000  0.677239  0.585483  1
  Nd  Nd2  1  0.000000  0.822826  0.085739  1
  Nd  Nd3  1  0.000000  0.177301  0.914344  1
  Ho  Ho4  1  0.000000  0.941911  0.369035  1
  Ho  Ho5  1  0.000000  0.057061  0.630405  1
  Ho  Ho6  1  0.000000  0.443320  0.131300  1
  Ho  Ho7  1  0.000000  0.557178  0.869573  1
  Re  Re8  1  0.000000  0.360561  0.680738  1
  Re  Re9  1  0.000000  0.139379  0.180792  1
  Re  Re10  1  0.000000  0.860691  0.819259  1
  Tc  Tc11  1  0.000000  0.639568  0.319215  1
  B  B12  1  0.500000  0.555185  0.430310  1
  B  B13  1  0.500000  0.444959  0.569545  1
  B  B14  1  0.500000  0.055185  0.069525  1
  B  B15  1  0.500000  0.944980  0.930381  1
  B  B16  1  0.500000  0.749598  0.415860  1
  B  B17  1  0.500000  0.250105  0.583924  1
  B  B18  1  0.500000  0.250166  0.084137  1
  B  B19  1  0.500000  0.750188  0.915923  1
  B  B20  1  0.500000  0.790986  0.266137  1
  B  B21  1  0.500000  0.208578  0.733732  1
  B  B22  1  0.500000  0.291246  0.233948  1
  B  B23  1  0.500000  0.708662  0.766201  1
  B  B24  1  0.500000  0.629680  0.186709  1
  B  B25  1  0.500000  0.370517  0.813440  1
  B  B26  1  0.500000  0.129459  0.313560  1
  B  B27  1  0.500000  0.870372  0.686438  1
  B  B28  1  0.500000  0.983707  0.213102  1
  B  B29  1  0.500000  0.016280  0.786744  1
  B  B30  1  0.500000  0.483980  0.286968  1
  B  B31  1  0.500000  0.516323  0.713207  1
  B  B32  1  0.500000  0.596096  0.026706  1
  B  B33  1  0.500000  0.404104  0.973714  1
  B  B34  1  0.500000  0.095578  0.473240  1
  B  B35  1  0.500000  0.903931  0.526501  1
