# generated using pymatgen
data_Dy17Y3Cd3Ni2Au3
_symmetry_space_group_name_H-M   'P 1'
_cell_length_a   9.60621301
_cell_length_b   9.60624340
_cell_length_c   9.49758600
_cell_angle_alpha   90.00000000
_cell_angle_beta   90.00000000
_cell_angle_gamma   120.00829994
_symmetry_Int_Tables_number   1
_chemical_formula_structural   Dy17Y3Cd3Ni2Au3
_chemical_formula_sum   'Dy17 Y3 Cd3 Ni2 Au3'
_cell_volume   758.95030023
_cell_formula_units_Z   1
loop_
 _symmetry_equiv_pos_site_id
 _symmetry_equiv_pos_as_xyz
  1  'x, y, z'
loop_
 _atom_site_type_symbol
 _atom_site_label
 _atom_site_symmetry_multiplicity
 _atom_site_fract_x
 _atom_site_fract_y
 _atom_site_fract_z
 _atom_site_occupancy
  Dy  Dy0  1  0.000043  0.999968  0.458843  1
  Dy  Dy1  1  0.000043  0.999968  0.041157  1
  Dy  Dy2  1  0.541903  0.458001  0.250000  1
  Dy  Dy3  1  0.541978  0.083885  0.250000  1
  Dy  Dy4  1  0.916105  0.458115  0.250000  1
  Dy  Dy5  1  0.209775  0.790264  0.436665  1
  Dy  Dy6  1  0.209718  0.419488  0.436645  1
  Dy  Dy7  1  0.580515  0.790235  0.436644  1
  Dy  Dy8  1  0.790752  0.209249  0.560321  1
  Dy  Dy9  1  0.790746  0.581522  0.560320  1
  Dy  Dy10  1  0.418482  0.209250  0.560317  1
  Dy  Dy11  1  0.790752  0.209249  0.939679  1
  Dy  Dy12  1  0.790746  0.581522  0.939680  1
  Dy  Dy13  1  0.418482  0.209250  0.939683  1
  Dy  Dy14  1  0.209775  0.790264  0.063335  1
  Dy  Dy15  1  0.209718  0.419488  0.063355  1
  Dy  Dy16  1  0.580515  0.790235  0.063356  1
  Y  Y17  1  0.456709  0.543264  0.750000  1
  Y  Y18  1  0.456774  0.913497  0.750000  1
  Y  Y19  1  0.086494  0.543249  0.750000  1
  Cd  Cd20  1  0.109776  0.890233  0.750000  1
  Cd  Cd21  1  0.109776  0.219531  0.750000  1
  Cd  Cd22  1  0.780473  0.890217  0.750000  1
  Ni  Ni23  1  0.333323  0.666678  0.250000  1
  Ni  Ni24  1  0.666673  0.333326  0.750000  1
  Au  Au25  1  0.869125  0.130902  0.250000  1
  Au  Au26  1  0.869032  0.738208  0.250000  1
  Au  Au27  1  0.261799  0.130945  0.250000  1
