# generated using pymatgen
data_Dy10Si16Sn
_symmetry_space_group_name_H-M   'P 1'
_cell_length_a   11.12020016
_cell_length_b   11.06335913
_cell_length_c   11.12020039
_cell_angle_alpha   144.68493794
_cell_angle_beta   136.00920704
_cell_angle_gamma   57.72417329
_symmetry_Int_Tables_number   1
_chemical_formula_structural   Dy10Si16Sn
_chemical_formula_sum   'Dy10 Si16 Sn1'
_cell_volume   544.46043732
_cell_formula_units_Z   1
loop_
 _symmetry_equiv_pos_site_id
 _symmetry_equiv_pos_as_xyz
  1  'x, y, z'
loop_
 _atom_site_type_symbol
 _atom_site_label
 _atom_site_symmetry_multiplicity
 _atom_site_fract_x
 _atom_site_fract_y
 _atom_site_fract_z
 _atom_site_occupancy
  Dy  Dy0  1  0.756297  0.759917  0.517524  1
  Dy  Dy1  1  0.441160  0.971445  0.015531  1
  Dy  Dy2  1  0.848118  0.368952  0.018858  1
  Dy  Dy3  1  0.955914  0.971445  0.530284  1
  Dy  Dy4  1  0.150429  0.164087  0.515985  1
  Dy  Dy5  1  0.350094  0.368952  0.520834  1
  Dy  Dy6  1  0.242393  0.759917  0.003621  1
  Dy  Dy7  1  0.545508  0.558834  0.497852  1
  Dy  Dy8  1  0.060981  0.558834  0.013326  1
  Dy  Dy9  1  0.648102  0.164087  0.013658  1
  Si  Si10  1  0.199086  0.579358  0.380272  1
  Si  Si11  1  0.000122  0.083840  0.083717  1
  Si  Si12  1  0.697711  0.280122  0.582412  1
  Si  Si13  1  0.799822  0.177232  0.377410  1
  Si  Si14  1  0.895416  0.501566  0.606151  1
  Si  Si15  1  0.417956  0.871406  0.453449  1
  Si  Si16  1  0.103873  0.713236  0.609363  1
  Si  Si17  1  0.301258  0.894593  0.593335  1
  Si  Si18  1  0.578417  0.038971  0.460554  1
  Si  Si19  1  0.999422  0.430902  0.431480  1
  Si  Si20  1  0.882623  0.839285  0.956662  1
  Si  Si21  1  0.401323  0.499959  0.098636  1
  Si  Si22  1  0.117907  0.083452  0.965544  1
  Si  Si23  1  0.288001  0.238552  0.950552  1
  Si  Si24  1  0.499432  0.384925  0.885493  1
  Si  Si25  1  0.595752  0.705021  0.109269  1
  Sn  Sn26  1  0.722882  0.692608  0.969725  1
