# generated using pymatgen
data_EuPRhF
_symmetry_space_group_name_H-M   'P 1'
_cell_length_a   3.97551300
_cell_length_b   3.97566600
_cell_length_c   8.65960000
_cell_angle_alpha   90.00000000
_cell_angle_beta   90.00000000
_cell_angle_gamma   90.00000000
_symmetry_Int_Tables_number   1
_chemical_formula_structural   EuPRhF
_chemical_formula_sum   'Eu2 P2 Rh2 F2'
_cell_volume   136.86767864
_cell_formula_units_Z   2
loop_
 _symmetry_equiv_pos_site_id
 _symmetry_equiv_pos_as_xyz
  1  'x, y, z'
loop_
 _atom_site_type_symbol
 _atom_site_label
 _atom_site_symmetry_multiplicity
 _atom_site_fract_x
 _atom_site_fract_y
 _atom_site_fract_z
 _atom_site_occupancy
  Eu  Eu0  1  0.000000  0.000000  0.175208  1
  Eu  Eu1  1  0.499999  0.499999  0.825078  1
  P  P2  1  0.499999  0.499999  0.347441  1
  P  P3  1  0.000000  0.000000  0.652286  1
  Rh  Rh4  1  0.499999  0.000000  0.499872  1
  Rh  Rh5  1  0.000000  0.499999  0.499896  1
  F  F6  1  0.499999  0.000000  0.000115  1
  F  F7  1  0.000000  0.499999  0.000103  1
