# generated using pymatgen
data_Tm9ScZn3NiSb2
_symmetry_space_group_name_H-M   'P 1'
_cell_length_a   8.33889648
_cell_length_b   8.33889594
_cell_length_c   8.40645311
_cell_angle_alpha   124.09209092
_cell_angle_beta   123.89924871
_cell_angle_gamma   82.68533085
_symmetry_Int_Tables_number   1
_chemical_formula_structural   Tm9ScZn3NiSb2
_chemical_formula_sum   'Tm9 Sc1 Zn3 Ni1 Sb2'
_cell_volume   386.93364301
_cell_formula_units_Z   1
loop_
 _symmetry_equiv_pos_site_id
 _symmetry_equiv_pos_as_xyz
  1  'x, y, z'
loop_
 _atom_site_type_symbol
 _atom_site_label
 _atom_site_symmetry_multiplicity
 _atom_site_fract_x
 _atom_site_fract_y
 _atom_site_fract_z
 _atom_site_occupancy
  Tm  Tm0  1  0.498565  0.495567  0.994132  1
  Tm  Tm1  1  0.788818  0.296414  0.801558  1
  Tm  Tm2  1  0.200118  0.715967  0.198656  1
  Tm  Tm3  1  0.482689  0.998537  0.198656  1
  Tm  Tm4  1  0.303174  0.468779  0.495420  1
  Tm  Tm5  1  0.026641  0.192245  0.495420  1
  Tm  Tm6  1  0.505145  0.012740  0.801558  1
  Tm  Tm7  1  0.704270  0.517064  0.503627  1
  Tm  Tm8  1  0.986563  0.799357  0.503627  1
  Sc  Sc9  1  0.003748  0.000257  0.004006  1
  Zn  Zn10  1  0.136218  0.640867  0.777085  1
  Zn  Zn11  1  0.864146  0.359478  0.223623  1
  Zn  Zn12  1  0.635403  0.867525  0.502928  1
  Ni  Ni13  1  0.372749  0.127876  0.500625  1
  Sb  Sb14  1  0.242810  0.250598  0.999540  1
  Sb  Sb15  1  0.748942  0.756730  0.999540  1
