# generated using pymatgen
data_Cs5U2S4Br9
_symmetry_space_group_name_H-M   'P 1'
_cell_length_a   11.29724943
_cell_length_b   11.29724937
_cell_length_c   11.29725032
_cell_angle_alpha   139.66898605
_cell_angle_beta   119.96946376
_cell_angle_gamma   74.81975018
_symmetry_Int_Tables_number   1
_chemical_formula_structural   Cs5U2S4Br9
_chemical_formula_sum   'Cs5 U2 S4 Br9'
_cell_volume   789.99001804
_cell_formula_units_Z   1
loop_
 _symmetry_equiv_pos_site_id
 _symmetry_equiv_pos_as_xyz
  1  'x, y, z'
loop_
 _atom_site_type_symbol
 _atom_site_label
 _atom_site_symmetry_multiplicity
 _atom_site_fract_x
 _atom_site_fract_y
 _atom_site_fract_z
 _atom_site_occupancy
  Cs  Cs0  1  0.431366  0.657503  0.773864  1
  Cs  Cs1  1  0.883639  0.657503  0.226136  1
  Cs  Cs2  1  0.500000  0.000000  0.500000  1
  Cs  Cs3  1  0.568634  0.342497  0.226136  1
  Cs  Cs4  1  0.116361  0.342497  0.773864  1
  U  U5  1  0.104295  0.104295  0.000000  1
  U  U6  1  0.895705  0.895705  0.000000  1
  S  S7  1  0.091188  0.769034  0.860222  1
  S  S8  1  0.908812  0.769034  0.677846  1
  S  S9  1  0.908812  0.230966  0.139778  1
  S  S10  1  0.091188  0.230966  0.322154  1
  Br  Br11  1  0.218081  0.471648  0.253568  1
  Br  Br12  1  0.122029  0.865683  0.256346  1
  Br  Br13  1  0.390665  0.134317  0.256346  1
  Br  Br14  1  0.218081  0.964513  0.746432  1
  Br  Br15  1  0.781919  0.035487  0.253568  1
  Br  Br16  1  0.609335  0.865683  0.743654  1
  Br  Br17  1  0.781919  0.528352  0.746432  1
  Br  Br18  1  0.500000  0.500000  0.000000  1
  Br  Br19  1  0.877971  0.134317  0.743654  1
