# generated using pymatgen
data_Er8Tm2(IrAu)3
_symmetry_space_group_name_H-M   'P 1'
_cell_length_a   11.12558430
_cell_length_b   11.10103800
_cell_length_c   6.31812711
_cell_angle_alpha   90.00000000
_cell_angle_beta   89.79942915
_cell_angle_gamma   90.00000000
_symmetry_Int_Tables_number   1
_chemical_formula_structural   Er8Tm2(IrAu)3
_chemical_formula_sum   'Er16 Tm4 Ir6 Au6'
_cell_volume   780.31888184
_cell_formula_units_Z   2
loop_
 _symmetry_equiv_pos_site_id
 _symmetry_equiv_pos_as_xyz
  1  'x, y, z'
loop_
 _atom_site_type_symbol
 _atom_site_label
 _atom_site_symmetry_multiplicity
 _atom_site_fract_x
 _atom_site_fract_y
 _atom_site_fract_z
 _atom_site_occupancy
  Er  Er0  1  0.301030  0.090589  0.367727  1
  Er  Er1  1  0.301030  0.909411  0.867727  1
  Er  Er2  1  0.697994  0.082825  0.864125  1
  Er  Er3  1  0.697994  0.917175  0.364125  1
  Er  Er4  1  0.575782  0.791653  0.866011  1
  Er  Er5  1  0.575782  0.208347  0.366011  1
  Er  Er6  1  0.411913  0.793714  0.379951  1
  Er  Er7  1  0.411913  0.206286  0.879951  1
  Er  Er8  1  0.211214  0.418197  0.623083  1
  Er  Er9  1  0.211214  0.581803  0.123083  1
  Er  Er10  1  0.798873  0.416412  0.131054  1
  Er  Er11  1  0.798873  0.583588  0.631054  1
  Er  Er12  1  0.919848  0.699605  0.133897  1
  Er  Er13  1  0.919848  0.300395  0.633897  1
  Er  Er14  1  0.093978  0.698406  0.634754  1
  Er  Er15  1  0.093978  0.301594  0.134754  1
  Tm  Tm16  1  0.999421  0.999082  0.499931  1
  Tm  Tm17  1  0.999421  0.000918  0.999931  1
  Tm  Tm18  1  0.491050  0.498313  0.999296  1
  Tm  Tm19  1  0.491050  0.501687  0.499296  1
  Ir  Ir20  1  0.346852  0.346426  0.250221  1
  Ir  Ir21  1  0.346852  0.653574  0.750221  1
  Ir  Ir22  1  0.499875  0.999461  0.116700  1
  Ir  Ir23  1  0.499875  0.000539  0.616700  1
  Ir  Ir24  1  0.999439  0.500103  0.883815  1
  Ir  Ir25  1  0.999439  0.499897  0.383815  1
  Au  Au26  1  0.844183  0.154877  0.250770  1
  Au  Au27  1  0.844183  0.845123  0.750770  1
  Au  Au28  1  0.154371  0.154798  0.749346  1
  Au  Au29  1  0.154371  0.845202  0.249346  1
  Au  Au30  1  0.654176  0.346635  0.749319  1
  Au  Au31  1  0.654176  0.653365  0.249319  1
