# generated using pymatgen
data_Zr10SiGe(BiPb2)2
_symmetry_space_group_name_H-M   'P 1'
_cell_length_a   8.84866712
_cell_length_b   8.85265026
_cell_length_c   5.97749401
_cell_angle_alpha   89.99307169
_cell_angle_beta   90.00346425
_cell_angle_gamma   120.01488966
_symmetry_Int_Tables_number   1
_chemical_formula_structural   Zr10SiGe(BiPb2)2
_chemical_formula_sum   'Zr10 Si1 Ge1 Bi2 Pb4'
_cell_volume   405.44856008
_cell_formula_units_Z   1
loop_
 _symmetry_equiv_pos_site_id
 _symmetry_equiv_pos_as_xyz
  1  'x, y, z'
loop_
 _atom_site_type_symbol
 _atom_site_label
 _atom_site_symmetry_multiplicity
 _atom_site_fract_x
 _atom_site_fract_y
 _atom_site_fract_z
 _atom_site_occupancy
  Zr  Zr0  1  0.665294  0.332636  0.498758  1
  Zr  Zr1  1  0.334706  0.667343  0.498758  1
  Zr  Zr2  1  0.334474  0.667334  0.001276  1
  Zr  Zr3  1  0.665526  0.332859  0.001276  1
  Zr  Zr4  1  0.741121  0.740852  0.246060  1
  Zr  Zr5  1  0.258879  0.999731  0.246060  1
  Zr  Zr6  1  0.000000  0.258254  0.246009  1
  Zr  Zr7  1  0.256806  0.255692  0.754085  1
  Zr  Zr8  1  0.743194  0.998886  0.754085  1
  Zr  Zr9  1  0.000000  0.745038  0.754080  1
  Si  Si10  1  0.000000  0.999776  0.002144  1
  Ge  Ge11  1  0.000000  0.999872  0.497843  1
  Bi  Bi12  1  0.393598  0.393424  0.250243  1
  Bi  Bi13  1  0.606402  0.999826  0.250243  1
  Pb  Pb14  1  0.000000  0.607002  0.250155  1
  Pb  Pb15  1  0.606537  0.606351  0.749613  1
  Pb  Pb16  1  0.393463  0.999813  0.749613  1
  Pb  Pb17  1  0.000000  0.395310  0.749699  1
