# generated using pymatgen
data_Yb6CePt7
_symmetry_space_group_name_H-M   'P 1'
_cell_length_a   5.98848159
_cell_length_b   7.75786380
_cell_length_c   7.75786271
_cell_angle_alpha   113.62124839
_cell_angle_beta   104.91038389
_cell_angle_gamma   104.91038155
_symmetry_Int_Tables_number   1
_chemical_formula_structural   Yb6CePt7
_chemical_formula_sum   'Yb6 Ce1 Pt7'
_cell_volume   291.46208962
_cell_formula_units_Z   1
loop_
 _symmetry_equiv_pos_site_id
 _symmetry_equiv_pos_as_xyz
  1  'x, y, z'
loop_
 _atom_site_type_symbol
 _atom_site_label
 _atom_site_symmetry_multiplicity
 _atom_site_fract_x
 _atom_site_fract_y
 _atom_site_fract_z
 _atom_site_occupancy
  Yb  Yb0  1  0.351557  0.436247  0.143000  1
  Yb  Yb1  1  0.208557  0.857000  0.293248  1
  Yb  Yb2  1  0.084690  0.293247  0.436247  1
  Yb  Yb3  1  0.915310  0.706753  0.563753  1
  Yb  Yb4  1  0.791443  0.143000  0.706753  1
  Yb  Yb5  1  0.648443  0.563753  0.857000  1
  Ce  Ce6  1  0.500000  0.000000  0.000000  1
  Pt  Pt7  1  0.000000  0.000000  0.000000  1
  Pt  Pt8  1  0.846826  0.413074  0.136928  1
  Pt  Pt9  1  0.709897  0.863072  0.276146  1
  Pt  Pt10  1  0.566248  0.276146  0.413074  1
  Pt  Pt11  1  0.433754  0.723854  0.586927  1
  Pt  Pt12  1  0.290103  0.136928  0.723855  1
  Pt  Pt13  1  0.153174  0.586926  0.863072  1
