# generated using pymatgen
data_Ba2Sn4GeIr4
_symmetry_space_group_name_H-M   'P 1'
_cell_length_a   7.04599033
_cell_length_b   7.04599074
_cell_length_c   12.19014306
_cell_angle_alpha   89.70098671
_cell_angle_beta   89.70098513
_cell_angle_gamma   118.15056599
_symmetry_Int_Tables_number   1
_chemical_formula_structural   Ba2Sn4GeIr4
_chemical_formula_sum   'Ba4 Sn8 Ge2 Ir8'
_cell_volume   533.57650367
_cell_formula_units_Z   2
loop_
 _symmetry_equiv_pos_site_id
 _symmetry_equiv_pos_as_xyz
  1  'x, y, z'
loop_
 _atom_site_type_symbol
 _atom_site_label
 _atom_site_symmetry_multiplicity
 _atom_site_fract_x
 _atom_site_fract_y
 _atom_site_fract_z
 _atom_site_occupancy
  Ba  Ba0  1  0.195703  0.804297  0.500000  1
  Ba  Ba1  1  0.200337  0.799663  0.000000  1
  Ba  Ba2  1  0.804297  0.195703  0.500000  1
  Ba  Ba3  1  0.799663  0.200337  0.000000  1
  Sn  Sn4  1  0.504131  0.892908  0.253171  1
  Sn  Sn5  1  0.107092  0.495869  0.746829  1
  Sn  Sn6  1  0.495869  0.107092  0.746829  1
  Sn  Sn7  1  0.892908  0.504131  0.253171  1
  Sn  Sn8  1  0.334074  0.334074  0.073739  1
  Sn  Sn9  1  0.665926  0.665926  0.926261  1
  Sn  Sn10  1  0.020309  0.020309  0.256781  1
  Sn  Sn11  1  0.979691  0.979690  0.743219  1
  Ge  Ge12  1  0.347478  0.347478  0.432626  1
  Ge  Ge13  1  0.652522  0.652522  0.567374  1
  Ir  Ir14  1  0.471852  0.240843  0.262016  1
  Ir  Ir15  1  0.759157  0.528148  0.737984  1
  Ir  Ir16  1  0.528148  0.759157  0.737984  1
  Ir  Ir17  1  0.240843  0.471852  0.262016  1
  Ir  Ir18  1  0.684815  0.684815  0.369166  1
  Ir  Ir19  1  0.315185  0.315185  0.630834  1
  Ir  Ir20  1  0.692535  0.692535  0.140609  1
  Ir  Ir21  1  0.307465  0.307465  0.859391  1
