# generated using pymatgen
data_Tb3CeNb2(B2Ru5)2
_symmetry_space_group_name_H-M   'P 1'
_cell_length_a   9.69282295
_cell_length_b   9.69282295
_cell_length_c   3.15667800
_cell_angle_alpha   90.00000000
_cell_angle_beta   90.00000000
_cell_angle_gamma   89.83581170
_symmetry_Int_Tables_number   1
_chemical_formula_structural   Tb3CeNb2(B2Ru5)2
_chemical_formula_sum   'Tb3 Ce1 Nb2 B4 Ru10'
_cell_volume   296.57125855
_cell_formula_units_Z   1
loop_
 _symmetry_equiv_pos_site_id
 _symmetry_equiv_pos_as_xyz
  1  'x, y, z'
loop_
 _atom_site_type_symbol
 _atom_site_label
 _atom_site_symmetry_multiplicity
 _atom_site_fract_x
 _atom_site_fract_y
 _atom_site_fract_z
 _atom_site_occupancy
  Tb  Tb0  1  0.825057  0.674666  0.000000  1
  Tb  Tb1  1  0.174666  0.325057  0.000000  1
  Tb  Tb2  1  0.324688  0.824688  0.000000  1
  Ce  Ce3  1  0.674861  0.174861  0.000000  1
  Nb  Nb4  1  0.497962  0.503066  0.000000  1
  Nb  Nb5  1  0.003066  0.997962  0.000000  1
  B  B6  1  0.621360  0.876854  0.000000  1
  B  B7  1  0.376854  0.121360  0.000000  1
  B  B8  1  0.120732  0.620732  0.000000  1
  B  B9  1  0.881020  0.381020  0.000000  1
  Ru  Ru10  1  0.571166  0.720093  0.500000  1
  Ru  Ru11  1  0.430212  0.281728  0.500000  1
  Ru  Ru12  1  0.070737  0.780424  0.500000  1
  Ru  Ru13  1  0.926498  0.217818  0.500000  1
  Ru  Ru14  1  0.280424  0.570737  0.500000  1
  Ru  Ru15  1  0.717818  0.426498  0.500000  1
  Ru  Ru16  1  0.220093  0.071166  0.500000  1
  Ru  Ru17  1  0.781728  0.930212  0.500000  1
  Ru  Ru18  1  0.501894  0.001894  0.500000  1
  Ru  Ru19  1  0.999164  0.499164  0.500000  1
