# generated using pymatgen
data_Li2Dy2As6Rh7
_symmetry_space_group_name_H-M   'P 1'
_cell_length_a   7.18555678
_cell_length_b   7.09913557
_cell_length_c   7.18555766
_cell_angle_alpha   109.27396539
_cell_angle_beta   110.35092856
_cell_angle_gamma   109.27395053
_symmetry_Int_Tables_number   1
_chemical_formula_structural   Li2Dy2As6Rh7
_chemical_formula_sum   'Li2 Dy2 As6 Rh7'
_cell_volume   280.43879955
_cell_formula_units_Z   1
loop_
 _symmetry_equiv_pos_site_id
 _symmetry_equiv_pos_as_xyz
  1  'x, y, z'
loop_
 _atom_site_type_symbol
 _atom_site_label
 _atom_site_symmetry_multiplicity
 _atom_site_fract_x
 _atom_site_fract_y
 _atom_site_fract_z
 _atom_site_occupancy
  Li  Li0  1  0.500000  0.000000  0.000000  1
  Li  Li1  1  0.000000  0.000000  0.500000  1
  Dy  Dy2  1  0.500000  0.500000  0.500000  1
  Dy  Dy3  1  0.000000  0.500000  0.000000  1
  As  As4  1  0.684578  0.000000  0.684578  1
  As  As5  1  0.684233  0.698064  0.013832  1
  As  As6  1  0.315767  0.301936  0.986168  1
  As  As7  1  0.013832  0.698064  0.684233  1
  As  As8  1  0.986168  0.301936  0.315767  1
  As  As9  1  0.315422  0.000000  0.315422  1
  Rh  Rh10  1  0.502605  0.753427  0.250822  1
  Rh  Rh11  1  0.749178  0.246573  0.497395  1
  Rh  Rh12  1  0.250822  0.753427  0.502605  1
  Rh  Rh13  1  0.250000  0.500000  0.750000  1
  Rh  Rh14  1  0.000000  0.000000  0.000000  1
  Rh  Rh15  1  0.497395  0.246573  0.749178  1
  Rh  Rh16  1  0.750000  0.500000  0.250000  1
