# generated using pymatgen
data_YbPr3In2Rh3
_symmetry_space_group_name_H-M   'P 1'
_cell_length_a   7.78612903
_cell_length_b   7.78612949
_cell_length_c   4.10958600
_cell_angle_alpha   90.00000000
_cell_angle_beta   90.00000000
_cell_angle_gamma   120.27259376
_symmetry_Int_Tables_number   1
_chemical_formula_structural   YbPr3In2Rh3
_chemical_formula_sum   'Yb1 Pr3 In2 Rh3'
_cell_volume   215.16539359
_cell_formula_units_Z   1
loop_
 _symmetry_equiv_pos_site_id
 _symmetry_equiv_pos_as_xyz
  1  'x, y, z'
loop_
 _atom_site_type_symbol
 _atom_site_label
 _atom_site_symmetry_multiplicity
 _atom_site_fract_x
 _atom_site_fract_y
 _atom_site_fract_z
 _atom_site_occupancy
  Yb  Yb0  1  0.760409  0.760409  0.000000  1
  Pr  Pr1  1  0.022290  0.585530  0.500000  1
  Pr  Pr2  1  0.389683  0.389683  0.500000  1
  Pr  Pr3  1  0.585530  0.022290  0.500000  1
  In  In4  1  0.992739  0.247041  0.000000  1
  In  In5  1  0.247041  0.992739  0.000000  1
  Rh  Rh6  1  0.331245  0.661360  0.000000  1
  Rh  Rh7  1  0.009704  0.009704  0.500000  1
  Rh  Rh8  1  0.661360  0.331245  0.000000  1
