# generated using pymatgen
data_Dy4ErTm7Co4
_symmetry_space_group_name_H-M   'P 1'
_cell_length_a   6.16882057
_cell_length_b   6.90801521
_cell_length_c   9.28985453
_cell_angle_alpha   89.99497266
_cell_angle_beta   89.84320060
_cell_angle_gamma   90.02868547
_symmetry_Int_Tables_number   1
_chemical_formula_structural   Dy4ErTm7Co4
_chemical_formula_sum   'Dy4 Er1 Tm7 Co4'
_cell_volume   395.87917288
_cell_formula_units_Z   1
loop_
 _symmetry_equiv_pos_site_id
 _symmetry_equiv_pos_as_xyz
  1  'x, y, z'
loop_
 _atom_site_type_symbol
 _atom_site_label
 _atom_site_symmetry_multiplicity
 _atom_site_fract_x
 _atom_site_fract_y
 _atom_site_fract_z
 _atom_site_occupancy
  Dy  Dy0  1  0.177365  0.174794  0.067126  1
  Dy  Dy1  1  0.861411  0.541684  0.250063  1
  Dy  Dy2  1  0.638815  0.040197  0.250947  1
  Dy  Dy3  1  0.138005  0.458943  0.749358  1
  Er  Er4  1  0.361559  0.958397  0.749229  1
  Tm  Tm5  1  0.324841  0.675156  0.067331  1
  Tm  Tm6  1  0.175368  0.174768  0.434432  1
  Tm  Tm7  1  0.674916  0.325211  0.567124  1
  Tm  Tm8  1  0.823363  0.824662  0.931201  1
  Tm  Tm9  1  0.675809  0.324723  0.931328  1
  Tm  Tm10  1  0.823040  0.824831  0.567641  1
  Tm  Tm11  1  0.323286  0.675776  0.432483  1
  Co  Co12  1  0.050618  0.886334  0.251622  1
  Co  Co13  1  0.451891  0.387259  0.251843  1
  Co  Co14  1  0.951068  0.113160  0.747406  1
  Co  Co15  1  0.548644  0.614106  0.750866  1
