# generated using pymatgen
data_Y2Er2OsRuC4
_symmetry_space_group_name_H-M   'P 1'
_cell_length_a   5.10012200
_cell_length_b   6.45439999
_cell_length_c   9.74840661
_cell_angle_alpha   89.75878232
_cell_angle_beta   90.00000000
_cell_angle_gamma   90.00000000
_symmetry_Int_Tables_number   1
_chemical_formula_structural   Y2Er2OsRuC4
_chemical_formula_sum   'Y4 Er4 Os2 Ru2 C8'
_cell_volume   320.89742145
_cell_formula_units_Z   2
loop_
 _symmetry_equiv_pos_site_id
 _symmetry_equiv_pos_as_xyz
  1  'x, y, z'
loop_
 _atom_site_type_symbol
 _atom_site_label
 _atom_site_symmetry_multiplicity
 _atom_site_fract_x
 _atom_site_fract_y
 _atom_site_fract_z
 _atom_site_occupancy
  Y  Y0  1  0.250000  0.527176  0.216667  1
  Y  Y1  1  0.750000  0.472824  0.783333  1
  Y  Y2  1  0.750000  0.973618  0.719012  1
  Y  Y3  1  0.250000  0.026382  0.280988  1
  Er  Er4  1  0.250000  0.681674  0.554177  1
  Er  Er5  1  0.750000  0.318326  0.445823  1
  Er  Er6  1  0.750000  0.822965  0.054659  1
  Er  Er7  1  0.250000  0.177035  0.945341  1
  Os  Os8  1  0.750000  0.775614  0.365793  1
  Os  Os9  1  0.250000  0.224386  0.634207  1
  Ru  Ru10  1  0.250000  0.723045  0.866062  1
  Ru  Ru11  1  0.750000  0.276955  0.133938  1
  C  C12  1  0.250000  0.458655  0.755916  1
  C  C13  1  0.750000  0.541345  0.244084  1
  C  C14  1  0.750000  0.040476  0.259818  1
  C  C15  1  0.250000  0.959524  0.740182  1
  C  C16  1  0.250000  0.829397  0.053588  1
  C  C17  1  0.750000  0.170603  0.946412  1
  C  C18  1  0.750000  0.672781  0.553595  1
  C  C19  1  0.250000  0.327219  0.446405  1
