# generated using pymatgen
data_Re2As7W
_symmetry_space_group_name_H-M   'P 1'
_cell_length_a   7.68052555
_cell_length_b   7.68052597
_cell_length_c   7.67905528
_cell_angle_alpha   109.59584167
_cell_angle_beta   109.59584170
_cell_angle_gamma   109.23005140
_symmetry_Int_Tables_number   1
_chemical_formula_structural   Re2As7W
_chemical_formula_sum   'Re4 As14 W2'
_cell_volume   348.67443519
_cell_formula_units_Z   2
loop_
 _symmetry_equiv_pos_site_id
 _symmetry_equiv_pos_as_xyz
  1  'x, y, z'
loop_
 _atom_site_type_symbol
 _atom_site_label
 _atom_site_symmetry_multiplicity
 _atom_site_fract_x
 _atom_site_fract_y
 _atom_site_fract_z
 _atom_site_occupancy
  Re  Re0  1  0.000084  0.662144  0.662228  1
  Re  Re1  1  0.340878  0.340878  0.000349  1
  Re  Re2  1  0.659471  0.659471  0.000349  1
  Re  Re3  1  0.662144  0.000084  0.662228  1
  As  As4  1  0.750038  0.499372  0.249410  1
  As  As5  1  0.499372  0.750038  0.249410  1
  As  As6  1  0.499482  0.251310  0.750792  1
  As  As7  1  0.749406  0.249406  0.498812  1
  As  As8  1  0.249406  0.749406  0.498812  1
  As  As9  1  0.251310  0.499482  0.750792  1
  As  As10  1  0.999293  0.999293  0.330920  1
  As  As11  1  0.667717  0.999300  0.999232  1
  As  As12  1  0.999300  0.667717  0.999232  1
  As  As13  1  0.331627  0.331627  0.330920  1
  As  As14  1  0.999932  0.331515  0.999232  1
  As  As15  1  0.668031  0.668031  0.667862  1
  As  As16  1  0.331515  0.999932  0.999232  1
  As  As17  1  0.999830  0.999830  0.667862  1
  W  W18  1  0.340923  0.000239  0.341162  1
  W  W19  1  0.000239  0.340923  0.341162  1
