# generated using pymatgen
data_Tb3Y(HoAl)4
_symmetry_space_group_name_H-M   'P 1'
_cell_length_a   5.10727400
_cell_length_b   6.56484133
_cell_length_c   9.44461302
_cell_angle_alpha   89.94848284
_cell_angle_beta   90.00000000
_cell_angle_gamma   90.00000000
_symmetry_Int_Tables_number   1
_chemical_formula_structural   Tb3Y(HoAl)4
_chemical_formula_sum   'Tb3 Y1 Ho4 Al4'
_cell_volume   316.66304509
_cell_formula_units_Z   1
loop_
 _symmetry_equiv_pos_site_id
 _symmetry_equiv_pos_as_xyz
  1  'x, y, z'
loop_
 _atom_site_type_symbol
 _atom_site_label
 _atom_site_symmetry_multiplicity
 _atom_site_fract_x
 _atom_site_fract_y
 _atom_site_fract_z
 _atom_site_occupancy
  Tb  Tb0  1  0.750000  0.688200  0.427030  1
  Tb  Tb1  1  0.250000  0.311842  0.572891  1
  Tb  Tb2  1  0.750000  0.187356  0.072992  1
  Y  Y3  1  0.250000  0.812192  0.927216  1
  Ho  Ho4  1  0.750000  0.528243  0.789908  1
  Ho  Ho5  1  0.250000  0.472368  0.210132  1
  Ho  Ho6  1  0.750000  0.027801  0.710054  1
  Ho  Ho7  1  0.250000  0.972102  0.289892  1
  Al  Al8  1  0.750000  0.207990  0.397352  1
  Al  Al9  1  0.250000  0.791938  0.603101  1
  Al  Al10  1  0.750000  0.708294  0.101873  1
  Al  Al11  1  0.250000  0.291675  0.897558  1
