# generated using pymatgen
data_Tb4FeTc3B16
_symmetry_space_group_name_H-M   'P 1'
_cell_length_a   3.56495800
_cell_length_b   5.96372361
_cell_length_c   11.53831511
_cell_angle_alpha   89.91587974
_cell_angle_beta   90.00000000
_cell_angle_gamma   90.00000000
_symmetry_Int_Tables_number   1
_chemical_formula_structural   Tb4FeTc3B16
_chemical_formula_sum   'Tb4 Fe1 Tc3 B16'
_cell_volume   245.30920918
_cell_formula_units_Z   1
loop_
 _symmetry_equiv_pos_site_id
 _symmetry_equiv_pos_as_xyz
  1  'x, y, z'
loop_
 _atom_site_type_symbol
 _atom_site_label
 _atom_site_symmetry_multiplicity
 _atom_site_fract_x
 _atom_site_fract_y
 _atom_site_fract_z
 _atom_site_occupancy
  Tb  Tb0  1  0.500000  0.375297  0.147874  1
  Tb  Tb1  1  0.500000  0.626355  0.851530  1
  Tb  Tb2  1  0.500000  0.126469  0.651880  1
  Tb  Tb3  1  0.500000  0.873559  0.347228  1
  Fe  Fe4  1  0.500000  0.867599  0.087875  1
  Tc  Tc5  1  0.500000  0.367324  0.412028  1
  Tc  Tc6  1  0.500000  0.631707  0.586482  1
  Tc  Tc7  1  0.500000  0.129857  0.914967  1
  B  B8  1  0.000000  0.111540  0.047893  1
  B  B9  1  0.000000  0.885810  0.954634  1
  B  B10  1  0.000000  0.386440  0.546738  1
  B  B11  1  0.000000  0.613836  0.452352  1
  B  B12  1  0.000000  0.135882  0.468088  1
  B  B13  1  0.000000  0.863977  0.531341  1
  B  B14  1  0.000000  0.363876  0.969476  1
  B  B15  1  0.000000  0.638835  0.032734  1
  B  B16  1  0.000000  0.023065  0.190683  1
  B  B17  1  0.000000  0.974546  0.809276  1
  B  B18  1  0.000000  0.475687  0.692440  1
  B  B19  1  0.000000  0.526226  0.306632  1
  B  B20  1  0.000000  0.214003  0.313752  1
  B  B21  1  0.000000  0.784770  0.685693  1
  B  B22  1  0.000000  0.284707  0.816205  1
  B  B23  1  0.000000  0.718632  0.182198  1
