# generated using pymatgen
data_Sr3YSb3
_symmetry_space_group_name_H-M   'P 1'
_cell_length_a   8.47804923
_cell_length_b   8.47804922
_cell_length_c   8.60520425
_cell_angle_alpha   109.67283978
_cell_angle_beta   109.67283986
_cell_angle_gamma   109.06942837
_symmetry_Int_Tables_number   1
_chemical_formula_structural   Sr3YSb3
_chemical_formula_sum   'Sr6 Y2 Sb6'
_cell_volume   476.11447599
_cell_formula_units_Z   2
loop_
 _symmetry_equiv_pos_site_id
 _symmetry_equiv_pos_as_xyz
  1  'x, y, z'
loop_
 _atom_site_type_symbol
 _atom_site_label
 _atom_site_symmetry_multiplicity
 _atom_site_fract_x
 _atom_site_fract_y
 _atom_site_fract_z
 _atom_site_occupancy
  Sr  Sr0  1  0.500079  0.003842  0.360887  1
  Sr  Sr1  1  0.994531  0.360510  0.494061  1
  Sr  Sr2  1  0.503842  0.000079  0.860887  1
  Sr  Sr3  1  0.641269  0.639352  0.644490  1
  Sr  Sr4  1  0.139352  0.141269  0.144490  1
  Sr  Sr5  1  0.860510  0.494531  0.994061  1
  Y  Y6  1  0.997916  0.860932  0.497339  1
  Y  Y7  1  0.360932  0.497916  0.997339  1
  Sb  Sb8  1  0.744180  0.860546  0.135189  1
  Sb  Sb9  1  0.360546  0.244180  0.635189  1
  Sb  Sb10  1  0.247000  0.629460  0.370103  1
  Sb  Sb11  1  0.896086  0.124296  0.747930  1
  Sb  Sb12  1  0.624296  0.396086  0.247930  1
  Sb  Sb13  1  0.129460  0.747000  0.870103  1
