# generated using pymatgen
data_Ca2Nd8Si5Sn
_symmetry_space_group_name_H-M   'P 1'
_cell_length_a   9.08923979
_cell_length_b   9.08924014
_cell_length_c   9.08923976
_cell_angle_alpha   129.27062068
_cell_angle_beta   129.27063341
_cell_angle_gamma   74.57550920
_symmetry_Int_Tables_number   1
_chemical_formula_structural   Ca2Nd8Si5Sn
_chemical_formula_sum   'Ca2 Nd8 Si5 Sn1'
_cell_volume   438.52463919
_cell_formula_units_Z   1
loop_
 _symmetry_equiv_pos_site_id
 _symmetry_equiv_pos_as_xyz
  1  'x, y, z'
loop_
 _atom_site_type_symbol
 _atom_site_label
 _atom_site_symmetry_multiplicity
 _atom_site_fract_x
 _atom_site_fract_y
 _atom_site_fract_z
 _atom_site_occupancy
  Ca  Ca0  1  0.990467  0.990467  0.000000  1
  Ca  Ca1  1  0.509533  0.509533  0.000000  1
  Nd  Nd2  1  0.827120  0.311441  0.855363  1
  Nd  Nd3  1  0.188559  0.672880  0.144637  1
  Nd  Nd4  1  0.456079  0.971757  0.144637  1
  Nd  Nd5  1  0.311441  0.456079  0.484321  1
  Nd  Nd6  1  0.043921  0.188559  0.515679  1
  Nd  Nd7  1  0.528243  0.043921  0.855363  1
  Nd  Nd8  1  0.672880  0.528243  0.484321  1
  Nd  Nd9  1  0.971757  0.827120  0.515679  1
  Si  Si10  1  0.113811  0.613811  0.727622  1
  Si  Si11  1  0.886189  0.386189  0.272378  1
  Si  Si12  1  0.613811  0.886189  0.500000  1
  Si  Si13  1  0.386189  0.113811  0.500000  1
  Si  Si14  1  0.250000  0.250000  0.000000  1
  Sn  Sn15  1  0.750000  0.750000  0.000000  1
