# generated using pymatgen
data_Rb4Na2DyInSb4
_symmetry_space_group_name_H-M   'P 1'
_cell_length_a   10.03928717
_cell_length_b   10.03928615
_cell_length_c   10.03928641
_cell_angle_alpha   136.51958856
_cell_angle_beta   62.57551981
_cell_angle_gamma   137.30463246
_symmetry_Int_Tables_number   1
_chemical_formula_structural   Rb4Na2DyInSb4
_chemical_formula_sum   'Rb4 Na2 Dy1 In1 Sb4'
_cell_volume   466.35698268
_cell_formula_units_Z   1
loop_
 _symmetry_equiv_pos_site_id
 _symmetry_equiv_pos_as_xyz
  1  'x, y, z'
loop_
 _atom_site_type_symbol
 _atom_site_label
 _atom_site_symmetry_multiplicity
 _atom_site_fract_x
 _atom_site_fract_y
 _atom_site_fract_z
 _atom_site_occupancy
  Rb  Rb0  1  0.831975  0.240475  0.059206  1
  Rb  Rb1  1  0.668024  0.727231  0.408502  1
  Rb  Rb2  1  0.318731  0.259524  0.591499  1
  Rb  Rb3  1  0.181270  0.772770  0.940795  1
  Na  Na4  1  0.250000  0.250000  0.000000  1
  Na  Na5  1  0.750000  0.750000  0.000000  1
  Dy  Dy6  1  0.750001  0.250000  0.500000  1
  In  In7  1  0.250000  0.750001  0.500001  1
  Sb  Sb8  1  0.394620  0.771199  0.175924  1
  Sb  Sb9  1  0.105379  0.281305  0.376579  1
  Sb  Sb10  1  0.904725  0.728801  0.623421  1
  Sb  Sb11  1  0.595275  0.218696  0.824077  1
