# generated using pymatgen
data_Sr2Yb(YSi2)2
_symmetry_space_group_name_H-M   'P 1'
_cell_length_a   7.59007500
_cell_length_b   7.96867300
_cell_length_c   15.47070000
_cell_angle_alpha   90.00000000
_cell_angle_beta   90.00000000
_cell_angle_gamma   90.00000000
_symmetry_Int_Tables_number   1
_chemical_formula_structural   Sr2Yb(YSi2)2
_chemical_formula_sum   'Sr8 Yb4 Y8 Si16'
_cell_volume   935.71165187
_cell_formula_units_Z   4
loop_
 _symmetry_equiv_pos_site_id
 _symmetry_equiv_pos_as_xyz
  1  'x, y, z'
loop_
 _atom_site_type_symbol
 _atom_site_label
 _atom_site_symmetry_multiplicity
 _atom_site_fract_x
 _atom_site_fract_y
 _atom_site_fract_z
 _atom_site_occupancy
  Sr  Sr0  1  0.973471  0.820925  0.403067  1
  Sr  Sr1  1  0.473471  0.679075  0.096933  1
  Sr  Sr2  1  0.526529  0.320925  0.596933  1
  Sr  Sr3  1  0.026529  0.179075  0.903067  1
  Sr  Sr4  1  0.026529  0.179075  0.596933  1
  Sr  Sr5  1  0.526529  0.320925  0.903067  1
  Sr  Sr6  1  0.473471  0.679075  0.403067  1
  Sr  Sr7  1  0.973471  0.820925  0.096933  1
  Yb  Yb8  1  0.355264  0.014650  0.750000  1
  Yb  Yb9  1  0.855264  0.485350  0.750000  1
  Yb  Yb10  1  0.144736  0.514650  0.250000  1
  Yb  Yb11  1  0.644736  0.985350  0.250000  1
  Y  Y12  1  0.315540  0.178712  0.121856  1
  Y  Y13  1  0.815540  0.321288  0.378144  1
  Y  Y14  1  0.184460  0.678712  0.878144  1
  Y  Y15  1  0.684460  0.821288  0.621856  1
  Y  Y16  1  0.315540  0.178712  0.378144  1
  Y  Y17  1  0.815540  0.321288  0.121856  1
  Y  Y18  1  0.184460  0.678712  0.621856  1
  Y  Y19  1  0.684460  0.821288  0.878144  1
  Si  Si20  1  0.863337  0.537094  0.538361  1
  Si  Si21  1  0.363337  0.962906  0.961639  1
  Si  Si22  1  0.636663  0.037094  0.461639  1
  Si  Si23  1  0.136663  0.462906  0.038361  1
  Si  Si24  1  0.136663  0.462906  0.461639  1
  Si  Si25  1  0.636663  0.037094  0.038361  1
  Si  Si26  1  0.363337  0.962906  0.538361  1
  Si  Si27  1  0.863337  0.537094  0.961639  1
  Si  Si28  1  0.975529  0.877488  0.750000  1
  Si  Si29  1  0.475529  0.622512  0.750000  1
  Si  Si30  1  0.524471  0.377488  0.250000  1
  Si  Si31  1  0.024471  0.122512  0.250000  1
  Si  Si32  1  0.247422  0.405196  0.750000  1
  Si  Si33  1  0.747422  0.094804  0.750000  1
  Si  Si34  1  0.252578  0.905196  0.250000  1
  Si  Si35  1  0.752578  0.594804  0.250000  1
