# generated using pymatgen
data_Y2Ho13Er(Ga3Co)2
_symmetry_space_group_name_H-M   'P 1'
_cell_length_a   9.97511700
_cell_length_b   9.97446884
_cell_length_c   6.88986500
_cell_angle_alpha   90.00110598
_cell_angle_beta   90.00000000
_cell_angle_gamma   120.00215292
_symmetry_Int_Tables_number   1
_chemical_formula_structural   Y2Ho13Er(Ga3Co)2
_chemical_formula_sum   'Y2 Ho13 Er1 Ga6 Co2'
_cell_volume   593.66261150
_cell_formula_units_Z   1
loop_
 _symmetry_equiv_pos_site_id
 _symmetry_equiv_pos_as_xyz
  1  'x, y, z'
loop_
 _atom_site_type_symbol
 _atom_site_label
 _atom_site_symmetry_multiplicity
 _atom_site_fract_x
 _atom_site_fract_y
 _atom_site_fract_z
 _atom_site_occupancy
  Y  Y0  1  0.999986  0.999972  0.270147  1
  Y  Y1  1  0.000001  0.000003  0.770147  1
  Ho  Ho2  1  0.173424  0.826726  0.991104  1
  Ho  Ho3  1  0.826588  0.173324  0.491234  1
  Ho  Ho4  1  0.173336  0.346672  0.991154  1
  Ho  Ho5  1  0.653303  0.826726  0.991104  1
  Ho  Ho6  1  0.346736  0.173324  0.491234  1
  Ho  Ho7  1  0.826679  0.653357  0.491165  1
  Ho  Ho8  1  0.333368  0.666738  0.671898  1
  Ho  Ho9  1  0.666620  0.333239  0.171791  1
  Ho  Ho10  1  0.464048  0.535955  0.292932  1
  Ho  Ho11  1  0.535955  0.463995  0.792926  1
  Ho  Ho12  1  0.464076  0.928152  0.292950  1
  Ho  Ho13  1  0.071907  0.535955  0.292932  1
  Ho  Ho14  1  0.928040  0.463995  0.792926  1
  Er  Er15  1  0.536017  0.072033  0.792995  1
  Ga  Ga16  1  0.163637  0.836380  0.540260  1
  Ga  Ga17  1  0.836294  0.163602  0.040168  1
  Ga  Ga18  1  0.163626  0.327254  0.540218  1
  Ga  Ga19  1  0.672742  0.836380  0.540260  1
  Ga  Ga20  1  0.327309  0.163602  0.040168  1
  Ga  Ga21  1  0.836380  0.672759  0.040244  1
  Co  Co22  1  0.333335  0.666671  0.058034  1
  Co  Co23  1  0.666593  0.333185  0.558127  1
