# generated using pymatgen
data_Hf5ZrTi4(Sn3N)2
_symmetry_space_group_name_H-M   'P 1'
_cell_length_a   8.25429271
_cell_length_b   8.27251189
_cell_length_c   5.57156100
_cell_angle_alpha   90.00000000
_cell_angle_beta   90.00000000
_cell_angle_gamma   120.07303607
_symmetry_Int_Tables_number   1
_chemical_formula_structural   Hf5ZrTi4(Sn3N)2
_chemical_formula_sum   'Hf5 Zr1 Ti4 Sn6 N2'
_cell_volume   329.23401110
_cell_formula_units_Z   1
loop_
 _symmetry_equiv_pos_site_id
 _symmetry_equiv_pos_as_xyz
  1  'x, y, z'
loop_
 _atom_site_type_symbol
 _atom_site_label
 _atom_site_symmetry_multiplicity
 _atom_site_fract_x
 _atom_site_fract_y
 _atom_site_fract_z
 _atom_site_occupancy
  Hf  Hf0  1  0.777849  0.778709  0.750000  1
  Hf  Hf1  1  0.222151  0.000860  0.750000  1
  Hf  Hf2  1  0.000000  0.223884  0.750000  1
  Hf  Hf3  1  0.222032  0.221153  0.250000  1
  Hf  Hf4  1  0.777968  0.999122  0.250000  1
  Zr  Zr5  1  0.000000  0.772589  0.250000  1
  Ti  Ti6  1  0.666400  0.333065  0.999978  1
  Ti  Ti7  1  0.333600  0.666666  0.999978  1
  Ti  Ti8  1  0.333600  0.666666  0.500022  1
  Ti  Ti9  1  0.666400  0.333065  0.500022  1
  Sn  Sn10  1  0.410582  0.410489  0.750000  1
  Sn  Sn11  1  0.589418  0.999907  0.750000  1
  Sn  Sn12  1  0.000000  0.590095  0.750000  1
  Sn  Sn13  1  0.588896  0.589289  0.250000  1
  Sn  Sn14  1  0.411104  0.000394  0.250000  1
  Sn  Sn15  1  0.000000  0.407971  0.250000  1
  N  N16  1  0.000000  0.003038  0.997909  1
  N  N17  1  0.000000  0.003038  0.502091  1
