# generated using pymatgen
data_Dy3Tm7(In2Sb)2
_symmetry_space_group_name_H-M   'P 1'
_cell_length_a   8.91456500
_cell_length_b   8.92262244
_cell_length_c   6.49400400
_cell_angle_alpha   90.00000000
_cell_angle_beta   90.00000000
_cell_angle_gamma   119.97013603
_symmetry_Int_Tables_number   1
_chemical_formula_structural   Dy3Tm7(In2Sb)2
_chemical_formula_sum   'Dy3 Tm7 In4 Sb2'
_cell_volume   447.47262236
_cell_formula_units_Z   1
loop_
 _symmetry_equiv_pos_site_id
 _symmetry_equiv_pos_as_xyz
  1  'x, y, z'
loop_
 _atom_site_type_symbol
 _atom_site_label
 _atom_site_symmetry_multiplicity
 _atom_site_fract_x
 _atom_site_fract_y
 _atom_site_fract_z
 _atom_site_occupancy
  Dy  Dy0  1  0.759916  0.000000  0.750000  1
  Dy  Dy1  1  0.239824  0.236044  0.750000  1
  Dy  Dy2  1  0.003780  0.763956  0.750000  1
  Tm  Tm3  1  0.331413  0.665103  0.003695  1
  Tm  Tm4  1  0.666311  0.334897  0.496305  1
  Tm  Tm5  1  0.666311  0.334897  0.003695  1
  Tm  Tm6  1  0.331413  0.665103  0.496305  1
  Tm  Tm7  1  0.237023  0.000000  0.250000  1
  Tm  Tm8  1  0.999708  0.238707  0.250000  1
  Tm  Tm9  1  0.761001  0.761293  0.250000  1
  In  In10  1  0.603092  0.000000  0.250000  1
  In  In11  1  0.401476  0.000000  0.750000  1
  In  In12  1  0.999310  0.605552  0.250000  1
  In  In13  1  0.393758  0.394448  0.250000  1
  Sb  Sb14  1  0.605543  0.605422  0.750000  1
  Sb  Sb15  1  0.000121  0.394578  0.750000  1
