# generated using pymatgen
data_CeEu3(CuSe3)2
_symmetry_space_group_name_H-M   'P 1'
_cell_length_a   4.11855100
_cell_length_b   11.12089200
_cell_length_c   13.23681800
_cell_angle_alpha   90.00000000
_cell_angle_beta   90.00000000
_cell_angle_gamma   90.00000000
_symmetry_Int_Tables_number   1
_chemical_formula_structural   CeEu3(CuSe3)2
_chemical_formula_sum   'Ce2 Eu6 Cu4 Se12'
_cell_volume   606.27222005
_cell_formula_units_Z   2
loop_
 _symmetry_equiv_pos_site_id
 _symmetry_equiv_pos_as_xyz
  1  'x, y, z'
loop_
 _atom_site_type_symbol
 _atom_site_label
 _atom_site_symmetry_multiplicity
 _atom_site_fract_x
 _atom_site_fract_y
 _atom_site_fract_z
 _atom_site_occupancy
  Ce  Ce0  1  0.250000  0.286225  0.498658  1
  Ce  Ce1  1  0.250000  0.786225  0.001342  1
  Eu  Eu2  1  0.750000  0.713775  0.501342  1
  Eu  Eu3  1  0.750000  0.213775  0.998658  1
  Eu  Eu4  1  0.250000  0.517867  0.235548  1
  Eu  Eu5  1  0.250000  0.017867  0.264452  1
  Eu  Eu6  1  0.750000  0.482133  0.764452  1
  Eu  Eu7  1  0.750000  0.982133  0.735548  1
  Cu  Cu8  1  0.250000  0.733337  0.724008  1
  Cu  Cu9  1  0.250000  0.233337  0.775992  1
  Cu  Cu10  1  0.750000  0.266663  0.275992  1
  Cu  Cu11  1  0.750000  0.766663  0.224008  1
  Se  Se12  1  0.250000  0.553613  0.611423  1
  Se  Se13  1  0.250000  0.053613  0.888577  1
  Se  Se14  1  0.750000  0.446387  0.388577  1
  Se  Se15  1  0.750000  0.946387  0.111423  1
  Se  Se16  1  0.250000  0.891213  0.595628  1
  Se  Se17  1  0.250000  0.391213  0.904372  1
  Se  Se18  1  0.750000  0.108787  0.404372  1
  Se  Se19  1  0.750000  0.608787  0.095628  1
  Se  Se20  1  0.250000  0.760473  0.332045  1
  Se  Se21  1  0.250000  0.260473  0.167955  1
  Se  Se22  1  0.750000  0.239527  0.667955  1
  Se  Se23  1  0.750000  0.739527  0.832045  1
