# generated using pymatgen
data_Ho9Er3GaNi4Pd
_symmetry_space_group_name_H-M   'P 1'
_cell_length_a   8.23641088
_cell_length_b   8.23994484
_cell_length_c   8.24133612
_cell_angle_alpha   111.60255245
_cell_angle_beta   109.99680520
_cell_angle_gamma   106.87920943
_symmetry_Int_Tables_number   1
_chemical_formula_structural   Ho9Er3GaNi4Pd
_chemical_formula_sum   'Ho9 Er3 Ga1 Ni4 Pd1'
_cell_volume   429.65564334
_cell_formula_units_Z   1
loop_
 _symmetry_equiv_pos_site_id
 _symmetry_equiv_pos_as_xyz
  1  'x, y, z'
loop_
 _atom_site_type_symbol
 _atom_site_label
 _atom_site_symmetry_multiplicity
 _atom_site_fract_x
 _atom_site_fract_y
 _atom_site_fract_z
 _atom_site_occupancy
  Ho  Ho0  1  0.964801  0.773511  0.191097  1
  Ho  Ho1  1  0.181688  0.290826  0.472254  1
  Ho  Ho2  1  0.818345  0.709413  0.528269  1
  Ho  Ho3  1  0.181758  0.709340  0.890877  1
  Ho  Ho4  1  0.818285  0.290164  0.108920  1
  Ho  Ho5  1  0.324886  0.629572  0.305439  1
  Ho  Ho6  1  0.675169  0.370059  0.694340  1
  Ho  Ho7  1  0.324772  0.019327  0.695276  1
  Ho  Ho8  1  0.675287  0.980938  0.305148  1
  Er  Er9  1  0.417598  0.226113  0.191319  1
  Er  Er10  1  0.582128  0.773751  0.808536  1
  Er  Er11  1  0.034873  0.226305  0.808775  1
  Ga  Ga12  1  0.499650  0.499837  0.999809  1
  Ni  Ni13  1  0.356025  0.000578  0.355827  1
  Ni  Ni14  1  0.644510  0.999727  0.644444  1
  Ni  Ni15  1  0.125476  0.625117  0.500319  1
  Ni  Ni16  1  0.874798  0.374927  0.499907  1
  Pd  Pd17  1  0.999951  0.000498  0.999445  1
