# generated using pymatgen
data_La3Dy5Np4O24
_symmetry_space_group_name_H-M   'P 1'
_cell_length_a   5.64660500
_cell_length_b   7.96426283
_cell_length_c   11.93290000
_cell_angle_alpha   74.29949239
_cell_angle_beta   90.00000000
_cell_angle_gamma   90.00000000
_symmetry_Int_Tables_number   1
_chemical_formula_structural   La3Dy5Np4O24
_chemical_formula_sum   'La3 Dy5 Np4 O24'
_cell_volume   516.61279751
_cell_formula_units_Z   1
loop_
 _symmetry_equiv_pos_site_id
 _symmetry_equiv_pos_as_xyz
  1  'x, y, z'
loop_
 _atom_site_type_symbol
 _atom_site_label
 _atom_site_symmetry_multiplicity
 _atom_site_fract_x
 _atom_site_fract_y
 _atom_site_fract_z
 _atom_site_occupancy
  La  La0  1  0.746989  0.000000  0.750000  1
  La  La1  1  0.693273  0.500000  0.750000  1
  La  La2  1  0.304425  0.500000  0.250000  1
  Dy  Dy3  1  0.253724  0.000000  0.250000  1
  Dy  Dy4  1  0.187674  0.794852  0.577625  1
  Dy  Dy5  1  0.815414  0.793539  0.080780  1
  Dy  Dy6  1  0.187674  0.205148  0.922375  1
  Dy  Dy7  1  0.815414  0.206461  0.419220  1
  Np  Np8  1  0.254140  0.721062  0.888513  1
  Np  Np9  1  0.744562  0.729206  0.384646  1
  Np  Np10  1  0.254140  0.278938  0.611487  1
  Np  Np11  1  0.744562  0.270794  0.115354  1
  O  O12  1  0.055052  0.942179  0.901980  1
  O  O13  1  0.550926  0.838313  0.937467  1
  O  O14  1  0.953953  0.947411  0.395640  1
  O  O15  1  0.440489  0.795108  0.728357  1
  O  O16  1  0.443966  0.848336  0.431049  1
  O  O17  1  0.974811  0.716699  0.768043  1
  O  O18  1  0.551887  0.804170  0.226033  1
  O  O19  1  0.875927  0.637826  0.549523  1
  O  O20  1  0.373326  0.481425  0.888512  1
  O  O21  1  0.028880  0.723977  0.265705  1
  O  O22  1  0.373326  0.518575  0.611488  1
  O  O23  1  0.875927  0.362174  0.950477  1
  O  O24  1  0.119743  0.629345  0.052245  1
  O  O25  1  0.630043  0.488480  0.384055  1
  O  O26  1  0.974811  0.283301  0.731957  1
  O  O27  1  0.630043  0.511520  0.115945  1
  O  O28  1  0.119743  0.370655  0.447755  1
  O  O29  1  0.440489  0.204892  0.771643  1
  O  O30  1  0.028880  0.276023  0.234295  1
  O  O31  1  0.550926  0.161687  0.562533  1
  O  O32  1  0.551887  0.195830  0.273967  1
  O  O33  1  0.055052  0.057821  0.598020  1
  O  O34  1  0.443966  0.151664  0.068951  1
  O  O35  1  0.953953  0.052589  0.104360  1
