# generated using pymatgen
data_Hf6Sn6RuRh4Au
_symmetry_space_group_name_H-M   'P 1'
_cell_length_a   7.42177900
_cell_length_b   7.42177862
_cell_length_c   7.27575800
_cell_angle_alpha   90.00000000
_cell_angle_beta   90.00000000
_cell_angle_gamma   119.99999726
_symmetry_Int_Tables_number   1
_chemical_formula_structural   Hf6Sn6RuRh4Au
_chemical_formula_sum   'Hf6 Sn6 Ru1 Rh4 Au1'
_cell_volume   347.07625519
_cell_formula_units_Z   1
loop_
 _symmetry_equiv_pos_site_id
 _symmetry_equiv_pos_as_xyz
  1  'x, y, z'
loop_
 _atom_site_type_symbol
 _atom_site_label
 _atom_site_symmetry_multiplicity
 _atom_site_fract_x
 _atom_site_fract_y
 _atom_site_fract_z
 _atom_site_occupancy
  Hf  Hf0  1  0.009097  0.399860  0.755865  1
  Hf  Hf1  1  0.600140  0.609237  0.755865  1
  Hf  Hf2  1  0.390763  0.990903  0.755865  1
  Hf  Hf3  1  0.959783  0.377588  0.250583  1
  Hf  Hf4  1  0.622412  0.582194  0.250583  1
  Hf  Hf5  1  0.417806  0.040217  0.250583  1
  Sn  Sn6  1  0.266834  0.265198  0.505951  1
  Sn  Sn7  1  0.998363  0.733166  0.505951  1
  Sn  Sn8  1  0.006067  0.731493  0.003185  1
  Sn  Sn9  1  0.734802  0.001637  0.505951  1
  Sn  Sn10  1  0.725426  0.993933  0.003185  1
  Sn  Sn11  1  0.268507  0.274574  0.003185  1
  Ru  Ru12  1  0.666667  0.333333  0.523330  1
  Rh  Rh13  1  0.333333  0.666667  0.027784  1
  Rh  Rh14  1  0.000000  0.000000  0.758156  1
  Rh  Rh15  1  0.000000  0.000000  0.251910  1
  Rh  Rh16  1  0.666667  0.333333  0.950582  1
  Au  Au17  1  0.333333  0.666667  0.441482  1
