# generated using pymatgen
data_Y8Tm12Si15Ge
_symmetry_space_group_name_H-M   'P 1'
_cell_length_a   7.33788756
_cell_length_b   7.62241177
_cell_length_c   14.50603175
_cell_angle_alpha   90.04436284
_cell_angle_beta   89.52737937
_cell_angle_gamma   90.06383351
_symmetry_Int_Tables_number   1
_chemical_formula_structural   Y8Tm12Si15Ge
_chemical_formula_sum   'Y8 Tm12 Si15 Ge1'
_cell_volume   811.32883366
_cell_formula_units_Z   1
loop_
 _symmetry_equiv_pos_site_id
 _symmetry_equiv_pos_as_xyz
  1  'x, y, z'
loop_
 _atom_site_type_symbol
 _atom_site_label
 _atom_site_symmetry_multiplicity
 _atom_site_fract_x
 _atom_site_fract_y
 _atom_site_fract_z
 _atom_site_occupancy
  Y  Y0  1  0.512650  0.321589  0.096714  1
  Y  Y1  1  0.009735  0.178123  0.402856  1
  Y  Y2  1  0.491961  0.680170  0.597142  1
  Y  Y3  1  0.987083  0.821540  0.903381  1
  Y  Y4  1  0.487678  0.678479  0.903399  1
  Y  Y5  1  0.988499  0.821990  0.596914  1
  Y  Y6  1  0.511268  0.320129  0.402454  1
  Y  Y7  1  0.012916  0.178667  0.096613  1
  Tm  Tm8  1  0.668111  0.990889  0.749863  1
  Tm  Tm9  1  0.168104  0.508978  0.750746  1
  Tm  Tm10  1  0.332186  0.009156  0.250278  1
  Tm  Tm11  1  0.831703  0.491009  0.250407  1
  Tm  Tm12  1  0.836550  0.323022  0.622799  1
  Tm  Tm13  1  0.334831  0.178681  0.876942  1
  Tm  Tm14  1  0.164873  0.679163  0.123063  1
  Tm  Tm15  1  0.662093  0.822913  0.376364  1
  Tm  Tm16  1  0.161256  0.678133  0.376950  1
  Tm  Tm17  1  0.664894  0.820873  0.122993  1
  Tm  Tm18  1  0.834776  0.321022  0.876948  1
  Tm  Tm19  1  0.338695  0.175195  0.624017  1
  Si  Si20  1  0.786159  0.627474  0.750376  1
  Si  Si21  1  0.285563  0.872048  0.750692  1
  Si  Si22  1  0.213981  0.372845  0.249660  1
  Si  Si23  1  0.714615  0.127383  0.249213  1
  Si  Si24  1  0.541469  0.391982  0.750420  1
  Si  Si25  1  0.041387  0.108552  0.750210  1
  Si  Si26  1  0.457848  0.608584  0.249578  1
  Si  Si27  1  0.958645  0.892013  0.249534  1
  Si  Si28  1  0.667339  0.033728  0.539016  1
  Si  Si29  1  0.161919  0.467261  0.961208  1
  Si  Si30  1  0.338154  0.967418  0.038940  1
  Si  Si31  1  0.827122  0.534435  0.459958  1
  Si  Si32  1  0.332957  0.966598  0.460819  1
  Si  Si33  1  0.837925  0.532639  0.038868  1
  Si  Si34  1  0.661664  0.032692  0.961125  1
  Ge  Ge35  1  0.173389  0.464626  0.539540  1
