# generated using pymatgen
data_NdLuPa2(Al3Co)6
_symmetry_space_group_name_H-M   'P 1'
_cell_length_a   7.45359715
_cell_length_b   7.44365048
_cell_length_c   9.26332800
_cell_angle_alpha   90.00000000
_cell_angle_beta   90.00000000
_cell_angle_gamma   119.17726153
_symmetry_Int_Tables_number   1
_chemical_formula_structural   NdLuPa2(Al3Co)6
_chemical_formula_sum   'Nd1 Lu1 Pa2 Al18 Co6'
_cell_volume   448.73576967
_cell_formula_units_Z   1
loop_
 _symmetry_equiv_pos_site_id
 _symmetry_equiv_pos_as_xyz
  1  'x, y, z'
loop_
 _atom_site_type_symbol
 _atom_site_label
 _atom_site_symmetry_multiplicity
 _atom_site_fract_x
 _atom_site_fract_y
 _atom_site_fract_z
 _atom_site_occupancy
  Nd  Nd0  1  0.672305  0.993949  0.250000  1
  Lu  Lu1  1  0.993794  0.672611  0.250000  1
  Pa  Pa2  1  0.006585  0.323666  0.750000  1
  Pa  Pa3  1  0.323743  0.006297  0.750000  1
  Al  Al4  1  0.662090  0.998064  0.926705  1
  Al  Al5  1  0.998863  0.662808  0.570442  1
  Al  Al6  1  0.125935  0.123392  0.250000  1
  Al  Al7  1  0.670537  0.667810  0.045727  1
  Al  Al8  1  0.337112  0.336888  0.541531  1
  Al  Al9  1  0.337112  0.336888  0.958469  1
  Al  Al10  1  0.670537  0.667810  0.454273  1
  Al  Al11  1  0.332080  0.996541  0.073446  1
  Al  Al12  1  0.999928  0.338811  0.426378  1
  Al  Al13  1  0.337241  0.554892  0.250000  1
  Al  Al14  1  0.999928  0.338811  0.073622  1
  Al  Al15  1  0.558293  0.345046  0.250000  1
  Al  Al16  1  0.659452  0.447150  0.750000  1
  Al  Al17  1  0.867623  0.866195  0.750000  1
  Al  Al18  1  0.998863  0.662808  0.929558  1
  Al  Al19  1  0.662090  0.998064  0.573295  1
  Al  Al20  1  0.332080  0.996541  0.426554  1
  Al  Al21  1  0.447019  0.658036  0.750000  1
  Co  Co22  1  0.671178  0.326945  0.505453  1
  Co  Co23  1  0.671178  0.326945  0.994547  1
  Co  Co24  1  0.325144  0.670321  0.505568  1
  Co  Co25  1  0.007076  0.006196  0.990021  1
  Co  Co26  1  0.007076  0.006196  0.509979  1
  Co  Co27  1  0.325144  0.670321  0.994432  1
