# generated using pymatgen
data_PrErTmRh9
_symmetry_space_group_name_H-M   'P 1'
_cell_length_a   5.26939100
_cell_length_b   5.27193102
_cell_length_c   17.53958900
_cell_angle_alpha   89.99986958
_cell_angle_beta   89.99991301
_cell_angle_gamma   119.99706963
_symmetry_Int_Tables_number   1
_chemical_formula_structural   PrErTmRh9
_chemical_formula_sum   'Pr2 Er2 Tm2 Rh18'
_cell_volume   421.98111167
_cell_formula_units_Z   2
loop_
 _symmetry_equiv_pos_site_id
 _symmetry_equiv_pos_as_xyz
  1  'x, y, z'
loop_
 _atom_site_type_symbol
 _atom_site_label
 _atom_site_symmetry_multiplicity
 _atom_site_fract_x
 _atom_site_fract_y
 _atom_site_fract_z
 _atom_site_occupancy
  Pr  Pr0  1  0.333351  0.666675  0.749964  1
  Pr  Pr1  1  0.666649  0.333325  0.250036  1
  Er  Er2  1  0.666651  0.333310  0.458629  1
  Er  Er3  1  0.333349  0.666690  0.541371  1
  Tm  Tm4  1  0.333363  0.666699  0.958678  1
  Tm  Tm5  1  0.666637  0.333301  0.041322  1
  Rh  Rh6  1  0.167402  0.832564  0.375430  1
  Rh  Rh7  1  0.167392  0.334805  0.375425  1
  Rh  Rh8  1  0.665134  0.832558  0.375438  1
  Rh  Rh9  1  0.832598  0.167436  0.624570  1
  Rh  Rh10  1  0.832608  0.665195  0.624575  1
  Rh  Rh11  1  0.334866  0.167442  0.624562  1
  Rh  Rh12  1  0.832582  0.167461  0.875584  1
  Rh  Rh13  1  0.832583  0.665150  0.875580  1
  Rh  Rh14  1  0.334898  0.167462  0.875584  1
  Rh  Rh15  1  0.167418  0.832539  0.124416  1
  Rh  Rh16  1  0.167417  0.334850  0.124420  1
  Rh  Rh17  1  0.665102  0.832538  0.124416  1
  Rh  Rh18  1  0.333293  0.666623  0.250018  1
  Rh  Rh19  1  0.666707  0.333377  0.749982  1
  Rh  Rh20  1  0.000014  0.000022  0.249945  1
  Rh  Rh21  1  0.999986  0.999978  0.750055  1
  Rh  Rh22  1  0.000000  0.000000  0.500000  1
  Rh  Rh23  1  0.000000  0.000000  0.000000  1
