# generated using pymatgen
data_La7Nd3(Ga3Co2)2
_symmetry_space_group_name_H-M   'P 1'
_cell_length_a   7.77622874
_cell_length_b   7.71222327
_cell_length_c   10.62075042
_cell_angle_alpha   90.00934033
_cell_angle_beta   90.05355268
_cell_angle_gamma   129.17318879
_symmetry_Int_Tables_number   1
_chemical_formula_structural   La7Nd3(Ga3Co2)2
_chemical_formula_sum   'La7 Nd3 Ga6 Co4'
_cell_volume   493.78704416
_cell_formula_units_Z   1
loop_
 _symmetry_equiv_pos_site_id
 _symmetry_equiv_pos_as_xyz
  1  'x, y, z'
loop_
 _atom_site_type_symbol
 _atom_site_label
 _atom_site_symmetry_multiplicity
 _atom_site_fract_x
 _atom_site_fract_y
 _atom_site_fract_z
 _atom_site_occupancy
  La  La0  1  0.122325  0.879874  0.502070  1
  La  La1  1  0.122811  0.881091  0.997761  1
  La  La2  1  0.876576  0.120140  0.497667  1
  La  La3  1  0.404204  0.403379  0.750722  1
  La  La4  1  0.933748  0.516411  0.750062  1
  La  La5  1  0.065910  0.484709  0.251368  1
  La  La6  1  0.594493  0.598255  0.249441  1
  Nd  Nd7  1  0.873829  0.121150  0.002665  1
  Nd  Nd8  1  0.486179  0.070097  0.249254  1
  Nd  Nd9  1  0.514338  0.932106  0.749799  1
  Ga  Ga10  1  0.893821  0.902534  0.751868  1
  Ga  Ga11  1  0.349640  0.649168  0.998091  1
  Ga  Ga12  1  0.348150  0.651560  0.502109  1
  Ga  Ga13  1  0.104484  0.099824  0.248210  1
  Ga  Ga14  1  0.654406  0.345382  0.001371  1
  Ga  Ga15  1  0.650461  0.349110  0.497957  1
  Co  Co16  1  0.664629  0.668100  0.566695  1
  Co  Co17  1  0.666191  0.661507  0.934218  1
  Co  Co18  1  0.339970  0.331596  0.065395  1
  Co  Co19  1  0.333836  0.334010  0.433279  1
