# generated using pymatgen
data_Eu2CoRhN2
_symmetry_space_group_name_H-M   'P 1'
_cell_length_a   5.21417100
_cell_length_b   5.21417100
_cell_length_c   7.30783000
_cell_angle_alpha   90.00000000
_cell_angle_beta   90.00000000
_cell_angle_gamma   90.00000000
_symmetry_Int_Tables_number   1
_chemical_formula_structural   Eu2CoRhN2
_chemical_formula_sum   'Eu4 Co2 Rh2 N4'
_cell_volume   198.68220703
_cell_formula_units_Z   2
loop_
 _symmetry_equiv_pos_site_id
 _symmetry_equiv_pos_as_xyz
  1  'x, y, z'
loop_
 _atom_site_type_symbol
 _atom_site_label
 _atom_site_symmetry_multiplicity
 _atom_site_fract_x
 _atom_site_fract_y
 _atom_site_fract_z
 _atom_site_occupancy
  Eu  Eu0  1  0.000000  0.500000  0.750000  1
  Eu  Eu1  1  0.000000  0.500000  0.250000  1
  Eu  Eu2  1  0.500000  0.000000  0.250000  1
  Eu  Eu3  1  0.500000  0.000000  0.750000  1
  Co  Co4  1  0.500000  0.500000  0.500000  1
  Co  Co5  1  0.000000  0.000000  0.000000  1
  Rh  Rh6  1  0.000000  0.000000  0.500000  1
  Rh  Rh7  1  0.500000  0.500000  0.000000  1
  N  N8  1  0.736953  0.736953  0.500000  1
  N  N9  1  0.763047  0.236953  0.000000  1
  N  N10  1  0.263047  0.263047  0.500000  1
  N  N11  1  0.236953  0.763047  0.000000  1
