# generated using pymatgen
data_Lu5Bi3Pt
_symmetry_space_group_name_H-M   'P 1'
_cell_length_a   7.92274300
_cell_length_b   7.90398500
_cell_length_c   15.27646000
_cell_angle_alpha   90.00000000
_cell_angle_beta   90.00000000
_cell_angle_gamma   90.00000000
_symmetry_Int_Tables_number   1
_chemical_formula_structural   Lu5Bi3Pt
_chemical_formula_sum   'Lu20 Bi12 Pt4'
_cell_volume   956.63089598
_cell_formula_units_Z   4
loop_
 _symmetry_equiv_pos_site_id
 _symmetry_equiv_pos_as_xyz
  1  'x, y, z'
loop_
 _atom_site_type_symbol
 _atom_site_label
 _atom_site_symmetry_multiplicity
 _atom_site_fract_x
 _atom_site_fract_y
 _atom_site_fract_z
 _atom_site_occupancy
  Lu  Lu0  1  0.612186  0.131084  0.624074  1
  Lu  Lu1  1  0.112186  0.368916  0.875926  1
  Lu  Lu2  1  0.387814  0.868916  0.124074  1
  Lu  Lu3  1  0.887814  0.631084  0.375926  1
  Lu  Lu4  1  0.387814  0.868916  0.375926  1
  Lu  Lu5  1  0.887814  0.631084  0.124074  1
  Lu  Lu6  1  0.612186  0.131084  0.875926  1
  Lu  Lu7  1  0.112186  0.368916  0.624074  1
  Lu  Lu8  1  0.463408  0.696315  0.615130  1
  Lu  Lu9  1  0.963408  0.803685  0.884870  1
  Lu  Lu10  1  0.536592  0.303685  0.115130  1
  Lu  Lu11  1  0.036592  0.196315  0.384870  1
  Lu  Lu12  1  0.536592  0.303685  0.384870  1
  Lu  Lu13  1  0.036592  0.196315  0.115130  1
  Lu  Lu14  1  0.463408  0.696315  0.884870  1
  Lu  Lu15  1  0.963408  0.803685  0.615130  1
  Lu  Lu16  1  0.785997  0.531042  0.750000  1
  Lu  Lu17  1  0.285997  0.968958  0.750000  1
  Lu  Lu18  1  0.214003  0.468958  0.250000  1
  Lu  Lu19  1  0.714003  0.031042  0.250000  1
  Bi  Bi20  1  0.738271  0.954460  0.458180  1
  Bi  Bi21  1  0.238271  0.545540  0.041820  1
  Bi  Bi22  1  0.261729  0.045540  0.958180  1
  Bi  Bi23  1  0.761729  0.454460  0.541820  1
  Bi  Bi24  1  0.261729  0.045540  0.541820  1
  Bi  Bi25  1  0.761729  0.454460  0.958180  1
  Bi  Bi26  1  0.738271  0.954460  0.041820  1
  Bi  Bi27  1  0.238271  0.545540  0.458180  1
  Bi  Bi28  1  0.417297  0.378135  0.750000  1
  Bi  Bi29  1  0.917297  0.121865  0.750000  1
  Bi  Bi30  1  0.582703  0.621865  0.250000  1
  Bi  Bi31  1  0.082703  0.878135  0.250000  1
  Pt  Pt32  1  0.634081  0.861336  0.750000  1
  Pt  Pt33  1  0.134081  0.638664  0.750000  1
  Pt  Pt34  1  0.365919  0.138664  0.250000  1
  Pt  Pt35  1  0.865919  0.361336  0.250000  1
