# generated using pymatgen
data_Ba3CePb2O9
_symmetry_space_group_name_H-M   'P 1'
_cell_length_a   6.20197556
_cell_length_b   6.19557617
_cell_length_c   13.86006908
_cell_angle_alpha   102.64000627
_cell_angle_beta   102.58899811
_cell_angle_gamma   89.70620931
_symmetry_Int_Tables_number   1
_chemical_formula_structural   Ba3CePb2O9
_chemical_formula_sum   'Ba6 Ce2 Pb4 O18'
_cell_volume   506.66296112
_cell_formula_units_Z   2
loop_
 _symmetry_equiv_pos_site_id
 _symmetry_equiv_pos_as_xyz
  1  'x, y, z'
loop_
 _atom_site_type_symbol
 _atom_site_label
 _atom_site_symmetry_multiplicity
 _atom_site_fract_x
 _atom_site_fract_y
 _atom_site_fract_z
 _atom_site_occupancy
  Ba  Ba0  1  0.921772  0.420008  0.839057  1
  Ba  Ba1  1  0.254292  0.751998  0.501566  1
  Ba  Ba2  1  0.587570  0.087822  0.164677  1
  Ba  Ba3  1  0.745708  0.248002  0.498434  1
  Ba  Ba4  1  0.078228  0.579992  0.160943  1
  Ba  Ba5  1  0.412430  0.912178  0.835323  1
  Ce  Ce6  1  0.833244  0.834078  0.667113  1
  Ce  Ce7  1  0.166756  0.165922  0.332887  1
  Pb  Pb8  1  0.500000  0.500000  0.000000  1
  Pb  Pb9  1  0.334735  0.333324  0.668268  1
  Pb  Pb10  1  0.665265  0.666676  0.331732  1
  Pb  Pb11  1  0.000000  0.000000  0.000000  1
  O  O12  1  0.625687  0.128657  0.688489  1
  O  O13  1  0.955967  0.460034  0.353270  1
  O  O14  1  0.296297  0.794934  0.022898  1
  O  O15  1  0.044033  0.539966  0.646730  1
  O  O16  1  0.374313  0.871343  0.311511  1
  O  O17  1  0.703703  0.205066  0.977102  1
  O  O18  1  0.120685  0.049776  0.667459  1
  O  O19  1  0.452663  0.383593  0.333262  1
  O  O20  1  0.787794  0.711655  0.999790  1
  O  O21  1  0.714199  0.783372  0.498951  1
  O  O22  1  0.050346  0.112885  0.164265  1
  O  O23  1  0.374036  0.460680  0.835043  1
  O  O24  1  0.949654  0.887115  0.835735  1
  O  O25  1  0.285801  0.216628  0.501049  1
  O  O26  1  0.625964  0.539320  0.164957  1
  O  O27  1  0.547337  0.616407  0.666738  1
  O  O28  1  0.879315  0.950224  0.332541  1
  O  O29  1  0.212206  0.288345  0.000210  1
