# generated using pymatgen
data_Tm15LuMgTl(Co2Ag)2
_symmetry_space_group_name_H-M   'P 1'
_cell_length_a   9.29089814
_cell_length_b   9.30011934
_cell_length_c   9.30012000
_cell_angle_alpha   60.00418763
_cell_angle_beta   59.97323658
_cell_angle_gamma   59.97323867
_symmetry_Int_Tables_number   1
_chemical_formula_structural   Tm15LuMgTl(Co2Ag)2
_chemical_formula_sum   'Tm15 Lu1 Mg1 Tl1 Co4 Ag2'
_cell_volume   568.01226061
_cell_formula_units_Z   1
loop_
 _symmetry_equiv_pos_site_id
 _symmetry_equiv_pos_as_xyz
  1  'x, y, z'
loop_
 _atom_site_type_symbol
 _atom_site_label
 _atom_site_symmetry_multiplicity
 _atom_site_fract_x
 _atom_site_fract_y
 _atom_site_fract_z
 _atom_site_occupancy
  Tm  Tm0  1  0.346472  0.346092  0.962499  1
  Tm  Tm1  1  0.346472  0.962499  0.346092  1
  Tm  Tm2  1  0.953387  0.349229  0.349229  1
  Tm  Tm3  1  0.809542  0.189065  0.189065  1
  Tm  Tm4  1  0.185550  0.812781  0.812781  1
  Tm  Tm5  1  0.185799  0.813075  0.186842  1
  Tm  Tm6  1  0.809609  0.188323  0.811369  1
  Tm  Tm7  1  0.185799  0.186842  0.813075  1
  Tm  Tm8  1  0.809609  0.811369  0.188323  1
  Tm  Tm9  1  0.939785  0.562484  0.562484  1
  Tm  Tm10  1  0.561345  0.938556  0.938556  1
  Tm  Tm11  1  0.561248  0.942941  0.563087  1
  Tm  Tm12  1  0.936348  0.562456  0.939833  1
  Tm  Tm13  1  0.561248  0.563087  0.942941  1
  Tm  Tm14  1  0.936348  0.939833  0.562456  1
  Lu  Lu15  1  0.345677  0.345368  0.345368  1
  Mg  Mg16  1  0.283720  0.570150  0.570150  1
  Tl  Tl17  1  0.584263  0.582052  0.582052  1
  Co  Co18  1  0.138000  0.142575  0.142575  1
  Co  Co19  1  0.139318  0.142655  0.576201  1
  Co  Co20  1  0.139318  0.576201  0.142655  1
  Co  Co21  1  0.575618  0.141685  0.141685  1
  Ag  Ag22  1  0.582763  0.582179  0.248504  1
  Ag  Ag23  1  0.582763  0.248504  0.582179  1
