# generated using pymatgen
data_Zr10In2GeSb4
_symmetry_space_group_name_H-M   'P 1'
_cell_length_a   5.86097264
_cell_length_b   8.61349523
_cell_length_c   8.61110300
_cell_angle_alpha   120.00921279
_cell_angle_beta   89.94556826
_cell_angle_gamma   90.10883517
_symmetry_Int_Tables_number   1
_chemical_formula_structural   Zr10In2GeSb4
_chemical_formula_sum   'Zr10 In2 Ge1 Sb4'
_cell_volume   376.44143408
_cell_formula_units_Z   1
loop_
 _symmetry_equiv_pos_site_id
 _symmetry_equiv_pos_as_xyz
  1  'x, y, z'
loop_
 _atom_site_type_symbol
 _atom_site_label
 _atom_site_symmetry_multiplicity
 _atom_site_fract_x
 _atom_site_fract_y
 _atom_site_fract_z
 _atom_site_occupancy
  Zr  Zr0  1  0.499792  0.333244  0.669002  1
  Zr  Zr1  1  0.499792  0.664244  0.330998  1
  Zr  Zr2  1  0.001968  0.665485  0.331834  1
  Zr  Zr3  1  0.001968  0.333651  0.668166  1
  Zr  Zr4  1  0.759638  0.257489  0.000000  1
  Zr  Zr5  1  0.763645  0.746043  0.745340  1
  Zr  Zr6  1  0.763645  0.000702  0.254660  1
  Zr  Zr7  1  0.238069  0.739822  0.000000  1
  Zr  Zr8  1  0.239567  0.257904  0.257502  1
  Zr  Zr9  1  0.239567  0.000404  0.742498  1
  In  In10  1  0.253245  0.610769  0.610728  1
  In  In11  1  0.253245  0.000041  0.389272  1
  Ge  Ge12  1  0.496944  0.999048  0.000000  1
  Sb  Sb13  1  0.745431  0.611405  0.000000  1
  Sb  Sb14  1  0.746529  0.392594  0.394221  1
  Sb  Sb15  1  0.746529  0.998372  0.605779  1
  Sb  Sb16  1  0.250426  0.388779  0.000000  1
