# generated using pymatgen
data_TbDy2MnCrC6
_symmetry_space_group_name_H-M   'P 1'
_cell_length_a   8.10968301
_cell_length_b   8.10952508
_cell_length_c   4.99728100
_cell_angle_alpha   90.00000000
_cell_angle_beta   90.00000000
_cell_angle_gamma   120.00610738
_symmetry_Int_Tables_number   1
_chemical_formula_structural   TbDy2MnCrC6
_chemical_formula_sum   'Tb2 Dy4 Mn2 Cr2 C12'
_cell_volume   284.60136044
_cell_formula_units_Z   2
loop_
 _symmetry_equiv_pos_site_id
 _symmetry_equiv_pos_as_xyz
  1  'x, y, z'
loop_
 _atom_site_type_symbol
 _atom_site_label
 _atom_site_symmetry_multiplicity
 _atom_site_fract_x
 _atom_site_fract_y
 _atom_site_fract_z
 _atom_site_occupancy
  Tb  Tb0  1  0.063337  0.379301  0.750000  1
  Tb  Tb1  1  0.379405  0.315934  0.250000  1
  Dy  Dy2  1  0.622206  0.684989  0.750000  1
  Dy  Dy3  1  0.937269  0.622016  0.250000  1
  Dy  Dy4  1  0.684791  0.062687  0.250000  1
  Dy  Dy5  1  0.315414  0.937228  0.750000  1
  Mn  Mn6  1  0.666631  0.333209  0.750000  1
  Mn  Mn7  1  0.333388  0.666862  0.250000  1
  Cr  Cr8  1  0.999926  0.999806  0.499885  1
  Cr  Cr9  1  0.999926  0.999806  0.000115  1
  C  C10  1  0.962462  0.771316  0.750000  1
  C  C11  1  0.190436  0.961813  0.250000  1
  C  C12  1  0.771350  0.808772  0.250000  1
  C  C13  1  0.228648  0.190370  0.750000  1
  C  C14  1  0.808397  0.037160  0.750000  1
  C  C15  1  0.037349  0.228812  0.250000  1
  C  C16  1  0.864120  0.576262  0.750000  1
  C  C17  1  0.288247  0.864679  0.250000  1
  C  C18  1  0.576345  0.712205  0.250000  1
  C  C19  1  0.423612  0.287864  0.750000  1
  C  C20  1  0.135462  0.423862  0.250000  1
  C  C21  1  0.711276  0.135048  0.750000  1
