# generated using pymatgen
data_Sc2Si2IrRh
_symmetry_space_group_name_H-M   'P 1'
_cell_length_a   4.08065800
_cell_length_b   6.49412700
_cell_length_c   7.30826000
_cell_angle_alpha   90.00000000
_cell_angle_beta   90.00000000
_cell_angle_gamma   90.00000000
_symmetry_Int_Tables_number   1
_chemical_formula_structural   Sc2Si2IrRh
_chemical_formula_sum   'Sc4 Si4 Ir2 Rh2'
_cell_volume   193.67116503
_cell_formula_units_Z   2
loop_
 _symmetry_equiv_pos_site_id
 _symmetry_equiv_pos_as_xyz
  1  'x, y, z'
loop_
 _atom_site_type_symbol
 _atom_site_label
 _atom_site_symmetry_multiplicity
 _atom_site_fract_x
 _atom_site_fract_y
 _atom_site_fract_z
 _atom_site_occupancy
  Sc  Sc0  1  0.750000  0.488868  0.811230  1
  Sc  Sc1  1  0.250000  0.008721  0.311927  1
  Sc  Sc2  1  0.750000  0.988868  0.688770  1
  Sc  Sc3  1  0.250000  0.508721  0.188073  1
  Si  Si4  1  0.250000  0.786677  0.882170  1
  Si  Si5  1  0.250000  0.286677  0.617830  1
  Si  Si6  1  0.750000  0.213146  0.116738  1
  Si  Si7  1  0.750000  0.713146  0.383262  1
  Ir  Ir8  1  0.250000  0.659501  0.561496  1
  Ir  Ir9  1  0.250000  0.159501  0.938504  1
  Rh  Rh10  1  0.750000  0.843086  0.061625  1
  Rh  Rh11  1  0.750000  0.343086  0.438375  1
