# generated using pymatgen
data_La18Nd2Ir11Rh
_symmetry_space_group_name_H-M   'P 1'
_cell_length_a   11.36592402
_cell_length_b   11.36828602
_cell_length_c   6.74473600
_cell_angle_alpha   90.00000000
_cell_angle_beta   90.00000000
_cell_angle_gamma   89.99342720
_symmetry_Int_Tables_number   1
_chemical_formula_structural   La18Nd2Ir11Rh
_chemical_formula_sum   'La18 Nd2 Ir11 Rh1'
_cell_volume   871.49458417
_cell_formula_units_Z   1
loop_
 _symmetry_equiv_pos_site_id
 _symmetry_equiv_pos_as_xyz
  1  'x, y, z'
loop_
 _atom_site_type_symbol
 _atom_site_label
 _atom_site_symmetry_multiplicity
 _atom_site_fract_x
 _atom_site_fract_y
 _atom_site_fract_z
 _atom_site_occupancy
  La  La0  1  0.291562  0.091935  0.391586  1
  La  La1  1  0.290996  0.907841  0.888830  1
  La  La2  1  0.709004  0.092159  0.888830  1
  La  La3  1  0.708438  0.908065  0.391586  1
  La  La4  1  0.592531  0.791915  0.888262  1
  La  La5  1  0.592340  0.207511  0.391038  1
  La  La6  1  0.407660  0.792489  0.391038  1
  La  La7  1  0.407469  0.208085  0.888262  1
  La  La8  1  0.207023  0.408176  0.610839  1
  La  La9  1  0.206963  0.592258  0.110814  1
  La  La10  1  0.793037  0.407742  0.110814  1
  La  La11  1  0.792977  0.591824  0.610839  1
  La  La12  1  0.908149  0.707884  0.110214  1
  La  La13  1  0.908557  0.292045  0.610288  1
  La  La14  1  0.091443  0.707955  0.610288  1
  La  La15  1  0.091851  0.292116  0.110214  1
  La  La16  1  0.500000  0.500000  0.000159  1
  La  La17  1  0.500000  0.500000  0.499910  1
  Nd  Nd18  1  0.000000  0.000000  0.500019  1
  Nd  Nd19  1  0.000000  0.000000  0.000090  1
  Ir  Ir20  1  0.845832  0.152233  0.250089  1
  Ir  Ir21  1  0.846705  0.846996  0.749484  1
  Ir  Ir22  1  0.153295  0.153004  0.749484  1
  Ir  Ir23  1  0.154168  0.847767  0.250089  1
  Ir  Ir24  1  0.653010  0.346696  0.749458  1
  Ir  Ir25  1  0.652232  0.654161  0.250076  1
  Ir  Ir26  1  0.347768  0.345839  0.250076  1
  Ir  Ir27  1  0.346990  0.653304  0.749458  1
  Ir  Ir28  1  0.500000  0.000000  0.622960  1
  Ir  Ir29  1  0.000000  0.500000  0.880034  1
  Ir  Ir30  1  0.000000  0.500000  0.380794  1
  Rh  Rh31  1  0.500000  0.000000  0.114081  1
