# generated using pymatgen
data_SmTa6Sn5Sb
_symmetry_space_group_name_H-M   'P 1'
_cell_length_a   5.79701100
_cell_length_b   5.79701143
_cell_length_c   9.59774100
_cell_angle_alpha   90.00000000
_cell_angle_beta   90.00000000
_cell_angle_gamma   120.00000325
_symmetry_Int_Tables_number   1
_chemical_formula_structural   SmTa6Sn5Sb
_chemical_formula_sum   'Sm1 Ta6 Sn5 Sb1'
_cell_volume   279.32378908
_cell_formula_units_Z   1
loop_
 _symmetry_equiv_pos_site_id
 _symmetry_equiv_pos_as_xyz
  1  'x, y, z'
loop_
 _atom_site_type_symbol
 _atom_site_label
 _atom_site_symmetry_multiplicity
 _atom_site_fract_x
 _atom_site_fract_y
 _atom_site_fract_z
 _atom_site_occupancy
  Sm  Sm0  1  0.000000  0.000000  0.996116  1
  Ta  Ta1  1  0.000000  0.500000  0.751426  1
  Ta  Ta2  1  0.500000  0.500000  0.751426  1
  Ta  Ta3  1  0.500000  0.000000  0.751426  1
  Ta  Ta4  1  0.000000  0.500000  0.251051  1
  Ta  Ta5  1  0.500000  0.500000  0.251051  1
  Ta  Ta6  1  0.500000  0.000000  0.251051  1
  Sn  Sn7  1  0.666667  0.333333  0.500612  1
  Sn  Sn8  1  0.333333  0.666667  0.500612  1
  Sn  Sn9  1  0.666667  0.333333  0.001051  1
  Sn  Sn10  1  0.333333  0.666667  0.001051  1
  Sn  Sn11  1  0.000000  0.000000  0.335781  1
  Sb  Sb12  1  0.000000  0.000000  0.657345  1
