# generated using pymatgen
data_TbDy2ZnSn3Ir2
_symmetry_space_group_name_H-M   'P 1'
_cell_length_a   7.49975002
_cell_length_b   7.48265758
_cell_length_c   4.04817900
_cell_angle_alpha   90.00000000
_cell_angle_beta   90.00000000
_cell_angle_gamma   120.08316835
_symmetry_Int_Tables_number   1
_chemical_formula_structural   TbDy2ZnSn3Ir2
_chemical_formula_sum   'Tb1 Dy2 Zn1 Sn3 Ir2'
_cell_volume   196.57506299
_cell_formula_units_Z   1
loop_
 _symmetry_equiv_pos_site_id
 _symmetry_equiv_pos_as_xyz
  1  'x, y, z'
loop_
 _atom_site_type_symbol
 _atom_site_label
 _atom_site_symmetry_multiplicity
 _atom_site_fract_x
 _atom_site_fract_y
 _atom_site_fract_z
 _atom_site_occupancy
  Tb  Tb0  1  0.410359  0.394791  0.000000  1
  Dy  Dy1  1  0.606836  0.017120  0.000000  1
  Dy  Dy2  1  0.983140  0.589257  0.000000  1
  Zn  Zn3  1  0.333467  0.667231  0.500000  1
  Sn  Sn4  1  0.254759  0.998644  0.500000  1
  Sn  Sn5  1  0.001527  0.256253  0.500000  1
  Sn  Sn6  1  0.743124  0.745047  0.500000  1
  Ir  Ir7  1  0.667186  0.332452  0.500000  1
  Ir  Ir8  1  0.999602  0.999202  0.000000  1
