# generated using pymatgen
data_Ho8Sc11Si16Os
_symmetry_space_group_name_H-M   'P 1'
_cell_length_a   6.99343835
_cell_length_b   7.33761548
_cell_length_c   13.85099100
_cell_angle_alpha   90.00000000
_cell_angle_beta   90.00000000
_cell_angle_gamma   90.11188818
_symmetry_Int_Tables_number   1
_chemical_formula_structural   Ho8Sc11Si16Os
_chemical_formula_sum   'Ho8 Sc11 Si16 Os1'
_cell_volume   710.76448485
_cell_formula_units_Z   1
loop_
 _symmetry_equiv_pos_site_id
 _symmetry_equiv_pos_as_xyz
  1  'x, y, z'
loop_
 _atom_site_type_symbol
 _atom_site_label
 _atom_site_symmetry_multiplicity
 _atom_site_fract_x
 _atom_site_fract_y
 _atom_site_fract_z
 _atom_site_occupancy
  Ho  Ho0  1  0.011601  0.177961  0.092449  1
  Ho  Ho1  1  0.994179  0.819228  0.900786  1
  Ho  Ho2  1  0.490408  0.672556  0.902380  1
  Ho  Ho3  1  0.994179  0.819228  0.599214  1
  Ho  Ho4  1  0.511013  0.323493  0.094288  1
  Ho  Ho5  1  0.011601  0.177961  0.407551  1
  Ho  Ho6  1  0.511013  0.323493  0.405712  1
  Ho  Ho7  1  0.490408  0.672556  0.597620  1
  Sc  Sc8  1  0.841317  0.496299  0.250000  1
  Sc  Sc9  1  0.341535  0.003649  0.250000  1
  Sc  Sc10  1  0.657404  0.995498  0.750000  1
  Sc  Sc11  1  0.325978  0.176137  0.627454  1
  Sc  Sc12  1  0.671794  0.824574  0.374478  1
  Sc  Sc13  1  0.171970  0.674019  0.377094  1
  Sc  Sc14  1  0.671794  0.824574  0.125522  1
  Sc  Sc15  1  0.824971  0.331852  0.628635  1
  Sc  Sc16  1  0.325978  0.176137  0.872546  1
  Sc  Sc17  1  0.824971  0.331852  0.871365  1
  Sc  Sc18  1  0.171970  0.674019  0.122906  1
  Si  Si19  1  0.028194  0.119331  0.750000  1
  Si  Si20  1  0.972710  0.886441  0.250000  1
  Si  Si21  1  0.468597  0.615018  0.250000  1
  Si  Si22  1  0.513862  0.395179  0.750000  1
  Si  Si23  1  0.286674  0.859344  0.750000  1
  Si  Si24  1  0.716528  0.130241  0.250000  1
  Si  Si25  1  0.214482  0.370498  0.250000  1
  Si  Si26  1  0.796380  0.631152  0.750000  1
  Si  Si27  1  0.157024  0.466006  0.549597  1
  Si  Si28  1  0.842286  0.536416  0.464110  1
  Si  Si29  1  0.345288  0.964458  0.463477  1
  Si  Si30  1  0.842286  0.536416  0.035890  1
  Si  Si31  1  0.659677  0.034265  0.540137  1
  Si  Si32  1  0.157024  0.466006  0.950403  1
  Si  Si33  1  0.659677  0.034265  0.959863  1
  Si  Si34  1  0.345288  0.964458  0.036523  1
  Os  Os35  1  0.149935  0.495420  0.750000  1
