# generated using pymatgen
data_Ho2Si3(AsRh3)4
_symmetry_space_group_name_H-M   'P 1'
_cell_length_a   9.89331300
_cell_length_b   9.89331328
_cell_length_c   3.87994300
_cell_angle_alpha   90.00000000
_cell_angle_beta   90.00000000
_cell_angle_gamma   120.00000150
_symmetry_Int_Tables_number   1
_chemical_formula_structural   Ho2Si3(AsRh3)4
_chemical_formula_sum   'Ho2 Si3 As4 Rh12'
_cell_volume   328.88152801
_cell_formula_units_Z   1
loop_
 _symmetry_equiv_pos_site_id
 _symmetry_equiv_pos_as_xyz
  1  'x, y, z'
loop_
 _atom_site_type_symbol
 _atom_site_label
 _atom_site_symmetry_multiplicity
 _atom_site_fract_x
 _atom_site_fract_y
 _atom_site_fract_z
 _atom_site_occupancy
  Ho  Ho0  1  0.333333  0.666667  0.244442  1
  Ho  Ho1  1  0.666667  0.333333  0.743990  1
  Si  Si2  1  0.404101  0.112783  0.243104  1
  Si  Si3  1  0.708682  0.595899  0.243104  1
  Si  Si4  1  0.887217  0.291318  0.243104  1
  As  As5  1  0.000000  0.000000  0.624162  1
  As  As6  1  0.595250  0.882625  0.745626  1
  As  As7  1  0.287375  0.404750  0.745626  1
  As  As8  1  0.117375  0.712625  0.745626  1
  Rh  Rh9  1  0.450332  0.378469  0.242682  1
  Rh  Rh10  1  0.928137  0.549668  0.242682  1
  Rh  Rh11  1  0.621531  0.071863  0.242682  1
  Rh  Rh12  1  0.557781  0.615148  0.744647  1
  Rh  Rh13  1  0.057367  0.442219  0.744647  1
  Rh  Rh14  1  0.384852  0.942633  0.744647  1
  Rh  Rh15  1  0.146536  0.887245  0.244698  1
  Rh  Rh16  1  0.740709  0.853464  0.244698  1
  Rh  Rh17  1  0.112755  0.259291  0.244698  1
  Rh  Rh18  1  0.848922  0.124716  0.741712  1
  Rh  Rh19  1  0.275794  0.151078  0.741712  1
  Rh  Rh20  1  0.875284  0.724206  0.741712  1
