# generated using pymatgen
data_TbCuNi3Pt
_symmetry_space_group_name_H-M   'P 1'
_cell_length_a   5.10973894
_cell_length_b   4.81909725
_cell_length_c   4.03649400
_cell_angle_alpha   90.00000000
_cell_angle_beta   90.00000000
_cell_angle_gamma   118.13560432
_symmetry_Int_Tables_number   1
_chemical_formula_structural   TbCuNi3Pt
_chemical_formula_sum   'Tb1 Cu1 Ni3 Pt1'
_cell_volume   87.65073347
_cell_formula_units_Z   1
loop_
 _symmetry_equiv_pos_site_id
 _symmetry_equiv_pos_as_xyz
  1  'x, y, z'
loop_
 _atom_site_type_symbol
 _atom_site_label
 _atom_site_symmetry_multiplicity
 _atom_site_fract_x
 _atom_site_fract_y
 _atom_site_fract_z
 _atom_site_occupancy
  Tb  Tb0  1  0.335555  0.667778  0.000000  1
  Cu  Cu1  1  0.697658  0.348828  0.000000  1
  Ni  Ni2  1  0.969337  0.984668  0.000000  1
  Ni  Ni3  1  0.833228  0.165109  0.500000  1
  Ni  Ni4  1  0.833228  0.668119  0.500000  1
  Pt  Pt5  1  0.330995  0.165498  0.500000  1
