# generated using pymatgen
data_Dy11Th5MgCd3Ru4
_symmetry_space_group_name_H-M   'P 1'
_cell_length_a   9.67323942
_cell_length_b   9.74376260
_cell_length_c   9.74376277
_cell_angle_alpha   59.82526311
_cell_angle_beta   60.18787380
_cell_angle_gamma   60.18788379
_symmetry_Int_Tables_number   1
_chemical_formula_structural   Dy11Th5MgCd3Ru4
_chemical_formula_sum   'Dy11 Th5 Mg1 Cd3 Ru4'
_cell_volume   650.36595079
_cell_formula_units_Z   1
loop_
 _symmetry_equiv_pos_site_id
 _symmetry_equiv_pos_as_xyz
  1  'x, y, z'
loop_
 _atom_site_type_symbol
 _atom_site_label
 _atom_site_symmetry_multiplicity
 _atom_site_fract_x
 _atom_site_fract_y
 _atom_site_fract_z
 _atom_site_occupancy
  Dy  Dy0  1  0.185428  0.813027  0.813027  1
  Dy  Dy1  1  0.191034  0.808802  0.186799  1
  Dy  Dy2  1  0.810960  0.185999  0.808347  1
  Dy  Dy3  1  0.191034  0.186799  0.808802  1
  Dy  Dy4  1  0.810960  0.808347  0.185999  1
  Dy  Dy5  1  0.932755  0.567721  0.567721  1
  Dy  Dy6  1  0.563274  0.935591  0.935591  1
  Dy  Dy7  1  0.561799  0.937650  0.563872  1
  Dy  Dy8  1  0.936859  0.563011  0.937246  1
  Dy  Dy9  1  0.561799  0.563872  0.937650  1
  Dy  Dy10  1  0.936859  0.937246  0.563011  1
  Th  Th11  1  0.342213  0.349146  0.349146  1
  Th  Th12  1  0.348053  0.347330  0.958046  1
  Th  Th13  1  0.348053  0.958046  0.347330  1
  Th  Th14  1  0.954647  0.351378  0.351378  1
  Th  Th15  1  0.815399  0.185126  0.185126  1
  Mg  Mg16  1  0.270490  0.575249  0.575249  1
  Cd  Cd17  1  0.582068  0.582515  0.582515  1
  Cd  Cd18  1  0.580237  0.584345  0.252324  1
  Cd  Cd19  1  0.580237  0.252324  0.584345  1
  Ru  Ru20  1  0.129092  0.147613  0.147613  1
  Ru  Ru21  1  0.144938  0.142166  0.568561  1
  Ru  Ru22  1  0.144938  0.568561  0.142166  1
  Ru  Ru23  1  0.576878  0.148134  0.148134  1
