# generated using pymatgen
data_YbTa2F12
_symmetry_space_group_name_H-M   'P 1'
_cell_length_a   5.40873966
_cell_length_b   5.88385563
_cell_length_c   9.43119980
_cell_angle_alpha   105.15215330
_cell_angle_beta   90.28830010
_cell_angle_gamma   118.84317341
_symmetry_Int_Tables_number   1
_chemical_formula_structural   YbTa2F12
_chemical_formula_sum   'Yb1 Ta2 F12'
_cell_volume   250.69598745
_cell_formula_units_Z   1
loop_
 _symmetry_equiv_pos_site_id
 _symmetry_equiv_pos_as_xyz
  1  'x, y, z'
loop_
 _atom_site_type_symbol
 _atom_site_label
 _atom_site_symmetry_multiplicity
 _atom_site_fract_x
 _atom_site_fract_y
 _atom_site_fract_z
 _atom_site_occupancy
  Yb  Yb0  1  0.000000  0.000000  0.000000  1
  Ta  Ta1  1  0.776946  0.508902  0.265730  1
  Ta  Ta2  1  0.223054  0.491098  0.734270  1
  F  F3  1  0.824781  0.264355  0.703827  1
  F  F4  1  0.175219  0.735645  0.296173  1
  F  F5  1  0.187038  0.733471  0.917060  1
  F  F6  1  0.705600  0.718367  0.428140  1
  F  F7  1  0.294400  0.281633  0.571860  1
  F  F8  1  0.784613  0.273776  0.364800  1
  F  F9  1  0.215387  0.726224  0.635200  1
  F  F10  1  0.363163  0.271313  0.187473  1
  F  F11  1  0.636837  0.728687  0.812527  1
  F  F12  1  0.763677  0.717637  0.132783  1
  F  F13  1  0.236323  0.282363  0.867217  1
  F  F14  1  0.812962  0.266529  0.082940  1
