# generated using pymatgen
data_Y2Tm2Ti(ReN4)3
_symmetry_space_group_name_H-M   'P 1'
_cell_length_a   7.30772810
_cell_length_b   7.38835302
_cell_length_c   6.24204553
_cell_angle_alpha   72.70967159
_cell_angle_beta   74.09028258
_cell_angle_gamma   82.21215973
_symmetry_Int_Tables_number   1
_chemical_formula_structural   Y2Tm2Ti(ReN4)3
_chemical_formula_sum   'Y2 Tm2 Ti1 Re3 N12'
_cell_volume   308.92883432
_cell_formula_units_Z   1
loop_
 _symmetry_equiv_pos_site_id
 _symmetry_equiv_pos_as_xyz
  1  'x, y, z'
loop_
 _atom_site_type_symbol
 _atom_site_label
 _atom_site_symmetry_multiplicity
 _atom_site_fract_x
 _atom_site_fract_y
 _atom_site_fract_z
 _atom_site_occupancy
  Y  Y0  1  0.707388  0.276938  0.242651  1
  Y  Y1  1  0.301604  0.721169  0.737555  1
  Tm  Tm2  1  0.907932  0.083948  0.766260  1
  Tm  Tm3  1  0.090330  0.905548  0.261972  1
  Ti  Ti4  1  0.618306  0.801845  0.270222  1
  Re  Re5  1  0.199109  0.378607  0.219498  1
  Re  Re6  1  0.379025  0.204864  0.723943  1
  Re  Re7  1  0.795167  0.617660  0.779144  1
  N  N8  1  0.657991  0.620847  0.069659  1
  N  N9  1  0.368615  0.880720  0.350210  1
  N  N10  1  0.361510  0.332205  0.422920  1
  N  N11  1  0.122957  0.623129  0.167128  1
  N  N12  1  0.004076  0.220926  0.340068  1
  N  N13  1  0.794350  0.998775  0.145868  1
  N  N14  1  0.222516  0.008536  0.846628  1
  N  N15  1  0.626455  0.129071  0.665344  1
  N  N16  1  0.334469  0.368994  0.917999  1
  N  N17  1  0.886608  0.375965  0.824436  1
  N  N18  1  0.633120  0.664113  0.586020  1
  N  N19  1  0.988471  0.786140  0.662477  1
