# generated using pymatgen
data_Y2Er2Cd2Si3Ge
_symmetry_space_group_name_H-M   'P 1'
_cell_length_a   7.17003960
_cell_length_b   7.17004034
_cell_length_c   4.19494700
_cell_angle_alpha   90.00000000
_cell_angle_beta   90.00000000
_cell_angle_gamma   89.75389281
_symmetry_Int_Tables_number   1
_chemical_formula_structural   Y2Er2Cd2Si3Ge
_chemical_formula_sum   'Y2 Er2 Cd2 Si3 Ge1'
_cell_volume   215.65802574
_cell_formula_units_Z   1
loop_
 _symmetry_equiv_pos_site_id
 _symmetry_equiv_pos_as_xyz
  1  'x, y, z'
loop_
 _atom_site_type_symbol
 _atom_site_label
 _atom_site_symmetry_multiplicity
 _atom_site_fract_x
 _atom_site_fract_y
 _atom_site_fract_z
 _atom_site_occupancy
  Y  Y0  1  0.680402  0.177968  0.500000  1
  Y  Y1  1  0.322032  0.819598  0.500000  1
  Er  Er2  1  0.175395  0.324605  0.500000  1
  Er  Er3  1  0.823211  0.676789  0.500000  1
  Cd  Cd4  1  0.501254  0.502982  0.000000  1
  Cd  Cd5  1  0.997018  0.998746  0.000000  1
  Si  Si6  1  0.116634  0.616789  0.000000  1
  Si  Si7  1  0.883211  0.383366  0.000000  1
  Si  Si8  1  0.621101  0.878899  0.000000  1
  Ge  Ge9  1  0.379742  0.120258  0.000000  1
