# generated using pymatgen
data_Ho9ErIn6O2
_symmetry_space_group_name_H-M   'P 1'
_cell_length_a   8.84040246
_cell_length_b   8.83701876
_cell_length_c   8.84007300
_cell_angle_alpha   125.70724468
_cell_angle_beta   125.71724721
_cell_angle_gamma   80.35160479
_symmetry_Int_Tables_number   1
_chemical_formula_structural   Ho9ErIn6O2
_chemical_formula_sum   'Ho9 Er1 In6 O2'
_cell_volume   439.32606870
_cell_formula_units_Z   1
loop_
 _symmetry_equiv_pos_site_id
 _symmetry_equiv_pos_as_xyz
  1  'x, y, z'
loop_
 _atom_site_type_symbol
 _atom_site_label
 _atom_site_symmetry_multiplicity
 _atom_site_fract_x
 _atom_site_fract_y
 _atom_site_fract_z
 _atom_site_occupancy
  Ho  Ho0  1  0.000648  0.191896  0.499882  1
  Ho  Ho1  1  0.808021  0.308240  0.809043  1
  Ho  Ho2  1  0.501143  0.000655  0.809000  1
  Ho  Ho3  1  0.498868  0.999082  0.190747  1
  Ho  Ho4  1  0.999375  0.808239  0.500130  1
  Ho  Ho5  1  0.500068  0.500209  0.999872  1
  Ho  Ho6  1  0.192251  0.691766  0.191223  1
  Ho  Ho7  1  0.691594  0.501003  0.499872  1
  Ho  Ho8  1  0.000191  0.000326  0.000132  1
  Er  Er9  1  0.307625  0.499380  0.500130  1
  In  In10  1  0.863047  0.363035  0.225895  1
  In  In11  1  0.137032  0.636978  0.774055  1
  In  In12  1  0.362577  0.137535  0.500060  1
  In  In13  1  0.750029  0.749900  0.999876  1
  In  In14  1  0.637237  0.862982  0.500006  1
  In  In15  1  0.250007  0.249993  0.000090  1
  O  O16  1  0.749770  0.250057  0.499934  1
  O  O17  1  0.250515  0.748725  0.500052  1
