# generated using pymatgen
data_Tb16MgZn2HgRh4
_symmetry_space_group_name_H-M   'P 1'
_cell_length_a   9.60609528
_cell_length_b   9.60762906
_cell_length_c   9.62486800
_cell_angle_alpha   59.94063427
_cell_angle_beta   59.93533970
_cell_angle_gamma   59.87983893
_symmetry_Int_Tables_number   1
_chemical_formula_structural   Tb16MgZn2HgRh4
_chemical_formula_sum   'Tb16 Mg1 Zn2 Hg1 Rh4'
_cell_volume   626.96021668
_cell_formula_units_Z   1
loop_
 _symmetry_equiv_pos_site_id
 _symmetry_equiv_pos_as_xyz
  1  'x, y, z'
loop_
 _atom_site_type_symbol
 _atom_site_label
 _atom_site_symmetry_multiplicity
 _atom_site_fract_x
 _atom_site_fract_y
 _atom_site_fract_z
 _atom_site_occupancy
  Tb  Tb0  1  0.351744  0.349749  0.347638  1
  Tb  Tb1  1  0.351744  0.349749  0.950870  1
  Tb  Tb2  1  0.353975  0.948147  0.348939  1
  Tb  Tb3  1  0.937434  0.355662  0.353453  1
  Tb  Tb4  1  0.807727  0.191597  0.191361  1
  Tb  Tb5  1  0.187828  0.810917  0.811826  1
  Tb  Tb6  1  0.187828  0.810917  0.189428  1
  Tb  Tb7  1  0.807727  0.191597  0.809316  1
  Tb  Tb8  1  0.187292  0.189222  0.811743  1
  Tb  Tb9  1  0.807629  0.808534  0.191919  1
  Tb  Tb10  1  0.932701  0.563501  0.564255  1
  Tb  Tb11  1  0.562313  0.933899  0.938523  1
  Tb  Tb12  1  0.562313  0.933899  0.565265  1
  Tb  Tb13  1  0.932701  0.563501  0.939543  1
  Tb  Tb14  1  0.563005  0.565597  0.935699  1
  Tb  Tb15  1  0.936203  0.937449  0.563174  1
  Mg  Mg16  1  0.286578  0.572430  0.570497  1
  Zn  Zn17  1  0.582571  0.585669  0.584304  1
  Zn  Zn18  1  0.582571  0.585669  0.247457  1
  Hg  Hg19  1  0.582526  0.248692  0.584391  1
  Rh  Rh20  1  0.140815  0.144356  0.143769  1
  Rh  Rh21  1  0.140815  0.144356  0.571059  1
  Rh  Rh22  1  0.141388  0.571847  0.143382  1
  Rh  Rh23  1  0.572574  0.143043  0.142191  1
