# generated using pymatgen
data_RbCo(PtO3)2
_symmetry_space_group_name_H-M   'P 1'
_cell_length_a   5.25256871
_cell_length_b   5.34876647
_cell_length_c   6.99978300
_cell_angle_alpha   75.16777503
_cell_angle_beta   97.36799493
_cell_angle_gamma   120.57650709
_symmetry_Int_Tables_number   1
_chemical_formula_structural   RbCo(PtO3)2
_chemical_formula_sum   'Rb1 Co1 Pt2 O6'
_cell_volume   163.67017239
_cell_formula_units_Z   1
loop_
 _symmetry_equiv_pos_site_id
 _symmetry_equiv_pos_as_xyz
  1  'x, y, z'
loop_
 _atom_site_type_symbol
 _atom_site_label
 _atom_site_symmetry_multiplicity
 _atom_site_fract_x
 _atom_site_fract_y
 _atom_site_fract_z
 _atom_site_occupancy
  Rb  Rb0  1  0.341161  0.170394  0.500222  1
  Co  Co1  1  0.998372  0.999177  0.999994  1
  Pt  Pt2  1  0.666072  0.333030  0.999962  1
  Pt  Pt3  1  0.332661  0.666369  0.999976  1
  O  O4  1  0.320755  0.948497  0.145527  1
  O  O5  1  0.998854  0.269451  0.146360  1
  O  O6  1  0.676675  0.625933  0.146109  1
  O  O7  1  0.677521  0.051252  0.853795  1
  O  O8  1  0.321561  0.372691  0.854428  1
  O  O9  1  0.999706  0.729873  0.853625  1
