# generated using pymatgen
data_ScPa3Sn4Sb
_symmetry_space_group_name_H-M   'P 1'
_cell_length_a   9.25527933
_cell_length_b   9.25953875
_cell_length_c   6.20118300
_cell_angle_alpha   90.00000000
_cell_angle_beta   90.00000000
_cell_angle_gamma   120.01522621
_symmetry_Int_Tables_number   1
_chemical_formula_structural   ScPa3Sn4Sb
_chemical_formula_sum   'Sc2 Pa6 Sn8 Sb2'
_cell_volume   460.16905397
_cell_formula_units_Z   2
loop_
 _symmetry_equiv_pos_site_id
 _symmetry_equiv_pos_as_xyz
  1  'x, y, z'
loop_
 _atom_site_type_symbol
 _atom_site_label
 _atom_site_symmetry_multiplicity
 _atom_site_fract_x
 _atom_site_fract_y
 _atom_site_fract_z
 _atom_site_occupancy
  Sc  Sc0  1  0.000000  0.000000  0.000000  1
  Sc  Sc1  1  0.000000  0.000000  0.500000  1
  Pa  Pa2  1  0.382344  0.997222  0.750000  1
  Pa  Pa3  1  0.382344  0.385122  0.250000  1
  Pa  Pa4  1  0.000000  0.612239  0.250000  1
  Pa  Pa5  1  0.000000  0.387761  0.750000  1
  Pa  Pa6  1  0.617656  0.614878  0.750000  1
  Pa  Pa7  1  0.617656  0.002778  0.250000  1
  Sn  Sn8  1  0.664032  0.332015  0.500000  1
  Sn  Sn9  1  0.335968  0.667985  0.000000  1
  Sn  Sn10  1  0.727175  0.999930  0.750000  1
  Sn  Sn11  1  0.727175  0.727244  0.250000  1
  Sn  Sn12  1  0.335968  0.667985  0.500000  1
  Sn  Sn13  1  0.664032  0.332015  0.000000  1
  Sn  Sn14  1  0.272825  0.000070  0.250000  1
  Sn  Sn15  1  0.272825  0.272756  0.750000  1
  Sb  Sb16  1  0.000000  0.729944  0.750000  1
  Sb  Sb17  1  0.000000  0.270056  0.250000  1
