# generated using pymatgen
data_Dy3Zr2Sb3
_symmetry_space_group_name_H-M   'P 1'
_cell_length_a   8.81939000
_cell_length_b   8.81938982
_cell_length_c   6.01142200
_cell_angle_alpha   90.00000000
_cell_angle_beta   90.00000000
_cell_angle_gamma   120.00000818
_symmetry_Int_Tables_number   1
_chemical_formula_structural   Dy3Zr2Sb3
_chemical_formula_sum   'Dy6 Zr4 Sb6'
_cell_volume   404.93461125
_cell_formula_units_Z   2
loop_
 _symmetry_equiv_pos_site_id
 _symmetry_equiv_pos_as_xyz
  1  'x, y, z'
loop_
 _atom_site_type_symbol
 _atom_site_label
 _atom_site_symmetry_multiplicity
 _atom_site_fract_x
 _atom_site_fract_y
 _atom_site_fract_z
 _atom_site_occupancy
  Dy  Dy0  1  0.748014  0.748014  0.750000  1
  Dy  Dy1  1  0.251986  0.000000  0.750000  1
  Dy  Dy2  1  0.000000  0.251986  0.750000  1
  Dy  Dy3  1  0.251986  0.251986  0.250000  1
  Dy  Dy4  1  0.748014  0.000000  0.250000  1
  Dy  Dy5  1  0.000000  0.748014  0.250000  1
  Zr  Zr6  1  0.666667  0.333333  0.000000  1
  Zr  Zr7  1  0.333333  0.666667  0.000000  1
  Zr  Zr8  1  0.333333  0.666667  0.500000  1
  Zr  Zr9  1  0.666667  0.333333  0.500000  1
  Sb  Sb10  1  0.392122  0.392122  0.750000  1
  Sb  Sb11  1  0.607878  0.000000  0.750000  1
  Sb  Sb12  1  0.000000  0.607878  0.750000  1
  Sb  Sb13  1  0.607878  0.607878  0.250000  1
  Sb  Sb14  1  0.392122  0.000000  0.250000  1
  Sb  Sb15  1  0.000000  0.392122  0.250000  1
