# generated using pymatgen
data_Tm2Ga2IrRu
_symmetry_space_group_name_H-M   'P 1'
_cell_length_a   4.26137300
_cell_length_b   6.79040800
_cell_length_c   7.77214500
_cell_angle_alpha   90.00000000
_cell_angle_beta   90.00000000
_cell_angle_gamma   90.00000000
_symmetry_Int_Tables_number   1
_chemical_formula_structural   Tm2Ga2IrRu
_chemical_formula_sum   'Tm4 Ga4 Ir2 Ru2'
_cell_volume   224.89837309
_cell_formula_units_Z   2
loop_
 _symmetry_equiv_pos_site_id
 _symmetry_equiv_pos_as_xyz
  1  'x, y, z'
loop_
 _atom_site_type_symbol
 _atom_site_label
 _atom_site_symmetry_multiplicity
 _atom_site_fract_x
 _atom_site_fract_y
 _atom_site_fract_z
 _atom_site_occupancy
  Tm  Tm0  1  0.250000  0.019580  0.813095  1
  Tm  Tm1  1  0.250000  0.519580  0.686905  1
  Tm  Tm2  1  0.750000  0.980352  0.187977  1
  Tm  Tm3  1  0.750000  0.480352  0.312023  1
  Ga  Ga4  1  0.250000  0.159378  0.427952  1
  Ga  Ga5  1  0.250000  0.659378  0.072048  1
  Ga  Ga6  1  0.750000  0.837094  0.568754  1
  Ga  Ga7  1  0.750000  0.337094  0.931246  1
  Ir  Ir8  1  0.750000  0.228861  0.609811  1
  Ir  Ir9  1  0.750000  0.728861  0.890189  1
  Ru  Ru10  1  0.250000  0.774734  0.389758  1
  Ru  Ru11  1  0.250000  0.274734  0.110242  1
