# generated using pymatgen
data_Ba4Nd7InSe16
_symmetry_space_group_name_H-M   'P 1'
_cell_length_a   4.32426800
_cell_length_b   13.02121695
_cell_length_c   15.50358521
_cell_angle_alpha   89.78076391
_cell_angle_beta   90.00000000
_cell_angle_gamma   90.00000000
_symmetry_Int_Tables_number   1
_chemical_formula_structural   Ba4Nd7InSe16
_chemical_formula_sum   'Ba4 Nd7 In1 Se16'
_cell_volume   872.95757532
_cell_formula_units_Z   1
loop_
 _symmetry_equiv_pos_site_id
 _symmetry_equiv_pos_as_xyz
  1  'x, y, z'
loop_
 _atom_site_type_symbol
 _atom_site_label
 _atom_site_symmetry_multiplicity
 _atom_site_fract_x
 _atom_site_fract_y
 _atom_site_fract_z
 _atom_site_occupancy
  Ba  Ba0  1  0.250000  0.756998  0.338606  1
  Ba  Ba1  1  0.250000  0.257212  0.165287  1
  Ba  Ba2  1  0.750000  0.240620  0.658779  1
  Ba  Ba3  1  0.750000  0.742883  0.836673  1
  Nd  Nd4  1  0.250000  0.426923  0.393010  1
  Nd  Nd5  1  0.250000  0.933144  0.111440  1
  Nd  Nd6  1  0.750000  0.569229  0.608273  1
  Nd  Nd7  1  0.750000  0.069859  0.891762  1
  Nd  Nd8  1  0.250000  0.419824  0.899365  1
  Nd  Nd9  1  0.250000  0.923105  0.598099  1
  Nd  Nd10  1  0.750000  0.579289  0.101195  1
  In  In11  1  0.750000  0.077464  0.397402  1
  Se  Se12  1  0.250000  0.207331  0.825879  1
  Se  Se13  1  0.250000  0.708865  0.670704  1
  Se  Se14  1  0.750000  0.793454  0.173694  1
  Se  Se15  1  0.750000  0.284215  0.332614  1
  Se  Se16  1  0.250000  0.129503  0.515983  1
  Se  Se17  1  0.250000  0.630051  0.974127  1
  Se  Se18  1  0.750000  0.876957  0.468592  1
  Se  Se19  1  0.750000  0.369432  0.026607  1
  Se  Se20  1  0.250000  0.521046  0.218092  1
  Se  Se21  1  0.250000  0.028416  0.289809  1
  Se  Se22  1  0.750000  0.476588  0.782954  1
  Se  Se23  1  0.750000  0.977604  0.716133  1
  Se  Se24  1  0.250000  0.415642  0.580834  1
  Se  Se25  1  0.250000  0.915837  0.922512  1
  Se  Se26  1  0.750000  0.583292  0.420181  1
  Se  Se27  1  0.750000  0.085220  0.081396  1
