# generated using pymatgen
data_Tb10Dy6CdHg3Rh4
_symmetry_space_group_name_H-M   'P 1'
_cell_length_a   9.62960923
_cell_length_b   9.61627343
_cell_length_c   9.61751033
_cell_angle_alpha   59.92414292
_cell_angle_beta   59.95837542
_cell_angle_gamma   59.95411530
_symmetry_Int_Tables_number   1
_chemical_formula_structural   Tb10Dy6CdHg3Rh4
_chemical_formula_sum   'Tb10 Dy6 Cd1 Hg3 Rh4'
_cell_volume   628.96477887
_cell_formula_units_Z   1
loop_
 _symmetry_equiv_pos_site_id
 _symmetry_equiv_pos_as_xyz
  1  'x, y, z'
loop_
 _atom_site_type_symbol
 _atom_site_label
 _atom_site_symmetry_multiplicity
 _atom_site_fract_x
 _atom_site_fract_y
 _atom_site_fract_z
 _atom_site_occupancy
  Tb  Tb0  1  0.562755  0.563702  0.936462  1
  Tb  Tb1  1  0.149005  0.554815  0.147177  1
  Tb  Tb2  1  0.688960  0.310804  0.311276  1
  Tb  Tb3  1  0.937000  0.563866  0.562135  1
  Tb  Tb4  1  0.937081  0.563702  0.936462  1
  Tb  Tb5  1  0.688986  0.690346  0.311576  1
  Tb  Tb6  1  0.563185  0.937959  0.935670  1
  Tb  Tb7  1  0.150940  0.148942  0.149541  1
  Tb  Tb8  1  0.309091  0.690346  0.311576  1
  Tb  Tb9  1  0.550576  0.148942  0.149541  1
  Dy  Dy10  1  0.310139  0.311942  0.689554  1
  Dy  Dy11  1  0.310254  0.689800  0.689692  1
  Dy  Dy12  1  0.149998  0.147597  0.552407  1
  Dy  Dy13  1  0.688366  0.311942  0.689554  1
  Dy  Dy14  1  0.936586  0.938037  0.562253  1
  Dy  Dy15  1  0.563124  0.938037  0.562253  1
  Cd  Cd16  1  0.919526  0.241648  0.919300  1
  Hg  Hg17  1  0.914604  0.916624  0.913658  1
  Hg  Hg18  1  0.255113  0.916624  0.913658  1
  Hg  Hg19  1  0.913677  0.916205  0.256440  1
  Rh  Rh20  1  0.358164  0.357074  0.926596  1
  Rh  Rh21  1  0.357950  0.356679  0.357829  1
  Rh  Rh22  1  0.927541  0.356679  0.357829  1
  Rh  Rh23  1  0.357377  0.927686  0.357559  1
