# generated using pymatgen
data_Tm4Cr2CoNiB16
_symmetry_space_group_name_H-M   'P 1'
_cell_length_a   3.38698400
_cell_length_b   5.87984315
_cell_length_c   11.37454300
_cell_angle_alpha   90.25345791
_cell_angle_beta   90.00000000
_cell_angle_gamma   90.00000000
_symmetry_Int_Tables_number   1
_chemical_formula_structural   Tm4Cr2CoNiB16
_chemical_formula_sum   'Tm4 Cr2 Co1 Ni1 B16'
_cell_volume   226.52106443
_cell_formula_units_Z   1
loop_
 _symmetry_equiv_pos_site_id
 _symmetry_equiv_pos_as_xyz
  1  'x, y, z'
loop_
 _atom_site_type_symbol
 _atom_site_label
 _atom_site_symmetry_multiplicity
 _atom_site_fract_x
 _atom_site_fract_y
 _atom_site_fract_z
 _atom_site_occupancy
  Tm  Tm0  1  0.000000  0.626978  0.350683  1
  Tm  Tm1  1  0.000000  0.372002  0.648671  1
  Tm  Tm2  1  0.000000  0.126161  0.151632  1
  Tm  Tm3  1  0.000000  0.874955  0.849179  1
  Cr  Cr4  1  0.000000  0.624958  0.082862  1
  Cr  Cr5  1  0.000000  0.375846  0.917670  1
  Co  Co6  1  0.000000  0.132821  0.412059  1
  Ni  Ni7  1  0.000000  0.862028  0.590529  1
  B  B8  1  0.500000  0.785372  0.185504  1
  B  B9  1  0.500000  0.214913  0.814398  1
  B  B10  1  0.500000  0.283532  0.315799  1
  B  B11  1  0.500000  0.715662  0.684410  1
  B  B12  1  0.500000  0.864622  0.032685  1
  B  B13  1  0.500000  0.135867  0.967441  1
  B  B14  1  0.500000  0.361611  0.467125  1
  B  B15  1  0.500000  0.638011  0.531798  1
  B  B16  1  0.500000  0.887813  0.451722  1
  B  B17  1  0.500000  0.114262  0.545879  1
  B  B18  1  0.500000  0.386446  0.046989  1
  B  B19  1  0.500000  0.614225  0.953228  1
  B  B20  1  0.500000  0.978886  0.308641  1
  B  B21  1  0.500000  0.022550  0.691158  1
  B  B22  1  0.500000  0.476026  0.192722  1
  B  B23  1  0.500000  0.524453  0.807214  1
