# generated using pymatgen
data_Dy4TmCr3(P3Ir4)4
_symmetry_space_group_name_H-M   'P 1'
_cell_length_a   12.62478900
_cell_length_b   12.62478962
_cell_length_c   3.95327100
_cell_angle_alpha   90.00000000
_cell_angle_beta   90.00000000
_cell_angle_gamma   119.99999575
_symmetry_Int_Tables_number   1
_chemical_formula_structural   Dy4TmCr3(P3Ir4)4
_chemical_formula_sum   'Dy4 Tm1 Cr3 P12 Ir16'
_cell_volume   545.67683205
_cell_formula_units_Z   1
loop_
 _symmetry_equiv_pos_site_id
 _symmetry_equiv_pos_as_xyz
  1  'x, y, z'
loop_
 _atom_site_type_symbol
 _atom_site_label
 _atom_site_symmetry_multiplicity
 _atom_site_fract_x
 _atom_site_fract_y
 _atom_site_fract_z
 _atom_site_occupancy
  Dy  Dy0  1  0.666667  0.333333  0.500000  1
  Dy  Dy1  1  0.999992  0.810623  0.000000  1
  Dy  Dy2  1  0.189377  0.189368  0.000000  1
  Dy  Dy3  1  0.810632  0.000008  0.000000  1
  Tm  Tm4  1  0.333333  0.666667  0.500000  1
  Cr  Cr5  1  0.000010  0.453361  0.500000  1
  Cr  Cr6  1  0.546639  0.546649  0.500000  1
  Cr  Cr7  1  0.453351  0.999990  0.500000  1
  P  P8  1  0.999940  0.632359  0.500000  1
  P  P9  1  0.367641  0.367581  0.500000  1
  P  P10  1  0.632419  0.000060  0.500000  1
  P  P11  1  0.515858  0.684213  0.000000  1
  P  P12  1  0.315787  0.831646  0.000000  1
  P  P13  1  0.168354  0.484142  0.000000  1
  P  P14  1  0.483772  0.167998  0.000000  1
  P  P15  1  0.684226  0.516228  0.000000  1
  P  P16  1  0.832002  0.315774  0.000000  1
  P  P17  1  0.000015  0.177694  0.500000  1
  P  P18  1  0.822306  0.822321  0.500000  1
  P  P19  1  0.177679  0.999985  0.500000  1
  Ir  Ir20  1  0.508816  0.867944  0.000000  1
  Ir  Ir21  1  0.132056  0.640873  0.000000  1
  Ir  Ir22  1  0.359127  0.491184  0.000000  1
  Ir  Ir23  1  0.490578  0.359202  0.000000  1
  Ir  Ir24  1  0.868625  0.509422  0.000000  1
  Ir  Ir25  1  0.640798  0.131375  0.000000  1
  Ir  Ir26  1  0.000047  0.287267  0.000000  1
  Ir  Ir27  1  0.712733  0.712780  0.000000  1
  Ir  Ir28  1  0.287220  0.999953  0.000000  1
  Ir  Ir29  1  0.623494  0.802629  0.500000  1
  Ir  Ir30  1  0.197371  0.820865  0.500000  1
  Ir  Ir31  1  0.179135  0.376506  0.500000  1
  Ir  Ir32  1  0.376259  0.178987  0.500000  1
  Ir  Ir33  1  0.802728  0.623741  0.500000  1
  Ir  Ir34  1  0.821013  0.197272  0.500000  1
  Ir  Ir35  1  0.000000  0.000000  0.500000  1
