# generated using pymatgen
data_La2Pr3Os2
_symmetry_space_group_name_H-M   'P 1'
_cell_length_a   9.04562672
_cell_length_b   9.04562523
_cell_length_c   7.44830747
_cell_angle_alpha   83.91875236
_cell_angle_beta   83.91875680
_cell_angle_gamma   43.67964888
_symmetry_Int_Tables_number   1
_chemical_formula_structural   La2Pr3Os2
_chemical_formula_sum   'La4 Pr6 Os4'
_cell_volume   418.14839837
_cell_formula_units_Z   2
loop_
 _symmetry_equiv_pos_site_id
 _symmetry_equiv_pos_as_xyz
  1  'x, y, z'
loop_
 _atom_site_type_symbol
 _atom_site_label
 _atom_site_symmetry_multiplicity
 _atom_site_fract_x
 _atom_site_fract_y
 _atom_site_fract_z
 _atom_site_occupancy
  La  La0  1  0.016236  0.798319  0.907974  1
  La  La1  1  0.201681  0.983764  0.592026  1
  La  La2  1  0.983764  0.201681  0.092026  1
  La  La3  1  0.798319  0.016236  0.407974  1
  Pr  Pr4  1  0.360325  0.208366  0.816000  1
  Pr  Pr5  1  0.791634  0.639675  0.684000  1
  Pr  Pr6  1  0.639675  0.791634  0.184000  1
  Pr  Pr7  1  0.208366  0.360325  0.316000  1
  Pr  Pr8  1  0.570049  0.429951  0.750000  1
  Pr  Pr9  1  0.429951  0.570049  0.250000  1
  Os  Os10  1  0.168571  0.610505  0.579034  1
  Os  Os11  1  0.389495  0.831429  0.920966  1
  Os  Os12  1  0.831429  0.389495  0.420966  1
  Os  Os13  1  0.610505  0.168571  0.079034  1
