# generated using pymatgen
data_Tb3HoSe4
_symmetry_space_group_name_H-M   'P 1'
_cell_length_a   13.26303027
_cell_length_b   13.26302986
_cell_length_c   13.26302909
_cell_angle_alpha   17.94385241
_cell_angle_beta   17.94385522
_cell_angle_gamma   17.94385664
_symmetry_Int_Tables_number   1
_chemical_formula_structural   Tb3HoSe4
_chemical_formula_sum   'Tb3 Ho1 Se4'
_cell_volume   193.34559303
_cell_formula_units_Z   1
loop_
 _symmetry_equiv_pos_site_id
 _symmetry_equiv_pos_as_xyz
  1  'x, y, z'
loop_
 _atom_site_type_symbol
 _atom_site_label
 _atom_site_symmetry_multiplicity
 _atom_site_fract_x
 _atom_site_fract_y
 _atom_site_fract_z
 _atom_site_occupancy
  Tb  Tb0  1  0.250595  0.250595  0.250595  1
  Tb  Tb1  1  0.500000  0.500000  0.500000  1
  Tb  Tb2  1  0.749405  0.749405  0.749405  1
  Ho  Ho3  1  0.000000  0.000000  0.000000  1
  Se  Se4  1  0.373982  0.373982  0.373982  1
  Se  Se5  1  0.124589  0.124589  0.124589  1
  Se  Se6  1  0.626018  0.626018  0.626018  1
  Se  Se7  1  0.875411  0.875411  0.875411  1
