# generated using pymatgen
data_Rb3ScIrBr9
_symmetry_space_group_name_H-M   'P 1'
_cell_length_a   7.65555400
_cell_length_b   7.65555379
_cell_length_c   19.08552900
_cell_angle_alpha   90.00000000
_cell_angle_beta   90.00000000
_cell_angle_gamma   120.00000091
_symmetry_Int_Tables_number   1
_chemical_formula_structural   Rb3ScIrBr9
_chemical_formula_sum   'Rb6 Sc2 Ir2 Br18'
_cell_volume   968.69724834
_cell_formula_units_Z   2
loop_
 _symmetry_equiv_pos_site_id
 _symmetry_equiv_pos_as_xyz
  1  'x, y, z'
loop_
 _atom_site_type_symbol
 _atom_site_label
 _atom_site_symmetry_multiplicity
 _atom_site_fract_x
 _atom_site_fract_y
 _atom_site_fract_z
 _atom_site_occupancy
  Rb  Rb0  1  0.333333  0.666667  0.066667  1
  Rb  Rb1  1  0.666667  0.333333  0.933333  1
  Rb  Rb2  1  0.666667  0.333333  0.567404  1
  Rb  Rb3  1  0.333333  0.666667  0.432596  1
  Rb  Rb4  1  0.000000  0.000000  0.253635  1
  Rb  Rb5  1  0.000000  0.000000  0.746365  1
  Sc  Sc6  1  0.666667  0.333333  0.161686  1
  Sc  Sc7  1  0.333333  0.666667  0.838314  1
  Ir  Ir8  1  0.333333  0.666667  0.667821  1
  Ir  Ir9  1  0.666667  0.333333  0.332179  1
  Br  Br10  1  0.179520  0.359040  0.592672  1
  Br  Br11  1  0.820480  0.640960  0.407328  1
  Br  Br12  1  0.640960  0.820480  0.592672  1
  Br  Br13  1  0.830590  0.661179  0.089620  1
  Br  Br14  1  0.359040  0.179520  0.407328  1
  Br  Br15  1  0.169410  0.338821  0.910380  1
  Br  Br16  1  0.179520  0.820480  0.592672  1
  Br  Br17  1  0.338821  0.169410  0.089620  1
  Br  Br18  1  0.820480  0.179520  0.407328  1
  Br  Br19  1  0.661179  0.830590  0.910380  1
  Br  Br20  1  0.830590  0.169410  0.089620  1
  Br  Br21  1  0.169410  0.830590  0.910380  1
  Br  Br22  1  0.508638  0.017276  0.255874  1
  Br  Br23  1  0.491362  0.982724  0.744126  1
  Br  Br24  1  0.982724  0.491362  0.255874  1
  Br  Br25  1  0.017276  0.508638  0.744126  1
  Br  Br26  1  0.508638  0.491362  0.255874  1
  Br  Br27  1  0.491362  0.508638  0.744126  1
