# generated using pymatgen
data_Pr2SiAs(Rh2Au)2
_symmetry_space_group_name_H-M   'P 1'
_cell_length_a   4.09788600
_cell_length_b   4.09788600
_cell_length_c   11.28268700
_cell_angle_alpha   90.00000000
_cell_angle_beta   90.00000000
_cell_angle_gamma   90.00000000
_symmetry_Int_Tables_number   1
_chemical_formula_structural   Pr2SiAs(Rh2Au)2
_chemical_formula_sum   'Pr2 Si1 As1 Rh4 Au2'
_cell_volume   189.46643577
_cell_formula_units_Z   1
loop_
 _symmetry_equiv_pos_site_id
 _symmetry_equiv_pos_as_xyz
  1  'x, y, z'
loop_
 _atom_site_type_symbol
 _atom_site_label
 _atom_site_symmetry_multiplicity
 _atom_site_fract_x
 _atom_site_fract_y
 _atom_site_fract_z
 _atom_site_occupancy
  Pr  Pr0  1  0.000000  0.500000  0.255183  1
  Pr  Pr1  1  0.500000  0.000000  0.745100  1
  Si  Si2  1  0.000000  0.500000  0.880915  1
  As  As3  1  0.500000  0.000000  0.118186  1
  Rh  Rh4  1  0.000000  0.000000  0.995739  1
  Rh  Rh5  1  0.500000  0.500000  0.995739  1
  Rh  Rh6  1  0.000000  0.500000  0.676085  1
  Rh  Rh7  1  0.500000  0.000000  0.329099  1
  Au  Au8  1  0.000000  0.000000  0.501978  1
  Au  Au9  1  0.500000  0.500000  0.501978  1
