# generated using pymatgen
data_Sm3BiSbRh3O14
_symmetry_space_group_name_H-M   'P 1'
_cell_length_a   7.41302524
_cell_length_b   7.41302526
_cell_length_c   7.41302570
_cell_angle_alpha   59.43332187
_cell_angle_beta   59.43332072
_cell_angle_gamma   59.43331632
_symmetry_Int_Tables_number   1
_chemical_formula_structural   Sm3BiSbRh3O14
_chemical_formula_sum   'Sm3 Bi1 Sb1 Rh3 O14'
_cell_volume   284.33851020
_cell_formula_units_Z   1
loop_
 _symmetry_equiv_pos_site_id
 _symmetry_equiv_pos_as_xyz
  1  'x, y, z'
loop_
 _atom_site_type_symbol
 _atom_site_label
 _atom_site_symmetry_multiplicity
 _atom_site_fract_x
 _atom_site_fract_y
 _atom_site_fract_z
 _atom_site_occupancy
  Sm  Sm0  1  0.125000  0.625000  0.125000  1
  Sm  Sm1  1  0.625000  0.125000  0.125000  1
  Sm  Sm2  1  0.125000  0.125000  0.625000  1
  Bi  Bi3  1  0.125000  0.125000  0.125000  1
  Sb  Sb4  1  0.625000  0.625000  0.625000  1
  Rh  Rh5  1  0.625000  0.625000  0.125000  1
  Rh  Rh6  1  0.125000  0.625000  0.625000  1
  Rh  Rh7  1  0.625000  0.125000  0.625000  1
  O  O8  1  0.250402  0.250402  0.250402  1
  O  O9  1  0.290777  0.704765  0.290777  1
  O  O10  1  0.959223  0.959223  0.545235  1
  O  O11  1  0.540962  0.956933  0.540962  1
  O  O12  1  0.709038  0.709038  0.293067  1
  O  O13  1  0.956933  0.540962  0.540962  1
  O  O14  1  0.709038  0.293067  0.709038  1
  O  O15  1  0.290777  0.290777  0.704765  1
  O  O16  1  0.704765  0.290777  0.290777  1
  O  O17  1  0.293067  0.709038  0.709038  1
  O  O18  1  0.959223  0.545235  0.959223  1
  O  O19  1  0.540962  0.540962  0.956933  1
  O  O20  1  0.999598  0.999598  0.999598  1
  O  O21  1  0.545235  0.959223  0.959223  1
