# generated using pymatgen
data_TbEr3Al18(OsPd)3
_symmetry_space_group_name_H-M   'P 1'
_cell_length_a   7.57283447
_cell_length_b   7.57766047
_cell_length_c   9.49449114
_cell_angle_alpha   90.07272612
_cell_angle_beta   90.06872053
_cell_angle_gamma   119.11577687
_symmetry_Int_Tables_number   1
_chemical_formula_structural   TbEr3Al18(OsPd)3
_chemical_formula_sum   'Tb1 Er3 Al18 Os3 Pd3'
_cell_volume   475.98762501
_cell_formula_units_Z   1
loop_
 _symmetry_equiv_pos_site_id
 _symmetry_equiv_pos_as_xyz
  1  'x, y, z'
loop_
 _atom_site_type_symbol
 _atom_site_label
 _atom_site_symmetry_multiplicity
 _atom_site_fract_x
 _atom_site_fract_y
 _atom_site_fract_z
 _atom_site_occupancy
  Tb  Tb0  1  0.993669  0.674066  0.247665  1
  Er  Er1  1  0.005395  0.323922  0.751799  1
  Er  Er2  1  0.675956  0.994926  0.248306  1
  Er  Er3  1  0.324991  0.006923  0.752704  1
  Al  Al4  1  0.128130  0.129978  0.249880  1
  Al  Al5  1  0.870612  0.872100  0.750136  1
  Al  Al6  1  0.996500  0.329981  0.074327  1
  Al  Al7  1  0.993855  0.661451  0.923519  1
  Al  Al8  1  0.998311  0.668289  0.578139  1
  Al  Al9  1  0.332470  0.002305  0.422950  1
  Al  Al10  1  0.000928  0.332492  0.424625  1
  Al  Al11  1  0.666696  0.999071  0.575767  1
  Al  Al12  1  0.669270  0.003399  0.925257  1
  Al  Al13  1  0.339080  0.006595  0.075371  1
  Al  Al14  1  0.328660  0.329572  0.554393  1
  Al  Al15  1  0.669973  0.671351  0.446238  1
  Al  Al16  1  0.672308  0.666635  0.047061  1
  Al  Al17  1  0.333305  0.327147  0.952271  1
  Al  Al18  1  0.342224  0.549655  0.249415  1
  Al  Al19  1  0.657346  0.449235  0.753245  1
  Al  Al20  1  0.549992  0.341962  0.246628  1
  Al  Al21  1  0.450285  0.658435  0.750570  1
  Os  Os22  1  0.671813  0.327645  0.999575  1
  Os  Os23  1  0.001608  0.999000  0.999471  1
  Os  Os24  1  0.999746  0.000926  0.500556  1
  Pd  Pd25  1  0.327994  0.671976  0.999858  1
  Pd  Pd26  1  0.327490  0.672519  0.500122  1
  Pd  Pd27  1  0.671392  0.328444  0.500153  1
