# generated using pymatgen
data_MgNi3(BrO3)8
_symmetry_space_group_name_H-M   'P 1'
_cell_length_a   5.59906823
_cell_length_b   10.43796479
_cell_length_c   10.47814027
_cell_angle_alpha   119.19726081
_cell_angle_beta   89.97454903
_cell_angle_gamma   89.90417442
_symmetry_Int_Tables_number   1
_chemical_formula_structural   MgNi3(BrO3)8
_chemical_formula_sum   'Mg1 Ni3 Br8 O24'
_cell_volume   534.56659472
_cell_formula_units_Z   1
loop_
 _symmetry_equiv_pos_site_id
 _symmetry_equiv_pos_as_xyz
  1  'x, y, z'
loop_
 _atom_site_type_symbol
 _atom_site_label
 _atom_site_symmetry_multiplicity
 _atom_site_fract_x
 _atom_site_fract_y
 _atom_site_fract_z
 _atom_site_occupancy
  Mg  Mg0  1  0.140892  0.762286  0.506068  1
  Ni  Ni1  1  0.639716  0.238332  0.493616  1
  Ni  Ni2  1  0.139029  0.261141  0.005733  1
  Ni  Ni3  1  0.639113  0.738761  0.993672  1
  Br  Br4  1  0.260053  0.413693  0.347231  1
  Br  Br5  1  0.758083  0.583453  0.651832  1
  Br  Br6  1  0.258448  0.915894  0.850476  1
  Br  Br7  1  0.758503  0.084642  0.151766  1
  Br  Br8  1  0.782468  0.087882  0.689280  1
  Br  Br9  1  0.284889  0.915392  0.310762  1
  Br  Br10  1  0.283538  0.413417  0.812265  1
  Br  Br11  1  0.783396  0.586188  0.186355  1
  O  O12  1  0.427947  0.887852  0.967863  1
  O  O13  1  0.928619  0.113392  0.035018  1
  O  O14  1  0.370311  0.800859  0.682762  1
  O  O15  1  0.871950  0.199384  0.319823  1
  O  O16  1  0.370766  0.297957  0.178648  1
  O  O17  1  0.868895  0.699061  0.820400  1
  O  O18  1  0.928904  0.229837  0.827576  1
  O  O19  1  0.430536  0.771815  0.172935  1
  O  O20  1  0.927250  0.934327  0.660859  1
  O  O21  1  0.428953  0.069127  0.338264  1
  O  O22  1  0.357400  0.082026  0.879709  1
  O  O23  1  0.858103  0.917699  0.120396  1
  O  O24  1  0.428371  0.270962  0.672503  1
  O  O25  1  0.928045  0.726945  0.325535  1
  O  O26  1  0.356861  0.394712  0.959488  1
  O  O27  1  0.856607  0.604039  0.038763  1
  O  O28  1  0.427045  0.567487  0.839925  1
  O  O29  1  0.928051  0.432424  0.159501  1
  O  O30  1  0.357689  0.579855  0.378410  1
  O  O31  1  0.858190  0.416896  0.620969  1
  O  O32  1  0.431738  0.385791  0.463936  1
  O  O33  1  0.931214  0.614656  0.538776  1
  O  O34  1  0.854484  0.104390  0.540647  1
  O  O35  1  0.353542  0.897428  0.458236  1
