# generated using pymatgen
data_Tm2Pa(AlIr)3
_symmetry_space_group_name_H-M   'P 1'
_cell_length_a   7.04073035
_cell_length_b   7.17458397
_cell_length_c   3.95694900
_cell_angle_alpha   90.00000000
_cell_angle_beta   90.00000000
_cell_angle_gamma   120.63091579
_symmetry_Int_Tables_number   1
_chemical_formula_structural   Tm2Pa(AlIr)3
_chemical_formula_sum   'Tm2 Pa1 Al3 Ir3'
_cell_volume   171.99238688
_cell_formula_units_Z   1
loop_
 _symmetry_equiv_pos_site_id
 _symmetry_equiv_pos_as_xyz
  1  'x, y, z'
loop_
 _atom_site_type_symbol
 _atom_site_label
 _atom_site_symmetry_multiplicity
 _atom_site_fract_x
 _atom_site_fract_y
 _atom_site_fract_z
 _atom_site_occupancy
  Tm  Tm0  1  0.410790  0.413953  0.500000  1
  Tm  Tm1  1  0.589210  0.003162  0.500000  1
  Pa  Pa2  1  0.000000  0.577262  0.500000  1
  Al  Al3  1  0.749595  0.757571  0.000000  1
  Al  Al4  1  0.250405  0.007976  0.000000  1
  Al  Al5  1  0.000000  0.227571  0.000000  1
  Ir  Ir6  1  0.688174  0.355486  0.000000  1
  Ir  Ir7  1  0.311826  0.667313  0.000000  1
  Ir  Ir8  1  0.000000  0.989706  0.500000  1
