# generated using pymatgen
data_Pr4Zn2(GeRh3)3
_symmetry_space_group_name_H-M   'P 1'
_cell_length_a   12.26879595
_cell_length_b   12.26879506
_cell_length_c   12.26879534
_cell_angle_alpha   26.66313788
_cell_angle_beta   26.66314683
_cell_angle_gamma   26.66314319
_symmetry_Int_Tables_number   1
_chemical_formula_structural   Pr4Zn2(GeRh3)3
_chemical_formula_sum   'Pr4 Zn2 Ge3 Rh9'
_cell_volume   327.86487823
_cell_formula_units_Z   1
loop_
 _symmetry_equiv_pos_site_id
 _symmetry_equiv_pos_as_xyz
  1  'x, y, z'
loop_
 _atom_site_type_symbol
 _atom_site_label
 _atom_site_symmetry_multiplicity
 _atom_site_fract_x
 _atom_site_fract_y
 _atom_site_fract_z
 _atom_site_occupancy
  Pr  Pr0  1  0.949441  0.949441  0.949441  1
  Pr  Pr1  1  0.853053  0.853053  0.853053  1
  Pr  Pr2  1  0.146829  0.146829  0.146829  1
  Pr  Pr3  1  0.050360  0.050360  0.050360  1
  Zn  Zn4  1  0.279421  0.279421  0.279421  1
  Zn  Zn5  1  0.500177  0.500177  0.500177  1
  Ge  Ge6  1  0.387842  0.387842  0.387842  1
  Ge  Ge7  1  0.721709  0.721709  0.721709  1
  Ge  Ge8  1  0.611175  0.611175  0.611175  1
  Rh  Rh9  1  0.607876  0.607876  0.106664  1
  Rh  Rh10  1  0.896459  0.388560  0.388560  1
  Rh  Rh11  1  0.502557  0.998880  0.502557  1
  Rh  Rh12  1  0.388560  0.896459  0.388560  1
  Rh  Rh13  1  0.502557  0.502557  0.998880  1
  Rh  Rh14  1  0.106664  0.607876  0.607876  1
  Rh  Rh15  1  0.998880  0.502557  0.502557  1
  Rh  Rh16  1  0.388560  0.388560  0.896459  1
  Rh  Rh17  1  0.607876  0.106664  0.607876  1
