# generated using pymatgen
data_Pr2NdMg3In2Hg
_symmetry_space_group_name_H-M   'P 1'
_cell_length_a   7.76381231
_cell_length_b   7.76381296
_cell_length_c   4.71841300
_cell_angle_alpha   90.00000000
_cell_angle_beta   90.00000000
_cell_angle_gamma   119.93347247
_symmetry_Int_Tables_number   1
_chemical_formula_structural   Pr2NdMg3In2Hg
_chemical_formula_sum   'Pr2 Nd1 Mg3 In2 Hg1'
_cell_volume   246.47190724
_cell_formula_units_Z   1
loop_
 _symmetry_equiv_pos_site_id
 _symmetry_equiv_pos_as_xyz
  1  'x, y, z'
loop_
 _atom_site_type_symbol
 _atom_site_label
 _atom_site_symmetry_multiplicity
 _atom_site_fract_x
 _atom_site_fract_y
 _atom_site_fract_z
 _atom_site_occupancy
  Pr  Pr0  1  0.581419  0.000003  0.000000  1
  Pr  Pr1  1  0.000003  0.581419  0.000000  1
  Nd  Nd2  1  0.418575  0.418575  0.000000  1
  Mg  Mg3  1  0.238674  0.000130  0.500000  1
  Mg  Mg4  1  0.000130  0.238674  0.500000  1
  Mg  Mg5  1  0.761263  0.761263  0.500000  1
  In  In6  1  0.333403  0.666384  0.500000  1
  In  In7  1  0.666384  0.333403  0.500000  1
  Hg  Hg8  1  0.000149  0.000149  0.000000  1
