# generated using pymatgen
data_InFe10B4SbO20
_symmetry_space_group_name_H-M   'P 1'
_cell_length_a   6.48322869
_cell_length_b   6.48322920
_cell_length_c   11.91990560
_cell_angle_alpha   69.24465300
_cell_angle_beta   69.24465088
_cell_angle_gamma   59.28178948
_symmetry_Int_Tables_number   1
_chemical_formula_structural   InFe10B4SbO20
_chemical_formula_sum   'In1 Fe10 B4 Sb1 O20'
_cell_volume   393.29299135
_cell_formula_units_Z   1
loop_
 _symmetry_equiv_pos_site_id
 _symmetry_equiv_pos_as_xyz
  1  'x, y, z'
loop_
 _atom_site_type_symbol
 _atom_site_label
 _atom_site_symmetry_multiplicity
 _atom_site_fract_x
 _atom_site_fract_y
 _atom_site_fract_z
 _atom_site_occupancy
  In  In0  1  0.500000  0.500000  0.000000  1
  Fe  Fe1  1  0.000000  0.000000  0.000000  1
  Fe  Fe2  1  0.753748  0.753748  0.000581  1
  Fe  Fe3  1  0.246252  0.246252  0.999419  1
  Fe  Fe4  1  0.217956  0.720745  0.775821  1
  Fe  Fe5  1  0.720745  0.217956  0.775821  1
  Fe  Fe6  1  0.279255  0.782044  0.224179  1
  Fe  Fe7  1  0.782044  0.279255  0.224179  1
  Fe  Fe8  1  0.500000  0.000000  0.500000  1
  Fe  Fe9  1  0.000000  0.500000  0.500000  1
  Fe  Fe10  1  0.000000  0.000000  0.500000  1
  B  B11  1  0.236564  0.236564  0.740730  1
  B  B12  1  0.739638  0.739638  0.732987  1
  B  B13  1  0.763436  0.763436  0.259270  1
  B  B14  1  0.260362  0.260362  0.267013  1
  Sb  Sb15  1  0.500000  0.500000  0.500000  1
  O  O16  1  0.140258  0.640369  0.962927  1
  O  O17  1  0.640369  0.140258  0.962927  1
  O  O18  1  0.359631  0.859742  0.037073  1
  O  O19  1  0.859742  0.359631  0.037073  1
  O  O20  1  0.605425  0.605425  0.794043  1
  O  O21  1  0.103578  0.103578  0.793578  1
  O  O22  1  0.394575  0.394575  0.205957  1
  O  O23  1  0.896422  0.896422  0.206422  1
  O  O24  1  0.313335  0.773946  0.589585  1
  O  O25  1  0.773946  0.313335  0.589585  1
  O  O26  1  0.226054  0.686665  0.410415  1
  O  O27  1  0.686665  0.226054  0.410415  1
  O  O28  1  0.317557  0.317557  0.800145  1
  O  O29  1  0.821783  0.821783  0.792712  1
  O  O30  1  0.682443  0.682443  0.199855  1
  O  O31  1  0.178217  0.178217  0.207288  1
  O  O32  1  0.297445  0.297445  0.607150  1
  O  O33  1  0.792881  0.792881  0.601646  1
  O  O34  1  0.702555  0.702555  0.392850  1
  O  O35  1  0.207119  0.207119  0.398354  1
