# generated using pymatgen
data_RbEu2Si4O10F
_symmetry_space_group_name_H-M   'P 1'
_cell_length_a   8.58657000
_cell_length_b   11.58420467
_cell_length_c   13.00844500
_cell_angle_alpha   56.61107542
_cell_angle_beta   90.00000000
_cell_angle_gamma   90.00000000
_symmetry_Int_Tables_number   1
_chemical_formula_structural   RbEu2Si4O10F
_chemical_formula_sum   'Rb4 Eu8 Si16 O40 F4'
_cell_volume   1080.37370402
_cell_formula_units_Z   4
loop_
 _symmetry_equiv_pos_site_id
 _symmetry_equiv_pos_as_xyz
  1  'x, y, z'
loop_
 _atom_site_type_symbol
 _atom_site_label
 _atom_site_symmetry_multiplicity
 _atom_site_fract_x
 _atom_site_fract_y
 _atom_site_fract_z
 _atom_site_occupancy
  Rb  Rb0  1  0.214988  0.898389  0.569994  1
  Rb  Rb1  1  0.785012  0.101611  0.430006  1
  Rb  Rb2  1  0.714988  0.101611  0.930006  1
  Rb  Rb3  1  0.285012  0.898389  0.069994  1
  Eu  Eu4  1  0.021124  0.565239  0.220149  1
  Eu  Eu5  1  0.521124  0.434761  0.279851  1
  Eu  Eu6  1  0.717630  0.418745  0.038966  1
  Eu  Eu7  1  0.478876  0.565239  0.720149  1
  Eu  Eu8  1  0.978876  0.434761  0.779851  1
  Eu  Eu9  1  0.217630  0.581255  0.461034  1
  Eu  Eu10  1  0.782370  0.418745  0.538966  1
  Eu  Eu11  1  0.282370  0.581255  0.961034  1
  Si  Si12  1  0.875764  0.743676  0.504158  1
  Si  Si13  1  0.375764  0.256324  0.995842  1
  Si  Si14  1  0.466039  0.125377  0.256145  1
  Si  Si15  1  0.839935  0.751459  0.732140  1
  Si  Si16  1  0.474825  0.192558  0.585273  1
  Si  Si17  1  0.533961  0.874623  0.743855  1
  Si  Si18  1  0.525175  0.807442  0.414727  1
  Si  Si19  1  0.033961  0.125377  0.756145  1
  Si  Si20  1  0.025175  0.192558  0.085273  1
  Si  Si21  1  0.339935  0.248541  0.767860  1
  Si  Si22  1  0.124236  0.256324  0.495842  1
  Si  Si23  1  0.974825  0.807442  0.914727  1
  Si  Si24  1  0.160065  0.248541  0.267860  1
  Si  Si25  1  0.624236  0.743676  0.004158  1
  Si  Si26  1  0.660065  0.751459  0.232140  1
  Si  Si27  1  0.966039  0.874623  0.243855  1
  O  O28  1  0.542503  0.599020  0.047101  1
  O  O29  1  0.621262  0.269521  0.496816  1
  O  O30  1  0.427927  0.749249  0.766918  1
  O  O31  1  0.957497  0.599020  0.547101  1
  O  O32  1  0.040250  0.026706  0.139203  1
  O  O33  1  0.815824  0.733744  0.998426  1
  O  O34  1  0.521509  0.787808  0.298372  1
  O  O35  1  0.719455  0.594447  0.311669  1
  O  O36  1  0.184176  0.266256  0.001574  1
  O  O37  1  0.585044  0.794072  0.097972  1
  O  O38  1  0.280545  0.405553  0.688331  1
  O  O39  1  0.927927  0.250751  0.733082  1
  O  O40  1  0.414956  0.205928  0.902028  1
  O  O41  1  0.478491  0.212192  0.701628  1
  O  O42  1  0.219455  0.405553  0.188331  1
  O  O43  1  0.793594  0.872325  0.189425  1
  O  O44  1  0.206406  0.127675  0.810575  1
  O  O45  1  0.085044  0.205928  0.402028  1
  O  O46  1  0.459750  0.026706  0.639203  1
  O  O47  1  0.706406  0.872325  0.689425  1
  O  O48  1  0.878738  0.269521  0.996816  1
  O  O49  1  0.684176  0.733744  0.498426  1
  O  O50  1  0.072073  0.749249  0.266918  1
  O  O51  1  0.121262  0.730479  0.003184  1
  O  O52  1  0.780545  0.594447  0.811669  1
  O  O53  1  0.572073  0.250751  0.233082  1
  O  O54  1  0.042503  0.400980  0.452899  1
  O  O55  1  0.561250  0.874488  0.870222  1
  O  O56  1  0.378738  0.730479  0.503184  1
  O  O57  1  0.021509  0.212192  0.201628  1
  O  O58  1  0.293594  0.127675  0.310575  1
  O  O59  1  0.457497  0.400980  0.952899  1
  O  O60  1  0.540250  0.973294  0.360797  1
  O  O61  1  0.914956  0.794072  0.597972  1
  O  O62  1  0.061250  0.125512  0.629778  1
  O  O63  1  0.978491  0.787808  0.798372  1
  O  O64  1  0.438750  0.125512  0.129778  1
  O  O65  1  0.959750  0.973294  0.860797  1
  O  O66  1  0.938750  0.874488  0.370222  1
  O  O67  1  0.315824  0.266256  0.501574  1
  F  F68  1  0.314707  0.570441  0.290189  1
  F  F69  1  0.685293  0.429559  0.709811  1
  F  F70  1  0.814707  0.429559  0.209811  1
  F  F71  1  0.185293  0.570441  0.790189  1
