# generated using pymatgen
data_KGa(CO3)2
_symmetry_space_group_name_H-M   'P 1'
_cell_length_a   6.20143608
_cell_length_b   6.20143547
_cell_length_c   6.74107669
_cell_angle_alpha   103.71309929
_cell_angle_beta   103.71309836
_cell_angle_gamma   95.03117595
_symmetry_Int_Tables_number   1
_chemical_formula_structural   KGa(CO3)2
_chemical_formula_sum   'K2 Ga2 C4 O12'
_cell_volume   241.81746464
_cell_formula_units_Z   2
loop_
 _symmetry_equiv_pos_site_id
 _symmetry_equiv_pos_as_xyz
  1  'x, y, z'
loop_
 _atom_site_type_symbol
 _atom_site_label
 _atom_site_symmetry_multiplicity
 _atom_site_fract_x
 _atom_site_fract_y
 _atom_site_fract_z
 _atom_site_occupancy
  K  K0  1  0.900395  0.099605  0.250000  1
  K  K1  1  0.099605  0.900395  0.750001  1
  Ga  Ga2  1  0.340780  0.659220  0.250000  1
  Ga  Ga3  1  0.659221  0.340780  0.750001  1
  C  C4  1  0.400960  0.188195  0.296031  1
  C  C5  1  0.811806  0.599040  0.203969  1
  C  C6  1  0.188194  0.400960  0.796030  1
  C  C7  1  0.599040  0.811806  0.703970  1
  O  O8  1  0.746482  0.409869  0.059966  1
  O  O9  1  0.287992  0.329593  0.216936  1
  O  O10  1  0.316526  0.978638  0.213841  1
  O  O11  1  0.021362  0.683475  0.286159  1
  O  O12  1  0.670407  0.712009  0.283064  1
  O  O13  1  0.590132  0.253518  0.440035  1
  O  O14  1  0.409868  0.746482  0.559965  1
  O  O15  1  0.329593  0.287992  0.716936  1
  O  O16  1  0.978638  0.316526  0.713842  1
  O  O17  1  0.683475  0.021362  0.786159  1
  O  O18  1  0.712009  0.670408  0.783065  1
  O  O19  1  0.253518  0.590132  0.940034  1
