# generated using pymatgen
data_U6TiVP10
_symmetry_space_group_name_H-M   'P 1'
_cell_length_a   8.07306000
_cell_length_b   8.07306083
_cell_length_c   5.49675300
_cell_angle_alpha   90.00000000
_cell_angle_beta   90.00000000
_cell_angle_gamma   119.99999662
_symmetry_Int_Tables_number   1
_chemical_formula_structural   U6TiVP10
_chemical_formula_sum   'U6 Ti1 V1 P10'
_cell_volume   310.25105966
_cell_formula_units_Z   1
loop_
 _symmetry_equiv_pos_site_id
 _symmetry_equiv_pos_as_xyz
  1  'x, y, z'
loop_
 _atom_site_type_symbol
 _atom_site_label
 _atom_site_symmetry_multiplicity
 _atom_site_fract_x
 _atom_site_fract_y
 _atom_site_fract_z
 _atom_site_occupancy
  U  U0  1  0.385852  0.385852  0.748245  1
  U  U1  1  0.614148  0.000000  0.748245  1
  U  U2  1  0.000000  0.614148  0.748245  1
  U  U3  1  0.614148  0.614148  0.251755  1
  U  U4  1  0.385852  0.000000  0.251755  1
  U  U5  1  0.000000  0.385852  0.251755  1
  Ti  Ti6  1  0.000000  0.000000  0.000000  1
  V  V7  1  0.000000  0.000000  0.500000  1
  P  P8  1  0.740371  0.740371  0.745334  1
  P  P9  1  0.259629  0.000000  0.745334  1
  P  P10  1  0.000000  0.259629  0.745334  1
  P  P11  1  0.259629  0.259629  0.254666  1
  P  P12  1  0.740371  0.000000  0.254666  1
  P  P13  1  0.000000  0.740371  0.254666  1
  P  P14  1  0.666667  0.333333  0.000000  1
  P  P15  1  0.333333  0.666667  0.000000  1
  P  P16  1  0.333333  0.666667  0.500000  1
  P  P17  1  0.666667  0.333333  0.500000  1
