# generated using pymatgen
data_Dy3ThFe8
_symmetry_space_group_name_H-M   'P 1'
_cell_length_a   5.17294400
_cell_length_b   5.17294414
_cell_length_c   8.93560620
_cell_angle_alpha   73.17456529
_cell_angle_beta   90.00000000
_cell_angle_gamma   119.99999910
_symmetry_Int_Tables_number   1
_chemical_formula_structural   Dy3ThFe8
_chemical_formula_sum   'Dy3 Th1 Fe8'
_cell_volume   195.16715316
_cell_formula_units_Z   1
loop_
 _symmetry_equiv_pos_site_id
 _symmetry_equiv_pos_as_xyz
  1  'x, y, z'
loop_
 _atom_site_type_symbol
 _atom_site_label
 _atom_site_symmetry_multiplicity
 _atom_site_fract_x
 _atom_site_fract_y
 _atom_site_fract_z
 _atom_site_occupancy
  Dy  Dy0  1  0.374944  0.749889  0.875167  1
  Dy  Dy1  1  0.001344  0.002688  0.995968  1
  Dy  Dy2  1  0.498776  0.997553  0.503670  1
  Th  Th3  1  0.874933  0.749865  0.375202  1
  Fe  Fe4  1  0.437850  0.376171  0.185979  1
  Fe  Fe5  1  0.937381  0.373620  0.688998  1
  Fe  Fe6  1  0.437850  0.875700  0.185979  1
  Fe  Fe7  1  0.937381  0.874762  0.688998  1
  Fe  Fe8  1  0.186978  0.373955  0.439067  1
  Fe  Fe9  1  0.688001  0.376004  0.935995  1
  Fe  Fe10  1  0.938321  0.376171  0.185979  1
  Fe  Fe11  1  0.436239  0.373620  0.688998  1
