# generated using pymatgen
data_Li2Dy17Y(Cd3Ni)2
_symmetry_space_group_name_H-M   'P 1'
_cell_length_a   9.48305103
_cell_length_b   9.48428670
_cell_length_c   9.57232200
_cell_angle_alpha   90.00000000
_cell_angle_beta   90.00000000
_cell_angle_gamma   120.00429846
_symmetry_Int_Tables_number   1
_chemical_formula_structural   Li2Dy17Y(Cd3Ni)2
_chemical_formula_sum   'Li2 Dy17 Y1 Cd6 Ni2'
_cell_volume   745.55876369
_cell_formula_units_Z   1
loop_
 _symmetry_equiv_pos_site_id
 _symmetry_equiv_pos_as_xyz
  1  'x, y, z'
loop_
 _atom_site_type_symbol
 _atom_site_label
 _atom_site_symmetry_multiplicity
 _atom_site_fract_x
 _atom_site_fract_y
 _atom_site_fract_z
 _atom_site_occupancy
  Li  Li0  1  0.999981  0.999990  0.500018  1
  Li  Li1  1  0.999981  0.999990  0.999982  1
  Dy  Dy2  1  0.543534  0.456493  0.250000  1
  Dy  Dy3  1  0.543534  0.087041  0.250000  1
  Dy  Dy4  1  0.913051  0.456525  0.250000  1
  Dy  Dy5  1  0.456614  0.543470  0.750000  1
  Dy  Dy6  1  0.456614  0.913144  0.750000  1
  Dy  Dy7  1  0.208007  0.792163  0.438465  1
  Dy  Dy8  1  0.208007  0.415844  0.438465  1
  Dy  Dy9  1  0.584055  0.792027  0.438640  1
  Dy  Dy10  1  0.791941  0.207804  0.561358  1
  Dy  Dy11  1  0.791941  0.584137  0.561358  1
  Dy  Dy12  1  0.415887  0.207944  0.561448  1
  Dy  Dy13  1  0.791941  0.207804  0.938642  1
  Dy  Dy14  1  0.791941  0.584137  0.938642  1
  Dy  Dy15  1  0.415887  0.207944  0.938552  1
  Dy  Dy16  1  0.208007  0.792163  0.061535  1
  Dy  Dy17  1  0.208007  0.415844  0.061535  1
  Dy  Dy18  1  0.584055  0.792027  0.061360  1
  Y  Y19  1  0.087036  0.543518  0.750000  1
  Cd  Cd20  1  0.892162  0.107825  0.250000  1
  Cd  Cd21  1  0.892162  0.784336  0.250000  1
  Cd  Cd22  1  0.215647  0.107823  0.250000  1
  Cd  Cd23  1  0.107841  0.892266  0.750000  1
  Cd  Cd24  1  0.107841  0.215576  0.750000  1
  Cd  Cd25  1  0.784287  0.892144  0.750000  1
  Ni  Ni26  1  0.333330  0.666665  0.250000  1
  Ni  Ni27  1  0.666711  0.333355  0.750000  1
