# generated using pymatgen
data_Ta4SiB2W
_symmetry_space_group_name_H-M   'P 1'
_cell_length_a   7.25980134
_cell_length_b   7.25980173
_cell_length_c   7.25980650
_cell_angle_alpha   129.58696506
_cell_angle_beta   129.58696427
_cell_angle_gamma   74.06806796
_symmetry_Int_Tables_number   1
_chemical_formula_structural   Ta4SiB2W
_chemical_formula_sum   'Ta8 Si2 B4 W2'
_cell_volume   221.59892315
_cell_formula_units_Z   2
loop_
 _symmetry_equiv_pos_site_id
 _symmetry_equiv_pos_as_xyz
  1  'x, y, z'
loop_
 _atom_site_type_symbol
 _atom_site_label
 _atom_site_symmetry_multiplicity
 _atom_site_fract_x
 _atom_site_fract_y
 _atom_site_fract_z
 _atom_site_occupancy
  Ta  Ta0  1  0.806599  0.971926  0.500001  1
  Ta  Ta1  1  0.306598  0.806598  0.834673  1
  Ta  Ta2  1  0.193401  0.028074  0.499999  1
  Ta  Ta3  1  0.528074  0.693401  0.499999  1
  Ta  Ta4  1  0.028075  0.528075  0.834673  1
  Ta  Ta5  1  0.693402  0.193402  0.165327  1
  Ta  Ta6  1  0.971925  0.471925  0.165327  1
  Ta  Ta7  1  0.471926  0.306599  0.500001  1
  Si  Si8  1  0.750000  0.750000  0.000000  1
  Si  Si9  1  0.250000  0.250000  0.000000  1
  B  B10  1  0.380404  0.880404  0.260808  1
  B  B11  1  0.880404  0.619596  0.500000  1
  B  B12  1  0.619596  0.119596  0.739192  1
  B  B13  1  0.119596  0.380404  0.500000  1
  W  W14  1  0.000000  0.000000  0.000000  1
  W  W15  1  0.500000  0.500000  0.000000  1
