# generated using pymatgen
data_Li3Y6Os2Ru
_symmetry_space_group_name_H-M   'P 1'
_cell_length_a   4.97101000
_cell_length_b   6.90827000
_cell_length_c   14.71225100
_cell_angle_alpha   90.00005214
_cell_angle_beta   90.00194958
_cell_angle_gamma   89.99988431
_symmetry_Int_Tables_number   1
_chemical_formula_structural   Li3Y6Os2Ru
_chemical_formula_sum   'Li6 Y12 Os4 Ru2'
_cell_volume   505.23457743
_cell_formula_units_Z   2
loop_
 _symmetry_equiv_pos_site_id
 _symmetry_equiv_pos_as_xyz
  1  'x, y, z'
loop_
 _atom_site_type_symbol
 _atom_site_label
 _atom_site_symmetry_multiplicity
 _atom_site_fract_x
 _atom_site_fract_y
 _atom_site_fract_z
 _atom_site_occupancy
  Li  Li0  1  0.000008  0.500000  0.999635  1
  Li  Li1  1  0.499723  0.000000  0.167083  1
  Li  Li2  1  0.999594  0.500000  0.333868  1
  Li  Li3  1  0.499988  0.000000  0.500118  1
  Li  Li4  1  0.000365  0.500000  0.666559  1
  Li  Li5  1  0.500300  0.000000  0.832804  1
  Y  Y6  1  0.500012  0.253207  0.999609  1
  Y  Y7  1  0.500012  0.746793  0.999609  1
  Y  Y8  1  0.999764  0.246785  0.167043  1
  Y  Y9  1  0.999764  0.753217  0.167043  1
  Y  Y10  1  0.499735  0.251891  0.333920  1
  Y  Y11  1  0.499736  0.748111  0.333920  1
  Y  Y12  1  0.000002  0.247256  0.500173  1
  Y  Y13  1  0.000002  0.752744  0.500173  1
  Y  Y14  1  0.500260  0.252748  0.666499  1
  Y  Y15  1  0.500261  0.747254  0.666499  1
  Y  Y16  1  0.000249  0.248116  0.832754  1
  Y  Y17  1  0.000249  0.751885  0.832754  1
  Os  Os18  1  0.999694  0.000000  0.332758  1
  Os  Os19  1  0.500007  0.500000  0.499812  1
  Os  Os20  1  0.000316  0.000000  0.666852  1
  Os  Os21  1  0.500299  0.500000  0.833926  1
  Ru  Ru22  1  0.000011  0.000000  0.000441  1
  Ru  Ru23  1  0.499659  0.500000  0.166150  1
