# generated using pymatgen
data_Dy3TmFe8(PRh)12
_symmetry_space_group_name_H-M   'P 1'
_cell_length_a   3.81272500
_cell_length_b   10.58186133
_cell_length_c   12.27447133
_cell_angle_alpha   90.02749718
_cell_angle_beta   90.00000000
_cell_angle_gamma   90.00000000
_symmetry_Int_Tables_number   1
_chemical_formula_structural   Dy3TmFe8(PRh)12
_chemical_formula_sum   'Dy3 Tm1 Fe8 P12 Rh12'
_cell_volume   495.22241505
_cell_formula_units_Z   1
loop_
 _symmetry_equiv_pos_site_id
 _symmetry_equiv_pos_as_xyz
  1  'x, y, z'
loop_
 _atom_site_type_symbol
 _atom_site_label
 _atom_site_symmetry_multiplicity
 _atom_site_fract_x
 _atom_site_fract_y
 _atom_site_fract_z
 _atom_site_occupancy
  Dy  Dy0  1  0.250000  0.578752  0.710261  1
  Dy  Dy1  1  0.250000  0.921369  0.210414  1
  Dy  Dy2  1  0.750000  0.421215  0.289677  1
  Tm  Tm3  1  0.750000  0.078577  0.789611  1
  Fe  Fe4  1  0.250000  0.876603  0.698814  1
  Fe  Fe5  1  0.250000  0.624184  0.198238  1
  Fe  Fe6  1  0.750000  0.124037  0.302058  1
  Fe  Fe7  1  0.750000  0.375212  0.801415  1
  Fe  Fe8  1  0.250000  0.458667  0.934338  1
  Fe  Fe9  1  0.250000  0.040966  0.435247  1
  Fe  Fe10  1  0.750000  0.540811  0.065229  1
  Fe  Fe11  1  0.750000  0.959612  0.566304  1
  P  P12  1  0.250000  0.440708  0.111503  1
  P  P13  1  0.250000  0.059108  0.612676  1
  P  P14  1  0.750000  0.558849  0.888133  1
  P  P15  1  0.750000  0.941087  0.389007  1
  P  P16  1  0.250000  0.271515  0.863417  1
  P  P17  1  0.250000  0.227288  0.364066  1
  P  P18  1  0.750000  0.727783  0.135895  1
  P  P19  1  0.750000  0.772703  0.636059  1
  P  P20  1  0.250000  0.602067  0.380854  1
  P  P21  1  0.250000  0.898885  0.880322  1
  P  P22  1  0.750000  0.398117  0.619018  1
  P  P23  1  0.750000  0.101975  0.119334  1
  Rh  Rh24  1  0.250000  0.714375  0.990826  1
  Rh  Rh25  1  0.250000  0.786185  0.491189  1
  Rh  Rh26  1  0.750000  0.285597  0.008683  1
  Rh  Rh27  1  0.750000  0.214203  0.509151  1
  Rh  Rh28  1  0.250000  0.408129  0.479116  1
  Rh  Rh29  1  0.250000  0.092016  0.977133  1
  Rh  Rh30  1  0.750000  0.592050  0.520970  1
  Rh  Rh31  1  0.750000  0.908546  0.020999  1
  Rh  Rh32  1  0.250000  0.231714  0.173716  1
  Rh  Rh33  1  0.250000  0.266790  0.674199  1
  Rh  Rh34  1  0.750000  0.767913  0.826078  1
  Rh  Rh35  1  0.750000  0.732390  0.326051  1
