# generated using pymatgen
data_Tb3In3Ni2Au
_symmetry_space_group_name_H-M   'P 1'
_cell_length_a   7.71882602
_cell_length_b   7.71327670
_cell_length_c   3.72746900
_cell_angle_alpha   90.00000000
_cell_angle_beta   90.00000000
_cell_angle_gamma   120.01550077
_symmetry_Int_Tables_number   1
_chemical_formula_structural   Tb3In3Ni2Au
_chemical_formula_sum   'Tb3 In3 Ni2 Au1'
_cell_volume   192.16176489
_cell_formula_units_Z   1
loop_
 _symmetry_equiv_pos_site_id
 _symmetry_equiv_pos_as_xyz
  1  'x, y, z'
loop_
 _atom_site_type_symbol
 _atom_site_label
 _atom_site_symmetry_multiplicity
 _atom_site_fract_x
 _atom_site_fract_y
 _atom_site_fract_z
 _atom_site_occupancy
  Tb  Tb0  1  0.017073  0.599561  0.500000  1
  Tb  Tb1  1  0.582063  0.982409  0.500000  1
  Tb  Tb2  1  0.400375  0.418048  0.500000  1
  In  In3  1  0.747299  0.751068  0.000000  1
  In  In4  1  0.003204  0.252390  0.000000  1
  In  In5  1  0.249665  0.996535  0.000000  1
  Ni  Ni6  1  0.000649  0.999982  0.500000  1
  Ni  Ni7  1  0.332941  0.666570  0.000000  1
  Au  Au8  1  0.666732  0.333437  0.000000  1
