# generated using pymatgen
data_LiTb3Cd3PdPt
_symmetry_space_group_name_H-M   'P 1'
_cell_length_a   7.70620900
_cell_length_b   7.70620946
_cell_length_c   3.85318100
_cell_angle_alpha   90.00000000
_cell_angle_beta   90.00000000
_cell_angle_gamma   120.00000233
_symmetry_Int_Tables_number   1
_chemical_formula_structural   LiTb3Cd3PdPt
_chemical_formula_sum   'Li1 Tb3 Cd3 Pd1 Pt1'
_cell_volume   198.16713200
_cell_formula_units_Z   1
loop_
 _symmetry_equiv_pos_site_id
 _symmetry_equiv_pos_as_xyz
  1  'x, y, z'
loop_
 _atom_site_type_symbol
 _atom_site_label
 _atom_site_symmetry_multiplicity
 _atom_site_fract_x
 _atom_site_fract_y
 _atom_site_fract_z
 _atom_site_occupancy
  Li  Li0  1  0.000000  0.000000  0.000000  1
  Tb  Tb1  1  0.572043  0.992208  0.000000  1
  Tb  Tb2  1  0.007792  0.579835  0.000000  1
  Tb  Tb3  1  0.420165  0.427957  0.000000  1
  Cd  Cd4  1  0.248311  0.005467  0.500000  1
  Cd  Cd5  1  0.994533  0.242844  0.500000  1
  Cd  Cd6  1  0.757156  0.751689  0.500000  1
  Pd  Pd7  1  0.666667  0.333333  0.500000  1
  Pt  Pt8  1  0.333333  0.666667  0.500000  1
