# generated using pymatgen
data_Tb3Er3Hg10
_symmetry_space_group_name_H-M   'P 1'
_cell_length_a   6.38635092
_cell_length_b   6.38635059
_cell_length_c   10.18032196
_cell_angle_alpha   90.11049718
_cell_angle_beta   90.11049604
_cell_angle_gamma   105.15727492
_symmetry_Int_Tables_number   1
_chemical_formula_structural   Tb3Er3Hg10
_chemical_formula_sum   'Tb3 Er3 Hg10'
_cell_volume   400.76284927
_cell_formula_units_Z   1
loop_
 _symmetry_equiv_pos_site_id
 _symmetry_equiv_pos_as_xyz
  1  'x, y, z'
loop_
 _atom_site_type_symbol
 _atom_site_label
 _atom_site_symmetry_multiplicity
 _atom_site_fract_x
 _atom_site_fract_y
 _atom_site_fract_z
 _atom_site_occupancy
  Tb  Tb0  1  0.210967  0.789033  0.500000  1
  Tb  Tb1  1  0.212653  0.787347  0.000000  1
  Tb  Tb2  1  0.788500  0.211500  0.500000  1
  Er  Er3  1  0.582202  0.580751  0.249975  1
  Er  Er4  1  0.419249  0.417798  0.750025  1
  Er  Er5  1  0.786337  0.213663  0.000000  1
  Hg  Hg6  1  0.978341  0.978024  0.248602  1
  Hg  Hg7  1  0.021976  0.021659  0.751398  1
  Hg  Hg8  1  0.295684  0.297361  0.032180  1
  Hg  Hg9  1  0.702639  0.704316  0.967820  1
  Hg  Hg10  1  0.298394  0.298182  0.466312  1
  Hg  Hg11  1  0.701818  0.701606  0.533688  1
  Hg  Hg12  1  0.485953  0.046007  0.248597  1
  Hg  Hg13  1  0.953993  0.514047  0.751403  1
  Hg  Hg14  1  0.517491  0.956196  0.750757  1
  Hg  Hg15  1  0.043804  0.482509  0.249243  1
