# generated using pymatgen
data_YbPr3(AlPd)4
_symmetry_space_group_name_H-M   'P 1'
_cell_length_a   4.52546900
_cell_length_b   7.11742614
_cell_length_c   7.93293409
_cell_angle_alpha   91.14145510
_cell_angle_beta   90.00000000
_cell_angle_gamma   90.00000000
_symmetry_Int_Tables_number   1
_chemical_formula_structural   YbPr3(AlPd)4
_chemical_formula_sum   'Yb1 Pr3 Al4 Pd4'
_cell_volume   255.46665379
_cell_formula_units_Z   1
loop_
 _symmetry_equiv_pos_site_id
 _symmetry_equiv_pos_as_xyz
  1  'x, y, z'
loop_
 _atom_site_type_symbol
 _atom_site_label
 _atom_site_symmetry_multiplicity
 _atom_site_fract_x
 _atom_site_fract_y
 _atom_site_fract_z
 _atom_site_occupancy
  Yb  Yb0  1  0.750000  0.467268  0.819904  1
  Pr  Pr1  1  0.250000  0.036559  0.321673  1
  Pr  Pr2  1  0.250000  0.532850  0.174286  1
  Pr  Pr3  1  0.750000  0.963319  0.680945  1
  Al  Al4  1  0.250000  0.142997  0.935958  1
  Al  Al5  1  0.250000  0.639662  0.564079  1
  Al  Al6  1  0.750000  0.856246  0.063475  1
  Al  Al7  1  0.750000  0.359415  0.440149  1
  Pd  Pd8  1  0.250000  0.284819  0.624991  1
  Pd  Pd9  1  0.250000  0.778083  0.882722  1
  Pd  Pd10  1  0.750000  0.718195  0.379439  1
  Pd  Pd11  1  0.750000  0.220588  0.112377  1
