# generated using pymatgen
data_Ho4GaRu7
_symmetry_space_group_name_H-M   'P 1'
_cell_length_a   5.35444501
_cell_length_b   5.35444402
_cell_length_c   8.62665703
_cell_angle_alpha   89.99231958
_cell_angle_beta   90.00768042
_cell_angle_gamma   119.95637824
_symmetry_Int_Tables_number   1
_chemical_formula_structural   Ho4GaRu7
_chemical_formula_sum   'Ho4 Ga1 Ru7'
_cell_volume   214.28547576
_cell_formula_units_Z   1
loop_
 _symmetry_equiv_pos_site_id
 _symmetry_equiv_pos_as_xyz
  1  'x, y, z'
loop_
 _atom_site_type_symbol
 _atom_site_label
 _atom_site_symmetry_multiplicity
 _atom_site_fract_x
 _atom_site_fract_y
 _atom_site_fract_z
 _atom_site_occupancy
  Ho  Ho0  1  0.666699  0.333301  0.570637  1
  Ho  Ho1  1  0.333301  0.666699  0.429363  1
  Ho  Ho2  1  0.333297  0.666703  0.064629  1
  Ho  Ho3  1  0.666703  0.333297  0.935371  1
  Ga  Ga4  1  0.000000  0.000000  0.500000  1
  Ru  Ru5  1  0.000000  0.000000  0.000000  1
  Ru  Ru6  1  0.171574  0.342987  0.749065  1
  Ru  Ru7  1  0.171463  0.828537  0.749065  1
  Ru  Ru8  1  0.657013  0.828426  0.749065  1
  Ru  Ru9  1  0.828426  0.657013  0.250935  1
  Ru  Ru10  1  0.828537  0.171463  0.250935  1
  Ru  Ru11  1  0.342987  0.171574  0.250935  1
