# generated using pymatgen
data_YbAlZn9Ag
_symmetry_space_group_name_H-M   'P 1'
_cell_length_a   8.34413462
_cell_length_b   8.34413348
_cell_length_c   8.35738600
_cell_angle_alpha   99.87917062
_cell_angle_beta   100.03195824
_cell_angle_gamma   130.82001423
_symmetry_Int_Tables_number   1
_chemical_formula_structural   YbAlZn9Ag
_chemical_formula_sum   'Yb2 Al2 Zn18 Ag2'
_cell_volume   400.54313132
_cell_formula_units_Z   2
loop_
 _symmetry_equiv_pos_site_id
 _symmetry_equiv_pos_as_xyz
  1  'x, y, z'
loop_
 _atom_site_type_symbol
 _atom_site_label
 _atom_site_symmetry_multiplicity
 _atom_site_fract_x
 _atom_site_fract_y
 _atom_site_fract_z
 _atom_site_occupancy
  Yb  Yb0  1  0.247989  0.747990  0.500000  1
  Yb  Yb1  1  0.995742  0.995742  0.999999  1
  Al  Al2  1  0.426613  0.096507  0.915225  1
  Al  Al3  1  0.181282  0.511389  0.084775  1
  Zn  Zn4  1  0.627380  0.378195  0.748155  1
  Zn  Zn5  1  0.122841  0.373265  0.746569  1
  Zn  Zn6  1  0.626695  0.376271  0.253430  1
  Zn  Zn7  1  0.630039  0.879224  0.251846  1
  Zn  Zn8  1  0.180718  0.095483  0.669414  1
  Zn  Zn9  1  0.759344  0.930085  0.586566  1
  Zn  Zn10  1  0.343520  0.172777  0.413434  1
  Zn  Zn11  1  0.426069  0.511305  0.330586  1
  Zn  Zn12  1  0.906844  0.820179  0.328854  1
  Zn  Zn13  1  0.491325  0.577991  0.671146  1
  Zn  Zn14  1  0.071309  0.243463  0.411173  1
  Zn  Zn15  1  0.832288  0.660135  0.588827  1
  Zn  Zn16  1  0.068921  0.654644  0.829007  1
  Zn  Zn17  1  0.490120  0.816261  0.912952  1
  Zn  Zn18  1  0.903308  0.577168  0.087048  1
  Zn  Zn19  1  0.825638  0.239914  0.170994  1
  Zn  Zn20  1  0.341764  0.929895  0.174560  1
  Zn  Zn21  1  0.755336  0.167205  0.825439  1
  Ag  Ag22  1  0.495481  0.495481  0.000000  1
  Ag  Ag23  1  0.749429  0.249430  0.500000  1
