# generated using pymatgen
data_LiGd(BeB14)2
_symmetry_space_group_name_H-M   'P 1'
_cell_length_a   7.17980992
_cell_length_b   7.17981107
_cell_length_c   7.17981100
_cell_angle_alpha   132.90483453
_cell_angle_beta   110.52701454
_cell_angle_gamma   88.19879987
_symmetry_Int_Tables_number   1
_chemical_formula_structural   LiGd(BeB14)2
_chemical_formula_sum   'Li1 Gd1 Be2 B28'
_cell_volume   242.02331182
_cell_formula_units_Z   1
loop_
 _symmetry_equiv_pos_site_id
 _symmetry_equiv_pos_as_xyz
  1  'x, y, z'
loop_
 _atom_site_type_symbol
 _atom_site_label
 _atom_site_symmetry_multiplicity
 _atom_site_fract_x
 _atom_site_fract_y
 _atom_site_fract_z
 _atom_site_occupancy
  Li  Li0  1  0.128666  0.750000  0.378666  1
  Gd  Gd1  1  0.893868  0.250000  0.643868  1
  Be  Be2  1  0.494012  0.505225  0.499237  1
  Be  Be3  1  0.494012  0.994775  0.988787  1
  B  B4  1  0.721635  0.719727  0.322569  1
  B  B5  1  0.709054  0.343804  0.365251  1
  B  B6  1  0.872265  0.666523  0.700370  1
  B  B7  1  0.127120  0.826426  0.790626  1
  B  B8  1  0.533845  0.833477  0.205742  1
  B  B9  1  0.464200  0.673574  0.300694  1
  B  B10  1  0.127120  0.336494  0.300694  1
  B  B11  1  0.872265  0.171897  0.205742  1
  B  B12  1  0.464200  0.163506  0.790626  1
  B  B13  1  0.533845  0.328103  0.700370  1
  B  B14  1  0.102843  0.780273  0.001908  1
  B  B15  1  0.897867  0.896199  0.677176  1
  B  B16  1  0.897867  0.220693  0.001670  1
  B  B17  1  0.280977  0.603801  0.001670  1
  B  B18  1  0.102843  0.100934  0.322569  1
  B  B19  1  0.521446  0.156196  0.365251  1
  B  B20  1  0.280977  0.279307  0.677176  1
  B  B21  1  0.721635  0.399066  0.001908  1
  B  B22  1  0.739051  0.908948  0.830103  1
  B  B23  1  0.257505  0.089454  0.168052  1
  B  B24  1  0.421155  0.591052  0.830103  1
  B  B25  1  0.578599  0.410546  0.168052  1
  B  B26  1  0.866101  0.833779  0.032322  1
  B  B27  1  0.134262  0.165541  0.968721  1
  B  B28  1  0.698543  0.666221  0.032322  1
  B  B29  1  0.303180  0.334459  0.968721  1
  B  B30  1  0.473021  0.843501  0.629519  1
  B  B31  1  0.286018  0.656499  0.629519  1
