# generated using pymatgen
data_TaB4P2Ru10W3
_symmetry_space_group_name_H-M   'P 1'
_cell_length_a   9.30375946
_cell_length_b   9.30375946
_cell_length_c   2.88546100
_cell_angle_alpha   90.00000000
_cell_angle_beta   90.00000000
_cell_angle_gamma   91.48047086
_symmetry_Int_Tables_number   1
_chemical_formula_structural   TaB4P2Ru10W3
_chemical_formula_sum   'Ta1 B4 P2 Ru10 W3'
_cell_volume   249.68195673
_cell_formula_units_Z   1
loop_
 _symmetry_equiv_pos_site_id
 _symmetry_equiv_pos_as_xyz
  1  'x, y, z'
loop_
 _atom_site_type_symbol
 _atom_site_label
 _atom_site_symmetry_multiplicity
 _atom_site_fract_x
 _atom_site_fract_y
 _atom_site_fract_z
 _atom_site_occupancy
  Ta  Ta0  1  0.675842  0.175842  0.000000  1
  B  B1  1  0.621215  0.873954  0.000000  1
  B  B2  1  0.373954  0.121215  0.000000  1
  B  B3  1  0.135743  0.635743  0.000000  1
  B  B4  1  0.879235  0.379235  0.000000  1
  P  P5  1  0.503721  0.494213  0.000000  1
  P  P6  1  0.994213  0.003721  0.000000  1
  Ru  Ru7  1  0.567488  0.705720  0.500000  1
  Ru  Ru8  1  0.436474  0.286093  0.500000  1
  Ru  Ru9  1  0.051125  0.803229  0.500000  1
  Ru  Ru10  1  0.937368  0.211948  0.500000  1
  Ru  Ru11  1  0.303229  0.551125  0.500000  1
  Ru  Ru12  1  0.711948  0.437368  0.500000  1
  Ru  Ru13  1  0.205720  0.067488  0.500000  1
  Ru  Ru14  1  0.786093  0.936474  0.500000  1
  Ru  Ru15  1  0.492902  0.992902  0.500000  1
  Ru  Ru16  1  0.006665  0.506665  0.500000  1
  W  W17  1  0.823522  0.679970  0.000000  1
  W  W18  1  0.179970  0.323522  0.000000  1
  W  W19  1  0.313572  0.813572  0.000000  1
