# generated using pymatgen
data_Zr3ZnIrRhN
_symmetry_space_group_name_H-M   'P 1'
_cell_length_a   8.56768847
_cell_length_b   8.56768871
_cell_length_c   8.56768900
_cell_angle_alpha   60.00000274
_cell_angle_beta   60.00000181
_cell_angle_gamma   60.00000660
_symmetry_Int_Tables_number   1
_chemical_formula_structural   Zr3ZnIrRhN
_chemical_formula_sum   'Zr12 Zn4 Ir4 Rh4 N4'
_cell_volume   444.70916286
_cell_formula_units_Z   4
loop_
 _symmetry_equiv_pos_site_id
 _symmetry_equiv_pos_as_xyz
  1  'x, y, z'
loop_
 _atom_site_type_symbol
 _atom_site_label
 _atom_site_symmetry_multiplicity
 _atom_site_fract_x
 _atom_site_fract_y
 _atom_site_fract_z
 _atom_site_occupancy
  Zr  Zr0  1  0.808421  0.191579  0.191579  1
  Zr  Zr1  1  0.191579  0.808421  0.191579  1
  Zr  Zr2  1  0.808421  0.808421  0.191579  1
  Zr  Zr3  1  0.191579  0.808421  0.808421  1
  Zr  Zr4  1  0.808421  0.191579  0.808421  1
  Zr  Zr5  1  0.191579  0.191579  0.808421  1
  Zr  Zr6  1  0.442498  0.057502  0.057502  1
  Zr  Zr7  1  0.057502  0.442498  0.057502  1
  Zr  Zr8  1  0.442498  0.442498  0.057502  1
  Zr  Zr9  1  0.057502  0.442498  0.442498  1
  Zr  Zr10  1  0.442498  0.057502  0.442498  1
  Zr  Zr11  1  0.057502  0.057502  0.442498  1
  Zn  Zn12  1  0.624480  0.624480  0.126560  1
  Zn  Zn13  1  0.624480  0.624480  0.624480  1
  Zn  Zn14  1  0.126560  0.624480  0.624480  1
  Zn  Zn15  1  0.624480  0.126560  0.624480  1
  Ir  Ir16  1  0.835031  0.835031  0.494908  1
  Ir  Ir17  1  0.835031  0.835031  0.835031  1
  Ir  Ir18  1  0.494908  0.835031  0.835031  1
  Ir  Ir19  1  0.835031  0.494908  0.835031  1
  Rh  Rh20  1  0.414715  0.414715  0.755854  1
  Rh  Rh21  1  0.414715  0.414715  0.414715  1
  Rh  Rh22  1  0.755854  0.414715  0.414715  1
  Rh  Rh23  1  0.414715  0.755854  0.414715  1
  N  N24  1  0.125224  0.125224  0.624327  1
  N  N25  1  0.125224  0.125224  0.125224  1
  N  N26  1  0.624327  0.125224  0.125224  1
  N  N27  1  0.125224  0.624327  0.125224  1
