# generated using pymatgen
data_La4HoIn2Sn
_symmetry_space_group_name_H-M   'P 1'
_cell_length_a   9.46313765
_cell_length_b   9.46313873
_cell_length_c   9.46313800
_cell_angle_alpha   96.28255443
_cell_angle_beta   96.97750111
_cell_angle_gamma   140.27212116
_symmetry_Int_Tables_number   1
_chemical_formula_structural   La4HoIn2Sn
_chemical_formula_sum   'La8 Ho2 In4 Sn2'
_cell_volume   509.39271218
_cell_formula_units_Z   2
loop_
 _symmetry_equiv_pos_site_id
 _symmetry_equiv_pos_as_xyz
  1  'x, y, z'
loop_
 _atom_site_type_symbol
 _atom_site_label
 _atom_site_symmetry_multiplicity
 _atom_site_fract_x
 _atom_site_fract_y
 _atom_site_fract_z
 _atom_site_occupancy
  La  La0  1  0.911576  0.221156  0.132733  1
  La  La1  1  0.223852  0.088682  0.312534  1
  La  La2  1  0.779344  0.909415  0.688759  1
  La  La3  1  0.091317  0.777975  0.869293  1
  La  La4  1  0.720656  0.409415  0.130072  1
  La  La5  1  0.276148  0.588682  0.864830  1
  La  La6  1  0.588424  0.721156  0.309580  1
  La  La7  1  0.408683  0.277975  0.686658  1
  Ho  Ho8  1  0.750000  0.252564  0.502564  1
  Ho  Ho9  1  0.250000  0.752564  0.502564  1
  In  In10  1  0.750000  0.750014  0.000014  1
  In  In11  1  0.250000  0.250014  0.000014  1
  In  In12  1  0.844742  0.653963  0.498704  1
  In  In13  1  0.655258  0.153963  0.809222  1
  Sn  Sn14  1  0.348728  0.846230  0.194957  1
  Sn  Sn15  1  0.151272  0.346230  0.497501  1
