# generated using pymatgen
data_Zr4In2RhAu3
_symmetry_space_group_name_H-M   'P 1'
_cell_length_a   7.59545317
_cell_length_b   7.59545317
_cell_length_c   7.10529013
_cell_angle_alpha   90.25001240
_cell_angle_beta   90.25001240
_cell_angle_gamma   90.51603037
_symmetry_Int_Tables_number   1
_chemical_formula_structural   Zr4In2RhAu3
_chemical_formula_sum   'Zr8 In4 Rh2 Au6'
_cell_volume   409.88614512
_cell_formula_units_Z   2
loop_
 _symmetry_equiv_pos_site_id
 _symmetry_equiv_pos_as_xyz
  1  'x, y, z'
loop_
 _atom_site_type_symbol
 _atom_site_label
 _atom_site_symmetry_multiplicity
 _atom_site_fract_x
 _atom_site_fract_y
 _atom_site_fract_z
 _atom_site_occupancy
  Zr  Zr0  1  0.151201  0.151201  0.009990  1
  Zr  Zr1  1  0.848799  0.848799  0.990010  1
  Zr  Zr2  1  0.642964  0.357036  0.500000  1
  Zr  Zr3  1  0.357036  0.642964  0.500000  1
  Zr  Zr4  1  0.684271  0.315729  0.000000  1
  Zr  Zr5  1  0.315729  0.684271  0.000000  1
  Zr  Zr6  1  0.799903  0.799903  0.509071  1
  Zr  Zr7  1  0.200097  0.200097  0.490929  1
  In  In8  1  0.500441  0.007657  0.247807  1
  In  In9  1  0.499559  0.992343  0.752193  1
  In  In10  1  0.007657  0.500441  0.247807  1
  In  In11  1  0.992343  0.499559  0.752193  1
  Rh  Rh12  1  0.369947  0.369947  0.218507  1
  Rh  Rh13  1  0.630053  0.630053  0.781493  1
  Au  Au14  1  0.631980  0.631980  0.202739  1
  Au  Au15  1  0.870939  0.131685  0.707958  1
  Au  Au16  1  0.868315  0.129061  0.292042  1
  Au  Au17  1  0.368020  0.368020  0.797261  1
  Au  Au18  1  0.129061  0.868315  0.292042  1
  Au  Au19  1  0.131685  0.870939  0.707958  1
