# generated using pymatgen
data_Yb8TiRe8Si16W3
_symmetry_space_group_name_H-M   'P 1'
_cell_length_a   6.76100895
_cell_length_b   6.76100847
_cell_length_c   12.84184498
_cell_angle_alpha   89.86832086
_cell_angle_beta   90.13168033
_cell_angle_gamma   90.21996006
_symmetry_Int_Tables_number   1
_chemical_formula_structural   Yb8TiRe8Si16W3
_chemical_formula_sum   'Yb8 Ti1 Re8 Si16 W3'
_cell_volume   587.00922736
_cell_formula_units_Z   1
loop_
 _symmetry_equiv_pos_site_id
 _symmetry_equiv_pos_as_xyz
  1  'x, y, z'
loop_
 _atom_site_type_symbol
 _atom_site_label
 _atom_site_symmetry_multiplicity
 _atom_site_fract_x
 _atom_site_fract_y
 _atom_site_fract_z
 _atom_site_occupancy
  Yb  Yb0  1  0.324195  0.001130  0.470405  1
  Yb  Yb1  1  0.496663  0.828245  0.722832  1
  Yb  Yb2  1  0.501305  0.171966  0.221881  1
  Yb  Yb3  1  0.828245  0.496663  0.277168  1
  Yb  Yb4  1  0.171966  0.501305  0.778119  1
  Yb  Yb5  1  0.674865  0.000269  0.971095  1
  Yb  Yb6  1  0.001130  0.324195  0.529595  1
  Yb  Yb7  1  0.000269  0.674865  0.028905  1
  Ti  Ti8  1  0.660256  0.660256  0.500000  1
  Re  Re9  1  0.180866  0.002412  0.870050  1
  Re  Re10  1  0.500832  0.680515  0.119250  1
  Re  Re11  1  0.497573  0.324985  0.617829  1
  Re  Re12  1  0.680515  0.500832  0.880750  1
  Re  Re13  1  0.324985  0.497573  0.382171  1
  Re  Re14  1  0.818442  0.990572  0.374941  1
  Re  Re15  1  0.002412  0.180866  0.129950  1
  Re  Re16  1  0.990572  0.818442  0.625059  1
  Si  Si17  1  0.198805  0.117895  0.684481  1
  Si  Si18  1  0.381211  0.704004  0.934452  1
  Si  Si19  1  0.620985  0.292396  0.435309  1
  Si  Si20  1  0.704004  0.381211  0.065548  1
  Si  Si21  1  0.292396  0.620985  0.564691  1
  Si  Si22  1  0.799782  0.880910  0.186792  1
  Si  Si23  1  0.117895  0.198805  0.315519  1
  Si  Si24  1  0.880910  0.799782  0.813208  1
  Si  Si25  1  0.289627  0.981910  0.061342  1
  Si  Si26  1  0.519296  0.784170  0.310629  1
  Si  Si27  1  0.479043  0.214833  0.810962  1
  Si  Si28  1  0.784170  0.519296  0.689371  1
  Si  Si29  1  0.214833  0.479043  0.189038  1
  Si  Si30  1  0.705784  0.025880  0.565686  1
  Si  Si31  1  0.981910  0.289627  0.938658  1
  Si  Si32  1  0.025880  0.705784  0.434314  1
  W  W33  1  0.342128  0.342128  0.000000  1
  W  W34  1  0.164672  0.841577  0.245425  1
  W  W35  1  0.841577  0.164672  0.754575  1
