# generated using pymatgen
data_PaMn2(Al4Cu)2
_symmetry_space_group_name_H-M   'P 1'
_cell_length_a   5.10819102
_cell_length_b   6.78939253
_cell_length_c   6.67385549
_cell_angle_alpha   81.72245803
_cell_angle_beta   67.49888401
_cell_angle_gamma   67.90218565
_symmetry_Int_Tables_number   1
_chemical_formula_structural   PaMn2(Al4Cu)2
_chemical_formula_sum   'Pa1 Mn2 Al8 Cu2'
_cell_volume   198.13092124
_cell_formula_units_Z   1
loop_
 _symmetry_equiv_pos_site_id
 _symmetry_equiv_pos_as_xyz
  1  'x, y, z'
loop_
 _atom_site_type_symbol
 _atom_site_label
 _atom_site_symmetry_multiplicity
 _atom_site_fract_x
 _atom_site_fract_y
 _atom_site_fract_z
 _atom_site_occupancy
  Pa  Pa0  1  0.000000  0.000000  0.000000  1
  Mn  Mn1  1  0.000000  0.000000  0.500000  1
  Mn  Mn2  1  0.500000  0.000000  0.500000  1
  Al  Al3  1  0.008241  0.338305  0.645213  1
  Al  Al4  1  0.991759  0.661695  0.354787  1
  Al  Al5  1  0.653454  0.338305  0.354787  1
  Al  Al6  1  0.346546  0.661695  0.645213  1
  Al  Al7  1  0.497047  0.784851  0.221055  1
  Al  Al8  1  0.502953  0.215149  0.778945  1
  Al  Al9  1  0.718102  0.784851  0.778945  1
  Al  Al10  1  0.281898  0.215149  0.221055  1
  Cu  Cu11  1  0.500000  0.500000  0.000000  1
  Cu  Cu12  1  0.000000  0.500000  0.000000  1
