# generated using pymatgen
data_Lu2AlB2Ru3Rh2
_symmetry_space_group_name_H-M   'P 1'
_cell_length_a   9.51438900
_cell_length_b   9.51438900
_cell_length_c   3.07728500
_cell_angle_alpha   90.00000000
_cell_angle_beta   90.00000000
_cell_angle_gamma   90.00000000
_symmetry_Int_Tables_number   1
_chemical_formula_structural   Lu2AlB2Ru3Rh2
_chemical_formula_sum   'Lu4 Al2 B4 Ru6 Rh4'
_cell_volume   278.56691040
_cell_formula_units_Z   2
loop_
 _symmetry_equiv_pos_site_id
 _symmetry_equiv_pos_as_xyz
  1  'x, y, z'
loop_
 _atom_site_type_symbol
 _atom_site_label
 _atom_site_symmetry_multiplicity
 _atom_site_fract_x
 _atom_site_fract_y
 _atom_site_fract_z
 _atom_site_occupancy
  Lu  Lu0  1  0.826175  0.323363  0.000000  1
  Lu  Lu1  1  0.323363  0.173825  0.000000  1
  Lu  Lu2  1  0.676637  0.826175  0.000000  1
  Lu  Lu3  1  0.173825  0.676637  0.000000  1
  Al  Al4  1  0.000000  0.000000  0.000000  1
  Al  Al5  1  0.500000  0.500000  0.000000  1
  B  B6  1  0.626408  0.117425  0.000000  1
  B  B7  1  0.117425  0.373592  0.000000  1
  B  B8  1  0.882575  0.626408  0.000000  1
  B  B9  1  0.373592  0.882575  0.000000  1
  Ru  Ru10  1  0.069970  0.216857  0.500000  1
  Ru  Ru11  1  0.216857  0.930030  0.500000  1
  Ru  Ru12  1  0.783143  0.069970  0.500000  1
  Ru  Ru13  1  0.930030  0.783143  0.500000  1
  Ru  Ru14  1  0.500000  0.000000  0.500000  1
  Ru  Ru15  1  0.000000  0.500000  0.500000  1
  Rh  Rh16  1  0.430717  0.715255  0.500000  1
  Rh  Rh17  1  0.569283  0.284745  0.500000  1
  Rh  Rh18  1  0.715255  0.569283  0.500000  1
  Rh  Rh19  1  0.284745  0.430717  0.500000  1
