# generated using pymatgen
data_Mn2Al3RhS8
_symmetry_space_group_name_H-M   'P 1'
_cell_length_a   7.13719682
_cell_length_b   7.18763906
_cell_length_c   7.13719700
_cell_angle_alpha   60.23188425
_cell_angle_beta   60.00000382
_cell_angle_gamma   60.23188564
_symmetry_Int_Tables_number   1
_chemical_formula_structural   Mn2Al3RhS8
_chemical_formula_sum   'Mn2 Al3 Rh1 S8'
_cell_volume   259.80048044
_cell_formula_units_Z   1
loop_
 _symmetry_equiv_pos_site_id
 _symmetry_equiv_pos_as_xyz
  1  'x, y, z'
loop_
 _atom_site_type_symbol
 _atom_site_label
 _atom_site_symmetry_multiplicity
 _atom_site_fract_x
 _atom_site_fract_y
 _atom_site_fract_z
 _atom_site_occupancy
  Mn  Mn0  1  0.250537  0.248388  0.250537  1
  Mn  Mn1  1  0.999463  0.001612  0.999463  1
  Al  Al2  1  0.125000  0.625000  0.625000  1
  Al  Al3  1  0.625000  0.625000  0.125000  1
  Al  Al4  1  0.625000  0.625000  0.625000  1
  Rh  Rh5  1  0.625000  0.125000  0.625000  1
  S  S6  1  0.839432  0.384901  0.387833  1
  S  S7  1  0.384235  0.847293  0.384235  1
  S  S8  1  0.387833  0.384901  0.839432  1
  S  S9  1  0.387833  0.384901  0.387833  1
  S  S10  1  0.410568  0.865099  0.862167  1
  S  S11  1  0.865765  0.402707  0.865765  1
  S  S12  1  0.862167  0.865099  0.410568  1
  S  S13  1  0.862167  0.865099  0.862167  1
