# generated using pymatgen
data_Li4CdSn2S7
_symmetry_space_group_name_H-M   'P 1'
_cell_length_a   9.52248754
_cell_length_b   9.52248732
_cell_length_c   10.46464473
_cell_angle_alpha   86.48477463
_cell_angle_beta   86.48477462
_cell_angle_gamma   43.24143876
_symmetry_Int_Tables_number   1
_chemical_formula_structural   Li4CdSn2S7
_chemical_formula_sum   'Li8 Cd2 Sn4 S14'
_cell_volume   648.65869807
_cell_formula_units_Z   2
loop_
 _symmetry_equiv_pos_site_id
 _symmetry_equiv_pos_as_xyz
  1  'x, y, z'
loop_
 _atom_site_type_symbol
 _atom_site_label
 _atom_site_symmetry_multiplicity
 _atom_site_fract_x
 _atom_site_fract_y
 _atom_site_fract_z
 _atom_site_occupancy
  Li  Li0  1  0.527880  0.183261  0.411236  1
  Li  Li1  1  0.183261  0.527880  0.911236  1
  Li  Li2  1  0.912811  0.221150  0.335918  1
  Li  Li3  1  0.221150  0.912811  0.835918  1
  Li  Li4  1  0.681787  0.312019  0.695791  1
  Li  Li5  1  0.312019  0.681787  0.195791  1
  Li  Li6  1  0.040276  0.382288  0.616016  1
  Li  Li7  1  0.382288  0.040276  0.116016  1
  Cd  Cd8  1  0.932377  0.632864  0.258932  1
  Cd  Cd9  1  0.632864  0.932377  0.758932  1
  Sn  Sn10  1  0.468045  0.810761  0.468902  1
  Sn  Sn11  1  0.810761  0.468045  0.968902  1
  Sn  Sn12  1  0.083931  0.766370  0.538991  1
  Sn  Sn13  1  0.766370  0.083931  0.038991  1
  S  S14  1  0.366106  0.694762  0.633806  1
  S  S15  1  0.694762  0.366106  0.133806  1
  S  S16  1  0.231002  0.549857  0.355325  1
  S  S17  1  0.549857  0.231002  0.855325  1
  S  S18  1  0.015529  0.631214  0.705090  1
  S  S19  1  0.631214  0.015529  0.205090  1
  S  S20  1  0.273826  0.938611  0.280919  1
  S  S21  1  0.938611  0.273826  0.780919  1
  S  S22  1  0.407905  0.077825  0.562063  1
  S  S23  1  0.077825  0.407905  0.062063  1
  S  S24  1  0.828782  0.510271  0.426661  1
  S  S25  1  0.510271  0.828782  0.926661  1
  S  S26  1  0.798895  0.124100  0.498681  1
  S  S27  1  0.124100  0.798895  0.998681  1
