# generated using pymatgen
data_Pr3Y3Er2(CdIr)2
_symmetry_space_group_name_H-M   'P 1'
_cell_length_a   9.77815147
_cell_length_b   9.77815003
_cell_length_c   9.77815100
_cell_angle_alpha   60.00000011
_cell_angle_beta   60.00000497
_cell_angle_gamma   60.00000040
_symmetry_Int_Tables_number   1
_chemical_formula_structural   Pr3Y3Er2(CdIr)2
_chemical_formula_sum   'Pr6 Y6 Er4 Cd4 Ir4'
_cell_volume   661.08182436
_cell_formula_units_Z   2
loop_
 _symmetry_equiv_pos_site_id
 _symmetry_equiv_pos_as_xyz
  1  'x, y, z'
loop_
 _atom_site_type_symbol
 _atom_site_label
 _atom_site_symmetry_multiplicity
 _atom_site_fract_x
 _atom_site_fract_y
 _atom_site_fract_z
 _atom_site_occupancy
  Pr  Pr0  1  0.941115  0.558885  0.558885  1
  Pr  Pr1  1  0.558885  0.941115  0.941115  1
  Pr  Pr2  1  0.558885  0.941115  0.558885  1
  Pr  Pr3  1  0.941115  0.558885  0.941115  1
  Pr  Pr4  1  0.558885  0.558885  0.941115  1
  Pr  Pr5  1  0.941115  0.941115  0.558885  1
  Y  Y6  1  0.811969  0.188031  0.188031  1
  Y  Y7  1  0.188031  0.811969  0.811969  1
  Y  Y8  1  0.188031  0.811969  0.188031  1
  Y  Y9  1  0.811969  0.188031  0.811969  1
  Y  Y10  1  0.188031  0.188031  0.811969  1
  Y  Y11  1  0.811969  0.811969  0.188031  1
  Er  Er12  1  0.346539  0.346539  0.346539  1
  Er  Er13  1  0.346539  0.346539  0.960384  1
  Er  Er14  1  0.346539  0.960384  0.346539  1
  Er  Er15  1  0.960384  0.346539  0.346539  1
  Cd  Cd16  1  0.579200  0.579200  0.579200  1
  Cd  Cd17  1  0.579200  0.579200  0.262401  1
  Cd  Cd18  1  0.579200  0.262401  0.579200  1
  Cd  Cd19  1  0.262401  0.579200  0.579200  1
  Ir  Ir20  1  0.142226  0.142226  0.142226  1
  Ir  Ir21  1  0.142226  0.142226  0.573323  1
  Ir  Ir22  1  0.142226  0.573323  0.142226  1
  Ir  Ir23  1  0.573323  0.142226  0.142226  1
