# generated using pymatgen
data_Tm6Lu2Re(B8Os)3
_symmetry_space_group_name_H-M   'P 1'
_cell_length_a   3.61969300
_cell_length_b   9.06808221
_cell_length_c   11.44539812
_cell_angle_alpha   90.09436221
_cell_angle_beta   90.00000000
_cell_angle_gamma   90.00000000
_symmetry_Int_Tables_number   1
_chemical_formula_structural   Tm6Lu2Re(B8Os)3
_chemical_formula_sum   'Tm6 Lu2 Re1 B24 Os3'
_cell_volume   375.67950391
_cell_formula_units_Z   1
loop_
 _symmetry_equiv_pos_site_id
 _symmetry_equiv_pos_as_xyz
  1  'x, y, z'
loop_
 _atom_site_type_symbol
 _atom_site_label
 _atom_site_symmetry_multiplicity
 _atom_site_fract_x
 _atom_site_fract_y
 _atom_site_fract_z
 _atom_site_occupancy
  Tm  Tm0  1  0.000000  0.321848  0.414802  1
  Tm  Tm1  1  0.000000  0.680827  0.588304  1
  Tm  Tm2  1  0.000000  0.821478  0.083413  1
  Tm  Tm3  1  0.000000  0.177316  0.913234  1
  Tm  Tm4  1  0.000000  0.943318  0.372066  1
  Tm  Tm5  1  0.000000  0.055935  0.627703  1
  Lu  Lu6  1  0.000000  0.443053  0.127196  1
  Lu  Lu7  1  0.000000  0.556460  0.873175  1
  Re  Re8  1  0.000000  0.861982  0.821551  1
  B  B9  1  0.500000  0.553363  0.433668  1
  B  B10  1  0.500000  0.446842  0.566643  1
  B  B11  1  0.500000  0.053500  0.066765  1
  B  B12  1  0.500000  0.947241  0.933800  1
  B  B13  1  0.500000  0.748834  0.419822  1
  B  B14  1  0.500000  0.251274  0.580013  1
  B  B15  1  0.500000  0.249360  0.080174  1
  B  B16  1  0.500000  0.750108  0.919838  1
  B  B17  1  0.500000  0.790849  0.265455  1
  B  B18  1  0.500000  0.208865  0.733790  1
  B  B19  1  0.500000  0.292156  0.234151  1
  B  B20  1  0.500000  0.707276  0.765866  1
  B  B21  1  0.500000  0.630021  0.184413  1
  B  B22  1  0.500000  0.369464  0.815193  1
  B  B23  1  0.500000  0.131444  0.315250  1
  B  B24  1  0.500000  0.868904  0.685085  1
  B  B25  1  0.500000  0.982213  0.212665  1
  B  B26  1  0.500000  0.018799  0.787290  1
  B  B27  1  0.500000  0.481494  0.287252  1
  B  B28  1  0.500000  0.518411  0.713246  1
  B  B29  1  0.500000  0.603319  0.029338  1
  B  B30  1  0.500000  0.394945  0.971184  1
  B  B31  1  0.500000  0.106176  0.470343  1
  B  B32  1  0.500000  0.894479  0.528708  1
  Os  Os33  1  0.000000  0.636725  0.320914  1
  Os  Os34  1  0.000000  0.363273  0.678547  1
  Os  Os35  1  0.000000  0.138449  0.179142  1
