# generated using pymatgen
data_Tb2LuHg5
_symmetry_space_group_name_H-M   'P 1'
_cell_length_a   6.36840614
_cell_length_b   6.36840681
_cell_length_c   10.12670400
_cell_angle_alpha   90.00000000
_cell_angle_beta   90.00000000
_cell_angle_gamma   105.11707142
_symmetry_Int_Tables_number   1
_chemical_formula_structural   Tb2LuHg5
_chemical_formula_sum   'Tb4 Lu2 Hg10'
_cell_volume   396.49224584
_cell_formula_units_Z   2
loop_
 _symmetry_equiv_pos_site_id
 _symmetry_equiv_pos_as_xyz
  1  'x, y, z'
loop_
 _atom_site_type_symbol
 _atom_site_label
 _atom_site_symmetry_multiplicity
 _atom_site_fract_x
 _atom_site_fract_y
 _atom_site_fract_z
 _atom_site_occupancy
  Tb  Tb0  1  0.215027  0.784973  0.500000  1
  Tb  Tb1  1  0.215027  0.784973  0.000000  1
  Tb  Tb2  1  0.784973  0.215027  0.500000  1
  Tb  Tb3  1  0.784973  0.215027  0.000000  1
  Lu  Lu4  1  0.567435  0.567435  0.250000  1
  Lu  Lu5  1  0.432565  0.432565  0.750000  1
  Hg  Hg6  1  0.964994  0.964994  0.250000  1
  Hg  Hg7  1  0.035006  0.035006  0.750000  1
  Hg  Hg8  1  0.295824  0.295824  0.029326  1
  Hg  Hg9  1  0.704176  0.704176  0.970674  1
  Hg  Hg10  1  0.295824  0.295824  0.470674  1
  Hg  Hg11  1  0.704176  0.704176  0.529326  1
  Hg  Hg12  1  0.476608  0.037578  0.250000  1
  Hg  Hg13  1  0.962422  0.523392  0.750000  1
  Hg  Hg14  1  0.523392  0.962422  0.750000  1
  Hg  Hg15  1  0.037578  0.476608  0.250000  1
