# generated using pymatgen
data_Sm6Al24Re2Ru3Pt2Au
_symmetry_space_group_name_H-M   'P 1'
_cell_length_a   8.93535286
_cell_length_b   8.98702256
_cell_length_c   9.67435200
_cell_angle_alpha   90.28757595
_cell_angle_beta   90.09334968
_cell_angle_gamma   119.43285899
_symmetry_Int_Tables_number   1
_chemical_formula_structural   Sm6Al24Re2Ru3Pt2Au
_chemical_formula_sum   'Sm6 Al24 Re2 Ru3 Pt2 Au1'
_cell_volume   676.58671686
_cell_formula_units_Z   1
loop_
 _symmetry_equiv_pos_site_id
 _symmetry_equiv_pos_as_xyz
  1  'x, y, z'
loop_
 _atom_site_type_symbol
 _atom_site_label
 _atom_site_symmetry_multiplicity
 _atom_site_fract_x
 _atom_site_fract_y
 _atom_site_fract_z
 _atom_site_occupancy
  Sm  Sm0  1  0.189128  0.380747  0.248560  1
  Sm  Sm1  1  0.810872  0.619253  0.751440  1
  Sm  Sm2  1  0.615521  0.813675  0.254306  1
  Sm  Sm3  1  0.384479  0.186325  0.745694  1
  Sm  Sm4  1  0.194772  0.810706  0.249097  1
  Sm  Sm5  1  0.805228  0.189294  0.750903  1
  Al  Al6  1  0.335530  0.672478  0.024028  1
  Al  Al7  1  0.664470  0.327522  0.975972  1
  Al  Al8  1  0.674784  0.329533  0.524730  1
  Al  Al9  1  0.325216  0.670467  0.475270  1
  Al  Al10  1  0.151493  0.323702  0.575223  1
  Al  Al11  1  0.848507  0.676298  0.424777  1
  Al  Al12  1  0.676430  0.847046  0.577533  1
  Al  Al13  1  0.837710  0.677494  0.076322  1
  Al  Al14  1  0.323570  0.152954  0.422467  1
  Al  Al15  1  0.162290  0.322506  0.923678  1
  Al  Al16  1  0.164046  0.834876  0.576843  1
  Al  Al17  1  0.324542  0.157453  0.073663  1
  Al  Al18  1  0.835954  0.165124  0.423157  1
  Al  Al19  1  0.675458  0.842547  0.926337  1
  Al  Al20  1  0.831749  0.158241  0.076904  1
  Al  Al21  1  0.168251  0.841759  0.923096  1
  Al  Al22  1  0.561229  0.124985  0.248177  1
  Al  Al23  1  0.438771  0.875015  0.751823  1
  Al  Al24  1  0.875654  0.437857  0.252833  1
  Al  Al25  1  0.124346  0.562143  0.747167  1
  Al  Al26  1  0.565137  0.433454  0.244289  1
  Al  Al27  1  0.434863  0.566546  0.755711  1
  Al  Al28  1  0.998122  0.003284  0.252242  1
  Al  Al29  1  0.001878  0.996716  0.747758  1
  Re  Re30  1  0.500000  0.000000  0.500000  1
  Re  Re31  1  0.000000  0.000000  0.000000  1
  Ru  Ru32  1  0.500000  0.000000  0.000000  1
  Ru  Ru33  1  0.000000  0.500000  0.500000  1
  Ru  Ru34  1  0.000000  0.000000  0.500000  1
  Pt  Pt35  1  0.000000  0.500000  0.000000  1
  Pt  Pt36  1  0.500000  0.500000  0.000000  1
  Au  Au37  1  0.500000  0.500000  0.500000  1
