# generated using pymatgen
data_Cu2Ir3RuO12
_symmetry_space_group_name_H-M   'P 1'
_cell_length_a   4.54552795
_cell_length_b   4.54552795
_cell_length_c   9.42119200
_cell_angle_alpha   90.00000000
_cell_angle_beta   90.00000000
_cell_angle_gamma   90.07419226
_symmetry_Int_Tables_number   1
_chemical_formula_structural   Cu2Ir3RuO12
_chemical_formula_sum   'Cu2 Ir3 Ru1 O12'
_cell_volume   194.65885125
_cell_formula_units_Z   1
loop_
 _symmetry_equiv_pos_site_id
 _symmetry_equiv_pos_as_xyz
  1  'x, y, z'
loop_
 _atom_site_type_symbol
 _atom_site_label
 _atom_site_symmetry_multiplicity
 _atom_site_fract_x
 _atom_site_fract_y
 _atom_site_fract_z
 _atom_site_occupancy
  Cu  Cu0  1  0.000000  0.000000  0.997987  1
  Cu  Cu1  1  0.500000  0.500000  0.501522  1
  Ir  Ir2  1  0.500000  0.500000  0.832636  1
  Ir  Ir3  1  0.000000  0.000000  0.332365  1
  Ir  Ir4  1  0.500000  0.500000  0.168333  1
  Ru  Ru5  1  0.000000  0.000000  0.667397  1
  O  O6  1  0.700125  0.700125  0.671986  1
  O  O7  1  0.299875  0.299875  0.671986  1
  O  O8  1  0.697752  0.697752  0.330231  1
  O  O9  1  0.198746  0.801254  0.170499  1
  O  O10  1  0.801254  0.198746  0.170499  1
  O  O11  1  0.799307  0.200693  0.826802  1
  O  O12  1  0.309085  0.309085  0.999952  1
  O  O13  1  0.189532  0.810468  0.500410  1
  O  O14  1  0.810468  0.189532  0.500410  1
  O  O15  1  0.690915  0.690915  0.999952  1
  O  O16  1  0.302248  0.302248  0.330231  1
  O  O17  1  0.200693  0.799307  0.826802  1
