# generated using pymatgen
data_La6CuIr15Rh2
_symmetry_space_group_name_H-M   'P 1'
_cell_length_a   5.40862200
_cell_length_b   5.40862059
_cell_length_c   17.61691000
_cell_angle_alpha   90.00000000
_cell_angle_beta   90.00000000
_cell_angle_gamma   119.99999640
_symmetry_Int_Tables_number   1
_chemical_formula_structural   La6CuIr15Rh2
_chemical_formula_sum   'La6 Cu1 Ir15 Rh2'
_cell_volume   446.30682743
_cell_formula_units_Z   1
loop_
 _symmetry_equiv_pos_site_id
 _symmetry_equiv_pos_as_xyz
  1  'x, y, z'
loop_
 _atom_site_type_symbol
 _atom_site_label
 _atom_site_symmetry_multiplicity
 _atom_site_fract_x
 _atom_site_fract_y
 _atom_site_fract_z
 _atom_site_occupancy
  La  La0  1  0.333333  0.666667  0.541775  1
  La  La1  1  0.666667  0.333333  0.040706  1
  La  La2  1  0.666667  0.333333  0.459294  1
  La  La3  1  0.333333  0.666667  0.958225  1
  La  La4  1  0.333333  0.666667  0.750000  1
  La  La5  1  0.666667  0.333333  0.250000  1
  Cu  Cu6  1  0.333333  0.666667  0.250000  1
  Ir  Ir7  1  0.168310  0.336621  0.128744  1
  Ir  Ir8  1  0.833387  0.666776  0.626972  1
  Ir  Ir9  1  0.663379  0.831690  0.128744  1
  Ir  Ir10  1  0.168310  0.831690  0.128744  1
  Ir  Ir11  1  0.833387  0.166613  0.626972  1
  Ir  Ir12  1  0.333224  0.166613  0.626972  1
  Ir  Ir13  1  0.833387  0.666776  0.873028  1
  Ir  Ir14  1  0.833387  0.166613  0.873028  1
  Ir  Ir15  1  0.333224  0.166613  0.873028  1
  Ir  Ir16  1  0.663379  0.831690  0.371256  1
  Ir  Ir17  1  0.168310  0.831690  0.371256  1
  Ir  Ir18  1  0.168310  0.336621  0.371256  1
  Ir  Ir19  1  0.000000  0.000000  0.250000  1
  Ir  Ir20  1  0.000000  0.000000  0.002419  1
  Ir  Ir21  1  0.000000  0.000000  0.497581  1
  Rh  Rh22  1  0.000000  0.000000  0.750000  1
  Rh  Rh23  1  0.666667  0.333333  0.750000  1
