# generated using pymatgen
data_Sr4MgZn(ReN4)2
_symmetry_space_group_name_H-M   'P 1'
_cell_length_a   5.97445700
_cell_length_b   6.29032490
_cell_length_c   6.88177784
_cell_angle_alpha   73.92936384
_cell_angle_beta   90.00000000
_cell_angle_gamma   90.00000000
_symmetry_Int_Tables_number   1
_chemical_formula_structural   Sr4MgZn(ReN4)2
_chemical_formula_sum   'Sr4 Mg1 Zn1 Re2 N8'
_cell_volume   248.51918361
_cell_formula_units_Z   1
loop_
 _symmetry_equiv_pos_site_id
 _symmetry_equiv_pos_as_xyz
  1  'x, y, z'
loop_
 _atom_site_type_symbol
 _atom_site_label
 _atom_site_symmetry_multiplicity
 _atom_site_fract_x
 _atom_site_fract_y
 _atom_site_fract_z
 _atom_site_occupancy
  Sr  Sr0  1  0.250000  0.240583  0.067307  1
  Sr  Sr1  1  0.750000  0.759453  0.936146  1
  Sr  Sr2  1  0.750000  0.784309  0.424792  1
  Sr  Sr3  1  0.250000  0.222537  0.570070  1
  Mg  Mg4  1  0.250000  0.697825  0.698374  1
  Zn  Zn5  1  0.750000  0.296791  0.303059  1
  Re  Re6  1  0.250000  0.712123  0.198533  1
  Re  Re7  1  0.750000  0.287613  0.801180  1
  N  N8  1  0.499139  0.466724  0.755233  1
  N  N9  1  0.999780  0.532808  0.245183  1
  N  N10  1  0.500220  0.532808  0.245183  1
  N  N11  1  0.000861  0.466724  0.755233  1
  N  N12  1  0.750000  0.113676  0.615286  1
  N  N13  1  0.250000  0.885028  0.385011  1
  N  N14  1  0.750000  0.120214  0.075042  1
  N  N15  1  0.250000  0.880786  0.924365  1
