# generated using pymatgen
data_KSr21(Al4Sn3)2
_symmetry_space_group_name_H-M   'P 1'
_cell_length_a   12.31042854
_cell_length_b   12.31042867
_cell_length_c   12.31042700
_cell_angle_alpha   60.00000180
_cell_angle_beta   60.00000144
_cell_angle_gamma   59.99999976
_symmetry_Int_Tables_number   1
_chemical_formula_structural   KSr21(Al4Sn3)2
_chemical_formula_sum   'K1 Sr21 Al8 Sn6'
_cell_volume   1319.18127036
_cell_formula_units_Z   1
loop_
 _symmetry_equiv_pos_site_id
 _symmetry_equiv_pos_as_xyz
  1  'x, y, z'
loop_
 _atom_site_type_symbol
 _atom_site_label
 _atom_site_symmetry_multiplicity
 _atom_site_fract_x
 _atom_site_fract_y
 _atom_site_fract_z
 _atom_site_occupancy
  K  K0  1  0.500000  0.500000  0.500000  1
  Sr  Sr1  1  0.871260  0.871260  0.386218  1
  Sr  Sr2  1  0.613782  0.128740  0.128740  1
  Sr  Sr3  1  0.871260  0.386218  0.871260  1
  Sr  Sr4  1  0.128740  0.128740  0.128740  1
  Sr  Sr5  1  0.386218  0.871260  0.871260  1
  Sr  Sr6  1  0.871260  0.871260  0.871260  1
  Sr  Sr7  1  0.166480  0.833520  0.500000  1
  Sr  Sr8  1  0.833520  0.500000  0.500000  1
  Sr  Sr9  1  0.128740  0.128740  0.613782  1
  Sr  Sr10  1  0.833520  0.166480  0.500000  1
  Sr  Sr11  1  0.166480  0.500000  0.500000  1
  Sr  Sr12  1  0.128740  0.613782  0.128740  1
  Sr  Sr13  1  0.500000  0.500000  0.166480  1
  Sr  Sr14  1  0.500000  0.166480  0.833520  1
  Sr  Sr15  1  0.500000  0.833520  0.166480  1
  Sr  Sr16  1  0.500000  0.500000  0.833520  1
  Sr  Sr17  1  0.500000  0.166480  0.500000  1
  Sr  Sr18  1  0.166480  0.500000  0.833520  1
  Sr  Sr19  1  0.000000  0.000000  0.000000  1
  Sr  Sr20  1  0.500000  0.833520  0.500000  1
  Sr  Sr21  1  0.833520  0.500000  0.166480  1
  Al  Al22  1  0.694446  0.916663  0.694446  1
  Al  Al23  1  0.694446  0.694446  0.916663  1
  Al  Al24  1  0.694446  0.694446  0.694446  1
  Al  Al25  1  0.305554  0.083337  0.305554  1
  Al  Al26  1  0.916663  0.694446  0.694446  1
  Al  Al27  1  0.305554  0.305554  0.083337  1
  Al  Al28  1  0.083337  0.305554  0.305554  1
  Al  Al29  1  0.305554  0.305554  0.305554  1
  Sn  Sn30  1  0.783486  0.216514  0.783486  1
  Sn  Sn31  1  0.783486  0.216514  0.216514  1
  Sn  Sn32  1  0.216514  0.783486  0.216514  1
  Sn  Sn33  1  0.216514  0.783486  0.783486  1
  Sn  Sn34  1  0.783486  0.783486  0.216514  1
  Sn  Sn35  1  0.216514  0.216514  0.783486  1
