# generated using pymatgen
data_Tb6Y5(Lu3Sb4)3
_symmetry_space_group_name_H-M   'P 1'
_cell_length_a   7.99525324
_cell_length_b   9.20796577
_cell_length_c   11.71216300
_cell_angle_alpha   89.98809652
_cell_angle_beta   90.09607045
_cell_angle_gamma   89.96654341
_symmetry_Int_Tables_number   1
_chemical_formula_structural   Tb6Y5(Lu3Sb4)3
_chemical_formula_sum   'Tb6 Y5 Lu9 Sb12'
_cell_volume   862.24827479
_cell_formula_units_Z   1
loop_
 _symmetry_equiv_pos_site_id
 _symmetry_equiv_pos_as_xyz
  1  'x, y, z'
loop_
 _atom_site_type_symbol
 _atom_site_label
 _atom_site_symmetry_multiplicity
 _atom_site_fract_x
 _atom_site_fract_y
 _atom_site_fract_z
 _atom_site_occupancy
  Tb  Tb0  1  0.184550  0.749669  0.719893  1
  Tb  Tb1  1  0.684547  0.749374  0.780713  1
  Tb  Tb2  1  0.815706  0.249805  0.280346  1
  Tb  Tb3  1  0.314737  0.249782  0.219818  1
  Tb  Tb4  1  0.192394  0.942114  0.439588  1
  Tb  Tb5  1  0.309226  0.058761  0.941197  1
  Y  Y6  1  0.806707  0.442512  0.560233  1
  Y  Y7  1  0.354159  0.749979  0.214119  1
  Y  Y8  1  0.851279  0.748127  0.284475  1
  Y  Y9  1  0.646561  0.249535  0.785774  1
  Y  Y10  1  0.147272  0.248348  0.715210  1
  Lu  Lu11  1  0.025078  0.749392  0.989169  1
  Lu  Lu12  1  0.525869  0.750599  0.510767  1
  Lu  Lu13  1  0.974048  0.248791  0.010797  1
  Lu  Lu14  1  0.474024  0.249593  0.488766  1
  Lu  Lu15  1  0.308561  0.434015  0.940940  1
  Lu  Lu16  1  0.809759  0.066066  0.559299  1
  Lu  Lu17  1  0.690214  0.934887  0.058322  1
  Lu  Lu18  1  0.190899  0.566351  0.440376  1
  Lu  Lu19  1  0.692869  0.561714  0.059280  1
  Sb  Sb20  1  0.435768  0.003892  0.671377  1
  Sb  Sb21  1  0.935503  0.494741  0.829157  1
  Sb  Sb22  1  0.564773  0.504262  0.328306  1
  Sb  Sb23  1  0.064285  0.994618  0.171107  1
  Sb  Sb24  1  0.567097  0.995373  0.328673  1
  Sb  Sb25  1  0.065150  0.504223  0.170404  1
  Sb  Sb26  1  0.433777  0.494995  0.671019  1
  Sb  Sb27  1  0.933214  0.003759  0.829150  1
  Sb  Sb28  1  0.407656  0.743184  0.958693  1
  Sb  Sb29  1  0.907105  0.755245  0.541069  1
  Sb  Sb30  1  0.594791  0.249857  0.042846  1
  Sb  Sb31  1  0.092423  0.256438  0.459114  1
