# generated using pymatgen
data_TbCeBIr6
_symmetry_space_group_name_H-M   'P 1'
_cell_length_a   5.86547581
_cell_length_b   5.86547508
_cell_length_c   5.86547500
_cell_angle_alpha   59.99999482
_cell_angle_beta   59.99999892
_cell_angle_gamma   59.99999518
_symmetry_Int_Tables_number   1
_chemical_formula_structural   TbCeBIr6
_chemical_formula_sum   'Tb1 Ce1 B1 Ir6'
_cell_volume   142.69034757
_cell_formula_units_Z   1
loop_
 _symmetry_equiv_pos_site_id
 _symmetry_equiv_pos_as_xyz
  1  'x, y, z'
loop_
 _atom_site_type_symbol
 _atom_site_label
 _atom_site_symmetry_multiplicity
 _atom_site_fract_x
 _atom_site_fract_y
 _atom_site_fract_z
 _atom_site_occupancy
  Tb  Tb0  1  0.250000  0.250000  0.250000  1
  Ce  Ce1  1  0.750000  0.750000  0.750000  1
  B  B2  1  0.000000  0.000000  0.000000  1
  Ir  Ir3  1  0.741803  0.741803  0.258197  1
  Ir  Ir4  1  0.258197  0.741803  0.258197  1
  Ir  Ir5  1  0.741803  0.258197  0.258197  1
  Ir  Ir6  1  0.258197  0.258197  0.741803  1
  Ir  Ir7  1  0.741803  0.258197  0.741803  1
  Ir  Ir8  1  0.258197  0.741803  0.741803  1
