# generated using pymatgen
data_Y10In2PdRu
_symmetry_space_group_name_H-M   'P 1'
_cell_length_a   9.79560132
_cell_length_b   9.65446033
_cell_length_c   9.52270100
_cell_angle_alpha   90.00000000
_cell_angle_beta   90.00000000
_cell_angle_gamma   119.52450566
_symmetry_Int_Tables_number   1
_chemical_formula_structural   Y10In2PdRu
_chemical_formula_sum   'Y20 In4 Pd2 Ru2'
_cell_volume   783.62969164
_cell_formula_units_Z   2
loop_
 _symmetry_equiv_pos_site_id
 _symmetry_equiv_pos_as_xyz
  1  'x, y, z'
loop_
 _atom_site_type_symbol
 _atom_site_label
 _atom_site_symmetry_multiplicity
 _atom_site_fract_x
 _atom_site_fract_y
 _atom_site_fract_z
 _atom_site_occupancy
  Y  Y0  1  0.976372  0.988186  0.457212  1
  Y  Y1  1  0.976372  0.988186  0.042788  1
  Y  Y2  1  0.208948  0.794559  0.438511  1
  Y  Y3  1  0.208948  0.414390  0.438511  1
  Y  Y4  1  0.572223  0.786112  0.442164  1
  Y  Y5  1  0.795517  0.211322  0.559637  1
  Y  Y6  1  0.795517  0.584194  0.559637  1
  Y  Y7  1  0.417943  0.208971  0.556928  1
  Y  Y8  1  0.795517  0.211322  0.940363  1
  Y  Y9  1  0.795517  0.584194  0.940363  1
  Y  Y10  1  0.417943  0.208971  0.943072  1
  Y  Y11  1  0.208948  0.794559  0.061489  1
  Y  Y12  1  0.208948  0.414390  0.061489  1
  Y  Y13  1  0.572223  0.786112  0.057836  1
  Y  Y14  1  0.559975  0.473405  0.250000  1
  Y  Y15  1  0.559975  0.086571  0.250000  1
  Y  Y16  1  0.928943  0.464472  0.250000  1
  Y  Y17  1  0.461413  0.538342  0.750000  1
  Y  Y18  1  0.461413  0.923071  0.750000  1
  Y  Y19  1  0.087063  0.543531  0.750000  1
  In  In20  1  0.257428  0.128714  0.250000  1
  In  In21  1  0.110620  0.892683  0.750000  1
  In  In22  1  0.110620  0.217936  0.750000  1
  In  In23  1  0.774542  0.887270  0.750000  1
  Pd  Pd24  1  0.873933  0.138838  0.250000  1
  Pd  Pd25  1  0.873933  0.735095  0.250000  1
  Ru  Ru26  1  0.327194  0.663597  0.250000  1
  Ru  Ru27  1  0.662016  0.331007  0.750000  1
