# generated using pymatgen
data_CaSm2(Bi2Rh)4
_symmetry_space_group_name_H-M   'P 1'
_cell_length_a   4.20296300
_cell_length_b   10.96549300
_cell_length_c   16.87837200
_cell_angle_alpha   90.00000000
_cell_angle_beta   90.00000000
_cell_angle_gamma   90.00000000
_symmetry_Int_Tables_number   1
_chemical_formula_structural   CaSm2(Bi2Rh)4
_chemical_formula_sum   'Ca2 Sm4 Bi16 Rh8'
_cell_volume   777.88300514
_cell_formula_units_Z   2
loop_
 _symmetry_equiv_pos_site_id
 _symmetry_equiv_pos_as_xyz
  1  'x, y, z'
loop_
 _atom_site_type_symbol
 _atom_site_label
 _atom_site_symmetry_multiplicity
 _atom_site_fract_x
 _atom_site_fract_y
 _atom_site_fract_z
 _atom_site_occupancy
  Ca  Ca0  1  0.500000  0.000000  0.500000  1
  Ca  Ca1  1  0.500000  0.500000  0.000000  1
  Sm  Sm2  1  0.500000  0.865358  0.192810  1
  Sm  Sm3  1  0.500000  0.134642  0.807190  1
  Sm  Sm4  1  0.500000  0.365358  0.307190  1
  Sm  Sm5  1  0.500000  0.634642  0.692810  1
  Bi  Bi6  1  0.000000  0.113635  0.215346  1
  Bi  Bi7  1  0.000000  0.886365  0.784654  1
  Bi  Bi8  1  0.000000  0.613635  0.284654  1
  Bi  Bi9  1  0.000000  0.386365  0.715346  1
  Bi  Bi10  1  0.000000  0.400312  0.146104  1
  Bi  Bi11  1  0.000000  0.599688  0.853896  1
  Bi  Bi12  1  0.000000  0.900312  0.353896  1
  Bi  Bi13  1  0.000000  0.099688  0.646104  1
  Bi  Bi14  1  0.500000  0.126459  0.039188  1
  Bi  Bi15  1  0.500000  0.873541  0.960812  1
  Bi  Bi16  1  0.500000  0.626459  0.460812  1
  Bi  Bi17  1  0.500000  0.373541  0.539188  1
  Bi  Bi18  1  0.000000  0.694161  0.083676  1
  Bi  Bi19  1  0.000000  0.305839  0.916324  1
  Bi  Bi20  1  0.000000  0.194161  0.416324  1
  Bi  Bi21  1  0.000000  0.805839  0.583676  1
  Rh  Rh22  1  0.000000  0.951414  0.081122  1
  Rh  Rh23  1  0.000000  0.048586  0.918878  1
  Rh  Rh24  1  0.000000  0.451414  0.418878  1
  Rh  Rh25  1  0.000000  0.548586  0.581122  1
  Rh  Rh26  1  0.500000  0.580065  0.174905  1
  Rh  Rh27  1  0.500000  0.419935  0.825095  1
  Rh  Rh28  1  0.500000  0.080065  0.325095  1
  Rh  Rh29  1  0.500000  0.919935  0.674905  1
