# generated using pymatgen
data_YbYZn14Co3
_symmetry_space_group_name_H-M   'P 1'
_cell_length_a   6.66701420
_cell_length_b   6.66701585
_cell_length_c   6.66701350
_cell_angle_alpha   82.80482918
_cell_angle_beta   82.80482753
_cell_angle_gamma   82.80482344
_symmetry_Int_Tables_number   1
_chemical_formula_structural   YbYZn14Co3
_chemical_formula_sum   'Yb1 Y1 Zn14 Co3'
_cell_volume   289.88120149
_cell_formula_units_Z   1
loop_
 _symmetry_equiv_pos_site_id
 _symmetry_equiv_pos_as_xyz
  1  'x, y, z'
loop_
 _atom_site_type_symbol
 _atom_site_label
 _atom_site_symmetry_multiplicity
 _atom_site_fract_x
 _atom_site_fract_y
 _atom_site_fract_z
 _atom_site_occupancy
  Yb  Yb0  1  0.661998  0.661998  0.661998  1
  Y  Y1  1  0.335348  0.335348  0.335348  1
  Zn  Zn2  1  0.346138  0.346138  0.852895  1
  Zn  Zn3  1  0.852895  0.346138  0.346138  1
  Zn  Zn4  1  0.104791  0.104791  0.104791  1
  Zn  Zn5  1  0.891660  0.891660  0.891660  1
  Zn  Zn6  1  0.293969  0.708715  0.999362  1
  Zn  Zn7  1  0.708715  0.999362  0.293969  1
  Zn  Zn8  1  0.999362  0.293969  0.708715  1
  Zn  Zn9  1  0.708715  0.293969  0.999362  1
  Zn  Zn10  1  0.293969  0.999362  0.708715  1
  Zn  Zn11  1  0.999362  0.708715  0.293969  1
  Zn  Zn12  1  0.144805  0.653270  0.653270  1
  Zn  Zn13  1  0.653270  0.653270  0.144805  1
  Zn  Zn14  1  0.653270  0.144805  0.653270  1
  Zn  Zn15  1  0.346138  0.852895  0.346138  1
  Co  Co16  1  0.003304  0.003304  0.498988  1
  Co  Co17  1  0.003304  0.498988  0.003304  1
  Co  Co18  1  0.498988  0.003304  0.003304  1
