# generated using pymatgen
data_Ho12Ga2CoNi2Ru
_symmetry_space_group_name_H-M   'P 1'
_cell_length_a   8.27011739
_cell_length_b   8.27035463
_cell_length_c   8.27011809
_cell_angle_alpha   112.81945741
_cell_angle_beta   109.80396449
_cell_angle_gamma   105.86367116
_symmetry_Int_Tables_number   1
_chemical_formula_structural   Ho12Ga2CoNi2Ru
_chemical_formula_sum   'Ho12 Ga2 Co1 Ni2 Ru1'
_cell_volume   433.83769417
_cell_formula_units_Z   1
loop_
 _symmetry_equiv_pos_site_id
 _symmetry_equiv_pos_as_xyz
  1  'x, y, z'
loop_
 _atom_site_type_symbol
 _atom_site_label
 _atom_site_symmetry_multiplicity
 _atom_site_fract_x
 _atom_site_fract_y
 _atom_site_fract_z
 _atom_site_occupancy
  Ho  Ho0  1  0.439695  0.245563  0.194137  1
  Ho  Ho1  1  0.571095  0.767119  0.803971  1
  Ho  Ho2  1  0.036852  0.232881  0.803976  1
  Ho  Ho3  1  0.948574  0.754437  0.194133  1
  Ho  Ho4  1  0.182864  0.281452  0.464312  1
  Ho  Ho5  1  0.821949  0.722617  0.544567  1
  Ho  Ho6  1  0.182861  0.718548  0.901411  1
  Ho  Ho7  1  0.821949  0.277383  0.099332  1
  Ho  Ho8  1  0.329247  0.639624  0.309956  1
  Ho  Ho9  1  0.670331  0.360376  0.689621  1
  Ho  Ho10  1  0.329245  0.019304  0.689635  1
  Ho  Ho11  1  0.670331  0.980696  0.309941  1
  Ga  Ga12  1  0.496613  0.500000  0.996613  1
  Ga  Ga13  1  0.011386  0.000000  0.011386  1
  Co  Co14  1  0.658938  0.000000  0.658938  1
  Ni  Ni15  1  0.118922  0.619559  0.499697  1
  Ni  Ni16  1  0.880138  0.380441  0.499363  1
  Ru  Ru17  1  0.329011  0.000000  0.329011  1
