# generated using pymatgen
data_Ho6Er4In8CuPt3
_symmetry_space_group_name_H-M   'P 1'
_cell_length_a   3.62141100
_cell_length_b   8.10272829
_cell_length_c   18.14846920
_cell_angle_alpha   89.90477186
_cell_angle_beta   90.00000000
_cell_angle_gamma   90.00000000
_symmetry_Int_Tables_number   1
_chemical_formula_structural   Ho6Er4In8CuPt3
_chemical_formula_sum   'Ho6 Er4 In8 Cu1 Pt3'
_cell_volume   532.53541033
_cell_formula_units_Z   1
loop_
 _symmetry_equiv_pos_site_id
 _symmetry_equiv_pos_as_xyz
  1  'x, y, z'
loop_
 _atom_site_type_symbol
 _atom_site_label
 _atom_site_symmetry_multiplicity
 _atom_site_fract_x
 _atom_site_fract_y
 _atom_site_fract_z
 _atom_site_occupancy
  Ho  Ho0  1  0.000000  0.246413  0.219134  1
  Ho  Ho1  1  0.000000  0.757082  0.780512  1
  Ho  Ho2  1  0.000000  0.256607  0.719929  1
  Ho  Ho3  1  0.000000  0.737305  0.280531  1
  Ho  Ho4  1  0.000000  0.999333  0.000362  1
  Ho  Ho5  1  0.000000  0.498069  0.499576  1
  Er  Er6  1  0.000000  0.117445  0.414272  1
  Er  Er7  1  0.000000  0.883089  0.584891  1
  Er  Er8  1  0.000000  0.384090  0.915220  1
  Er  Er9  1  0.000000  0.618106  0.085335  1
  In  In10  1  0.500000  0.418694  0.351565  1
  In  In11  1  0.500000  0.577569  0.648228  1
  In  In12  1  0.500000  0.077818  0.852055  1
  In  In13  1  0.500000  0.924627  0.151086  1
  In  In14  1  0.500000  0.294711  0.066062  1
  In  In15  1  0.500000  0.706909  0.934504  1
  In  In16  1  0.500000  0.206519  0.565226  1
  In  In17  1  0.500000  0.794607  0.432514  1
  Cu  Cu18  1  0.500000  0.025600  0.302157  1
  Pt  Pt19  1  0.500000  0.973791  0.695824  1
  Pt  Pt20  1  0.500000  0.474865  0.803919  1
  Pt  Pt21  1  0.500000  0.526754  0.197096  1
