# generated using pymatgen
data_Er2SeS2
_symmetry_space_group_name_H-M   'P 1'
_cell_length_a   7.19151517
_cell_length_b   7.19151454
_cell_length_c   7.19151507
_cell_angle_alpha   147.66283432
_cell_angle_beta   136.39714067
_cell_angle_gamma   55.31582208
_symmetry_Int_Tables_number   1
_chemical_formula_structural   Er2SeS2
_chemical_formula_sum   'Er2 Se1 S2'
_cell_volume   136.27811163
_cell_formula_units_Z   1
loop_
 _symmetry_equiv_pos_site_id
 _symmetry_equiv_pos_as_xyz
  1  'x, y, z'
loop_
 _atom_site_type_symbol
 _atom_site_label
 _atom_site_symmetry_multiplicity
 _atom_site_fract_x
 _atom_site_fract_y
 _atom_site_fract_z
 _atom_site_occupancy
  Er  Er0  1  0.839772  0.339772  0.500000  1
  Er  Er1  1  0.160228  0.660228  0.500000  1
  Se  Se2  1  0.000000  0.000000  0.000000  1
  S  S3  1  0.697729  0.697729  0.000000  1
  S  S4  1  0.302271  0.302271  0.000000  1
