# generated using pymatgen
data_Y8Tm12HgBi11
_symmetry_space_group_name_H-M   'P 1'
_cell_length_a   8.18756436
_cell_length_b   9.41649600
_cell_length_c   12.02635519
_cell_angle_alpha   90.00000000
_cell_angle_beta   90.27350653
_cell_angle_gamma   90.00000000
_symmetry_Int_Tables_number   1
_chemical_formula_structural   Y8Tm12HgBi11
_chemical_formula_sum   'Y8 Tm12 Hg1 Bi11'
_cell_volume   927.19937788
_cell_formula_units_Z   1
loop_
 _symmetry_equiv_pos_site_id
 _symmetry_equiv_pos_as_xyz
  1  'x, y, z'
loop_
 _atom_site_type_symbol
 _atom_site_label
 _atom_site_symmetry_multiplicity
 _atom_site_fract_x
 _atom_site_fract_y
 _atom_site_fract_z
 _atom_site_occupancy
  Y  Y0  1  0.188416  0.750000  0.719573  1
  Y  Y1  1  0.680431  0.750000  0.784875  1
  Y  Y2  1  0.812209  0.250000  0.281861  1
  Y  Y3  1  0.313870  0.250000  0.219385  1
  Y  Y4  1  0.355002  0.750000  0.211190  1
  Y  Y5  1  0.852626  0.750000  0.285622  1
  Y  Y6  1  0.647955  0.250000  0.784347  1
  Y  Y7  1  0.149620  0.250000  0.715044  1
  Tm  Tm8  1  0.033072  0.750000  0.990849  1
  Tm  Tm9  1  0.523512  0.750000  0.509971  1
  Tm  Tm10  1  0.978629  0.250000  0.010348  1
  Tm  Tm11  1  0.476194  0.250000  0.489941  1
  Tm  Tm12  1  0.307799  0.446378  0.940195  1
  Tm  Tm13  1  0.807157  0.065591  0.559200  1
  Tm  Tm14  1  0.687486  0.930475  0.056444  1
  Tm  Tm15  1  0.192619  0.565272  0.439860  1
  Tm  Tm16  1  0.687486  0.569525  0.056444  1
  Tm  Tm17  1  0.192619  0.934728  0.439860  1
  Tm  Tm18  1  0.307799  0.053622  0.940195  1
  Tm  Tm19  1  0.807157  0.434409  0.559200  1
  Hg  Hg20  1  0.405805  0.750000  0.959216  1
  Bi  Bi21  1  0.435400  0.003205  0.672526  1
  Bi  Bi22  1  0.935623  0.496455  0.826577  1
  Bi  Bi23  1  0.565032  0.503797  0.328047  1
  Bi  Bi24  1  0.063381  0.996498  0.173784  1
  Bi  Bi25  1  0.565032  0.996203  0.328047  1
  Bi  Bi26  1  0.063381  0.503502  0.173784  1
  Bi  Bi27  1  0.435400  0.496795  0.672526  1
  Bi  Bi28  1  0.935623  0.003545  0.826577  1
  Bi  Bi29  1  0.905577  0.750000  0.544368  1
  Bi  Bi30  1  0.593770  0.250000  0.042838  1
  Bi  Bi31  1  0.094317  0.250000  0.457302  1
