# generated using pymatgen
data_Ho3ErReB12Rh
_symmetry_space_group_name_H-M   'P 1'
_cell_length_a   3.66725600
_cell_length_b   9.12692121
_cell_length_c   11.51714709
_cell_angle_alpha   90.44396052
_cell_angle_beta   90.00000000
_cell_angle_gamma   90.00000000
_symmetry_Int_Tables_number   1
_chemical_formula_structural   Ho3ErReB12Rh
_chemical_formula_sum   'Ho6 Er2 Re2 B24 Rh2'
_cell_volume   385.47605442
_cell_formula_units_Z   2
loop_
 _symmetry_equiv_pos_site_id
 _symmetry_equiv_pos_as_xyz
  1  'x, y, z'
loop_
 _atom_site_type_symbol
 _atom_site_label
 _atom_site_symmetry_multiplicity
 _atom_site_fract_x
 _atom_site_fract_y
 _atom_site_fract_z
 _atom_site_occupancy
  Ho  Ho0  1  0.000000  0.318427  0.410782  1
  Ho  Ho1  1  0.000000  0.681573  0.589218  1
  Ho  Ho2  1  0.000000  0.825992  0.082723  1
  Ho  Ho3  1  0.000000  0.174008  0.917277  1
  Ho  Ho4  1  0.000000  0.945151  0.371705  1
  Ho  Ho5  1  0.000000  0.054849  0.628295  1
  Er  Er6  1  0.000000  0.442369  0.126636  1
  Er  Er7  1  0.000000  0.557631  0.873364  1
  Re  Re8  1  0.000000  0.139088  0.179531  1
  Re  Re9  1  0.000000  0.860912  0.820469  1
  B  B10  1  0.500000  0.554293  0.434223  1
  B  B11  1  0.500000  0.445707  0.565777  1
  B  B12  1  0.500000  0.053031  0.067320  1
  B  B13  1  0.500000  0.946969  0.932680  1
  B  B14  1  0.500000  0.748789  0.421356  1
  B  B15  1  0.500000  0.251211  0.578644  1
  B  B16  1  0.500000  0.248807  0.081254  1
  B  B17  1  0.500000  0.751193  0.918746  1
  B  B18  1  0.500000  0.791006  0.265104  1
  B  B19  1  0.500000  0.208994  0.734896  1
  B  B20  1  0.500000  0.293102  0.234761  1
  B  B21  1  0.500000  0.706898  0.765239  1
  B  B22  1  0.500000  0.632071  0.183341  1
  B  B23  1  0.500000  0.367929  0.816659  1
  B  B24  1  0.500000  0.132022  0.314782  1
  B  B25  1  0.500000  0.867978  0.685218  1
  B  B26  1  0.500000  0.982977  0.212881  1
  B  B27  1  0.500000  0.017023  0.787119  1
  B  B28  1  0.500000  0.483224  0.287647  1
  B  B29  1  0.500000  0.516776  0.712353  1
  B  B30  1  0.500000  0.605369  0.029302  1
  B  B31  1  0.500000  0.394631  0.970698  1
  B  B32  1  0.500000  0.107652  0.470922  1
  B  B33  1  0.500000  0.892348  0.529078  1
  Rh  Rh34  1  0.000000  0.637432  0.321190  1
  Rh  Rh35  1  0.000000  0.362568  0.678810  1
