# generated using pymatgen
data_DyHo5Al24(Ir3Ru)2
_symmetry_space_group_name_H-M   'P 1'
_cell_length_a   8.82466801
_cell_length_b   8.82533139
_cell_length_c   9.48767300
_cell_angle_alpha   90.00000000
_cell_angle_beta   90.00000000
_cell_angle_gamma   120.00248900
_symmetry_Int_Tables_number   1
_chemical_formula_structural   DyHo5Al24(Ir3Ru)2
_chemical_formula_sum   'Dy1 Ho5 Al24 Ir6 Ru2'
_cell_volume   639.89518813
_cell_formula_units_Z   1
loop_
 _symmetry_equiv_pos_site_id
 _symmetry_equiv_pos_as_xyz
  1  'x, y, z'
loop_
 _atom_site_type_symbol
 _atom_site_label
 _atom_site_symmetry_multiplicity
 _atom_site_fract_x
 _atom_site_fract_y
 _atom_site_fract_z
 _atom_site_occupancy
  Dy  Dy0  1  0.385261  0.192631  0.750000  1
  Ho  Ho1  1  0.192983  0.807178  0.250000  1
  Ho  Ho2  1  0.192983  0.385804  0.250000  1
  Ho  Ho3  1  0.614217  0.807108  0.250000  1
  Ho  Ho4  1  0.807255  0.192941  0.750000  1
  Ho  Ho5  1  0.807255  0.614315  0.750000  1
  Al  Al6  1  0.562113  0.437801  0.250000  1
  Al  Al7  1  0.562113  0.124312  0.250000  1
  Al  Al8  1  0.875728  0.437864  0.250000  1
  Al  Al9  1  0.437910  0.562344  0.750000  1
  Al  Al10  1  0.437910  0.875566  0.750000  1
  Al  Al11  1  0.124248  0.562124  0.750000  1
  Al  Al12  1  0.325958  0.162979  0.423767  1
  Al  Al13  1  0.836985  0.162959  0.423875  1
  Al  Al14  1  0.836985  0.674027  0.423875  1
  Al  Al15  1  0.674036  0.837018  0.576122  1
  Al  Al16  1  0.162956  0.836940  0.576042  1
  Al  Al17  1  0.162956  0.326015  0.576042  1
  Al  Al18  1  0.674036  0.837018  0.923878  1
  Al  Al19  1  0.162956  0.836940  0.923958  1
  Al  Al20  1  0.162956  0.326015  0.923958  1
  Al  Al21  1  0.325958  0.162979  0.076233  1
  Al  Al22  1  0.836985  0.162959  0.076125  1
  Al  Al23  1  0.836985  0.674027  0.076125  1
  Al  Al24  1  0.666795  0.333397  0.528889  1
  Al  Al25  1  0.333342  0.666672  0.471001  1
  Al  Al26  1  0.333342  0.666672  0.028999  1
  Al  Al27  1  0.666795  0.333397  0.971111  1
  Al  Al28  1  0.999968  0.999984  0.250000  1
  Al  Al29  1  0.999758  0.999879  0.750000  1
  Ir  Ir30  1  0.500015  0.500125  0.499875  1
  Ir  Ir31  1  0.500015  0.999890  0.499875  1
  Ir  Ir32  1  0.000068  0.500034  0.499960  1
  Ir  Ir33  1  0.500015  0.500125  0.000125  1
  Ir  Ir34  1  0.500015  0.999890  0.000125  1
  Ir  Ir35  1  0.000068  0.500034  0.000040  1
  Ru  Ru36  1  0.000038  0.000019  0.499931  1
  Ru  Ru37  1  0.000038  0.000019  0.000069  1
