# generated using pymatgen
data_Ce4Sm3Y(AlRu)8
_symmetry_space_group_name_H-M   'P 1'
_cell_length_a   4.00938800
_cell_length_b   7.29022836
_cell_length_c   16.11820461
_cell_angle_alpha   91.46371435
_cell_angle_beta   90.00000000
_cell_angle_gamma   90.00000000
_symmetry_Int_Tables_number   1
_chemical_formula_structural   Ce4Sm3Y(AlRu)8
_chemical_formula_sum   'Ce4 Sm3 Y1 Al8 Ru8'
_cell_volume   470.97098350
_cell_formula_units_Z   1
loop_
 _symmetry_equiv_pos_site_id
 _symmetry_equiv_pos_as_xyz
  1  'x, y, z'
loop_
 _atom_site_type_symbol
 _atom_site_label
 _atom_site_symmetry_multiplicity
 _atom_site_fract_x
 _atom_site_fract_y
 _atom_site_fract_z
 _atom_site_occupancy
  Ce  Ce0  1  0.750000  0.824838  0.437201  1
  Ce  Ce1  1  0.750000  0.457099  0.281689  1
  Ce  Ce2  1  0.750000  0.328468  0.062749  1
  Ce  Ce3  1  0.250000  0.538973  0.720263  1
  Sm  Sm4  1  0.250000  0.165155  0.561301  1
  Sm  Sm5  1  0.250000  0.663988  0.939341  1
  Sm  Sm6  1  0.250000  0.040116  0.781140  1
  Y  Y7  1  0.750000  0.962612  0.218982  1
  Al  Al8  1  0.750000  0.499872  0.561603  1
  Al  Al9  1  0.750000  0.362948  0.853578  1
  Al  Al10  1  0.750000  0.992140  0.936464  1
  Al  Al11  1  0.750000  0.867262  0.649727  1
  Al  Al12  1  0.250000  0.490489  0.437017  1
  Al  Al13  1  0.250000  0.994329  0.066779  1
  Al  Al14  1  0.250000  0.640573  0.154166  1
  Al  Al15  1  0.250000  0.125835  0.344768  1
  Ru  Ru16  1  0.750000  0.729068  0.805470  1
  Ru  Ru17  1  0.250000  0.232015  0.942404  1
  Ru  Ru18  1  0.750000  0.269090  0.423704  1
  Ru  Ru19  1  0.250000  0.753263  0.325230  1
  Ru  Ru20  1  0.750000  0.767030  0.068105  1
  Ru  Ru21  1  0.750000  0.277198  0.688485  1
  Ru  Ru22  1  0.250000  0.276490  0.179015  1
  Ru  Ru23  1  0.250000  0.741150  0.560818  1
