# generated using pymatgen
data_Zr6Co16Ni4As13
_symmetry_space_group_name_H-M   'P 1'
_cell_length_a   12.87360800
_cell_length_b   12.87360738
_cell_length_c   3.72482200
_cell_angle_alpha   90.00000000
_cell_angle_beta   90.00000000
_cell_angle_gamma   119.99999133
_symmetry_Int_Tables_number   1
_chemical_formula_structural   Zr6Co16Ni4As13
_chemical_formula_sum   'Zr6 Co16 Ni4 As13'
_cell_volume   534.60957628
_cell_formula_units_Z   1
loop_
 _symmetry_equiv_pos_site_id
 _symmetry_equiv_pos_as_xyz
  1  'x, y, z'
loop_
 _atom_site_type_symbol
 _atom_site_label
 _atom_site_symmetry_multiplicity
 _atom_site_fract_x
 _atom_site_fract_y
 _atom_site_fract_z
 _atom_site_occupancy
  Zr  Zr0  1  0.809936  0.285151  0.500000  1
  Zr  Zr1  1  0.714849  0.524784  0.500000  1
  Zr  Zr2  1  0.475216  0.190064  0.500000  1
  Zr  Zr3  1  0.194634  0.718366  0.000000  1
  Zr  Zr4  1  0.281634  0.476268  0.000000  1
  Zr  Zr5  1  0.523732  0.805366  0.000000  1
  Co  Co6  1  0.417587  0.980489  0.000000  1
  Co  Co7  1  0.019511  0.437098  0.000000  1
  Co  Co8  1  0.581006  0.017482  0.500000  1
  Co  Co9  1  0.562902  0.582413  0.000000  1
  Co  Co10  1  0.982518  0.563524  0.500000  1
  Co  Co11  1  0.929594  0.077940  0.500000  1
  Co  Co12  1  0.148347  0.070406  0.500000  1
  Co  Co13  1  0.922060  0.851653  0.500000  1
  Co  Co14  1  0.097525  0.894359  0.000000  1
  Co  Co15  1  0.796834  0.902475  0.000000  1
  Co  Co16  1  0.105641  0.203166  0.000000  1
  Co  Co17  1  0.333333  0.666667  0.500000  1
  Co  Co18  1  0.678225  0.746022  0.500000  1
  Co  Co19  1  0.253978  0.932203  0.500000  1
  Co  Co20  1  0.436476  0.418994  0.500000  1
  Co  Co21  1  0.067797  0.321775  0.500000  1
  Ni  Ni22  1  0.666667  0.333333  0.000000  1
  Ni  Ni23  1  0.923000  0.673874  0.000000  1
  Ni  Ni24  1  0.326126  0.249126  0.000000  1
  Ni  Ni25  1  0.750874  0.077000  0.000000  1
  As  As26  1  0.000000  0.000000  0.000000  1
  As  As27  1  0.230372  0.285590  0.500000  1
  As  As28  1  0.714410  0.944780  0.500000  1
  As  As29  1  0.055220  0.769628  0.500000  1
  As  As30  1  0.769171  0.713564  0.000000  1
  As  As31  1  0.286436  0.055606  0.000000  1
  As  As32  1  0.473396  0.614111  0.500000  1
  As  As33  1  0.385889  0.859285  0.500000  1
  As  As34  1  0.860743  0.473323  0.000000  1
  As  As35  1  0.526677  0.387421  0.000000  1
  As  As36  1  0.612579  0.139257  0.000000  1
  As  As37  1  0.944394  0.230829  0.000000  1
  As  As38  1  0.140715  0.526604  0.500000  1
