# generated using pymatgen
data_Y9LuCdIn7
_symmetry_space_group_name_H-M   'P 1'
_cell_length_a   9.29080500
_cell_length_b   9.29080462
_cell_length_c   6.71432300
_cell_angle_alpha   90.00000000
_cell_angle_beta   90.00000000
_cell_angle_gamma   119.99999780
_symmetry_Int_Tables_number   1
_chemical_formula_structural   Y9LuCdIn7
_chemical_formula_sum   'Y9 Lu1 Cd1 In7'
_cell_volume   501.92582687
_cell_formula_units_Z   1
loop_
 _symmetry_equiv_pos_site_id
 _symmetry_equiv_pos_as_xyz
  1  'x, y, z'
loop_
 _atom_site_type_symbol
 _atom_site_label
 _atom_site_symmetry_multiplicity
 _atom_site_fract_x
 _atom_site_fract_y
 _atom_site_fract_z
 _atom_site_occupancy
  Y  Y0  1  0.333333  0.666667  0.500000  1
  Y  Y1  1  0.666667  0.333333  0.500000  1
  Y  Y2  1  0.666667  0.333333  0.000000  1
  Y  Y3  1  0.287583  0.999455  0.750560  1
  Y  Y4  1  0.711872  0.999455  0.249440  1
  Y  Y5  1  0.000545  0.288128  0.750560  1
  Y  Y6  1  0.000545  0.712417  0.249440  1
  Y  Y7  1  0.711872  0.712417  0.750560  1
  Y  Y8  1  0.287583  0.288128  0.249440  1
  Lu  Lu9  1  0.333333  0.666667  0.000000  1
  Cd  Cd10  1  0.000000  0.000000  0.500000  1
  In  In11  1  0.000000  0.000000  0.000000  1
  In  In12  1  0.626743  0.999427  0.750413  1
  In  In13  1  0.372685  0.999427  0.249587  1
  In  In14  1  0.000573  0.627315  0.750413  1
  In  In15  1  0.000573  0.373257  0.249587  1
  In  In16  1  0.372685  0.373257  0.750413  1
  In  In17  1  0.626743  0.627315  0.249587  1
