# generated using pymatgen
data_DyLu4Mn2O12
_symmetry_space_group_name_H-M   'P 1'
_cell_length_a   6.70310101
_cell_length_b   6.70312004
_cell_length_c   7.09686601
_cell_angle_alpha   74.59177150
_cell_angle_beta   74.59200973
_cell_angle_gamma   50.01798580
_symmetry_Int_Tables_number   1
_chemical_formula_structural   DyLu4Mn2O12
_chemical_formula_sum   'Dy1 Lu4 Mn2 O12'
_cell_volume   233.59927340
_cell_formula_units_Z   1
loop_
 _symmetry_equiv_pos_site_id
 _symmetry_equiv_pos_as_xyz
  1  'x, y, z'
loop_
 _atom_site_type_symbol
 _atom_site_label
 _atom_site_symmetry_multiplicity
 _atom_site_fract_x
 _atom_site_fract_y
 _atom_site_fract_z
 _atom_site_occupancy
  Dy  Dy0  1  0.000000  0.000000  0.500000  1
  Lu  Lu1  1  0.304596  0.304595  0.356909  1
  Lu  Lu2  1  0.695404  0.695405  0.643091  1
  Lu  Lu3  1  0.307462  0.307463  0.835163  1
  Lu  Lu4  1  0.692538  0.692537  0.164837  1
  Mn  Mn5  1  0.753742  0.246269  0.999999  1
  Mn  Mn6  1  0.246258  0.753731  0.000001  1
  O  O7  1  0.902945  0.424690  0.917464  1
  O  O8  1  0.424674  0.902955  0.917462  1
  O  O9  1  0.097055  0.575310  0.082536  1
  O  O10  1  0.575326  0.097045  0.082538  1
  O  O11  1  0.097627  0.592905  0.575598  1
  O  O12  1  0.592917  0.097620  0.575602  1
  O  O13  1  0.902373  0.407095  0.424402  1
  O  O14  1  0.407083  0.902380  0.424398  1
  O  O15  1  0.999853  0.999853  0.820042  1
  O  O16  1  0.000147  0.000147  0.179958  1
  O  O17  1  0.499973  0.499990  0.814450  1
  O  O18  1  0.500027  0.500010  0.185550  1
