# generated using pymatgen
data_Zr5CuSb9
_symmetry_space_group_name_H-M   'P 1'
_cell_length_a   8.96946900
_cell_length_b   8.96946900
_cell_length_c   8.78365300
_cell_angle_alpha   90.00000000
_cell_angle_beta   90.00000000
_cell_angle_gamma   90.00000000
_symmetry_Int_Tables_number   1
_chemical_formula_structural   Zr5CuSb9
_chemical_formula_sum   'Zr10 Cu2 Sb18'
_cell_volume   706.65695384
_cell_formula_units_Z   2
loop_
 _symmetry_equiv_pos_site_id
 _symmetry_equiv_pos_as_xyz
  1  'x, y, z'
loop_
 _atom_site_type_symbol
 _atom_site_label
 _atom_site_symmetry_multiplicity
 _atom_site_fract_x
 _atom_site_fract_y
 _atom_site_fract_z
 _atom_site_occupancy
  Zr  Zr0  1  0.500000  0.000000  0.256434  1
  Zr  Zr1  1  0.000000  0.500000  0.743566  1
  Zr  Zr2  1  0.296151  0.604774  0.264628  1
  Zr  Zr3  1  0.703849  0.395226  0.264628  1
  Zr  Zr4  1  0.796151  0.104774  0.735372  1
  Zr  Zr5  1  0.203849  0.895226  0.735372  1
  Zr  Zr6  1  0.395226  0.296151  0.735372  1
  Zr  Zr7  1  0.604774  0.703849  0.735372  1
  Zr  Zr8  1  0.895226  0.796151  0.264628  1
  Zr  Zr9  1  0.104774  0.203849  0.264628  1
  Cu  Cu10  1  0.500000  0.500000  0.000000  1
  Cu  Cu11  1  0.000000  0.000000  0.000000  1
  Sb  Sb12  1  0.778568  0.587858  0.999797  1
  Sb  Sb13  1  0.221432  0.412142  0.999797  1
  Sb  Sb14  1  0.278568  0.087858  0.000203  1
  Sb  Sb15  1  0.721432  0.912142  0.000203  1
  Sb  Sb16  1  0.412142  0.778568  0.000203  1
  Sb  Sb17  1  0.587858  0.221432  0.000203  1
  Sb  Sb18  1  0.912142  0.278568  0.999797  1
  Sb  Sb19  1  0.087858  0.721432  0.999797  1
  Sb  Sb20  1  0.000000  0.500000  0.390810  1
  Sb  Sb21  1  0.500000  0.000000  0.609190  1
  Sb  Sb22  1  0.197756  0.901192  0.380825  1
  Sb  Sb23  1  0.802244  0.098808  0.380825  1
  Sb  Sb24  1  0.697756  0.401192  0.619175  1
  Sb  Sb25  1  0.302244  0.598808  0.619175  1
  Sb  Sb26  1  0.098808  0.197756  0.619175  1
  Sb  Sb27  1  0.901192  0.802244  0.619175  1
  Sb  Sb28  1  0.598808  0.697756  0.380825  1
  Sb  Sb29  1  0.401192  0.302244  0.380825  1
