# generated using pymatgen
data_DyTm9(SiSb)4
_symmetry_space_group_name_H-M   'P 1'
_cell_length_a   8.43571876
_cell_length_b   8.41308577
_cell_length_c   7.76828681
_cell_angle_alpha   90.12336233
_cell_angle_beta   90.07364162
_cell_angle_gamma   125.27815485
_symmetry_Int_Tables_number   1
_chemical_formula_structural   DyTm9(SiSb)4
_chemical_formula_sum   'Dy1 Tm9 Si4 Sb4'
_cell_volume   450.07008141
_cell_formula_units_Z   1
loop_
 _symmetry_equiv_pos_site_id
 _symmetry_equiv_pos_as_xyz
  1  'x, y, z'
loop_
 _atom_site_type_symbol
 _atom_site_label
 _atom_site_symmetry_multiplicity
 _atom_site_fract_x
 _atom_site_fract_y
 _atom_site_fract_z
 _atom_site_occupancy
  Dy  Dy0  1  0.540880  0.795163  0.167071  1
  Tm  Tm1  1  0.290072  0.039662  0.335079  1
  Tm  Tm2  1  0.209875  0.459689  0.834675  1
  Tm  Tm3  1  0.958588  0.707997  0.665522  1
  Tm  Tm4  1  0.709738  0.959273  0.665519  1
  Tm  Tm5  1  0.458871  0.207779  0.834235  1
  Tm  Tm6  1  0.790461  0.540435  0.165177  1
  Tm  Tm7  1  0.040994  0.290699  0.334468  1
  Tm  Tm8  1  0.499932  0.499413  0.500376  1
  Tm  Tm9  1  0.000304  0.000630  0.999691  1
  Si  Si10  1  0.632409  0.631807  0.867424  1
  Si  Si11  1  0.132071  0.131814  0.630967  1
  Si  Si12  1  0.869618  0.867879  0.369871  1
  Si  Si13  1  0.367270  0.366466  0.131639  1
  Sb  Sb14  1  0.292361  0.705337  0.502974  1
  Sb  Sb15  1  0.203773  0.793676  0.999195  1
  Sb  Sb16  1  0.705558  0.292358  0.498898  1
  Sb  Sb17  1  0.797225  0.209924  0.997218  1
