# generated using pymatgen
data_Ca11Y(SiRh)8
_symmetry_space_group_name_H-M   'P 1'
_cell_length_a   5.78991775
_cell_length_b   7.65339960
_cell_length_c   13.39518300
_cell_angle_alpha   90.00000000
_cell_angle_beta   90.00000000
_cell_angle_gamma   90.11862004
_symmetry_Int_Tables_number   1
_chemical_formula_structural   Ca11Y(SiRh)8
_chemical_formula_sum   'Ca11 Y1 Si8 Rh8'
_cell_volume   593.57350009
_cell_formula_units_Z   1
loop_
 _symmetry_equiv_pos_site_id
 _symmetry_equiv_pos_as_xyz
  1  'x, y, z'
loop_
 _atom_site_type_symbol
 _atom_site_label
 _atom_site_symmetry_multiplicity
 _atom_site_fract_x
 _atom_site_fract_y
 _atom_site_fract_z
 _atom_site_occupancy
  Ca  Ca0  1  0.135431  0.606362  0.100456  1
  Ca  Ca1  1  0.134951  0.896721  0.900537  1
  Ca  Ca2  1  0.865691  0.106610  0.398413  1
  Ca  Ca3  1  0.867550  0.390286  0.600814  1
  Ca  Ca4  1  0.867550  0.390286  0.899186  1
  Ca  Ca5  1  0.865691  0.106610  0.101587  1
  Ca  Ca6  1  0.134951  0.896721  0.599463  1
  Ca  Ca7  1  0.135431  0.606362  0.399544  1
  Ca  Ca8  1  0.363329  0.266086  0.250000  1
  Ca  Ca9  1  0.362541  0.240343  0.750000  1
  Ca  Ca10  1  0.637122  0.765360  0.250000  1
  Y  Y11  1  0.628149  0.735209  0.750000  1
  Si  Si12  1  0.839053  0.416143  0.250000  1
  Si  Si13  1  0.835907  0.083120  0.750000  1
  Si  Si14  1  0.162295  0.914440  0.250000  1
  Si  Si15  1  0.149636  0.595362  0.750000  1
  Si  Si16  1  0.408678  0.248752  0.998446  1
  Si  Si17  1  0.591848  0.748534  0.500318  1
  Si  Si18  1  0.591848  0.748534  0.999682  1
  Si  Si19  1  0.408678  0.248752  0.501554  1
  Rh  Rh20  1  0.635889  0.471772  0.089117  1
  Rh  Rh21  1  0.636184  0.021978  0.908356  1
  Rh  Rh22  1  0.367144  0.972315  0.409240  1
  Rh  Rh23  1  0.367618  0.528640  0.592494  1
  Rh  Rh24  1  0.367618  0.528640  0.907506  1
  Rh  Rh25  1  0.367144  0.972315  0.090760  1
  Rh  Rh26  1  0.636184  0.021978  0.591644  1
  Rh  Rh27  1  0.635889  0.471772  0.410883  1
