# generated using pymatgen
data_ErTh3(Pd5Pt)2
_symmetry_space_group_name_H-M   'P 1'
_cell_length_a   5.92289889
_cell_length_b   5.91954407
_cell_length_c   9.73792093
_cell_angle_alpha   89.81523238
_cell_angle_beta   90.17402229
_cell_angle_gamma   120.03356329
_symmetry_Int_Tables_number   1
_chemical_formula_structural   ErTh3(Pd5Pt)2
_chemical_formula_sum   'Er1 Th3 Pd10 Pt2'
_cell_volume   295.57631259
_cell_formula_units_Z   1
loop_
 _symmetry_equiv_pos_site_id
 _symmetry_equiv_pos_as_xyz
  1  'x, y, z'
loop_
 _atom_site_type_symbol
 _atom_site_label
 _atom_site_symmetry_multiplicity
 _atom_site_fract_x
 _atom_site_fract_y
 _atom_site_fract_z
 _atom_site_occupancy
  Er  Er0  1  0.333763  0.666112  0.250424  1
  Th  Th1  1  0.000166  0.000562  0.495403  1
  Th  Th2  1  0.000266  0.000642  0.004661  1
  Th  Th3  1  0.666072  0.332750  0.749872  1
  Pd  Pd4  1  0.499481  0.998927  0.497955  1
  Pd  Pd5  1  0.001319  0.500800  0.498162  1
  Pd  Pd6  1  0.499528  0.500834  0.001796  1
  Pd  Pd7  1  0.499457  0.999014  0.002118  1
  Pd  Pd8  1  0.001303  0.500847  0.001845  1
  Pd  Pd9  1  0.824461  0.648743  0.249661  1
  Pd  Pd10  1  0.350226  0.174982  0.249637  1
  Pd  Pd11  1  0.825327  0.174740  0.249245  1
  Pd  Pd12  1  0.652009  0.826362  0.750301  1
  Pd  Pd13  1  0.173660  0.826443  0.750667  1
  Pt  Pt14  1  0.499555  0.500914  0.497804  1
  Pt  Pt15  1  0.173409  0.347327  0.750449  1
