# generated using pymatgen
data_Zr10AlZn2Sb5
_symmetry_space_group_name_H-M   'P 1'
_cell_length_a   8.62379600
_cell_length_b   8.65240842
_cell_length_c   5.85444000
_cell_angle_alpha   90.00000000
_cell_angle_beta   90.00000000
_cell_angle_gamma   119.89066967
_symmetry_Int_Tables_number   1
_chemical_formula_structural   Zr10AlZn2Sb5
_chemical_formula_sum   'Zr10 Al1 Zn2 Sb5'
_cell_volume   378.72927731
_cell_formula_units_Z   1
loop_
 _symmetry_equiv_pos_site_id
 _symmetry_equiv_pos_as_xyz
  1  'x, y, z'
loop_
 _atom_site_type_symbol
 _atom_site_label
 _atom_site_symmetry_multiplicity
 _atom_site_fract_x
 _atom_site_fract_y
 _atom_site_fract_z
 _atom_site_occupancy
  Zr  Zr0  1  0.730603  0.730948  0.250000  1
  Zr  Zr1  1  0.725232  0.000000  0.750000  1
  Zr  Zr2  1  0.999655  0.269052  0.250000  1
  Zr  Zr3  1  0.007235  0.733406  0.750000  1
  Zr  Zr4  1  0.273830  0.266594  0.750000  1
  Zr  Zr5  1  0.268334  0.000000  0.250000  1
  Zr  Zr6  1  0.333760  0.669403  0.502407  1
  Zr  Zr7  1  0.664358  0.330597  0.997593  1
  Zr  Zr8  1  0.664358  0.330597  0.502407  1
  Zr  Zr9  1  0.333760  0.669403  0.997593  1
  Al  Al10  1  0.383942  0.000000  0.750000  1
  Zn  Zn11  1  0.000130  0.000000  0.995921  1
  Zn  Zn12  1  0.000130  0.000000  0.504079  1
  Sb  Sb13  1  0.384085  0.384520  0.250000  1
  Sb  Sb14  1  0.999565  0.615480  0.250000  1
  Sb  Sb15  1  0.001159  0.382714  0.750000  1
  Sb  Sb16  1  0.618445  0.617286  0.750000  1
  Sb  Sb17  1  0.611421  0.000000  0.250000  1
