# generated using pymatgen
data_Rb3Hf2Te10Au
_symmetry_space_group_name_H-M   'P 1'
_cell_length_a   9.99840987
_cell_length_b   11.21007965
_cell_length_c   11.35675226
_cell_angle_alpha   88.75397563
_cell_angle_beta   90.07903159
_cell_angle_gamma   78.28243730
_symmetry_Int_Tables_number   1
_chemical_formula_structural   Rb3Hf2Te10Au
_chemical_formula_sum   'Rb6 Hf4 Te20 Au2'
_cell_volume   1246.05554179
_cell_formula_units_Z   2
loop_
 _symmetry_equiv_pos_site_id
 _symmetry_equiv_pos_as_xyz
  1  'x, y, z'
loop_
 _atom_site_type_symbol
 _atom_site_label
 _atom_site_symmetry_multiplicity
 _atom_site_fract_x
 _atom_site_fract_y
 _atom_site_fract_z
 _atom_site_occupancy
  Rb  Rb0  1  0.879472  0.890624  0.252849  1
  Rb  Rb1  1  0.120528  0.109376  0.747151  1
  Rb  Rb2  1  0.439850  0.771338  0.386428  1
  Rb  Rb3  1  0.560150  0.228662  0.613572  1
  Rb  Rb4  1  0.301294  0.633089  0.893823  1
  Rb  Rb5  1  0.698706  0.366911  0.106177  1
  Hf  Hf6  1  0.105070  0.378880  0.365322  1
  Hf  Hf7  1  0.894930  0.621120  0.634678  1
  Hf  Hf8  1  0.311565  0.158007  0.143715  1
  Hf  Hf9  1  0.688435  0.841993  0.856285  1
  Te  Te10  1  0.835118  0.562972  0.393004  1
  Te  Te11  1  0.164882  0.437028  0.606996  1
  Te  Te12  1  0.923577  0.198008  0.389595  1
  Te  Te13  1  0.076423  0.801992  0.610405  1
  Te  Te14  1  0.204485  0.584859  0.223402  1
  Te  Te15  1  0.795515  0.415141  0.776598  1
  Te  Te16  1  0.214388  0.116198  0.390056  1
  Te  Te17  1  0.785612  0.883802  0.609944  1
  Te  Te18  1  0.077977  0.363110  0.108557  1
  Te  Te19  1  0.922023  0.636890  0.891443  1
  Te  Te20  1  0.396153  0.354387  0.291701  1
  Te  Te21  1  0.603847  0.645613  0.708299  1
  Te  Te22  1  0.040824  0.122007  0.066664  1
  Te  Te23  1  0.959176  0.877993  0.933336  1
  Te  Te24  1  0.531840  0.086869  0.311413  1
  Te  Te25  1  0.468160  0.913131  0.688587  1
  Te  Te26  1  0.332958  0.911758  0.070040  1
  Te  Te27  1  0.667042  0.088242  0.929960  1
  Te  Te28  1  0.405924  0.251278  0.928735  1
  Te  Te29  1  0.594076  0.748722  0.071265  1
  Au  Au30  1  0.911214  0.355880  0.566505  1
  Au  Au31  1  0.088786  0.644120  0.433495  1
