# generated using pymatgen
data_CeYScCu16
_symmetry_space_group_name_H-M   'P 1'
_cell_length_a   6.52734029
_cell_length_b   6.52733965
_cell_length_c   6.52734076
_cell_angle_alpha   82.43005926
_cell_angle_beta   82.43005435
_cell_angle_gamma   82.43006177
_symmetry_Int_Tables_number   1
_chemical_formula_structural   CeYScCu16
_chemical_formula_sum   'Ce1 Y1 Sc1 Cu16'
_cell_volume   271.42090887
_cell_formula_units_Z   1
loop_
 _symmetry_equiv_pos_site_id
 _symmetry_equiv_pos_as_xyz
  1  'x, y, z'
loop_
 _atom_site_type_symbol
 _atom_site_label
 _atom_site_symmetry_multiplicity
 _atom_site_fract_x
 _atom_site_fract_y
 _atom_site_fract_z
 _atom_site_occupancy
  Ce  Ce0  1  0.662549  0.662549  0.662549  1
  Y  Y1  1  0.355333  0.355333  0.355333  1
  Sc  Sc2  1  0.090029  0.090029  0.090029  1
  Cu  Cu3  1  0.347990  0.843732  0.347990  1
  Cu  Cu4  1  0.347990  0.347990  0.843732  1
  Cu  Cu5  1  0.843732  0.347990  0.347990  1
  Cu  Cu6  1  0.654266  0.156802  0.654266  1
  Cu  Cu7  1  0.654266  0.654266  0.156802  1
  Cu  Cu8  1  0.156802  0.654266  0.654266  1
  Cu  Cu9  1  0.696068  0.300865  0.999822  1
  Cu  Cu10  1  0.999822  0.696068  0.300865  1
  Cu  Cu11  1  0.300865  0.999822  0.696068  1
  Cu  Cu12  1  0.999822  0.300865  0.696068  1
  Cu  Cu13  1  0.696068  0.999822  0.300865  1
  Cu  Cu14  1  0.300865  0.696068  0.999822  1
  Cu  Cu15  1  0.998899  0.998899  0.504404  1
  Cu  Cu16  1  0.504404  0.998899  0.998899  1
  Cu  Cu17  1  0.998899  0.504404  0.998899  1
  Cu  Cu18  1  0.891331  0.891331  0.891331  1
