# generated using pymatgen
data_Tb3Dy3Ni20P13
_symmetry_space_group_name_H-M   'P 1'
_cell_length_a   12.64843800
_cell_length_b   12.64843919
_cell_length_c   3.75180800
_cell_angle_alpha   90.00000000
_cell_angle_beta   90.00000000
_cell_angle_gamma   119.99999689
_symmetry_Int_Tables_number   1
_chemical_formula_structural   Tb3Dy3Ni20P13
_chemical_formula_sum   'Tb3 Dy3 Ni20 P13'
_cell_volume   519.81054305
_cell_formula_units_Z   1
loop_
 _symmetry_equiv_pos_site_id
 _symmetry_equiv_pos_as_xyz
  1  'x, y, z'
loop_
 _atom_site_type_symbol
 _atom_site_label
 _atom_site_symmetry_multiplicity
 _atom_site_fract_x
 _atom_site_fract_y
 _atom_site_fract_z
 _atom_site_occupancy
  Tb  Tb0  1  0.469968  0.281626  0.000000  1
  Tb  Tb1  1  0.718374  0.188342  0.000000  1
  Tb  Tb2  1  0.811658  0.530032  0.000000  1
  Dy  Dy3  1  0.188304  0.470174  0.500000  1
  Dy  Dy4  1  0.529826  0.718129  0.500000  1
  Dy  Dy5  1  0.281871  0.811696  0.500000  1
  Ni  Ni6  1  0.195849  0.104064  0.000000  1
  Ni  Ni7  1  0.895936  0.091786  0.000000  1
  Ni  Ni8  1  0.908214  0.804151  0.000000  1
  Ni  Ni9  1  0.666667  0.333333  0.500000  1
  Ni  Ni10  1  0.072849  0.151089  0.500000  1
  Ni  Ni11  1  0.848911  0.921760  0.500000  1
  Ni  Ni12  1  0.078240  0.927151  0.500000  1
  Ni  Ni13  1  0.333333  0.666667  0.000000  1
  Ni  Ni14  1  0.437954  0.020587  0.000000  1
  Ni  Ni15  1  0.979413  0.417367  0.000000  1
  Ni  Ni16  1  0.582633  0.562046  0.000000  1
  Ni  Ni17  1  0.316977  0.069537  0.500000  1
  Ni  Ni18  1  0.930463  0.247441  0.500000  1
  Ni  Ni19  1  0.752559  0.683023  0.500000  1
  Ni  Ni20  1  0.022542  0.587916  0.500000  1
  Ni  Ni21  1  0.412084  0.434625  0.500000  1
  Ni  Ni22  1  0.565375  0.977458  0.500000  1
  Ni  Ni23  1  0.241515  0.320233  0.000000  1
  Ni  Ni24  1  0.679767  0.921282  0.000000  1
  Ni  Ni25  1  0.078718  0.758485  0.000000  1
  P  P26  1  0.523786  0.136569  0.500000  1
  P  P27  1  0.863431  0.387216  0.500000  1
  P  P28  1  0.612784  0.476214  0.500000  1
  P  P29  1  0.278677  0.231845  0.500000  1
  P  P30  1  0.768155  0.046832  0.500000  1
  P  P31  1  0.953168  0.721323  0.500000  1
  P  P32  1  0.138106  0.614872  0.000000  1
  P  P33  1  0.385128  0.523234  0.000000  1
  P  P34  1  0.476766  0.861894  0.000000  1
  P  P35  1  0.048639  0.283576  0.000000  1
  P  P36  1  0.716424  0.765062  0.000000  1
  P  P37  1  0.234938  0.951361  0.000000  1
  P  P38  1  0.000000  0.000000  0.000000  1
