# generated using pymatgen
data_Ho4Tm6In8Pt3Rh
_symmetry_space_group_name_H-M   'P 1'
_cell_length_a   3.59583300
_cell_length_b   8.10465752
_cell_length_c   18.14582969
_cell_angle_alpha   89.96084326
_cell_angle_beta   90.00000000
_cell_angle_gamma   90.00000000
_symmetry_Int_Tables_number   1
_chemical_formula_structural   Ho4Tm6In8Pt3Rh
_chemical_formula_sum   'Ho4 Tm6 In8 Pt3 Rh1'
_cell_volume   528.82370012
_cell_formula_units_Z   1
loop_
 _symmetry_equiv_pos_site_id
 _symmetry_equiv_pos_as_xyz
  1  'x, y, z'
loop_
 _atom_site_type_symbol
 _atom_site_label
 _atom_site_symmetry_multiplicity
 _atom_site_fract_x
 _atom_site_fract_y
 _atom_site_fract_z
 _atom_site_occupancy
  Ho  Ho0  1  0.000000  0.258113  0.720969  1
  Ho  Ho1  1  0.000000  0.749390  0.278839  1
  Ho  Ho2  1  0.000000  0.999747  0.000156  1
  Ho  Ho3  1  0.000000  0.500508  0.499570  1
  Tm  Tm4  1  0.000000  0.113943  0.412169  1
  Tm  Tm5  1  0.000000  0.883402  0.584838  1
  Tm  Tm6  1  0.000000  0.383929  0.915116  1
  Tm  Tm7  1  0.000000  0.616169  0.086291  1
  Tm  Tm8  1  0.000000  0.237898  0.222232  1
  Tm  Tm9  1  0.000000  0.758557  0.779206  1
  In  In10  1  0.500000  0.421979  0.351286  1
  In  In11  1  0.500000  0.577299  0.648534  1
  In  In12  1  0.500000  0.076459  0.851675  1
  In  In13  1  0.500000  0.926919  0.149426  1
  In  In14  1  0.500000  0.291704  0.067208  1
  In  In15  1  0.500000  0.707867  0.933691  1
  In  In16  1  0.500000  0.207861  0.566015  1
  In  In17  1  0.500000  0.792623  0.431363  1
  Pt  Pt18  1  0.500000  0.975083  0.695963  1
  Pt  Pt19  1  0.500000  0.477103  0.804087  1
  Pt  Pt20  1  0.500000  0.520931  0.196601  1
  Rh  Rh21  1  0.500000  0.022512  0.304764  1
