# generated using pymatgen
data_Nd6AlSnI6
_symmetry_space_group_name_H-M   'P 1'
_cell_length_a   11.05517985
_cell_length_b   11.05517880
_cell_length_c   10.94718325
_cell_angle_alpha   109.46335125
_cell_angle_beta   109.46334867
_cell_angle_gamma   109.88311133
_symmetry_Int_Tables_number   1
_chemical_formula_structural   Nd6AlSnI6
_chemical_formula_sum   'Nd12 Al2 Sn2 I12'
_cell_volume   1024.86030871
_cell_formula_units_Z   2
loop_
 _symmetry_equiv_pos_site_id
 _symmetry_equiv_pos_as_xyz
  1  'x, y, z'
loop_
 _atom_site_type_symbol
 _atom_site_label
 _atom_site_symmetry_multiplicity
 _atom_site_fract_x
 _atom_site_fract_y
 _atom_site_fract_z
 _atom_site_occupancy
  Nd  Nd0  1  0.760496  0.241969  0.266739  1
  Nd  Nd1  1  0.482501  0.740037  0.005310  1
  Nd  Nd2  1  0.022810  0.265273  0.005310  1
  Nd  Nd3  1  0.259396  0.009396  0.018793  1
  Nd  Nd4  1  0.236289  0.263711  0.750000  1
  Nd  Nd5  1  0.258031  0.739504  0.233261  1
  Nd  Nd6  1  0.234727  0.477190  0.494690  1
  Nd  Nd7  1  0.475228  0.493756  0.233261  1
  Nd  Nd8  1  0.759963  0.017499  0.494690  1
  Nd  Nd9  1  0.490604  0.240604  0.481207  1
  Nd  Nd10  1  0.006244  0.024772  0.266739  1
  Nd  Nd11  1  0.013711  0.486289  0.750000  1
  Al  Al12  1  0.000213  0.250213  0.500426  1
  Al  Al13  1  0.249787  0.499787  0.999574  1
  Sn  Sn14  1  0.500088  0.999912  0.250000  1
  Sn  Sn15  1  0.249912  0.250088  0.250000  1
  I  I16  1  0.756682  0.743318  0.250000  1
  I  I17  1  0.505983  0.249817  0.994360  1
  I  I18  1  0.250183  0.994017  0.505640  1
  I  I19  1  0.514331  0.507030  0.756947  1
  I  I20  1  0.506377  0.756377  0.512754  1
  I  I21  1  0.755457  0.511624  0.505640  1
  I  I22  1  0.742616  0.249917  0.756947  1
  I  I23  1  0.250083  0.757384  0.743053  1
  I  I24  1  0.988376  0.744543  0.994360  1
  I  I25  1  0.993318  0.506682  0.250000  1
  I  I26  1  0.992970  0.985669  0.743053  1
  I  I27  1  0.743623  0.993623  0.987246  1
