# generated using pymatgen
data_Th3Mg(PPt)4
_symmetry_space_group_name_H-M   'P 1'
_cell_length_a   4.16892800
_cell_length_b   4.16892975
_cell_length_c   15.50625300
_cell_angle_alpha   90.00000000
_cell_angle_beta   90.00000000
_cell_angle_gamma   120.00000197
_symmetry_Int_Tables_number   1
_chemical_formula_structural   Th3Mg(PPt)4
_chemical_formula_sum   'Th3 Mg1 P4 Pt4'
_cell_volume   233.39226596
_cell_formula_units_Z   1
loop_
 _symmetry_equiv_pos_site_id
 _symmetry_equiv_pos_as_xyz
  1  'x, y, z'
loop_
 _atom_site_type_symbol
 _atom_site_label
 _atom_site_symmetry_multiplicity
 _atom_site_fract_x
 _atom_site_fract_y
 _atom_site_fract_z
 _atom_site_occupancy
  Th  Th0  1  0.000000  0.000000  0.512414  1
  Th  Th1  1  0.000000  0.000000  0.987586  1
  Th  Th2  1  0.000000  0.000000  0.250000  1
  Mg  Mg3  1  0.000000  0.000000  0.750000  1
  P  P4  1  0.333333  0.666667  0.872783  1
  P  P5  1  0.666667  0.333333  0.120884  1
  P  P6  1  0.666667  0.333333  0.379116  1
  P  P7  1  0.333333  0.666667  0.627217  1
  Pt  Pt8  1  0.333333  0.666667  0.380805  1
  Pt  Pt9  1  0.666667  0.333333  0.650422  1
  Pt  Pt10  1  0.666667  0.333333  0.849578  1
  Pt  Pt11  1  0.333333  0.666667  0.119195  1
