# generated using pymatgen
data_Sr2Cd14Pd3
_symmetry_space_group_name_H-M   'P 1'
_cell_length_a   7.60831555
_cell_length_b   7.60831673
_cell_length_c   7.60831585
_cell_angle_alpha   83.56175727
_cell_angle_beta   83.56177163
_cell_angle_gamma   83.56175297
_symmetry_Int_Tables_number   1
_chemical_formula_structural   Sr2Cd14Pd3
_chemical_formula_sum   'Sr2 Cd14 Pd3'
_cell_volume   432.66479238
_cell_formula_units_Z   1
loop_
 _symmetry_equiv_pos_site_id
 _symmetry_equiv_pos_as_xyz
  1  'x, y, z'
loop_
 _atom_site_type_symbol
 _atom_site_label
 _atom_site_symmetry_multiplicity
 _atom_site_fract_x
 _atom_site_fract_y
 _atom_site_fract_z
 _atom_site_occupancy
  Sr  Sr0  1  0.342363  0.342363  0.342363  1
  Sr  Sr1  1  0.657637  0.657637  0.657637  1
  Cd  Cd2  1  0.296004  0.703996  0.000000  1
  Cd  Cd3  1  0.854285  0.347166  0.347166  1
  Cd  Cd4  1  0.652834  0.145715  0.652834  1
  Cd  Cd5  1  0.106000  0.106000  0.106000  1
  Cd  Cd6  1  0.296004  0.000000  0.703996  1
  Cd  Cd7  1  0.703996  0.296004  0.000000  1
  Cd  Cd8  1  0.347166  0.347166  0.854285  1
  Cd  Cd9  1  0.894000  0.894000  0.894000  1
  Cd  Cd10  1  0.000000  0.703996  0.296004  1
  Cd  Cd11  1  0.703996  0.000000  0.296004  1
  Cd  Cd12  1  0.347166  0.854285  0.347166  1
  Cd  Cd13  1  0.145715  0.652834  0.652834  1
  Cd  Cd14  1  0.652834  0.652834  0.145715  1
  Cd  Cd15  1  0.000000  0.296004  0.703996  1
  Pd  Pd16  1  0.000000  0.000000  0.500000  1
  Pd  Pd17  1  0.500000  0.000000  0.000000  1
  Pd  Pd18  1  0.000000  0.500000  0.000000  1
