# generated using pymatgen
data_Ca10CdPd4Pb
_symmetry_space_group_name_H-M   'P 1'
_cell_length_a   9.20015111
_cell_length_b   9.20015145
_cell_length_c   9.20015200
_cell_angle_alpha   127.88627754
_cell_angle_beta   127.88627918
_cell_angle_gamma   76.80932262
_symmetry_Int_Tables_number   1
_chemical_formula_structural   Ca10CdPd4Pb
_chemical_formula_sum   'Ca10 Cd1 Pd4 Pb1'
_cell_volume   470.99055498
_cell_formula_units_Z   1
loop_
 _symmetry_equiv_pos_site_id
 _symmetry_equiv_pos_as_xyz
  1  'x, y, z'
loop_
 _atom_site_type_symbol
 _atom_site_label
 _atom_site_symmetry_multiplicity
 _atom_site_fract_x
 _atom_site_fract_y
 _atom_site_fract_z
 _atom_site_occupancy
  Ca  Ca0  1  0.499391  0.499391  0.000000  1
  Ca  Ca1  1  0.000609  0.000609  0.000000  1
  Ca  Ca2  1  0.531192  0.032386  0.832152  1
  Ca  Ca3  1  0.200235  0.699042  0.167848  1
  Ca  Ca4  1  0.032386  0.200235  0.501193  1
  Ca  Ca5  1  0.699042  0.531192  0.498807  1
  Ca  Ca6  1  0.467614  0.968808  0.167848  1
  Ca  Ca7  1  0.800958  0.299765  0.832152  1
  Ca  Ca8  1  0.968808  0.800958  0.501193  1
  Ca  Ca9  1  0.299765  0.467614  0.498807  1
  Cd  Cd10  1  0.750000  0.750000  0.000000  1
  Pd  Pd11  1  0.126555  0.626555  0.753109  1
  Pd  Pd12  1  0.873445  0.373445  0.246891  1
  Pd  Pd13  1  0.626555  0.873445  0.500000  1
  Pd  Pd14  1  0.373445  0.126555  0.500000  1
  Pb  Pb15  1  0.250000  0.250000  0.000000  1
