# generated using pymatgen
data_Er4AlPt
_symmetry_space_group_name_H-M   'P 1'
_cell_length_a   9.50495792
_cell_length_b   9.50495823
_cell_length_c   9.50495800
_cell_angle_alpha   60.00000080
_cell_angle_beta   59.99999973
_cell_angle_gamma   60.00000089
_symmetry_Int_Tables_number   1
_chemical_formula_structural   Er4AlPt
_chemical_formula_sum   'Er16 Al4 Pt4'
_cell_volume   607.20539308
_cell_formula_units_Z   4
loop_
 _symmetry_equiv_pos_site_id
 _symmetry_equiv_pos_as_xyz
  1  'x, y, z'
loop_
 _atom_site_type_symbol
 _atom_site_label
 _atom_site_symmetry_multiplicity
 _atom_site_fract_x
 _atom_site_fract_y
 _atom_site_fract_z
 _atom_site_occupancy
  Er  Er0  1  0.354332  0.354332  0.354332  1
  Er  Er1  1  0.354332  0.354332  0.937006  1
  Er  Er2  1  0.354332  0.937006  0.354332  1
  Er  Er3  1  0.937006  0.354332  0.354332  1
  Er  Er4  1  0.806990  0.193010  0.193010  1
  Er  Er5  1  0.193010  0.806990  0.806990  1
  Er  Er6  1  0.193010  0.806990  0.193010  1
  Er  Er7  1  0.806990  0.193010  0.806990  1
  Er  Er8  1  0.193010  0.193010  0.806990  1
  Er  Er9  1  0.806990  0.806990  0.193010  1
  Er  Er10  1  0.935498  0.564502  0.564502  1
  Er  Er11  1  0.564502  0.935498  0.935498  1
  Er  Er12  1  0.564502  0.935498  0.564502  1
  Er  Er13  1  0.935498  0.564502  0.935498  1
  Er  Er14  1  0.564502  0.564502  0.935498  1
  Er  Er15  1  0.935498  0.935498  0.564502  1
  Al  Al16  1  0.578244  0.578244  0.578244  1
  Al  Al17  1  0.578244  0.578244  0.265270  1
  Al  Al18  1  0.578244  0.265270  0.578244  1
  Al  Al19  1  0.265270  0.578244  0.578244  1
  Pt  Pt20  1  0.143470  0.143470  0.143470  1
  Pt  Pt21  1  0.143470  0.143470  0.569589  1
  Pt  Pt22  1  0.143470  0.569589  0.143470  1
  Pt  Pt23  1  0.569589  0.143470  0.143470  1
