# generated using pymatgen
data_Nd4Gd6Si5Ag
_symmetry_space_group_name_H-M   'P 1'
_cell_length_a   7.60995527
_cell_length_b   7.60995607
_cell_length_c   8.86747300
_cell_angle_alpha   115.41006444
_cell_angle_beta   115.41005895
_cell_angle_gamma   90.00000417
_symmetry_Int_Tables_number   1
_chemical_formula_structural   Nd4Gd6Si5Ag
_chemical_formula_sum   'Nd4 Gd6 Si5 Ag1'
_cell_volume   408.16821355
_cell_formula_units_Z   1
loop_
 _symmetry_equiv_pos_site_id
 _symmetry_equiv_pos_as_xyz
  1  'x, y, z'
loop_
 _atom_site_type_symbol
 _atom_site_label
 _atom_site_symmetry_multiplicity
 _atom_site_fract_x
 _atom_site_fract_y
 _atom_site_fract_z
 _atom_site_occupancy
  Nd  Nd0  1  0.030241  0.181095  0.711020  1
  Nd  Nd1  1  0.680779  0.529925  0.711020  1
  Nd  Nd2  1  0.181095  0.680779  0.711020  1
  Nd  Nd3  1  0.529925  0.030241  0.711020  1
  Gd  Gd4  1  0.489538  0.489538  0.979074  1
  Gd  Gd5  1  0.013704  0.013704  0.027410  1
  Gd  Gd6  1  0.967497  0.818573  0.285678  1
  Gd  Gd7  1  0.318181  0.467104  0.285678  1
  Gd  Gd8  1  0.818573  0.318181  0.285678  1
  Gd  Gd9  1  0.467104  0.967497  0.285678  1
  Si  Si10  1  0.245098  0.245098  0.490197  1
  Si  Si11  1  0.621489  0.885348  0.006454  1
  Si  Si12  1  0.384965  0.121105  0.006454  1
  Si  Si13  1  0.885348  0.384965  0.006454  1
  Si  Si14  1  0.121105  0.621489  0.006454  1
  Ag  Ag15  1  0.745358  0.745358  0.490715  1
