# generated using pymatgen
data_Sr4Nb(TcO4)3
_symmetry_space_group_name_H-M   'P 1'
_cell_length_a   5.67313060
_cell_length_b   5.71743816
_cell_length_c   7.97342053
_cell_angle_alpha   90.07384348
_cell_angle_beta   89.94732015
_cell_angle_gamma   89.99992612
_symmetry_Int_Tables_number   1
_chemical_formula_structural   Sr4Nb(TcO4)3
_chemical_formula_sum   'Sr4 Nb1 Tc3 O12'
_cell_volume   258.62373744
_cell_formula_units_Z   1
loop_
 _symmetry_equiv_pos_site_id
 _symmetry_equiv_pos_as_xyz
  1  'x, y, z'
loop_
 _atom_site_type_symbol
 _atom_site_label
 _atom_site_symmetry_multiplicity
 _atom_site_fract_x
 _atom_site_fract_y
 _atom_site_fract_z
 _atom_site_occupancy
  Sr  Sr0  1  0.489150  0.003987  0.754222  1
  Sr  Sr1  1  0.990556  0.494945  0.755310  1
  Sr  Sr2  1  0.510850  0.996013  0.245778  1
  Sr  Sr3  1  0.009444  0.505055  0.244690  1
  Nb  Nb4  1  0.500000  0.500000  0.500000  1
  Tc  Tc5  1  0.000000  0.000000  0.000000  1
  Tc  Tc6  1  0.500000  0.500000  0.000000  1
  Tc  Tc7  1  0.000000  0.000000  0.500000  1
  O  O8  1  0.001835  0.942709  0.749274  1
  O  O9  1  0.502448  0.557504  0.748400  1
  O  O10  1  0.998165  0.057291  0.250726  1
  O  O11  1  0.497552  0.442496  0.251600  1
  O  O12  1  0.736114  0.239260  0.530873  1
  O  O13  1  0.238158  0.261542  0.969849  1
  O  O14  1  0.262211  0.762134  0.029657  1
  O  O15  1  0.761462  0.735908  0.468927  1
  O  O16  1  0.263886  0.760740  0.469127  1
  O  O17  1  0.761842  0.738458  0.030151  1
  O  O18  1  0.737789  0.237866  0.970343  1
  O  O19  1  0.238538  0.264092  0.531073  1
