# generated using pymatgen
data_Hf4Bi2W
_symmetry_space_group_name_H-M   'P 1'
_cell_length_a   8.37151244
_cell_length_b   8.37151206
_cell_length_c   8.37151275
_cell_angle_alpha   96.26465068
_cell_angle_beta   96.26465048
_cell_angle_gamma   141.42180987
_symmetry_Int_Tables_number   1
_chemical_formula_structural   Hf4Bi2W
_chemical_formula_sum   'Hf8 Bi4 W2'
_cell_volume   345.31443915
_cell_formula_units_Z   2
loop_
 _symmetry_equiv_pos_site_id
 _symmetry_equiv_pos_as_xyz
  1  'x, y, z'
loop_
 _atom_site_type_symbol
 _atom_site_label
 _atom_site_symmetry_multiplicity
 _atom_site_fract_x
 _atom_site_fract_y
 _atom_site_fract_z
 _atom_site_occupancy
  Hf  Hf0  1  0.701249  0.584302  0.285551  1
  Hf  Hf1  1  0.584302  0.298751  0.883053  1
  Hf  Hf2  1  0.084302  0.201249  0.285551  1
  Hf  Hf3  1  0.915698  0.798751  0.714449  1
  Hf  Hf4  1  0.201249  0.915698  0.116947  1
  Hf  Hf5  1  0.798751  0.084302  0.883053  1
  Hf  Hf6  1  0.298751  0.415698  0.714449  1
  Hf  Hf7  1  0.415698  0.701249  0.116947  1
  Bi  Bi8  1  0.139103  0.639103  0.778206  1
  Bi  Bi9  1  0.360897  0.139103  0.500000  1
  Bi  Bi10  1  0.639103  0.860897  0.500000  1
  Bi  Bi11  1  0.860897  0.360897  0.221794  1
  W  W12  1  0.250000  0.250000  0.000000  1
  W  W13  1  0.750000  0.750000  0.000000  1
