# generated using pymatgen
data_Y20Cd6IrRu
_symmetry_space_group_name_H-M   'P 1'
_cell_length_a   9.66660400
_cell_length_b   9.66660345
_cell_length_c   9.87881300
_cell_angle_alpha   90.00000000
_cell_angle_beta   90.00000000
_cell_angle_gamma   120.00000187
_symmetry_Int_Tables_number   1
_chemical_formula_structural   Y20Cd6IrRu
_chemical_formula_sum   'Y20 Cd6 Ir1 Ru1'
_cell_volume   799.43511192
_cell_formula_units_Z   1
loop_
 _symmetry_equiv_pos_site_id
 _symmetry_equiv_pos_as_xyz
  1  'x, y, z'
loop_
 _atom_site_type_symbol
 _atom_site_label
 _atom_site_symmetry_multiplicity
 _atom_site_fract_x
 _atom_site_fract_y
 _atom_site_fract_z
 _atom_site_occupancy
  Y  Y0  1  0.000000  0.000000  0.499744  1
  Y  Y1  1  0.000000  0.000000  0.000256  1
  Y  Y2  1  0.209520  0.790480  0.440245  1
  Y  Y3  1  0.209520  0.419040  0.440245  1
  Y  Y4  1  0.580960  0.790480  0.440245  1
  Y  Y5  1  0.790299  0.209701  0.560084  1
  Y  Y6  1  0.790299  0.580596  0.560084  1
  Y  Y7  1  0.419404  0.209701  0.560084  1
  Y  Y8  1  0.790299  0.209701  0.939916  1
  Y  Y9  1  0.790299  0.580596  0.939916  1
  Y  Y10  1  0.419404  0.209701  0.939916  1
  Y  Y11  1  0.209520  0.790480  0.059755  1
  Y  Y12  1  0.209520  0.419040  0.059755  1
  Y  Y13  1  0.580960  0.790480  0.059755  1
  Y  Y14  1  0.541370  0.458630  0.250000  1
  Y  Y15  1  0.541370  0.082740  0.250000  1
  Y  Y16  1  0.917260  0.458630  0.250000  1
  Y  Y17  1  0.458632  0.541368  0.750000  1
  Y  Y18  1  0.458632  0.917264  0.750000  1
  Y  Y19  1  0.082736  0.541368  0.750000  1
  Cd  Cd20  1  0.885391  0.114609  0.250000  1
  Cd  Cd21  1  0.885391  0.770782  0.250000  1
  Cd  Cd22  1  0.229218  0.114609  0.250000  1
  Cd  Cd23  1  0.114641  0.885359  0.750000  1
  Cd  Cd24  1  0.114641  0.229281  0.750000  1
  Cd  Cd25  1  0.770719  0.885359  0.750000  1
  Ir  Ir26  1  0.333333  0.666667  0.250000  1
  Ru  Ru27  1  0.666667  0.333333  0.750000  1
