# generated using pymatgen
data_DyYCo4(SiC)2
_symmetry_space_group_name_H-M   'P 1'
_cell_length_a   5.56702602
_cell_length_b   5.56702651
_cell_length_c   6.72206700
_cell_angle_alpha   90.00000000
_cell_angle_beta   90.00000000
_cell_angle_gamma   140.95293274
_symmetry_Int_Tables_number   1
_chemical_formula_structural   DyYCo4(SiC)2
_chemical_formula_sum   'Dy1 Y1 Co4 Si2 C2'
_cell_volume   131.23853613
_cell_formula_units_Z   1
loop_
 _symmetry_equiv_pos_site_id
 _symmetry_equiv_pos_as_xyz
  1  'x, y, z'
loop_
 _atom_site_type_symbol
 _atom_site_label
 _atom_site_symmetry_multiplicity
 _atom_site_fract_x
 _atom_site_fract_y
 _atom_site_fract_z
 _atom_site_occupancy
  Dy  Dy0  1  0.550940  0.449060  0.250000  1
  Y  Y1  1  0.449067  0.550933  0.750000  1
  Co  Co2  1  0.836155  0.163845  0.056444  1
  Co  Co3  1  0.163833  0.836167  0.943636  1
  Co  Co4  1  0.163833  0.836167  0.556364  1
  Co  Co5  1  0.836155  0.163845  0.443556  1
  Si  Si6  1  0.271711  0.728289  0.250000  1
  Si  Si7  1  0.728282  0.271718  0.750000  1
  C  C8  1  0.000013  0.999987  0.000164  1
  C  C9  1  0.000013  0.999987  0.499836  1
