# generated using pymatgen
data_BaPa2F12
_symmetry_space_group_name_H-M   'P 1'
_cell_length_a   6.20732182
_cell_length_b   6.32095374
_cell_length_c   9.35211345
_cell_angle_alpha   97.46188013
_cell_angle_beta   96.62793892
_cell_angle_gamma   119.37888592
_symmetry_Int_Tables_number   1
_chemical_formula_structural   BaPa2F12
_chemical_formula_sum   'Ba1 Pa2 F12'
_cell_volume   310.15424868
_cell_formula_units_Z   1
loop_
 _symmetry_equiv_pos_site_id
 _symmetry_equiv_pos_as_xyz
  1  'x, y, z'
loop_
 _atom_site_type_symbol
 _atom_site_label
 _atom_site_symmetry_multiplicity
 _atom_site_fract_x
 _atom_site_fract_y
 _atom_site_fract_z
 _atom_site_occupancy
  Ba  Ba0  1  0.011686  0.982389  0.947743  1
  Pa  Pa1  1  0.210047  0.499512  0.592586  1
  Pa  Pa2  1  0.384586  0.702441  0.166677  1
  F  F3  1  0.308292  0.993286  0.210726  1
  F  F4  1  0.579925  0.696819  0.728827  1
  F  F5  1  0.064388  0.599287  0.993215  1
  F  F6  1  0.106948  0.342323  0.192367  1
  F  F7  1  0.431645  0.443811  0.015688  1
  F  F8  1  0.303310  0.253745  0.497110  1
  F  F9  1  0.744333  0.799546  0.270603  1
  F  F10  1  0.140134  0.762989  0.711017  1
  F  F11  1  0.851769  0.318525  0.463818  1
  F  F12  1  0.060237  0.253736  0.739447  1
  F  F13  1  0.358869  0.724927  0.425588  1
  F  F14  1  0.591830  0.936665  0.022586  1
