# generated using pymatgen
data_DySiBr
_symmetry_space_group_name_H-M   'P 1'
_cell_length_a   4.03204800
_cell_length_b   4.03204800
_cell_length_c   11.15215700
_cell_angle_alpha   90.00000000
_cell_angle_beta   90.00000000
_cell_angle_gamma   119.99999998
_symmetry_Int_Tables_number   1
_chemical_formula_structural   DySiBr
_chemical_formula_sum   'Dy2 Si2 Br2'
_cell_volume   157.01490978
_cell_formula_units_Z   2
loop_
 _symmetry_equiv_pos_site_id
 _symmetry_equiv_pos_as_xyz
  1  'x, y, z'
loop_
 _atom_site_type_symbol
 _atom_site_label
 _atom_site_symmetry_multiplicity
 _atom_site_fract_x
 _atom_site_fract_y
 _atom_site_fract_z
 _atom_site_occupancy
  Dy  Dy0  1  0.000000  0.000000  0.171477  1
  Dy  Dy1  1  0.000000  0.000000  0.828523  1
  Si  Si2  1  0.666666  0.333333  0.007899  1
  Si  Si3  1  0.333333  0.666667  0.992100  1
  Br  Br4  1  0.333333  0.666667  0.335138  1
  Br  Br5  1  0.666666  0.333333  0.664862  1
