# generated using pymatgen
data_Ho8Hf12SiGe15
_symmetry_space_group_name_H-M   'P 1'
_cell_length_a   7.36951056
_cell_length_b   7.37590304
_cell_length_c   13.51452049
_cell_angle_alpha   89.99042430
_cell_angle_beta   90.08678119
_cell_angle_gamma   89.96830915
_symmetry_Int_Tables_number   1
_chemical_formula_structural   Ho8Hf12SiGe15
_chemical_formula_sum   'Ho8 Hf12 Si1 Ge15'
_cell_volume   734.60505863
_cell_formula_units_Z   1
loop_
 _symmetry_equiv_pos_site_id
 _symmetry_equiv_pos_as_xyz
  1  'x, y, z'
loop_
 _atom_site_type_symbol
 _atom_site_label
 _atom_site_symmetry_multiplicity
 _atom_site_fract_x
 _atom_site_fract_y
 _atom_site_fract_z
 _atom_site_occupancy
  Ho  Ho0  1  0.998722  0.342518  0.218904  1
  Ho  Ho1  1  0.001599  0.660035  0.718265  1
  Ho  Ho2  1  0.156490  0.501012  0.466536  1
  Ho  Ho3  1  0.502782  0.839789  0.032268  1
  Ho  Ho4  1  0.840609  0.502183  0.968574  1
  Ho  Ho5  1  0.497964  0.159556  0.531066  1
  Ho  Ho6  1  0.340493  0.998630  0.781698  1
  Ho  Ho7  1  0.661603  0.000754  0.281972  1
  Hf  Hf8  1  0.172164  0.171779  0.000335  1
  Hf  Hf9  1  0.829171  0.827232  0.498526  1
  Hf  Hf10  1  0.324945  0.671131  0.250632  1
  Hf  Hf11  1  0.671029  0.328132  0.749927  1
  Hf  Hf12  1  0.154491  0.992219  0.373637  1
  Hf  Hf13  1  0.842694  0.002978  0.876110  1
  Hf  Hf14  1  0.503028  0.657691  0.625332  1
  Hf  Hf15  1  0.342570  0.496224  0.874339  1
  Hf  Hf16  1  0.497746  0.343019  0.126463  1
  Hf  Hf17  1  0.659103  0.503569  0.374298  1
  Hf  Hf18  1  0.996263  0.157447  0.624554  1
  Hf  Hf19  1  0.004515  0.842275  0.125448  1
  Si  Si20  1  0.959895  0.703094  0.317087  1
  Ge  Ge21  1  0.367313  0.299821  0.324262  1
  Ge  Ge22  1  0.632729  0.700229  0.823406  1
  Ge  Ge23  1  0.199949  0.867714  0.573157  1
  Ge  Ge24  1  0.133354  0.800062  0.926824  1
  Ge  Ge25  1  0.800941  0.132819  0.073858  1
  Ge  Ge26  1  0.867863  0.200139  0.426855  1
  Ge  Ge27  1  0.300103  0.367120  0.675819  1
  Ge  Ge28  1  0.703001  0.633211  0.178730  1
  Ge  Ge29  1  0.298764  0.036469  0.181404  1
  Ge  Ge30  1  0.702284  0.963843  0.680822  1
  Ge  Ge31  1  0.463431  0.797049  0.431234  1
  Ge  Ge32  1  0.203703  0.536049  0.068532  1
  Ge  Ge33  1  0.536220  0.202419  0.931693  1
  Ge  Ge34  1  0.797044  0.464001  0.568605  1
  Ge  Ge35  1  0.035422  0.297790  0.818828  1
