# generated using pymatgen
data_Hf3Cu4Tc
_symmetry_space_group_name_H-M   'P 1'
_cell_length_a   3.30238100
_cell_length_b   3.30238100
_cell_length_c   11.58980000
_cell_angle_alpha   90.00000000
_cell_angle_beta   90.00000000
_cell_angle_gamma   90.00000000
_symmetry_Int_Tables_number   1
_chemical_formula_structural   Hf3Cu4Tc
_chemical_formula_sum   'Hf3 Cu4 Tc1'
_cell_volume   126.39511678
_cell_formula_units_Z   1
loop_
 _symmetry_equiv_pos_site_id
 _symmetry_equiv_pos_as_xyz
  1  'x, y, z'
loop_
 _atom_site_type_symbol
 _atom_site_label
 _atom_site_symmetry_multiplicity
 _atom_site_fract_x
 _atom_site_fract_y
 _atom_site_fract_z
 _atom_site_occupancy
  Hf  Hf0  1  0.499999  0.499999  0.134651  1
  Hf  Hf1  1  0.000000  0.000000  0.500000  1
  Hf  Hf2  1  0.499999  0.499999  0.865350  1
  Cu  Cu3  1  0.000000  0.000000  0.267151  1
  Cu  Cu4  1  0.499999  0.499999  0.373868  1
  Cu  Cu5  1  0.499999  0.499999  0.626132  1
  Cu  Cu6  1  0.000000  0.000000  0.732849  1
  Tc  Tc7  1  0.000000  0.000000  0.000000  1
