# generated using pymatgen
data_DyY4Tc5(P6Ir7)2
_symmetry_space_group_name_H-M   'P 1'
_cell_length_a   12.62916607
_cell_length_b   12.72604420
_cell_length_c   3.98416300
_cell_angle_alpha   90.00000000
_cell_angle_beta   90.00000000
_cell_angle_gamma   120.13076365
_symmetry_Int_Tables_number   1
_chemical_formula_structural   DyY4Tc5(P6Ir7)2
_chemical_formula_sum   'Dy1 Y4 Tc5 P12 Ir14'
_cell_volume   553.81162638
_cell_formula_units_Z   1
loop_
 _symmetry_equiv_pos_site_id
 _symmetry_equiv_pos_as_xyz
  1  'x, y, z'
loop_
 _atom_site_type_symbol
 _atom_site_label
 _atom_site_symmetry_multiplicity
 _atom_site_fract_x
 _atom_site_fract_y
 _atom_site_fract_z
 _atom_site_occupancy
  Dy  Dy0  1  0.666615  0.333453  0.500000  1
  Y  Y1  1  0.334268  0.667951  0.500000  1
  Y  Y2  1  0.999406  0.811072  0.000000  1
  Y  Y3  1  0.186550  0.185071  0.000000  1
  Y  Y4  1  0.810809  0.998581  0.000000  1
  Tc  Tc5  1  0.996748  0.450300  0.500000  1
  Tc  Tc6  1  0.548363  0.544858  0.500000  1
  Tc  Tc7  1  0.456885  0.008966  0.500000  1
  Tc  Tc8  1  0.620681  0.799302  0.500000  1
  Tc  Tc9  1  0.201068  0.821948  0.500000  1
  P  P10  1  0.006388  0.639772  0.500000  1
  P  P11  1  0.363673  0.364873  0.500000  1
  P  P12  1  0.633086  0.993572  0.500000  1
  P  P13  1  0.520304  0.693777  0.000000  1
  P  P14  1  0.308242  0.829985  0.000000  1
  P  P15  1  0.169781  0.483250  0.000000  1
  P  P16  1  0.483354  0.169530  0.000000  1
  P  P17  1  0.685952  0.516519  0.000000  1
  P  P18  1  0.832296  0.314820  0.000000  1
  P  P19  1  0.999051  0.176537  0.500000  1
  P  P20  1  0.817257  0.820397  0.500000  1
  P  P21  1  0.177238  0.993838  0.500000  1
  Ir  Ir22  1  0.507924  0.874557  0.000000  1
  Ir  Ir23  1  0.127756  0.636018  0.000000  1
  Ir  Ir24  1  0.361763  0.493853  0.000000  1
  Ir  Ir25  1  0.490870  0.359147  0.000000  1
  Ir  Ir26  1  0.866000  0.506366  0.000000  1
  Ir  Ir27  1  0.643155  0.136343  0.000000  1
  Ir  Ir28  1  0.000294  0.285665  0.000000  1
  Ir  Ir29  1  0.716219  0.710975  0.000000  1
  Ir  Ir30  1  0.287447  0.005160  0.000000  1
  Ir  Ir31  1  0.179976  0.375086  0.500000  1
  Ir  Ir32  1  0.374331  0.183583  0.500000  1
  Ir  Ir33  1  0.807278  0.622625  0.500000  1
  Ir  Ir34  1  0.819337  0.192933  0.500000  1
  Ir  Ir35  1  0.999635  0.999315  0.500000  1
