# generated using pymatgen
data_ErHf7Ti11ReSi16
_symmetry_space_group_name_H-M   'P 1'
_cell_length_a   6.81833749
_cell_length_b   6.82063474
_cell_length_c   12.50282839
_cell_angle_alpha   90.00312197
_cell_angle_beta   89.95701792
_cell_angle_gamma   89.92952308
_symmetry_Int_Tables_number   1
_chemical_formula_structural   ErHf7Ti11ReSi16
_chemical_formula_sum   'Er1 Hf7 Ti11 Re1 Si16'
_cell_volume   581.44830064
_cell_formula_units_Z   1
loop_
 _symmetry_equiv_pos_site_id
 _symmetry_equiv_pos_as_xyz
  1  'x, y, z'
loop_
 _atom_site_type_symbol
 _atom_site_label
 _atom_site_symmetry_multiplicity
 _atom_site_fract_x
 _atom_site_fract_y
 _atom_site_fract_z
 _atom_site_occupancy
  Er  Er0  1  0.998568  0.658871  0.030590  1
  Hf  Hf1  1  0.342878  0.999259  0.468796  1
  Hf  Hf2  1  0.500773  0.842564  0.717831  1
  Hf  Hf3  1  0.496829  0.157631  0.219901  1
  Hf  Hf4  1  0.841743  0.500754  0.282306  1
  Hf  Hf5  1  0.157910  0.497240  0.781700  1
  Hf  Hf6  1  0.655415  0.002530  0.968521  1
  Hf  Hf7  1  0.998934  0.343505  0.531678  1
  Ti  Ti8  1  0.171949  0.831029  0.249940  1
  Ti  Ti9  1  0.829309  0.171088  0.750140  1
  Ti  Ti10  1  0.671197  0.671662  0.499665  1
  Ti  Ti11  1  0.155586  0.001713  0.870843  1
  Ti  Ti12  1  0.495293  0.652501  0.122776  1
  Ti  Ti13  1  0.503470  0.349108  0.624160  1
  Ti  Ti14  1  0.653390  0.492770  0.876737  1
  Ti  Ti15  1  0.348964  0.503582  0.376916  1
  Ti  Ti16  1  0.847121  0.996968  0.373982  1
  Ti  Ti17  1  0.003336  0.152613  0.128454  1
  Ti  Ti18  1  0.995983  0.848379  0.626124  1
  Re  Re19  1  0.331532  0.325372  0.999879  1
  Si  Si20  1  0.205280  0.136005  0.676982  1
  Si  Si21  1  0.370063  0.705837  0.924620  1
  Si  Si22  1  0.635159  0.294074  0.427903  1
  Si  Si23  1  0.702089  0.362041  0.073937  1
  Si  Si24  1  0.293893  0.635769  0.572274  1
  Si  Si25  1  0.790576  0.867424  0.180323  1
  Si  Si26  1  0.135476  0.205433  0.323519  1
  Si  Si27  1  0.862027  0.796822  0.819282  1
  Si  Si28  1  0.295634  0.959186  0.064487  1
  Si  Si29  1  0.543590  0.795837  0.315127  1
  Si  Si30  1  0.454582  0.205327  0.814002  1
  Si  Si31  1  0.795649  0.545215  0.685053  1
  Si  Si32  1  0.207378  0.452358  0.186621  1
  Si  Si33  1  0.705038  0.046228  0.564288  1
  Si  Si34  1  0.957689  0.287552  0.935152  1
  Si  Si35  1  0.045699  0.705755  0.435492  1
