# generated using pymatgen
data_Nb3SnAuC
_symmetry_space_group_name_H-M   'P 1'
_cell_length_a   7.30655900
_cell_length_b   7.30655900
_cell_length_c   7.30655900
_cell_angle_alpha   90.00000000
_cell_angle_beta   90.00000000
_cell_angle_gamma   90.00000000
_symmetry_Int_Tables_number   1
_chemical_formula_structural   Nb3SnAuC
_chemical_formula_sum   'Nb12 Sn4 Au4 C4'
_cell_volume   390.06652976
_cell_formula_units_Z   4
loop_
 _symmetry_equiv_pos_site_id
 _symmetry_equiv_pos_as_xyz
  1  'x, y, z'
loop_
 _atom_site_type_symbol
 _atom_site_label
 _atom_site_symmetry_multiplicity
 _atom_site_fract_x
 _atom_site_fract_y
 _atom_site_fract_z
 _atom_site_occupancy
  Nb  Nb0  1  0.786765  0.960532  0.376461  1
  Nb  Nb1  1  0.713235  0.039468  0.876461  1
  Nb  Nb2  1  0.213235  0.460532  0.123539  1
  Nb  Nb3  1  0.286765  0.539468  0.623539  1
  Nb  Nb4  1  0.960532  0.376461  0.786765  1
  Nb  Nb5  1  0.039468  0.876461  0.713235  1
  Nb  Nb6  1  0.460532  0.123539  0.213235  1
  Nb  Nb7  1  0.539468  0.623539  0.286765  1
  Nb  Nb8  1  0.376461  0.786765  0.960532  1
  Nb  Nb9  1  0.876461  0.713235  0.039468  1
  Nb  Nb10  1  0.123539  0.213235  0.460532  1
  Nb  Nb11  1  0.623539  0.286765  0.539468  1
  Sn  Sn12  1  0.570119  0.429881  0.929881  1
  Sn  Sn13  1  0.429881  0.929881  0.570119  1
  Sn  Sn14  1  0.929881  0.570119  0.429881  1
  Sn  Sn15  1  0.070119  0.070119  0.070119  1
  Au  Au16  1  0.182763  0.817237  0.317237  1
  Au  Au17  1  0.317237  0.182763  0.817237  1
  Au  Au18  1  0.817237  0.317237  0.182763  1
  Au  Au19  1  0.682763  0.682763  0.682763  1
  C  C20  1  0.876002  0.123998  0.623998  1
  C  C21  1  0.623998  0.876002  0.123998  1
  C  C22  1  0.123998  0.623998  0.876002  1
  C  C23  1  0.376002  0.376002  0.376002  1
