# generated using pymatgen
data_ErBi(SeO3)3
_symmetry_space_group_name_H-M   'P 1'
_cell_length_a   7.21620549
_cell_length_b   8.21264062
_cell_length_c   9.25392722
_cell_angle_alpha   71.03555996
_cell_angle_beta   70.30978876
_cell_angle_gamma   65.76916079
_symmetry_Int_Tables_number   1
_chemical_formula_structural   ErBi(SeO3)3
_chemical_formula_sum   'Er2 Bi2 Se6 O18'
_cell_volume   459.59947262
_cell_formula_units_Z   2
loop_
 _symmetry_equiv_pos_site_id
 _symmetry_equiv_pos_as_xyz
  1  'x, y, z'
loop_
 _atom_site_type_symbol
 _atom_site_label
 _atom_site_symmetry_multiplicity
 _atom_site_fract_x
 _atom_site_fract_y
 _atom_site_fract_z
 _atom_site_occupancy
  Er  Er0  1  0.740452  0.736146  0.801473  1
  Er  Er1  1  0.259548  0.263854  0.198527  1
  Bi  Bi2  1  0.331699  0.727395  0.599812  1
  Bi  Bi3  1  0.668301  0.272605  0.400188  1
  Se  Se4  1  0.428069  0.779701  0.191606  1
  Se  Se5  1  0.571931  0.220299  0.808394  1
  Se  Se6  1  0.148149  0.749632  0.968451  1
  Se  Se7  1  0.851851  0.250368  0.031549  1
  Se  Se8  1  0.884099  0.751241  0.424639  1
  Se  Se9  1  0.115901  0.248759  0.575361  1
  O  O10  1  0.646824  0.788263  0.045889  1
  O  O11  1  0.353176  0.211737  0.954111  1
  O  O12  1  0.367985  0.952949  0.284820  1
  O  O13  1  0.632015  0.047051  0.715180  1
  O  O14  1  0.520920  0.599899  0.344315  1
  O  O15  1  0.479080  0.400101  0.655685  1
  O  O16  1  0.171563  0.563823  0.119109  1
  O  O17  1  0.828437  0.436177  0.880891  1
  O  O18  1  0.403623  0.711510  0.850659  1
  O  O19  1  0.596377  0.288490  0.149341  1
  O  O20  1  0.347081  0.242425  0.427942  1
  O  O21  1  0.652919  0.757575  0.572058  1
  O  O22  1  0.980082  0.295487  0.432904  1
  O  O23  1  0.019918  0.704513  0.567096  1
  O  O24  1  0.145298  0.027479  0.664904  1
  O  O25  1  0.854702  0.972521  0.335096  1
  O  O26  1  0.940652  0.300205  0.160793  1
  O  O27  1  0.059348  0.699795  0.839207  1
