# generated using pymatgen
data_PrBi5(TeO6)3
_symmetry_space_group_name_H-M   'P 1'
_cell_length_a   9.39033700
_cell_length_b   9.33241839
_cell_length_c   5.54108501
_cell_angle_alpha   90.67829830
_cell_angle_beta   90.00000000
_cell_angle_gamma   120.20552957
_symmetry_Int_Tables_number   1
_chemical_formula_structural   PrBi5(TeO6)3
_chemical_formula_sum   'Pr1 Bi5 Te3 O18'
_cell_volume   419.62069385
_cell_formula_units_Z   1
loop_
 _symmetry_equiv_pos_site_id
 _symmetry_equiv_pos_as_xyz
  1  'x, y, z'
loop_
 _atom_site_type_symbol
 _atom_site_label
 _atom_site_symmetry_multiplicity
 _atom_site_fract_x
 _atom_site_fract_y
 _atom_site_fract_z
 _atom_site_occupancy
  Pr  Pr0  1  0.613911  0.000000  0.500000  1
  Bi  Bi1  1  0.000191  0.626690  0.498458  1
  Bi  Bi2  1  0.998737  0.286695  0.999820  1
  Bi  Bi3  1  0.373501  0.373310  0.501542  1
  Bi  Bi4  1  0.283226  0.000000  0.000000  1
  Bi  Bi5  1  0.712041  0.713305  0.000180  1
  Te  Te6  1  0.334098  0.668093  0.984020  1
  Te  Te7  1  0.001048  0.000000  0.500000  1
  Te  Te8  1  0.666006  0.331907  0.015980  1
  O  O9  1  0.079166  0.874658  0.305632  1
  O  O10  1  0.237923  0.766385  0.770061  1
  O  O11  1  0.138006  0.551125  0.184263  1
  O  O12  1  0.407350  0.866534  0.190147  1
  O  O13  1  0.236382  0.466878  0.777403  1
  O  O14  1  0.125118  0.196861  0.298064  1
  O  O15  1  0.204508  0.125342  0.694368  1
  O  O16  1  0.530638  0.770307  0.781887  1
  O  O17  1  0.456209  0.598473  0.192746  1
  O  O18  1  0.804759  0.922641  0.300888  1
  O  O19  1  0.471538  0.233615  0.229939  1
  O  O20  1  0.586881  0.448875  0.815737  1
  O  O21  1  0.540817  0.133466  0.809853  1
  O  O22  1  0.769504  0.533122  0.222597  1
  O  O23  1  0.928257  0.803139  0.701936  1
  O  O24  1  0.760331  0.229693  0.218113  1
  O  O25  1  0.857735  0.401527  0.807254  1
  O  O26  1  0.882117  0.077359  0.699112  1
