# generated using pymatgen
data_Tb5(ErTe4)3
_symmetry_space_group_name_H-M   'P 1'
_cell_length_a   14.42670596
_cell_length_b   13.75965982
_cell_length_c   7.55396100
_cell_angle_alpha   79.39411571
_cell_angle_beta   69.63084600
_cell_angle_gamma   30.96569212
_symmetry_Int_Tables_number   1
_chemical_formula_structural   Tb5(ErTe4)3
_chemical_formula_sum   'Tb5 Er3 Te12'
_cell_volume   702.65127231
_cell_formula_units_Z   1
loop_
 _symmetry_equiv_pos_site_id
 _symmetry_equiv_pos_as_xyz
  1  'x, y, z'
loop_
 _atom_site_type_symbol
 _atom_site_label
 _atom_site_symmetry_multiplicity
 _atom_site_fract_x
 _atom_site_fract_y
 _atom_site_fract_z
 _atom_site_occupancy
  Tb  Tb0  1  0.000460  0.000460  0.499540  1
  Tb  Tb1  1  0.499211  0.499211  0.000789  1
  Tb  Tb2  1  0.249358  0.249358  0.750642  1
  Tb  Tb3  1  0.750730  0.750730  0.249270  1
  Tb  Tb4  1  0.667173  0.667173  0.832827  1
  Er  Er5  1  0.832769  0.832769  0.667231  1
  Er  Er6  1  0.582649  0.582649  0.417351  1
  Er  Er7  1  0.417266  0.417266  0.582734  1
  Te  Te8  1  0.667642  0.165283  0.830206  1
  Te  Te9  1  0.335431  0.830696  0.166862  1
  Te  Te10  1  0.830696  0.335431  0.667011  1
  Te  Te11  1  0.165283  0.667642  0.336869  1
  Te  Te12  1  0.582249  0.084778  0.419961  1
  Te  Te13  1  0.914659  0.418460  0.086556  1
  Te  Te14  1  0.418460  0.914659  0.580324  1
  Te  Te15  1  0.084778  0.582249  0.913012  1
  Te  Te16  1  0.749766  0.250224  0.250071  1
  Te  Te17  1  0.250224  0.749766  0.749939  1
  Te  Te18  1  0.499379  0.001813  0.000644  1
  Te  Te19  1  0.001813  0.499379  0.498164  1
