# generated using pymatgen
data_HoPa3VGa12
_symmetry_space_group_name_H-M   'P 1'
_cell_length_a   7.48338931
_cell_length_b   7.51971800
_cell_length_c   7.48339024
_cell_angle_alpha   109.56959686
_cell_angle_beta   109.37267393
_cell_angle_gamma   109.56958029
_symmetry_Int_Tables_number   1
_chemical_formula_structural   HoPa3VGa12
_chemical_formula_sum   'Ho1 Pa3 V1 Ga12'
_cell_volume   323.77828960
_cell_formula_units_Z   1
loop_
 _symmetry_equiv_pos_site_id
 _symmetry_equiv_pos_as_xyz
  1  'x, y, z'
loop_
 _atom_site_type_symbol
 _atom_site_label
 _atom_site_symmetry_multiplicity
 _atom_site_fract_x
 _atom_site_fract_y
 _atom_site_fract_z
 _atom_site_occupancy
  Ho  Ho0  1  0.000000  0.500000  0.000000  1
  Pa  Pa1  1  0.000000  0.000000  0.500000  1
  Pa  Pa2  1  0.500000  0.000000  0.000000  1
  Pa  Pa3  1  0.500000  0.500000  0.500000  1
  V  V4  1  0.000000  0.000000  0.000000  1
  Ga  Ga5  1  0.750072  0.250072  0.500146  1
  Ga  Ga6  1  0.750072  0.500000  0.249928  1
  Ga  Ga7  1  0.500146  0.250072  0.750072  1
  Ga  Ga8  1  0.249928  0.500000  0.750072  1
  Ga  Ga9  1  0.249928  0.749928  0.499854  1
  Ga  Ga10  1  0.499854  0.749928  0.249928  1
  Ga  Ga11  1  0.710060  0.708699  0.000000  1
  Ga  Ga12  1  0.289940  0.998640  0.289940  1
  Ga  Ga13  1  0.000000  0.291301  0.289940  1
  Ga  Ga14  1  0.289940  0.291301  0.000000  1
  Ga  Ga15  1  0.710060  0.001360  0.710060  1
  Ga  Ga16  1  0.000000  0.708699  0.710060  1
