# generated using pymatgen
data_Ho12Co2Ni2BiPd
_symmetry_space_group_name_H-M   'P 1'
_cell_length_a   8.33494769
_cell_length_b   8.33522439
_cell_length_c   8.33494900
_cell_angle_alpha   111.72799623
_cell_angle_beta   109.09762070
_cell_angle_gamma   107.61373826
_symmetry_Int_Tables_number   1
_chemical_formula_structural   Ho12Co2Ni2BiPd
_chemical_formula_sum   'Ho12 Co2 Ni2 Bi1 Pd1'
_cell_volume   445.17476595
_cell_formula_units_Z   1
loop_
 _symmetry_equiv_pos_site_id
 _symmetry_equiv_pos_as_xyz
  1  'x, y, z'
loop_
 _atom_site_type_symbol
 _atom_site_label
 _atom_site_symmetry_multiplicity
 _atom_site_fract_x
 _atom_site_fract_y
 _atom_site_fract_z
 _atom_site_occupancy
  Ho  Ho0  1  0.819581  0.711334  0.530914  1
  Ho  Ho1  1  0.180419  0.288666  0.469086  1
  Ho  Ho2  1  0.180421  0.711334  0.891753  1
  Ho  Ho3  1  0.819579  0.288666  0.108247  1
  Ho  Ho4  1  0.684189  0.374249  0.690060  1
  Ho  Ho5  1  0.315811  0.625751  0.309940  1
  Ho  Ho6  1  0.684176  0.994127  0.309951  1
  Ho  Ho7  1  0.315824  0.005873  0.690049  1
  Ho  Ho8  1  0.586287  0.784850  0.801450  1
  Ho  Ho9  1  0.413713  0.215150  0.198550  1
  Ho  Ho10  1  0.983400  0.784850  0.198563  1
  Ho  Ho11  1  0.016600  0.215150  0.801437  1
  Co  Co12  1  0.113707  0.613719  0.500011  1
  Co  Co13  1  0.886293  0.386281  0.499989  1
  Ni  Ni14  1  0.634450  0.000000  0.634450  1
  Ni  Ni15  1  0.365550  0.000000  0.365550  1
  Bi  Bi16  1  0.500000  0.500000  0.000000  1
  Pd  Pd17  1  0.000000  0.000000  0.000000  1
