# generated using pymatgen
data_Tb4Cu3Sb8
_symmetry_space_group_name_H-M   'P 1'
_cell_length_a   10.62305941
_cell_length_b   10.62306045
_cell_length_c   10.62305974
_cell_angle_alpha   146.63328178
_cell_angle_beta   146.63328523
_cell_angle_gamma   47.90707844
_symmetry_Int_Tables_number   1
_chemical_formula_structural   Tb4Cu3Sb8
_chemical_formula_sum   'Tb4 Cu3 Sb8'
_cell_volume   361.16737548
_cell_formula_units_Z   1
loop_
 _symmetry_equiv_pos_site_id
 _symmetry_equiv_pos_as_xyz
  1  'x, y, z'
loop_
 _atom_site_type_symbol
 _atom_site_label
 _atom_site_symmetry_multiplicity
 _atom_site_fract_x
 _atom_site_fract_y
 _atom_site_fract_z
 _atom_site_occupancy
  Tb  Tb0  1  0.633594  0.633594  0.507668  1
  Tb  Tb1  1  0.125925  0.125925  0.492332  1
  Tb  Tb2  1  0.366406  0.874075  0.000000  1
  Tb  Tb3  1  0.874075  0.366406  0.000000  1
  Cu  Cu4  1  0.000000  0.000000  0.000000  1
  Cu  Cu5  1  0.000000  0.500000  0.500000  1
  Cu  Cu6  1  0.500000  0.000000  0.500000  1
  Sb  Sb7  1  0.333173  0.333173  0.514545  1
  Sb  Sb8  1  0.818628  0.818628  0.485455  1
  Sb  Sb9  1  0.666827  0.181372  0.000000  1
  Sb  Sb10  1  0.181372  0.666827  0.000000  1
  Sb  Sb11  1  0.249835  0.249835  0.000000  1
  Sb  Sb12  1  0.750165  0.750165  0.000000  1
  Sb  Sb13  1  0.750000  0.250000  0.500000  1
  Sb  Sb14  1  0.250000  0.750000  0.500000  1
