# generated using pymatgen
data_Er4MnCo3(CuO5)4
_symmetry_space_group_name_H-M   'P 1'
_cell_length_a   5.59873344
_cell_length_b   7.41273233
_cell_length_c   8.36251707
_cell_angle_alpha   89.94046006
_cell_angle_beta   89.90705292
_cell_angle_gamma   89.80964356
_symmetry_Int_Tables_number   1
_chemical_formula_structural   Er4MnCo3(CuO5)4
_chemical_formula_sum   'Er4 Mn1 Co3 Cu4 O20'
_cell_volume   347.05789318
_cell_formula_units_Z   1
loop_
 _symmetry_equiv_pos_site_id
 _symmetry_equiv_pos_as_xyz
  1  'x, y, z'
loop_
 _atom_site_type_symbol
 _atom_site_label
 _atom_site_symmetry_multiplicity
 _atom_site_fract_x
 _atom_site_fract_y
 _atom_site_fract_z
 _atom_site_occupancy
  Er  Er0  1  0.997851  0.647748  0.325333  1
  Er  Er1  1  0.999211  0.352325  0.674670  1
  Er  Er2  1  0.996921  0.150468  0.172880  1
  Er  Er3  1  0.999211  0.849586  0.827167  1
  Mn  Mn4  1  0.260655  0.999655  0.499853  1
  Co  Co5  1  0.258019  0.497546  0.001108  1
  Co  Co6  1  0.743928  0.000371  0.500201  1
  Co  Co7  1  0.740540  0.502401  0.998792  1
  Cu  Cu8  1  0.500367  0.928116  0.151841  1
  Cu  Cu9  1  0.499775  0.071886  0.848167  1
  Cu  Cu10  1  0.499887  0.429052  0.347560  1
  Cu  Cu11  1  0.499119  0.570904  0.652403  1
  O  O12  1  0.268240  0.500407  0.499561  1
  O  O13  1  0.730476  0.000342  0.999896  1
  O  O14  1  0.730511  0.499571  0.500393  1
  O  O15  1  0.269773  0.999657  0.000115  1
  O  O16  1  0.003063  0.663039  0.051650  1
  O  O17  1  0.994427  0.336908  0.948316  1
  O  O18  1  0.000217  0.166013  0.446656  1
  O  O19  1  0.000454  0.834023  0.553369  1
  O  O20  1  0.506316  0.648429  0.059796  1
  O  O21  1  0.492746  0.351594  0.940183  1
  O  O22  1  0.504972  0.152245  0.437354  1
  O  O23  1  0.506422  0.847804  0.562734  1
  O  O24  1  0.240340  0.901940  0.286973  1
  O  O25  1  0.239281  0.096835  0.713326  1
  O  O26  1  0.759550  0.406012  0.209505  1
  O  O27  1  0.758691  0.592776  0.790335  1
  O  O28  1  0.759395  0.094067  0.709159  1
  O  O29  1  0.760319  0.907058  0.290621  1
  O  O30  1  0.239228  0.594548  0.790210  1
  O  O31  1  0.240098  0.406680  0.209871  1
