# generated using pymatgen
data_TbHo3HgPt
_symmetry_space_group_name_H-M   'P 1'
_cell_length_a   9.63500157
_cell_length_b   9.63500199
_cell_length_c   9.63500200
_cell_angle_alpha   59.99999996
_cell_angle_beta   59.99999852
_cell_angle_gamma   59.99999649
_symmetry_Int_Tables_number   1
_chemical_formula_structural   TbHo3HgPt
_chemical_formula_sum   'Tb4 Ho12 Hg4 Pt4'
_cell_volume   632.47067396
_cell_formula_units_Z   4
loop_
 _symmetry_equiv_pos_site_id
 _symmetry_equiv_pos_as_xyz
  1  'x, y, z'
loop_
 _atom_site_type_symbol
 _atom_site_label
 _atom_site_symmetry_multiplicity
 _atom_site_fract_x
 _atom_site_fract_y
 _atom_site_fract_z
 _atom_site_occupancy
  Tb  Tb0  1  0.604572  0.604572  0.604572  1
  Tb  Tb1  1  0.604572  0.604572  0.186284  1
  Tb  Tb2  1  0.604572  0.186284  0.604572  1
  Tb  Tb3  1  0.186284  0.604572  0.604572  1
  Ho  Ho4  1  0.060792  0.439208  0.439208  1
  Ho  Ho5  1  0.439208  0.060792  0.060792  1
  Ho  Ho6  1  0.439208  0.060792  0.439208  1
  Ho  Ho7  1  0.060792  0.439208  0.060792  1
  Ho  Ho8  1  0.439208  0.439208  0.060792  1
  Ho  Ho9  1  0.060792  0.060792  0.439208  1
  Ho  Ho10  1  0.185100  0.814900  0.814900  1
  Ho  Ho11  1  0.814900  0.185100  0.185100  1
  Ho  Ho12  1  0.814900  0.185100  0.814900  1
  Ho  Ho13  1  0.185100  0.814900  0.185100  1
  Ho  Ho14  1  0.814900  0.814900  0.185100  1
  Ho  Ho15  1  0.185100  0.185100  0.814900  1
  Hg  Hg16  1  0.836534  0.836534  0.836534  1
  Hg  Hg17  1  0.836534  0.836534  0.490398  1
  Hg  Hg18  1  0.836534  0.490398  0.836534  1
  Hg  Hg19  1  0.490398  0.836534  0.836534  1
  Pt  Pt20  1  0.393403  0.393403  0.393403  1
  Pt  Pt21  1  0.393403  0.393403  0.819791  1
  Pt  Pt22  1  0.393403  0.819791  0.393403  1
  Pt  Pt23  1  0.819791  0.393403  0.393403  1
