# generated using pymatgen
data_Eu6TaBrO14
_symmetry_space_group_name_H-M   'P 1'
_cell_length_a   6.63157973
_cell_length_b   6.63157871
_cell_length_c   7.69155563
_cell_angle_alpha   90.11272886
_cell_angle_beta   89.88726988
_cell_angle_gamma   109.64070309
_symmetry_Int_Tables_number   1
_chemical_formula_structural   Eu6TaBrO14
_chemical_formula_sum   'Eu6 Ta1 Br1 O14'
_cell_volume   318.57688170
_cell_formula_units_Z   1
loop_
 _symmetry_equiv_pos_site_id
 _symmetry_equiv_pos_as_xyz
  1  'x, y, z'
loop_
 _atom_site_type_symbol
 _atom_site_label
 _atom_site_symmetry_multiplicity
 _atom_site_fract_x
 _atom_site_fract_y
 _atom_site_fract_z
 _atom_site_occupancy
  Eu  Eu0  1  0.000582  0.473395  0.750500  1
  Eu  Eu1  1  0.996181  0.533978  0.244249  1
  Eu  Eu2  1  0.533978  0.996181  0.755751  1
  Eu  Eu3  1  0.473395  0.000582  0.249500  1
  Eu  Eu4  1  0.535518  0.535518  0.500000  1
  Eu  Eu5  1  0.486709  0.486709  0.000000  1
  Ta  Ta6  1  0.002181  0.002181  0.000000  1
  Br  Br7  1  0.018037  0.018037  0.500000  1
  O  O8  1  0.636396  0.360578  0.751208  1
  O  O9  1  0.360578  0.636396  0.248792  1
  O  O10  1  0.943578  0.067614  0.749434  1
  O  O11  1  0.067614  0.943578  0.250566  1
  O  O12  1  0.917408  0.650870  0.519054  1
  O  O13  1  0.074362  0.320153  0.027625  1
  O  O14  1  0.320153  0.074362  0.972375  1
  O  O15  1  0.650870  0.917408  0.480946  1
  O  O16  1  0.369380  0.628584  0.752259  1
  O  O17  1  0.628584  0.369380  0.247741  1
  O  O18  1  0.937735  0.690907  0.968595  1
  O  O19  1  0.062643  0.293212  0.463245  1
  O  O20  1  0.293212  0.062643  0.536755  1
  O  O21  1  0.690907  0.937735  0.031405  1
