# generated using pymatgen
data_Tb4Ga18Ir4PdRh
_symmetry_space_group_name_H-M   'P 1'
_cell_length_a   7.60520221
_cell_length_b   7.60520165
_cell_length_c   9.51956757
_cell_angle_alpha   90.05361230
_cell_angle_beta   90.05360974
_cell_angle_gamma   119.87916793
_symmetry_Int_Tables_number   1
_chemical_formula_structural   Tb4Ga18Ir4PdRh
_chemical_formula_sum   'Tb4 Ga18 Ir4 Pd1 Rh1'
_cell_volume   477.41504172
_cell_formula_units_Z   1
loop_
 _symmetry_equiv_pos_site_id
 _symmetry_equiv_pos_as_xyz
  1  'x, y, z'
loop_
 _atom_site_type_symbol
 _atom_site_label
 _atom_site_symmetry_multiplicity
 _atom_site_fract_x
 _atom_site_fract_y
 _atom_site_fract_z
 _atom_site_occupancy
  Tb  Tb0  1  0.996711  0.668263  0.250741  1
  Tb  Tb1  1  0.003214  0.331745  0.749333  1
  Tb  Tb2  1  0.668255  0.996786  0.250667  1
  Tb  Tb3  1  0.331737  0.003289  0.749259  1
  Ga  Ga4  1  0.127209  0.127201  0.251608  1
  Ga  Ga5  1  0.872799  0.872791  0.748392  1
  Ga  Ga6  1  0.999858  0.336518  0.080251  1
  Ga  Ga7  1  0.999998  0.663447  0.919752  1
  Ga  Ga8  1  0.999906  0.665574  0.578454  1
  Ga  Ga9  1  0.334426  0.000094  0.421546  1
  Ga  Ga10  1  0.999092  0.333947  0.421551  1
  Ga  Ga11  1  0.666053  0.000908  0.578449  1
  Ga  Ga12  1  0.663482  0.000142  0.919749  1
  Ga  Ga13  1  0.336553  0.000002  0.080248  1
  Ga  Ga14  1  0.333421  0.333011  0.563392  1
  Ga  Ga15  1  0.666989  0.666579  0.436608  1
  Ga  Ga16  1  0.663703  0.663655  0.065044  1
  Ga  Ga17  1  0.336345  0.336297  0.934956  1
  Ga  Ga18  1  0.337854  0.546280  0.250287  1
  Ga  Ga19  1  0.662167  0.453325  0.749239  1
  Ga  Ga20  1  0.546675  0.337833  0.250761  1
  Ga  Ga21  1  0.453720  0.662146  0.749713  1
  Ir  Ir22  1  0.671616  0.328384  0.000000  1
  Ir  Ir23  1  0.328269  0.671731  0.000000  1
  Ir  Ir24  1  0.328487  0.671513  0.500000  1
  Ir  Ir25  1  0.000181  0.999819  0.500000  1
  Pd  Pd26  1  0.999967  0.000033  0.000000  1
  Rh  Rh27  1  0.671311  0.328689  0.500000  1
