# generated using pymatgen
data_TbPa(FeB)8
_symmetry_space_group_name_H-M   'P 1'
_cell_length_a   6.96253700
_cell_length_b   6.96253700
_cell_length_c   3.81746300
_cell_angle_alpha   90.00000000
_cell_angle_beta   90.00000000
_cell_angle_gamma   90.00000000
_symmetry_Int_Tables_number   1
_chemical_formula_structural   TbPa(FeB)8
_chemical_formula_sum   'Tb1 Pa1 Fe8 B8'
_cell_volume   185.05885409
_cell_formula_units_Z   1
loop_
 _symmetry_equiv_pos_site_id
 _symmetry_equiv_pos_as_xyz
  1  'x, y, z'
loop_
 _atom_site_type_symbol
 _atom_site_label
 _atom_site_symmetry_multiplicity
 _atom_site_fract_x
 _atom_site_fract_y
 _atom_site_fract_z
 _atom_site_occupancy
  Tb  Tb0  1  0.500000  0.500000  0.500000  1
  Pa  Pa1  1  0.000000  0.000000  0.000000  1
  Fe  Fe2  1  0.130240  0.382831  0.897233  1
  Fe  Fe3  1  0.869760  0.617169  0.897233  1
  Fe  Fe4  1  0.887021  0.366469  0.393662  1
  Fe  Fe5  1  0.112979  0.633531  0.393662  1
  Fe  Fe6  1  0.366469  0.112979  0.606338  1
  Fe  Fe7  1  0.633531  0.887021  0.606338  1
  Fe  Fe8  1  0.617169  0.130240  0.102767  1
  Fe  Fe9  1  0.382831  0.869760  0.102767  1
  B  B10  1  0.663608  0.796931  0.106908  1
  B  B11  1  0.336392  0.203069  0.106908  1
  B  B12  1  0.295297  0.834428  0.601509  1
  B  B13  1  0.704703  0.165572  0.601509  1
  B  B14  1  0.834428  0.704703  0.398491  1
  B  B15  1  0.165572  0.295297  0.398491  1
  B  B16  1  0.203069  0.663608  0.893092  1
  B  B17  1  0.796931  0.336392  0.893092  1
