# generated using pymatgen
data_DyLu11Ni4
_symmetry_space_group_name_H-M   'P 1'
_cell_length_a   6.18514800
_cell_length_b   6.68910628
_cell_length_c   9.38050100
_cell_angle_alpha   90.00000000
_cell_angle_beta   90.00000000
_cell_angle_gamma   90.01670280
_symmetry_Int_Tables_number   1
_chemical_formula_structural   DyLu11Ni4
_chemical_formula_sum   'Dy1 Lu11 Ni4'
_cell_volume   388.10050533
_cell_formula_units_Z   1
loop_
 _symmetry_equiv_pos_site_id
 _symmetry_equiv_pos_as_xyz
  1  'x, y, z'
loop_
 _atom_site_type_symbol
 _atom_site_label
 _atom_site_symmetry_multiplicity
 _atom_site_fract_x
 _atom_site_fract_y
 _atom_site_fract_z
 _atom_site_occupancy
  Dy  Dy0  1  0.864618  0.530124  0.250000  1
  Lu  Lu1  1  0.635118  0.032479  0.250000  1
  Lu  Lu2  1  0.364836  0.967699  0.750000  1
  Lu  Lu3  1  0.135122  0.468966  0.750000  1
  Lu  Lu4  1  0.181833  0.178825  0.064239  1
  Lu  Lu5  1  0.818263  0.821644  0.933725  1
  Lu  Lu6  1  0.680763  0.319870  0.933373  1
  Lu  Lu7  1  0.818263  0.821644  0.566275  1
  Lu  Lu8  1  0.320465  0.679900  0.064833  1
  Lu  Lu9  1  0.181833  0.178825  0.435761  1
  Lu  Lu10  1  0.320465  0.679900  0.435167  1
  Lu  Lu11  1  0.680763  0.319870  0.566627  1
  Ni  Ni12  1  0.444282  0.392129  0.250000  1
  Ni  Ni13  1  0.550063  0.605919  0.750000  1
  Ni  Ni14  1  0.951972  0.106063  0.750000  1
  Ni  Ni15  1  0.051343  0.896144  0.250000  1
