# generated using pymatgen
data_CeSnF7
_symmetry_space_group_name_H-M   'P 1'
_cell_length_a   5.86549700
_cell_length_b   9.33784484
_cell_length_c   12.57512267
_cell_angle_alpha   62.15946956
_cell_angle_beta   90.00000000
_cell_angle_gamma   90.00000000
_symmetry_Int_Tables_number   1
_chemical_formula_structural   CeSnF7
_chemical_formula_sum   'Ce4 Sn4 F28'
_cell_volume   609.03069311
_cell_formula_units_Z   4
loop_
 _symmetry_equiv_pos_site_id
 _symmetry_equiv_pos_as_xyz
  1  'x, y, z'
loop_
 _atom_site_type_symbol
 _atom_site_label
 _atom_site_symmetry_multiplicity
 _atom_site_fract_x
 _atom_site_fract_y
 _atom_site_fract_z
 _atom_site_occupancy
  Ce  Ce0  1  0.742548  0.811834  0.264681  1
  Ce  Ce1  1  0.242548  0.188166  0.235319  1
  Ce  Ce2  1  0.257452  0.188166  0.735319  1
  Ce  Ce3  1  0.757452  0.811834  0.764681  1
  Sn  Sn4  1  0.743716  0.273083  0.457114  1
  Sn  Sn5  1  0.243716  0.726917  0.042886  1
  Sn  Sn6  1  0.256284  0.726917  0.542886  1
  Sn  Sn7  1  0.756284  0.273083  0.957114  1
  F  F8  1  0.447783  0.709691  0.921780  1
  F  F9  1  0.947783  0.290309  0.578220  1
  F  F10  1  0.552217  0.290309  0.078220  1
  F  F11  1  0.052217  0.709691  0.421780  1
  F  F12  1  0.460731  0.281182  0.544512  1
  F  F13  1  0.960731  0.718818  0.955488  1
  F  F14  1  0.539269  0.718818  0.455488  1
  F  F15  1  0.039269  0.281182  0.044512  1
  F  F16  1  0.768932  0.514255  0.861768  1
  F  F17  1  0.268932  0.485745  0.638232  1
  F  F18  1  0.231068  0.485745  0.138232  1
  F  F19  1  0.731068  0.514255  0.361768  1
  F  F20  1  0.758038  0.031473  0.052182  1
  F  F21  1  0.258038  0.968527  0.447818  1
  F  F22  1  0.241962  0.968527  0.947818  1
  F  F23  1  0.741962  0.031473  0.552182  1
  F  F24  1  0.985657  0.730544  0.639251  1
  F  F25  1  0.485657  0.269456  0.860749  1
  F  F26  1  0.014343  0.269456  0.360749  1
  F  F27  1  0.514343  0.730544  0.139251  1
  F  F28  1  0.046349  0.744765  0.167500  1
  F  F29  1  0.546349  0.255235  0.332500  1
  F  F30  1  0.953651  0.255235  0.832500  1
  F  F31  1  0.453651  0.744765  0.667500  1
  F  F32  1  0.416757  0.970538  0.233140  1
  F  F33  1  0.916757  0.029462  0.266860  1
  F  F34  1  0.583243  0.029462  0.766860  1
  F  F35  1  0.083243  0.970538  0.733140  1
