# generated using pymatgen
data_Dy6Er4GaSb5
_symmetry_space_group_name_H-M   'P 1'
_cell_length_a   6.33344000
_cell_length_b   8.90062428
_cell_length_c   8.88570811
_cell_angle_alpha   120.05555531
_cell_angle_beta   90.00157995
_cell_angle_gamma   89.99683989
_symmetry_Int_Tables_number   1
_chemical_formula_structural   Dy6Er4GaSb5
_chemical_formula_sum   'Dy6 Er4 Ga1 Sb5'
_cell_volume   433.55021697
_cell_formula_units_Z   1
loop_
 _symmetry_equiv_pos_site_id
 _symmetry_equiv_pos_as_xyz
  1  'x, y, z'
loop_
 _atom_site_type_symbol
 _atom_site_label
 _atom_site_symmetry_multiplicity
 _atom_site_fract_x
 _atom_site_fract_y
 _atom_site_fract_z
 _atom_site_occupancy
  Dy  Dy0  1  0.749998  0.249975  0.000000  1
  Dy  Dy1  1  0.749999  0.752664  0.763476  1
  Dy  Dy2  1  0.749999  0.989189  0.236524  1
  Dy  Dy3  1  0.250004  0.755047  0.000000  1
  Dy  Dy4  1  0.249997  0.245161  0.244730  1
  Dy  Dy5  1  0.249997  0.000432  0.755270  1
  Er  Er6  1  0.501157  0.340270  0.675263  1
  Er  Er7  1  0.501157  0.665007  0.324737  1
  Er  Er8  1  0.998852  0.665006  0.324751  1
  Er  Er9  1  0.998852  0.340257  0.675249  1
  Ga  Ga10  1  0.749992  0.606700  0.000000  1
  Sb  Sb11  1  0.749996  0.388311  0.390391  1
  Sb  Sb12  1  0.749996  0.997920  0.609609  1
  Sb  Sb13  1  0.250004  0.390791  0.000000  1
  Sb  Sb14  1  0.250002  0.610314  0.607360  1
  Sb  Sb15  1  0.250002  0.002956  0.392640  1
