# generated using pymatgen
data_Zr10GaSn5Se
_symmetry_space_group_name_H-M   'P 1'
_cell_length_a   5.89094271
_cell_length_b   8.56227001
_cell_length_c   8.56802694
_cell_angle_alpha   119.98100699
_cell_angle_beta   89.93501868
_cell_angle_gamma   90.12905380
_symmetry_Int_Tables_number   1
_chemical_formula_structural   Zr10GaSn5Se
_chemical_formula_sum   'Zr10 Ga1 Sn5 Se1'
_cell_volume   374.34079479
_cell_formula_units_Z   1
loop_
 _symmetry_equiv_pos_site_id
 _symmetry_equiv_pos_as_xyz
  1  'x, y, z'
loop_
 _atom_site_type_symbol
 _atom_site_label
 _atom_site_symmetry_multiplicity
 _atom_site_fract_x
 _atom_site_fract_y
 _atom_site_fract_z
 _atom_site_occupancy
  Zr  Zr0  1  0.502253  0.337835  0.673049  1
  Zr  Zr1  1  0.502256  0.664790  0.326943  1
  Zr  Zr2  1  0.997814  0.665472  0.327491  1
  Zr  Zr3  1  0.997825  0.337967  0.672491  1
  Zr  Zr4  1  0.760600  0.264557  0.000002  1
  Zr  Zr5  1  0.765227  0.740160  0.749761  1
  Zr  Zr6  1  0.765226  0.990394  0.250238  1
  Zr  Zr7  1  0.230764  0.743180  0.000010  1
  Zr  Zr8  1  0.235681  0.256226  0.255957  1
  Zr  Zr9  1  0.235678  0.000260  0.744045  1
  Ga  Ga10  1  0.751453  0.607175  0.000003  1
  Sn  Sn11  1  0.747480  0.390077  0.391791  1
  Sn  Sn12  1  0.747480  0.998259  0.608201  1
  Sn  Sn13  1  0.252543  0.392990  0.000016  1
  Sn  Sn14  1  0.253393  0.608160  0.606202  1
  Sn  Sn15  1  0.253394  0.001940  0.393799  1
  Se  Se16  1  0.500930  0.000564  0.000002  1
