# generated using pymatgen
data_RbSr(BiAu)2
_symmetry_space_group_name_H-M   'P 1'
_cell_length_a   4.81281800
_cell_length_b   4.81281830
_cell_length_c   10.48728000
_cell_angle_alpha   90.00000000
_cell_angle_beta   90.00000000
_cell_angle_gamma   119.99999793
_symmetry_Int_Tables_number   1
_chemical_formula_structural   RbSr(BiAu)2
_chemical_formula_sum   'Rb1 Sr1 Bi2 Au2'
_cell_volume   210.37416686
_cell_formula_units_Z   1
loop_
 _symmetry_equiv_pos_site_id
 _symmetry_equiv_pos_as_xyz
  1  'x, y, z'
loop_
 _atom_site_type_symbol
 _atom_site_label
 _atom_site_symmetry_multiplicity
 _atom_site_fract_x
 _atom_site_fract_y
 _atom_site_fract_z
 _atom_site_occupancy
  Rb  Rb0  1  0.000000  0.000000  0.000000  1
  Sr  Sr1  1  0.000000  0.000000  0.500000  1
  Bi  Bi2  1  0.333333  0.666667  0.737087  1
  Bi  Bi3  1  0.666667  0.333333  0.262913  1
  Au  Au4  1  0.333333  0.666667  0.311257  1
  Au  Au5  1  0.666667  0.333333  0.688743  1
