# generated using pymatgen
data_HfAg3(NO3)8
_symmetry_space_group_name_H-M   'P 1'
_cell_length_a   8.22453640
_cell_length_b   8.22453545
_cell_length_c   8.22453637
_cell_angle_alpha   89.49128674
_cell_angle_beta   89.49128981
_cell_angle_gamma   89.49128977
_symmetry_Int_Tables_number   1
_chemical_formula_structural   HfAg3(NO3)8
_chemical_formula_sum   'Hf1 Ag3 N8 O24'
_cell_volume   556.26684432
_cell_formula_units_Z   1
loop_
 _symmetry_equiv_pos_site_id
 _symmetry_equiv_pos_as_xyz
  1  'x, y, z'
loop_
 _atom_site_type_symbol
 _atom_site_label
 _atom_site_symmetry_multiplicity
 _atom_site_fract_x
 _atom_site_fract_y
 _atom_site_fract_z
 _atom_site_occupancy
  Hf  Hf0  1  0.000000  0.000000  0.000000  1
  Ag  Ag1  1  0.500000  0.500000  0.000000  1
  Ag  Ag2  1  0.000000  0.500000  0.500000  1
  Ag  Ag3  1  0.500000  0.000000  0.500000  1
  N  N4  1  0.310886  0.138175  0.811795  1
  N  N5  1  0.811795  0.310886  0.138175  1
  N  N6  1  0.138175  0.811795  0.310886  1
  N  N7  1  0.667195  0.667195  0.667195  1
  N  N8  1  0.689114  0.861825  0.188205  1
  N  N9  1  0.188205  0.689114  0.861825  1
  N  N10  1  0.861825  0.188205  0.689114  1
  N  N11  1  0.332805  0.332805  0.332805  1
  O  O12  1  0.416575  0.242671  0.813227  1
  O  O13  1  0.813227  0.416575  0.242671  1
  O  O14  1  0.242671  0.813227  0.416575  1
  O  O15  1  0.202507  0.136388  0.932737  1
  O  O16  1  0.296750  0.032005  0.705052  1
  O  O17  1  0.705052  0.296750  0.032005  1
  O  O18  1  0.677679  0.552913  0.770991  1
  O  O19  1  0.136388  0.932737  0.202507  1
  O  O20  1  0.770991  0.677679  0.552913  1
  O  O21  1  0.932737  0.202507  0.136388  1
  O  O22  1  0.552913  0.770991  0.677679  1
  O  O23  1  0.032005  0.705052  0.296750  1
  O  O24  1  0.583425  0.757329  0.186773  1
  O  O25  1  0.186773  0.583425  0.757329  1
  O  O26  1  0.757329  0.186773  0.583425  1
  O  O27  1  0.797493  0.863612  0.067263  1
  O  O28  1  0.703250  0.967995  0.294948  1
  O  O29  1  0.294948  0.703250  0.967995  1
  O  O30  1  0.322321  0.447087  0.229009  1
  O  O31  1  0.863612  0.067263  0.797493  1
  O  O32  1  0.229009  0.322321  0.447087  1
  O  O33  1  0.067263  0.797493  0.863612  1
  O  O34  1  0.447087  0.229009  0.322321  1
  O  O35  1  0.967995  0.294948  0.703250  1
