# generated using pymatgen
data_Dy8ZnIn3
_symmetry_space_group_name_H-M   'P 1'
_cell_length_a   10.66227700
_cell_length_b   10.66227574
_cell_length_c   6.78153900
_cell_angle_alpha   90.00000000
_cell_angle_beta   90.00000000
_cell_angle_gamma   120.00000701
_symmetry_Int_Tables_number   1
_chemical_formula_structural   Dy8ZnIn3
_chemical_formula_sum   'Dy16 Zn2 In6'
_cell_volume   667.66519219
_cell_formula_units_Z   2
loop_
 _symmetry_equiv_pos_site_id
 _symmetry_equiv_pos_as_xyz
  1  'x, y, z'
loop_
 _atom_site_type_symbol
 _atom_site_label
 _atom_site_symmetry_multiplicity
 _atom_site_fract_x
 _atom_site_fract_y
 _atom_site_fract_z
 _atom_site_occupancy
  Dy  Dy0  1  0.521697  0.043393  0.518117  1
  Dy  Dy1  1  0.956607  0.478303  0.518117  1
  Dy  Dy2  1  0.521697  0.478303  0.518117  1
  Dy  Dy3  1  0.478303  0.956607  0.018117  1
  Dy  Dy4  1  0.043393  0.521697  0.018117  1
  Dy  Dy5  1  0.478303  0.521697  0.018117  1
  Dy  Dy6  1  0.172363  0.344726  0.734170  1
  Dy  Dy7  1  0.655274  0.827637  0.734170  1
  Dy  Dy8  1  0.172363  0.827637  0.734170  1
  Dy  Dy9  1  0.827637  0.655274  0.234170  1
  Dy  Dy10  1  0.344726  0.172363  0.234170  1
  Dy  Dy11  1  0.827637  0.172363  0.234170  1
  Dy  Dy12  1  0.666667  0.333333  0.866847  1
  Dy  Dy13  1  0.333333  0.666667  0.366847  1
  Dy  Dy14  1  0.000000  0.000000  0.497565  1
  Dy  Dy15  1  0.000000  0.000000  0.997565  1
  Zn  Zn16  1  0.666667  0.333333  0.300538  1
  Zn  Zn17  1  0.333333  0.666667  0.800538  1
  In  In18  1  0.835350  0.670700  0.750097  1
  In  In19  1  0.329300  0.164650  0.750097  1
  In  In20  1  0.835350  0.164650  0.750097  1
  In  In21  1  0.164650  0.329300  0.250097  1
  In  In22  1  0.670700  0.835350  0.250097  1
  In  In23  1  0.164650  0.835350  0.250097  1
