# generated using pymatgen
data_Ca4(Ga8Pt3)3
_symmetry_space_group_name_H-M   'P 1'
_cell_length_a   7.54149562
_cell_length_b   7.60521902
_cell_length_c   13.59385787
_cell_angle_alpha   84.42175113
_cell_angle_beta   79.17683056
_cell_angle_gamma   60.20078575
_symmetry_Int_Tables_number   1
_chemical_formula_structural   Ca4(Ga8Pt3)3
_chemical_formula_sum   'Ca4 Ga24 Pt9'
_cell_volume   664.53545264
_cell_formula_units_Z   1
loop_
 _symmetry_equiv_pos_site_id
 _symmetry_equiv_pos_as_xyz
  1  'x, y, z'
loop_
 _atom_site_type_symbol
 _atom_site_label
 _atom_site_symmetry_multiplicity
 _atom_site_fract_x
 _atom_site_fract_y
 _atom_site_fract_z
 _atom_site_occupancy
  Ca  Ca0  1  0.395735  0.168287  0.808133  1
  Ca  Ca1  1  0.604265  0.831713  0.191867  1
  Ca  Ca2  1  0.732469  0.500263  0.807926  1
  Ca  Ca3  1  0.267531  0.499737  0.192074  1
  Ga  Ga4  1  0.687829  0.833028  0.941540  1
  Ga  Ga5  1  0.312171  0.166972  0.058460  1
  Ga  Ga6  1  0.147938  0.832252  0.558340  1
  Ga  Ga7  1  0.852062  0.167748  0.441660  1
  Ga  Ga8  1  0.479663  0.166512  0.555305  1
  Ga  Ga9  1  0.520337  0.833488  0.444695  1
  Ga  Ga10  1  0.217496  0.164922  0.327663  1
  Ga  Ga11  1  0.782504  0.835078  0.672337  1
  Ga  Ga12  1  0.436944  0.506182  0.672097  1
  Ga  Ga13  1  0.563056  0.493818  0.327903  1
  Ga  Ga14  1  0.108798  0.159375  0.671165  1
  Ga  Ga15  1  0.891202  0.840625  0.328835  1
  Ga  Ga16  1  0.354507  0.499089  0.942358  1
  Ga  Ga17  1  0.645493  0.500911  0.057642  1
  Ga  Ga18  1  0.017610  0.167459  0.948618  1
  Ga  Ga19  1  0.982390  0.832541  0.051382  1
  Ga  Ga20  1  0.185626  0.498359  0.444900  1
  Ga  Ga21  1  0.814374  0.501641  0.555100  1
  Ga  Ga22  1  0.733499  0.164583  0.182695  1
  Ga  Ga23  1  0.266501  0.835417  0.817305  1
  Ga  Ga24  1  0.062050  0.629776  0.816014  1
  Ga  Ga25  1  0.937950  0.370224  0.183986  1
  Ga  Ga26  1  0.855404  0.040940  0.815868  1
  Ga  Ga27  1  0.144596  0.959060  0.184132  1
  Pt  Pt28  1  0.119372  0.492702  0.638091  1
  Pt  Pt29  1  0.880628  0.507298  0.361909  1
  Pt  Pt30  1  0.661005  0.169275  0.999310  1
  Pt  Pt31  1  0.338995  0.830725  0.000690  1
  Pt  Pt32  1  0.538486  0.167063  0.362277  1
  Pt  Pt33  1  0.461514  0.832937  0.637723  1
  Pt  Pt34  1  0.779729  0.174234  0.634882  1
  Pt  Pt35  1  0.220271  0.825766  0.365118  1
  Pt  Pt36  1  0.000000  0.500000  0.000000  1
