# generated using pymatgen
data_Ga5Si(B4Ir9)2
_symmetry_space_group_name_H-M   'P 1'
_cell_length_a   9.00778130
_cell_length_b   9.03681878
_cell_length_c   5.75554700
_cell_angle_alpha   90.00000000
_cell_angle_beta   90.00000000
_cell_angle_gamma   119.65667919
_symmetry_Int_Tables_number   1
_chemical_formula_structural   Ga5Si(B4Ir9)2
_chemical_formula_sum   'Ga5 Si1 B8 Ir18'
_cell_volume   407.13901856
_cell_formula_units_Z   1
loop_
 _symmetry_equiv_pos_site_id
 _symmetry_equiv_pos_as_xyz
  1  'x, y, z'
loop_
 _atom_site_type_symbol
 _atom_site_label
 _atom_site_symmetry_multiplicity
 _atom_site_fract_x
 _atom_site_fract_y
 _atom_site_fract_z
 _atom_site_occupancy
  Ga  Ga0  1  0.447115  0.987598  0.250000  1
  Ga  Ga1  1  0.538541  0.550652  0.250000  1
  Ga  Ga2  1  0.551177  0.539113  0.750000  1
  Ga  Ga3  1  0.988025  0.449061  0.750000  1
  Ga  Ga4  1  0.012504  0.462568  0.250000  1
  Si  Si5  1  0.472596  0.017582  0.750000  1
  B  B6  1  0.809391  0.000258  0.501075  1
  B  B7  1  0.809391  0.000258  0.998925  1
  B  B8  1  0.000029  0.808463  0.500343  1
  B  B9  1  0.191510  0.190946  0.501226  1
  B  B10  1  0.191510  0.190946  0.998774  1
  B  B11  1  0.000029  0.808463  0.999657  1
  B  B12  1  0.666726  0.333637  0.250000  1
  B  B13  1  0.330683  0.665093  0.750000  1
  Ir  Ir14  1  0.810606  0.535720  0.501126  1
  Ir  Ir15  1  0.534328  0.816089  0.502625  1
  Ir  Ir16  1  0.998405  0.178720  0.750000  1
  Ir  Ir17  1  0.275865  0.463738  0.499045  1
  Ir  Ir18  1  0.002162  0.182262  0.250000  1
  Ir  Ir19  1  0.719517  0.184983  0.503902  1
  Ir  Ir20  1  0.815582  0.821794  0.250000  1
  Ir  Ir21  1  0.186182  0.723740  0.498687  1
  Ir  Ir22  1  0.462478  0.273943  0.502441  1
  Ir  Ir23  1  0.810606  0.535720  0.998874  1
  Ir  Ir24  1  0.462478  0.273943  0.997559  1
  Ir  Ir25  1  0.195255  0.003005  0.750000  1
  Ir  Ir26  1  0.178227  0.996087  0.250000  1
  Ir  Ir27  1  0.186182  0.723740  0.001313  1
  Ir  Ir28  1  0.823191  0.817065  0.750000  1
  Ir  Ir29  1  0.719517  0.184983  0.996098  1
  Ir  Ir30  1  0.275865  0.463738  0.000955  1
  Ir  Ir31  1  0.534328  0.816089  0.997375  1
