# generated using pymatgen
data_Tb3Tm3Al24(Ir3Ru)2
_symmetry_space_group_name_H-M   'P 1'
_cell_length_a   8.82103900
_cell_length_b   8.82103887
_cell_length_c   9.48504000
_cell_angle_alpha   90.00000000
_cell_angle_beta   90.00000000
_cell_angle_gamma   119.99999674
_symmetry_Int_Tables_number   1
_chemical_formula_structural   Tb3Tm3Al24(Ir3Ru)2
_chemical_formula_sum   'Tb3 Tm3 Al24 Ir6 Ru2'
_cell_volume   639.15956232
_cell_formula_units_Z   1
loop_
 _symmetry_equiv_pos_site_id
 _symmetry_equiv_pos_as_xyz
  1  'x, y, z'
loop_
 _atom_site_type_symbol
 _atom_site_label
 _atom_site_symmetry_multiplicity
 _atom_site_fract_x
 _atom_site_fract_y
 _atom_site_fract_z
 _atom_site_occupancy
  Tb  Tb0  1  0.615335  0.807668  0.750000  1
  Tb  Tb1  1  0.192332  0.807668  0.750000  1
  Tb  Tb2  1  0.192332  0.384665  0.750000  1
  Tm  Tm3  1  0.389262  0.194631  0.250000  1
  Tm  Tm4  1  0.805369  0.194631  0.250000  1
  Tm  Tm5  1  0.805369  0.610738  0.250000  1
  Al  Al6  1  0.437912  0.875822  0.250000  1
  Al  Al7  1  0.124178  0.562088  0.250000  1
  Al  Al8  1  0.437912  0.562088  0.250000  1
  Al  Al9  1  0.562776  0.125553  0.750000  1
  Al  Al10  1  0.874447  0.437224  0.750000  1
  Al  Al11  1  0.562776  0.437224  0.750000  1
  Al  Al12  1  0.162766  0.837234  0.422969  1
  Al  Al13  1  0.162766  0.325532  0.422969  1
  Al  Al14  1  0.674468  0.837234  0.422969  1
  Al  Al15  1  0.836887  0.163113  0.574633  1
  Al  Al16  1  0.836887  0.673772  0.574633  1
  Al  Al17  1  0.326228  0.163113  0.574633  1
  Al  Al18  1  0.836887  0.163113  0.925367  1
  Al  Al19  1  0.836887  0.673772  0.925367  1
  Al  Al20  1  0.326228  0.163113  0.925367  1
  Al  Al21  1  0.162766  0.837234  0.077031  1
  Al  Al22  1  0.162766  0.325532  0.077031  1
  Al  Al23  1  0.674468  0.837234  0.077031  1
  Al  Al24  1  0.333333  0.666667  0.528687  1
  Al  Al25  1  0.666667  0.333333  0.468826  1
  Al  Al26  1  0.666667  0.333333  0.031174  1
  Al  Al27  1  0.333333  0.666667  0.971313  1
  Al  Al28  1  0.000000  0.000000  0.250000  1
  Al  Al29  1  0.000000  0.000000  0.750000  1
  Ir  Ir30  1  0.500472  0.000945  0.498960  1
  Ir  Ir31  1  0.999055  0.499528  0.498960  1
  Ir  Ir32  1  0.500472  0.499528  0.498960  1
  Ir  Ir33  1  0.500472  0.000945  0.001040  1
  Ir  Ir34  1  0.999055  0.499528  0.001040  1
  Ir  Ir35  1  0.500472  0.499528  0.001040  1
  Ru  Ru36  1  0.000000  0.000000  0.499948  1
  Ru  Ru37  1  0.000000  0.000000  0.000052  1
