# generated using pymatgen
data_La3Ga6Cu2Ni7
_symmetry_space_group_name_H-M   'P 1'
_cell_length_a   9.02560409
_cell_length_b   9.05321187
_cell_length_c   4.14759900
_cell_angle_alpha   90.00000000
_cell_angle_beta   90.00000000
_cell_angle_gamma   120.10122699
_symmetry_Int_Tables_number   1
_chemical_formula_structural   La3Ga6Cu2Ni7
_chemical_formula_sum   'La3 Ga6 Cu2 Ni7'
_cell_volume   293.19898192
_cell_formula_units_Z   1
loop_
 _symmetry_equiv_pos_site_id
 _symmetry_equiv_pos_as_xyz
  1  'x, y, z'
loop_
 _atom_site_type_symbol
 _atom_site_label
 _atom_site_symmetry_multiplicity
 _atom_site_fract_x
 _atom_site_fract_y
 _atom_site_fract_z
 _atom_site_occupancy
  La  La0  1  0.666456  0.333946  0.500000  1
  La  La1  1  0.333544  0.667491  0.500000  1
  La  La2  1  0.000000  0.999360  0.000000  1
  Ga  Ga3  1  0.478595  0.478874  0.000000  1
  Ga  Ga4  1  0.521405  0.000279  0.000000  1
  Ga  Ga5  1  0.000000  0.524277  0.000000  1
  Ga  Ga6  1  0.722426  0.717543  0.500000  1
  Ga  Ga7  1  0.277574  0.995118  0.500000  1
  Ga  Ga8  1  0.000000  0.281770  0.500000  1
  Cu  Cu9  1  0.288720  0.288035  0.500000  1
  Cu  Cu10  1  0.711280  0.999315  0.500000  1
  Ni  Ni11  1  0.829765  0.202387  0.000000  1
  Ni  Ni12  1  0.801453  0.632102  0.000000  1
  Ni  Ni13  1  0.371085  0.170297  0.000000  1
  Ni  Ni14  1  0.198547  0.830648  0.000000  1
  Ni  Ni15  1  0.628915  0.799212  0.000000  1
  Ni  Ni16  1  0.170235  0.372621  0.000000  1
  Ni  Ni17  1  0.000000  0.706723  0.500000  1
