# generated using pymatgen
data_Tb6Er9ThTl3InIr4
_symmetry_space_group_name_H-M   'P 1'
_cell_length_a   9.69923040
_cell_length_b   9.64080142
_cell_length_c   9.69049677
_cell_angle_alpha   59.95685685
_cell_angle_beta   60.25531489
_cell_angle_gamma   59.98245536
_symmetry_Int_Tables_number   1
_chemical_formula_structural   Tb6Er9ThTl3InIr4
_chemical_formula_sum   'Tb6 Er9 Th1 Tl3 In1 Ir4'
_cell_volume   641.67081576
_cell_formula_units_Z   1
loop_
 _symmetry_equiv_pos_site_id
 _symmetry_equiv_pos_as_xyz
  1  'x, y, z'
loop_
 _atom_site_type_symbol
 _atom_site_label
 _atom_site_symmetry_multiplicity
 _atom_site_fract_x
 _atom_site_fract_y
 _atom_site_fract_z
 _atom_site_occupancy
  Tb  Tb0  1  0.690792  0.688814  0.310446  1
  Tb  Tb1  1  0.690545  0.309595  0.311307  1
  Tb  Tb2  1  0.310051  0.687174  0.691228  1
  Tb  Tb3  1  0.560620  0.938302  0.560500  1
  Tb  Tb4  1  0.698612  0.103581  0.099994  1
  Tb  Tb5  1  0.560353  0.939915  0.938975  1
  Er  Er6  1  0.941535  0.938545  0.559500  1
  Er  Er7  1  0.940013  0.558874  0.935939  1
  Er  Er8  1  0.309853  0.689441  0.311186  1
  Er  Er9  1  0.938943  0.559560  0.562931  1
  Er  Er10  1  0.308718  0.308487  0.693217  1
  Er  Er11  1  0.097924  0.099804  0.098463  1
  Er  Er12  1  0.563054  0.559749  0.936832  1
  Er  Er13  1  0.099997  0.102519  0.699190  1
  Er  Er14  1  0.691329  0.307333  0.692857  1
  Th  Th15  1  0.097852  0.708855  0.097240  1
  Tl  Tl16  1  0.335942  0.336330  0.335845  1
  Tl  Tl17  1  0.993433  0.334060  0.335465  1
  Tl  Tl18  1  0.334671  0.993465  0.334456  1
  In  In19  1  0.333720  0.333025  0.998540  1
  Ir  Ir20  1  0.892861  0.893670  0.889499  1
  Ir  Ir21  1  0.893884  0.891300  0.324501  1
  Ir  Ir22  1  0.322565  0.892781  0.892312  1
  Ir  Ir23  1  0.892733  0.324823  0.889578  1
