# generated using pymatgen
data_Nb3V(CoSe4)3
_symmetry_space_group_name_H-M   'P 1'
_cell_length_a   7.30486389
_cell_length_b   7.30486406
_cell_length_c   19.08635252
_cell_angle_alpha   69.72817758
_cell_angle_beta   69.72817761
_cell_angle_gamma   26.68985584
_symmetry_Int_Tables_number   1
_chemical_formula_structural   Nb3V(CoSe4)3
_chemical_formula_sum   'Nb3 V1 Co3 Se12'
_cell_volume   427.47037084
_cell_formula_units_Z   1
loop_
 _symmetry_equiv_pos_site_id
 _symmetry_equiv_pos_as_xyz
  1  'x, y, z'
loop_
 _atom_site_type_symbol
 _atom_site_label
 _atom_site_symmetry_multiplicity
 _atom_site_fract_x
 _atom_site_fract_y
 _atom_site_fract_z
 _atom_site_occupancy
  Nb  Nb0  1  0.259138  0.259138  0.408566  1
  Nb  Nb1  1  0.615665  0.615665  0.854195  1
  Nb  Nb2  1  0.384631  0.384631  0.144977  1
  V  V3  1  0.739526  0.739526  0.595541  1
  Co  Co4  1  0.776199  0.776199  0.278861  1
  Co  Co5  1  0.224370  0.224370  0.719490  1
  Co  Co6  1  0.000199  0.000199  0.999217  1
  Se  Se7  1  0.864683  0.864683  0.457402  1
  Se  Se8  1  0.035714  0.035714  0.109161  1
  Se  Se9  1  0.800405  0.800405  0.768182  1
  Se  Se10  1  0.398350  0.398350  0.278347  1
  Se  Se11  1  0.174904  0.174904  0.934580  1
  Se  Se12  1  0.604625  0.604625  0.718726  1
  Se  Se13  1  0.138603  0.138603  0.551818  1
  Se  Se14  1  0.825596  0.825596  0.064258  1
  Se  Se15  1  0.359812  0.359812  0.607366  1
  Se  Se16  1  0.965008  0.965008  0.889003  1
  Se  Se17  1  0.200207  0.200207  0.230376  1
  Se  Se18  1  0.632366  0.632366  0.389933  1
