# generated using pymatgen
data_GeB12S
_symmetry_space_group_name_H-M   'P 1'
_cell_length_a   5.30129955
_cell_length_b   5.30130031
_cell_length_c   5.30129965
_cell_angle_alpha   70.12690715
_cell_angle_beta   70.12690523
_cell_angle_gamma   70.12692321
_symmetry_Int_Tables_number   1
_chemical_formula_structural   GeB12S
_chemical_formula_sum   'Ge1 B12 S1'
_cell_volume   127.45899943
_cell_formula_units_Z   1
loop_
 _symmetry_equiv_pos_site_id
 _symmetry_equiv_pos_as_xyz
  1  'x, y, z'
loop_
 _atom_site_type_symbol
 _atom_site_label
 _atom_site_symmetry_multiplicity
 _atom_site_fract_x
 _atom_site_fract_y
 _atom_site_fract_z
 _atom_site_occupancy
  Ge  Ge0  1  0.606308  0.606308  0.606308  1
  B  B1  1  0.013583  0.013583  0.326508  1
  B  B2  1  0.326508  0.013583  0.013583  1
  B  B3  1  0.272975  0.820547  0.820547  1
  B  B4  1  0.820547  0.820547  0.272975  1
  B  B5  1  0.820547  0.272975  0.820547  1
  B  B6  1  0.179542  0.722948  0.179542  1
  B  B7  1  0.722948  0.179542  0.179542  1
  B  B8  1  0.179542  0.179542  0.722948  1
  B  B9  1  0.675186  0.984592  0.984592  1
  B  B10  1  0.984592  0.984592  0.675186  1
  B  B11  1  0.984592  0.675186  0.984592  1
  B  B12  1  0.013583  0.326508  0.013583  1
  S  S13  1  0.399549  0.399549  0.399549  1
