# generated using pymatgen
data_CrNiAsF12
_symmetry_space_group_name_H-M   'P 1'
_cell_length_a   5.34109108
_cell_length_b   10.80645503
_cell_length_c   5.35148131
_cell_angle_alpha   57.52732989
_cell_angle_beta   57.09099747
_cell_angle_gamma   57.51571783
_symmetry_Int_Tables_number   1
_chemical_formula_structural   CrNiAsF12
_chemical_formula_sum   'Cr1 Ni1 As1 F12'
_cell_volume   205.22219774
_cell_formula_units_Z   1
loop_
 _symmetry_equiv_pos_site_id
 _symmetry_equiv_pos_as_xyz
  1  'x, y, z'
loop_
 _atom_site_type_symbol
 _atom_site_label
 _atom_site_symmetry_multiplicity
 _atom_site_fract_x
 _atom_site_fract_y
 _atom_site_fract_z
 _atom_site_occupancy
  Cr  Cr0  1  0.994996  0.497619  0.007987  1
  Ni  Ni1  1  0.498753  0.751192  0.498029  1
  As  As2  1  0.007891  0.001446  0.990585  1
  F  F3  1  0.356608  0.041652  0.785647  1
  F  F4  1  0.336882  0.571719  0.763055  1
  F  F5  1  0.113169  0.397605  0.332544  1
  F  F6  1  0.120337  0.876762  0.343316  1
  F  F7  1  0.225780  0.347477  0.856121  1
  F  F8  1  0.224551  0.823402  0.887578  1
  F  F9  1  0.895134  0.101141  0.664723  1
  F  F10  1  0.857236  0.625827  0.661284  1
  F  F11  1  0.654397  0.447427  0.223659  1
  F  F12  1  0.667220  0.934720  0.229592  1
  F  F13  1  0.784940  0.156602  0.126528  1
  F  F14  1  0.762108  0.675407  0.129355  1
