# generated using pymatgen
data_Er2Lu2SiTc7
_symmetry_space_group_name_H-M   'P 1'
_cell_length_a   5.29549900
_cell_length_b   5.29549904
_cell_length_c   8.80057400
_cell_angle_alpha   90.00000000
_cell_angle_beta   90.00000000
_cell_angle_gamma   119.99999347
_symmetry_Int_Tables_number   1
_chemical_formula_structural   Er2Lu2SiTc7
_chemical_formula_sum   'Er2 Lu2 Si1 Tc7'
_cell_volume   213.72505805
_cell_formula_units_Z   1
loop_
 _symmetry_equiv_pos_site_id
 _symmetry_equiv_pos_as_xyz
  1  'x, y, z'
loop_
 _atom_site_type_symbol
 _atom_site_label
 _atom_site_symmetry_multiplicity
 _atom_site_fract_x
 _atom_site_fract_y
 _atom_site_fract_z
 _atom_site_occupancy
  Er  Er0  1  0.333333  0.666667  0.435062  1
  Er  Er1  1  0.666667  0.333333  0.564938  1
  Lu  Lu2  1  0.666667  0.333333  0.934894  1
  Lu  Lu3  1  0.333333  0.666667  0.065106  1
  Si  Si4  1  0.000000  0.000000  0.500000  1
  Tc  Tc5  1  0.000000  0.000000  0.000000  1
  Tc  Tc6  1  0.829845  0.170155  0.252790  1
  Tc  Tc7  1  0.829845  0.659691  0.252790  1
  Tc  Tc8  1  0.340309  0.170155  0.252790  1
  Tc  Tc9  1  0.170155  0.829845  0.747210  1
  Tc  Tc10  1  0.170155  0.340309  0.747210  1
  Tc  Tc11  1  0.659691  0.829845  0.747210  1
