# generated using pymatgen
data_MnBr28
_symmetry_space_group_name_H-M   'P 1'
_cell_length_a   11.08100058
_cell_length_b   14.26806845
_cell_length_c   12.72108000
_cell_angle_alpha   123.45192622
_cell_angle_beta   99.87943871
_cell_angle_gamma   107.91255287
_symmetry_Int_Tables_number   1
_chemical_formula_structural   MnBr28
_chemical_formula_sum   'Mn1 Br28'
_cell_volume   1441.84298122
_cell_formula_units_Z   1
loop_
 _symmetry_equiv_pos_site_id
 _symmetry_equiv_pos_as_xyz
  1  'x, y, z'
loop_
 _atom_site_type_symbol
 _atom_site_label
 _atom_site_symmetry_multiplicity
 _atom_site_fract_x
 _atom_site_fract_y
 _atom_site_fract_z
 _atom_site_occupancy
  Mn  Mn0  1  0.500000  0.000000  0.000000  1
  Br  Br1  1  0.068101  0.113400  0.375853  1
  Br  Br2  1  0.530947  0.107377  0.402883  1
  Br  Br3  1  0.284102  0.380375  0.897284  1
  Br  Br4  1  0.785724  0.290810  0.826631  1
  Br  Br5  1  0.261955  0.581499  0.761373  1
  Br  Br6  1  0.782305  0.575872  0.727217  1
  Br  Br7  1  0.469053  0.892623  0.597117  1
  Br  Br8  1  0.931899  0.886600  0.624147  1
  Br  Br9  1  0.214276  0.709190  0.173369  1
  Br  Br10  1  0.715898  0.619625  0.102716  1
  Br  Br11  1  0.217695  0.424128  0.272783  1
  Br  Br12  1  0.738045  0.418501  0.238627  1
  Br  Br13  1  0.954339  0.091298  0.811896  1
  Br  Br14  1  0.527922  0.076368  0.873551  1
  Br  Br15  1  0.032758  0.677307  0.997490  1
  Br  Br16  1  0.565879  0.618188  0.943780  1
  Br  Br17  1  0.573844  0.213033  0.208894  1
  Br  Br18  1  0.146498  0.273886  0.314046  1
  Br  Br19  1  0.472078  0.923632  0.126449  1
  Br  Br20  1  0.045661  0.908702  0.188104  1
  Br  Br21  1  0.434121  0.381812  0.056220  1
  Br  Br22  1  0.967242  0.322693  0.002510  1
  Br  Br23  1  0.853502  0.726114  0.685954  1
  Br  Br24  1  0.426156  0.786967  0.791106  1
  Br  Br25  1  0.109760  0.381754  0.710014  1
  Br  Br26  1  0.570340  0.261339  0.642795  1
  Br  Br27  1  0.429660  0.738661  0.357205  1
  Br  Br28  1  0.890240  0.618246  0.289986  1
