# generated using pymatgen
data_Ti3Al2PtN
_symmetry_space_group_name_H-M   'P 1'
_cell_length_a   8.19518440
_cell_length_b   8.19518428
_cell_length_c   8.19518400
_cell_angle_alpha   60.00000112
_cell_angle_beta   60.00000163
_cell_angle_gamma   60.00000057
_symmetry_Int_Tables_number   1
_chemical_formula_structural   Ti3Al2PtN
_chemical_formula_sum   'Ti12 Al8 Pt4 N4'
_cell_volume   389.18955466
_cell_formula_units_Z   4
loop_
 _symmetry_equiv_pos_site_id
 _symmetry_equiv_pos_as_xyz
  1  'x, y, z'
loop_
 _atom_site_type_symbol
 _atom_site_label
 _atom_site_symmetry_multiplicity
 _atom_site_fract_x
 _atom_site_fract_y
 _atom_site_fract_z
 _atom_site_occupancy
  Ti  Ti0  1  0.817726  0.817726  0.182274  1
  Ti  Ti1  1  0.067726  0.432274  0.432274  1
  Ti  Ti2  1  0.432274  0.067726  0.067726  1
  Ti  Ti3  1  0.067726  0.067726  0.432274  1
  Ti  Ti4  1  0.067726  0.432274  0.067726  1
  Ti  Ti5  1  0.432274  0.067726  0.432274  1
  Ti  Ti6  1  0.182274  0.817726  0.182274  1
  Ti  Ti7  1  0.182274  0.817726  0.817726  1
  Ti  Ti8  1  0.817726  0.182274  0.182274  1
  Ti  Ti9  1  0.817726  0.182274  0.817726  1
  Ti  Ti10  1  0.432274  0.432274  0.067726  1
  Ti  Ti11  1  0.182274  0.182274  0.817726  1
  Al  Al12  1  0.414606  0.756180  0.414606  1
  Al  Al13  1  0.835394  0.835394  0.493820  1
  Al  Al14  1  0.493820  0.835394  0.835394  1
  Al  Al15  1  0.835394  0.835394  0.835394  1
  Al  Al16  1  0.756180  0.414606  0.414606  1
  Al  Al17  1  0.414606  0.414606  0.414606  1
  Al  Al18  1  0.414606  0.414606  0.756180  1
  Al  Al19  1  0.835394  0.493820  0.835394  1
  Pt  Pt20  1  0.625000  0.125000  0.625000  1
  Pt  Pt21  1  0.625000  0.625000  0.125000  1
  Pt  Pt22  1  0.125000  0.625000  0.625000  1
  Pt  Pt23  1  0.625000  0.625000  0.625000  1
  N  N24  1  0.125000  0.625000  0.125000  1
  N  N25  1  0.125000  0.125000  0.625000  1
  N  N26  1  0.625000  0.125000  0.125000  1
  N  N27  1  0.125000  0.125000  0.125000  1
