# generated using pymatgen
data_Sc4Si2B4Ru7Rh3
_symmetry_space_group_name_H-M   'P 1'
_cell_length_a   9.34466333
_cell_length_b   9.34046633
_cell_length_c   2.99344200
_cell_angle_alpha   90.00000000
_cell_angle_beta   90.00000000
_cell_angle_gamma   90.08098934
_symmetry_Int_Tables_number   1
_chemical_formula_structural   Sc4Si2B4Ru7Rh3
_chemical_formula_sum   'Sc4 Si2 B4 Ru7 Rh3'
_cell_volume   261.27787348
_cell_formula_units_Z   1
loop_
 _symmetry_equiv_pos_site_id
 _symmetry_equiv_pos_as_xyz
  1  'x, y, z'
loop_
 _atom_site_type_symbol
 _atom_site_label
 _atom_site_symmetry_multiplicity
 _atom_site_fract_x
 _atom_site_fract_y
 _atom_site_fract_z
 _atom_site_occupancy
  Sc  Sc0  1  0.672830  0.178948  0.000000  1
  Sc  Sc1  1  0.173816  0.324374  0.000000  1
  Sc  Sc2  1  0.826140  0.667981  0.000000  1
  Sc  Sc3  1  0.323954  0.829031  0.000000  1
  Si  Si4  1  0.003579  0.005555  0.000000  1
  Si  Si5  1  0.498971  0.495549  0.000000  1
  B  B6  1  0.375294  0.123816  0.000000  1
  B  B7  1  0.874503  0.376041  0.000000  1
  B  B8  1  0.126701  0.619161  0.000000  1
  B  B9  1  0.622613  0.878352  0.000000  1
  Ru  Ru10  1  0.502370  0.999170  0.500000  1
  Ru  Ru11  1  0.210926  0.069538  0.500000  1
  Ru  Ru12  1  0.928559  0.211112  0.500000  1
  Ru  Ru13  1  0.429166  0.288523  0.500000  1
  Ru  Ru14  1  0.709115  0.431564  0.500000  1
  Ru  Ru15  1  0.001204  0.500322  0.500000  1
  Ru  Ru16  1  0.290658  0.572374  0.500000  1
  Rh  Rh17  1  0.570471  0.710482  0.500000  1
  Rh  Rh18  1  0.068461  0.790365  0.500000  1
  Rh  Rh19  1  0.790664  0.927735  0.500000  1
