# generated using pymatgen
data_Nd3Al12Os3Au
_symmetry_space_group_name_H-M   'P 1'
_cell_length_a   8.99932301
_cell_length_b   8.94869508
_cell_length_c   9.70191432
_cell_angle_alpha   89.99999951
_cell_angle_beta   89.75498613
_cell_angle_gamma   119.81407761
_symmetry_Int_Tables_number   1
_chemical_formula_structural   Nd3Al12Os3Au
_chemical_formula_sum   'Nd6 Al24 Os6 Au2'
_cell_volume   677.89579173
_cell_formula_units_Z   2
loop_
 _symmetry_equiv_pos_site_id
 _symmetry_equiv_pos_as_xyz
  1  'x, y, z'
loop_
 _atom_site_type_symbol
 _atom_site_label
 _atom_site_symmetry_multiplicity
 _atom_site_fract_x
 _atom_site_fract_y
 _atom_site_fract_z
 _atom_site_occupancy
  Nd  Nd0  1  0.190677  0.382839  0.253603  1
  Nd  Nd1  1  0.809323  0.617161  0.746397  1
  Nd  Nd2  1  0.619284  0.809642  0.247541  1
  Nd  Nd3  1  0.380716  0.190358  0.752459  1
  Nd  Nd4  1  0.190677  0.807839  0.253603  1
  Nd  Nd5  1  0.809323  0.192161  0.746397  1
  Al  Al6  1  0.322441  0.661221  0.021334  1
  Al  Al7  1  0.677559  0.338779  0.978666  1
  Al  Al8  1  0.665933  0.332966  0.521627  1
  Al  Al9  1  0.334067  0.667034  0.478373  1
  Al  Al10  1  0.164347  0.328382  0.573476  1
  Al  Al11  1  0.835653  0.671618  0.426524  1
  Al  Al12  1  0.671379  0.835690  0.568596  1
  Al  Al13  1  0.849051  0.676408  0.079612  1
  Al  Al14  1  0.328621  0.164310  0.431404  1
  Al  Al15  1  0.150949  0.323592  0.920388  1
  Al  Al16  1  0.164347  0.835966  0.573476  1
  Al  Al17  1  0.319228  0.159614  0.082046  1
  Al  Al18  1  0.835653  0.164034  0.426524  1
  Al  Al19  1  0.680772  0.840386  0.917954  1
  Al  Al20  1  0.849051  0.172643  0.079612  1
  Al  Al21  1  0.150949  0.827357  0.920388  1
  Al  Al22  1  0.565988  0.129108  0.256901  1
  Al  Al23  1  0.434012  0.870892  0.743099  1
  Al  Al24  1  0.876931  0.438465  0.250309  1
  Al  Al25  1  0.123069  0.561535  0.749691  1
  Al  Al26  1  0.565988  0.436880  0.256901  1
  Al  Al27  1  0.434012  0.563120  0.743099  1
  Al  Al28  1  0.997513  0.998757  0.251239  1
  Al  Al29  1  0.002487  0.001243  0.748761  1
  Os  Os30  1  0.000000  0.500000  0.000000  1
  Os  Os31  1  0.500000  0.000000  0.500000  1
  Os  Os32  1  0.000000  0.500000  0.500000  1
  Os  Os33  1  0.500000  0.500000  0.500000  1
  Os  Os34  1  0.000000  0.000000  0.000000  1
  Os  Os35  1  0.000000  0.000000  0.500000  1
  Au  Au36  1  0.500000  0.000000  0.000000  1
  Au  Au37  1  0.500000  0.500000  0.000000  1
