# generated using pymatgen
data_CaPrNpIr3
_symmetry_space_group_name_H-M   'P 1'
_cell_length_a   5.83390111
_cell_length_b   5.83390055
_cell_length_c   5.38952986
_cell_angle_alpha   57.23290858
_cell_angle_beta   57.23289656
_cell_angle_gamma   60.00000566
_symmetry_Int_Tables_number   1
_chemical_formula_structural   CaPrNpIr3
_chemical_formula_sum   'Ca1 Pr1 Np1 Ir3'
_cell_volume   124.01172252
_cell_formula_units_Z   1
loop_
 _symmetry_equiv_pos_site_id
 _symmetry_equiv_pos_as_xyz
  1  'x, y, z'
loop_
 _atom_site_type_symbol
 _atom_site_label
 _atom_site_symmetry_multiplicity
 _atom_site_fract_x
 _atom_site_fract_y
 _atom_site_fract_z
 _atom_site_occupancy
  Ca  Ca0  1  0.998878  0.998878  0.003365  1
  Pr  Pr1  1  0.245543  0.245543  0.263372  1
  Np  Np2  1  0.626181  0.626181  0.121457  1
  Ir  Ir3  1  0.627144  0.627144  0.620602  1
  Ir  Ir4  1  0.125110  0.627144  0.620602  1
  Ir  Ir5  1  0.627144  0.125110  0.620602  1
