# generated using pymatgen
data_Y5Co2Au
_symmetry_space_group_name_H-M   'P 1'
_cell_length_a   8.69899560
_cell_length_b   8.69899587
_cell_length_c   8.69899674
_cell_angle_alpha   129.58515361
_cell_angle_beta   129.58514440
_cell_angle_gamma   74.07084499
_symmetry_Int_Tables_number   1
_chemical_formula_structural   Y5Co2Au
_chemical_formula_sum   'Y10 Co4 Au2'
_cell_volume   381.26049200
_cell_formula_units_Z   2
loop_
 _symmetry_equiv_pos_site_id
 _symmetry_equiv_pos_as_xyz
  1  'x, y, z'
loop_
 _atom_site_type_symbol
 _atom_site_label
 _atom_site_symmetry_multiplicity
 _atom_site_fract_x
 _atom_site_fract_y
 _atom_site_fract_z
 _atom_site_occupancy
  Y  Y0  1  0.000000  0.000000  0.000000  1
  Y  Y1  1  0.500000  0.500000  0.000000  1
  Y  Y2  1  0.810180  0.310180  0.843954  1
  Y  Y3  1  0.189820  0.689820  0.156047  1
  Y  Y4  1  0.466227  0.966227  0.156047  1
  Y  Y5  1  0.310180  0.466227  0.500000  1
  Y  Y6  1  0.033773  0.189820  0.500000  1
  Y  Y7  1  0.533773  0.033773  0.843953  1
  Y  Y8  1  0.689820  0.533773  0.500000  1
  Y  Y9  1  0.966227  0.810180  0.500000  1
  Co  Co10  1  0.113222  0.613222  0.726445  1
  Co  Co11  1  0.886778  0.386778  0.273555  1
  Co  Co12  1  0.613222  0.886778  0.500000  1
  Co  Co13  1  0.386778  0.113222  0.500000  1
  Au  Au14  1  0.250000  0.250000  0.000000  1
  Au  Au15  1  0.750000  0.750000  0.000000  1
