# generated using pymatgen
data_Ta3Zn3C
_symmetry_space_group_name_H-M   'P 1'
_cell_length_a   8.32836245
_cell_length_b   8.32836251
_cell_length_c   8.32836295
_cell_angle_alpha   119.98660199
_cell_angle_beta   119.99668383
_cell_angle_gamma   90.01447290
_symmetry_Int_Tables_number   1
_chemical_formula_structural   Ta3Zn3C
_chemical_formula_sum   'Ta12 Zn12 C4'
_cell_volume   408.52508636
_cell_formula_units_Z   4
loop_
 _symmetry_equiv_pos_site_id
 _symmetry_equiv_pos_as_xyz
  1  'x, y, z'
loop_
 _atom_site_type_symbol
 _atom_site_label
 _atom_site_symmetry_multiplicity
 _atom_site_fract_x
 _atom_site_fract_y
 _atom_site_fract_z
 _atom_site_occupancy
  Ta  Ta0  1  0.553901  0.053901  0.500000  1
  Ta  Ta1  1  0.195868  0.695868  0.500000  1
  Ta  Ta2  1  0.195803  0.053824  0.499998  1
  Ta  Ta3  1  0.553827  0.695806  0.500002  1
  Ta  Ta4  1  0.553827  0.053824  0.858021  1
  Ta  Ta5  1  0.195803  0.695806  0.141979  1
  Ta  Ta6  1  0.945780  0.945780  0.000000  1
  Ta  Ta7  1  0.304067  0.304067  0.000000  1
  Ta  Ta8  1  0.304234  0.946149  0.000288  1
  Ta  Ta9  1  0.945863  0.303947  0.999712  1
  Ta  Ta10  1  0.945863  0.946149  0.641916  1
  Ta  Ta11  1  0.304234  0.303947  0.358084  1
  Zn  Zn12  1  0.750311  0.500309  0.250001  1
  Zn  Zn13  1  0.250308  0.500309  0.749999  1
  Zn  Zn14  1  0.750028  0.500049  0.750021  1
  Zn  Zn15  1  0.750028  0.000007  0.249979  1
  Zn  Zn16  1  0.957919  0.292842  0.665077  1
  Zn  Zn17  1  0.627763  0.292842  0.334923  1
  Zn  Zn18  1  0.957844  0.292625  0.334781  1
  Zn  Zn19  1  0.957844  0.623063  0.665219  1
  Zn  Zn20  1  0.542614  0.707462  0.835152  1
  Zn  Zn21  1  0.872310  0.707462  0.164848  1
  Zn  Zn22  1  0.542242  0.707506  0.165264  1
  Zn  Zn23  1  0.542242  0.376978  0.834736  1
  C  C24  1  0.249871  0.999889  0.249983  1
  C  C25  1  0.749906  0.999889  0.750017  1
  C  C26  1  0.249851  0.999882  0.750031  1
  C  C27  1  0.249851  0.499820  0.249969  1
