# generated using pymatgen
data_Na6ErScCl12
_symmetry_space_group_name_H-M   'P 1'
_cell_length_a   6.98987400
_cell_length_b   6.98987361
_cell_length_c   12.55789800
_cell_angle_alpha   90.00000000
_cell_angle_beta   90.00000000
_cell_angle_gamma   120.00000186
_symmetry_Int_Tables_number   1
_chemical_formula_structural   Na6ErScCl12
_chemical_formula_sum   'Na6 Er1 Sc1 Cl12'
_cell_volume   531.35680243
_cell_formula_units_Z   1
loop_
 _symmetry_equiv_pos_site_id
 _symmetry_equiv_pos_as_xyz
  1  'x, y, z'
loop_
 _atom_site_type_symbol
 _atom_site_label
 _atom_site_symmetry_multiplicity
 _atom_site_fract_x
 _atom_site_fract_y
 _atom_site_fract_z
 _atom_site_occupancy
  Na  Na0  1  0.333333  0.666667  0.039626  1
  Na  Na1  1  0.333333  0.666667  0.460374  1
  Na  Na2  1  0.000000  0.000000  0.750000  1
  Na  Na3  1  0.000000  0.000000  0.250000  1
  Na  Na4  1  0.666667  0.333333  0.958083  1
  Na  Na5  1  0.666667  0.333333  0.541917  1
  Er  Er6  1  0.666667  0.333333  0.250000  1
  Sc  Sc7  1  0.333333  0.666667  0.750000  1
  Cl  Cl8  1  0.357866  0.041450  0.125814  1
  Cl  Cl9  1  0.958550  0.316417  0.125814  1
  Cl  Cl10  1  0.683583  0.642134  0.125814  1
  Cl  Cl11  1  0.630126  0.680696  0.631304  1
  Cl  Cl12  1  0.319304  0.949429  0.631304  1
  Cl  Cl13  1  0.630126  0.949429  0.868696  1
  Cl  Cl14  1  0.319304  0.369874  0.868696  1
  Cl  Cl15  1  0.050571  0.680696  0.868696  1
  Cl  Cl16  1  0.357866  0.316417  0.374186  1
  Cl  Cl17  1  0.958550  0.642134  0.374186  1
  Cl  Cl18  1  0.050571  0.369874  0.631304  1
  Cl  Cl19  1  0.683583  0.041450  0.374186  1
