# generated using pymatgen
data_Cs3K8Rb(AsSe4)4
_symmetry_space_group_name_H-M   'P 1'
_cell_length_a   9.95227374
_cell_length_b   10.34266373
_cell_length_c   11.11492400
_cell_angle_alpha   90.00000000
_cell_angle_beta   90.00000000
_cell_angle_gamma   90.39480919
_symmetry_Int_Tables_number   1
_chemical_formula_structural   Cs3K8Rb(AsSe4)4
_chemical_formula_sum   'Cs3 K8 Rb1 As4 Se16'
_cell_volume   1144.06553964
_cell_formula_units_Z   1
loop_
 _symmetry_equiv_pos_site_id
 _symmetry_equiv_pos_as_xyz
  1  'x, y, z'
loop_
 _atom_site_type_symbol
 _atom_site_label
 _atom_site_symmetry_multiplicity
 _atom_site_fract_x
 _atom_site_fract_y
 _atom_site_fract_z
 _atom_site_occupancy
  Cs  Cs0  1  0.155790  0.090878  0.750000  1
  Cs  Cs1  1  0.346821  0.589473  0.250000  1
  Cs  Cs2  1  0.845586  0.908638  0.250000  1
  K  K3  1  0.567205  0.196307  0.050440  1
  K  K4  1  0.066098  0.303580  0.448993  1
  K  K5  1  0.433731  0.804153  0.550836  1
  K  K6  1  0.932323  0.695495  0.947727  1
  K  K7  1  0.433731  0.804153  0.949164  1
  K  K8  1  0.932323  0.695495  0.552273  1
  K  K9  1  0.567205  0.196307  0.449560  1
  K  K10  1  0.066098  0.303580  0.051007  1
  Rb  Rb11  1  0.639546  0.417949  0.750000  1
  As  As12  1  0.727663  0.976387  0.750000  1
  As  As13  1  0.226514  0.523615  0.750000  1
  As  As14  1  0.273884  0.024793  0.250000  1
  As  As15  1  0.773594  0.473511  0.250000  1
  Se  Se16  1  0.849435  0.026059  0.574258  1
  Se  Se17  1  0.349499  0.470176  0.924176  1
  Se  Se18  1  0.153435  0.970348  0.074455  1
  Se  Se19  1  0.653364  0.527371  0.425668  1
  Se  Se20  1  0.153435  0.970348  0.425545  1
  Se  Se21  1  0.653364  0.527371  0.074332  1
  Se  Se22  1  0.849435  0.026059  0.925742  1
  Se  Se23  1  0.349499  0.470176  0.575824  1
  Se  Se24  1  0.678748  0.752640  0.750000  1
  Se  Se25  1  0.184502  0.747562  0.750000  1
  Se  Se26  1  0.316706  0.249041  0.250000  1
  Se  Se27  1  0.815660  0.249789  0.250000  1
  Se  Se28  1  0.521571  0.089172  0.750000  1
  Se  Se29  1  0.014344  0.418602  0.750000  1
  Se  Se30  1  0.484718  0.920656  0.250000  1
  Se  Se31  1  0.984171  0.580313  0.250000  1
