# generated using pymatgen
data_TbZr7Ti5Si16W7
_symmetry_space_group_name_H-M   'P 1'
_cell_length_a   6.79252314
_cell_length_b   6.78693728
_cell_length_c   12.58497000
_cell_angle_alpha   89.85755210
_cell_angle_beta   90.14650675
_cell_angle_gamma   89.90715867
_symmetry_Int_Tables_number   1
_chemical_formula_structural   TbZr7Ti5Si16W7
_chemical_formula_sum   'Tb1 Zr7 Ti5 Si16 W7'
_cell_volume   580.16805272
_cell_formula_units_Z   1
loop_
 _symmetry_equiv_pos_site_id
 _symmetry_equiv_pos_as_xyz
  1  'x, y, z'
loop_
 _atom_site_type_symbol
 _atom_site_label
 _atom_site_symmetry_multiplicity
 _atom_site_fract_x
 _atom_site_fract_y
 _atom_site_fract_z
 _atom_site_occupancy
  Tb  Tb0  1  0.995885  0.665149  0.030665  1
  Zr  Zr1  1  0.338133  0.999116  0.468968  1
  Zr  Zr2  1  0.501819  0.838580  0.717493  1
  Zr  Zr3  1  0.496602  0.162641  0.219519  1
  Zr  Zr4  1  0.838804  0.502097  0.281952  1
  Zr  Zr5  1  0.163087  0.498396  0.781694  1
  Zr  Zr6  1  0.656809  0.004655  0.966796  1
  Zr  Zr7  1  0.998240  0.339588  0.531785  1
  Ti  Ti8  1  0.333757  0.330027  0.000221  1
  Ti  Ti9  1  0.167634  0.831325  0.251299  1
  Ti  Ti10  1  0.830994  0.168873  0.749141  1
  Ti  Ti11  1  0.666993  0.666712  0.499558  1
  Ti  Ti12  1  0.996669  0.842851  0.625861  1
  Si  Si13  1  0.207480  0.129861  0.676820  1
  Si  Si14  1  0.374418  0.706023  0.927950  1
  Si  Si15  1  0.631642  0.292647  0.428256  1
  Si  Si16  1  0.703308  0.365506  0.071331  1
  Si  Si17  1  0.292402  0.630346  0.572345  1
  Si  Si18  1  0.789344  0.874688  0.181235  1
  Si  Si19  1  0.128801  0.206021  0.322670  1
  Si  Si20  1  0.869252  0.795360  0.818447  1
  Si  Si21  1  0.296661  0.961712  0.064373  1
  Si  Si22  1  0.538059  0.794597  0.314794  1
  Si  Si23  1  0.459087  0.205992  0.812078  1
  Si  Si24  1  0.795694  0.542373  0.685412  1
  Si  Si25  1  0.206653  0.458900  0.187892  1
  Si  Si26  1  0.706734  0.040417  0.564175  1
  Si  Si27  1  0.960729  0.289852  0.936099  1
  Si  Si28  1  0.041826  0.704567  0.437731  1
  W  W29  1  0.162660  0.004332  0.871254  1
  W  W30  1  0.495800  0.658335  0.124560  1
  W  W31  1  0.505297  0.340873  0.622255  1
  W  W32  1  0.659357  0.491836  0.875270  1
  W  W33  1  0.342853  0.502109  0.376979  1
  W  W34  1  0.840874  0.994235  0.374832  1
  W  W35  1  0.005639  0.159412  0.128287  1
