# generated using pymatgen
data_Ho2Mn4Fe3Co5P7
_symmetry_space_group_name_H-M   'P 1'
_cell_length_a   9.04984927
_cell_length_b   9.04167880
_cell_length_c   3.60703400
_cell_angle_alpha   90.00000000
_cell_angle_beta   90.00000000
_cell_angle_gamma   119.73379818
_symmetry_Int_Tables_number   1
_chemical_formula_structural   Ho2Mn4Fe3Co5P7
_chemical_formula_sum   'Ho2 Mn4 Fe3 Co5 P7'
_cell_volume   256.28902705
_cell_formula_units_Z   1
loop_
 _symmetry_equiv_pos_site_id
 _symmetry_equiv_pos_as_xyz
  1  'x, y, z'
loop_
 _atom_site_type_symbol
 _atom_site_label
 _atom_site_symmetry_multiplicity
 _atom_site_fract_x
 _atom_site_fract_y
 _atom_site_fract_z
 _atom_site_occupancy
  Ho  Ho0  1  0.662495  0.330601  0.000000  1
  Ho  Ho1  1  0.336227  0.668023  0.500000  1
  Mn  Mn2  1  0.951365  0.565821  0.500000  1
  Mn  Mn3  1  0.104005  0.228966  0.500000  1
  Mn  Mn4  1  0.770592  0.874616  0.500000  1
  Mn  Mn5  1  0.126226  0.893563  0.500000  1
  Fe  Fe6  1  0.274112  0.155490  0.000000  1
  Fe  Fe7  1  0.845318  0.118387  0.000000  1
  Fe  Fe8  1  0.879889  0.723891  0.000000  1
  Co  Co9  1  0.059746  0.431747  0.000000  1
  Co  Co10  1  0.568025  0.629281  0.000000  1
  Co  Co11  1  0.372932  0.941027  0.000000  1
  Co  Co12  1  0.436446  0.386945  0.500000  1
  Co  Co13  1  0.612924  0.050651  0.500000  1
  P  P14  1  0.297918  0.409567  0.000000  1
  P  P15  1  0.591403  0.890037  0.000000  1
  P  P16  1  0.118047  0.707140  0.000000  1
  P  P17  1  0.402310  0.116438  0.500000  1
  P  P18  1  0.880051  0.285137  0.500000  1
  P  P19  1  0.709745  0.594948  0.500000  1
  P  P20  1  0.000220  0.997727  0.000000  1
