# generated using pymatgen
data_LiGd4Al3Pt4
_symmetry_space_group_name_H-M   'P 1'
_cell_length_a   4.41737500
_cell_length_b   6.99288741
_cell_length_c   7.89534300
_cell_angle_alpha   89.98045046
_cell_angle_beta   90.00000000
_cell_angle_gamma   90.00000000
_symmetry_Int_Tables_number   1
_chemical_formula_structural   LiGd4Al3Pt4
_chemical_formula_sum   'Li1 Gd4 Al3 Pt4'
_cell_volume   243.88875759
_cell_formula_units_Z   1
loop_
 _symmetry_equiv_pos_site_id
 _symmetry_equiv_pos_as_xyz
  1  'x, y, z'
loop_
 _atom_site_type_symbol
 _atom_site_label
 _atom_site_symmetry_multiplicity
 _atom_site_fract_x
 _atom_site_fract_y
 _atom_site_fract_z
 _atom_site_occupancy
  Li  Li0  1  0.250000  0.133052  0.067354  1
  Gd  Gd1  1  0.250000  0.026659  0.684797  1
  Gd  Gd2  1  0.250000  0.533141  0.815189  1
  Gd  Gd3  1  0.750000  0.970538  0.316515  1
  Gd  Gd4  1  0.750000  0.468186  0.182162  1
  Al  Al5  1  0.250000  0.651481  0.434732  1
  Al  Al6  1  0.750000  0.857930  0.936968  1
  Al  Al7  1  0.750000  0.359645  0.562047  1
  Pt  Pt8  1  0.250000  0.280364  0.397204  1
  Pt  Pt9  1  0.250000  0.760785  0.114421  1
  Pt  Pt10  1  0.750000  0.728198  0.615027  1
  Pt  Pt11  1  0.750000  0.230022  0.873582  1
