# generated using pymatgen
data_KSm5Y5(C2I9)2
_symmetry_space_group_name_H-M   'P 1'
_cell_length_a   11.47228622
_cell_length_b   11.51670700
_cell_length_c   11.61394279
_cell_angle_alpha   113.37575380
_cell_angle_beta   87.09121954
_cell_angle_gamma   119.55687025
_symmetry_Int_Tables_number   1
_chemical_formula_structural   KSm5Y5(C2I9)2
_chemical_formula_sum   'K1 Sm5 Y5 C4 I18'
_cell_volume   1204.86376670
_cell_formula_units_Z   1
loop_
 _symmetry_equiv_pos_site_id
 _symmetry_equiv_pos_as_xyz
  1  'x, y, z'
loop_
 _atom_site_type_symbol
 _atom_site_label
 _atom_site_symmetry_multiplicity
 _atom_site_fract_x
 _atom_site_fract_y
 _atom_site_fract_z
 _atom_site_occupancy
  K  K0  1  0.500446  0.999450  0.499763  1
  Sm  Sm1  1  0.107440  0.944187  0.000608  1
  Sm  Sm2  1  0.034904  0.961842  0.673360  1
  Sm  Sm3  1  0.328558  0.278776  0.293036  1
  Sm  Sm4  1  0.720854  0.643042  0.983237  1
  Sm  Sm5  1  0.892584  0.056254  0.999648  1
  Y  Y6  1  0.674453  0.722557  0.709399  1
  Y  Y7  1  0.275763  0.353295  0.018489  1
  Y  Y8  1  0.094152  0.393684  0.294145  1
  Y  Y9  1  0.966451  0.039899  0.323055  1
  Y  Y10  1  0.906147  0.606079  0.705815  1
  C  C11  1  0.152692  0.223337  0.124751  1
  C  C12  1  0.845921  0.775813  0.874224  1
  C  C13  1  0.920298  0.851061  0.799760  1
  C  C14  1  0.078145  0.148076  0.199170  1
  I  I15  1  0.444874  0.528876  0.829684  1
  I  I16  1  0.388247  0.036662  0.158425  1
  I  I17  1  0.771817  0.856560  0.499641  1
  I  I18  1  0.838189  0.315405  0.156731  1
  I  I19  1  0.551142  0.470447  0.167865  1
  I  I20  1  0.223452  0.142663  0.498412  1
  I  I21  1  0.320253  0.099692  0.832452  1
  I  I22  1  0.683145  0.906301  0.172870  1
  I  I23  1  0.977862  0.758462  0.172236  1
  I  I24  1  0.933379  0.298251  0.500121  1
  I  I25  1  0.025983  0.248061  0.833579  1
  I  I26  1  0.067333  0.697044  0.497975  1
  I  I27  1  0.264966  0.625886  0.188616  1
  I  I28  1  0.736048  0.369558  0.807130  1
  I  I29  1  0.642304  0.434599  0.500150  1
  I  I30  1  0.161380  0.684415  0.843024  1
  I  I31  1  0.612548  0.958295  0.838895  1
  I  I32  1  0.358271  0.571469  0.503734  1
