# generated using pymatgen
data_Sr3NdBi3
_symmetry_space_group_name_H-M   'P 1'
_cell_length_a   8.80403726
_cell_length_b   8.70950402
_cell_length_c   8.76935677
_cell_angle_alpha   109.43465063
_cell_angle_beta   109.73944648
_cell_angle_gamma   109.59654489
_symmetry_Int_Tables_number   1
_chemical_formula_structural   Sr3NdBi3
_chemical_formula_sum   'Sr6 Nd2 Bi6'
_cell_volume   515.33619959
_cell_formula_units_Z   2
loop_
 _symmetry_equiv_pos_site_id
 _symmetry_equiv_pos_as_xyz
  1  'x, y, z'
loop_
 _atom_site_type_symbol
 _atom_site_label
 _atom_site_symmetry_multiplicity
 _atom_site_fract_x
 _atom_site_fract_y
 _atom_site_fract_z
 _atom_site_occupancy
  Sr  Sr0  1  0.142512  0.501429  0.000484  1
  Sr  Sr1  1  0.641083  0.498571  0.999055  1
  Sr  Sr2  1  0.498048  0.999015  0.641153  1
  Sr  Sr3  1  0.360980  0.361542  0.359602  1
  Sr  Sr4  1  0.499033  0.000985  0.142138  1
  Sr  Sr5  1  0.999438  0.638458  0.498060  1
  Nd  Nd6  1  0.863448  0.864211  0.863261  1
  Nd  Nd7  1  0.999238  0.135789  0.499050  1
  Bi  Bi8  1  0.376673  0.620892  0.747879  1
  Bi  Bi9  1  0.875466  0.237463  0.124114  1
  Bi  Bi10  1  0.638003  0.762537  0.386651  1
  Bi  Bi11  1  0.115300  0.880305  0.245937  1
  Bi  Bi12  1  0.234996  0.119695  0.865632  1
  Bi  Bi13  1  0.755781  0.379108  0.626986  1
