# generated using pymatgen
data_Tm2Lu2GeSe3
_symmetry_space_group_name_H-M   'P 1'
_cell_length_a   7.00185330
_cell_length_b   7.00185257
_cell_length_c   7.00185310
_cell_angle_alpha   132.01034250
_cell_angle_beta   132.01034412
_cell_angle_gamma   70.21269372
_symmetry_Int_Tables_number   1
_chemical_formula_structural   Tm2Lu2GeSe3
_chemical_formula_sum   'Tm2 Lu2 Ge1 Se3'
_cell_volume   185.75837881
_cell_formula_units_Z   1
loop_
 _symmetry_equiv_pos_site_id
 _symmetry_equiv_pos_as_xyz
  1  'x, y, z'
loop_
 _atom_site_type_symbol
 _atom_site_label
 _atom_site_symmetry_multiplicity
 _atom_site_fract_x
 _atom_site_fract_y
 _atom_site_fract_z
 _atom_site_occupancy
  Tm  Tm0  1  0.241929  0.241929  0.000000  1
  Tm  Tm1  1  0.758071  0.758071  0.000000  1
  Lu  Lu2  1  0.499999  0.000000  0.499999  1
  Lu  Lu3  1  0.000000  0.499999  0.499999  1
  Ge  Ge4  1  0.000000  0.000000  0.000000  1
  Se  Se5  1  0.500000  0.500000  0.000000  1
  Se  Se6  1  0.749999  0.250000  0.499999  1
  Se  Se7  1  0.250000  0.749999  0.499999  1
