# generated using pymatgen
data_LiPr16Cd3Co3Ir
_symmetry_space_group_name_H-M   'P 1'
_cell_length_a   10.02595547
_cell_length_b   9.97187178
_cell_length_c   9.97187246
_cell_angle_alpha   59.66574640
_cell_angle_beta   59.89441651
_cell_angle_gamma   59.89441760
_symmetry_Int_Tables_number   1
_chemical_formula_structural   LiPr16Cd3Co3Ir
_chemical_formula_sum   'Li1 Pr16 Cd3 Co3 Ir1'
_cell_volume   702.04287195
_cell_formula_units_Z   1
loop_
 _symmetry_equiv_pos_site_id
 _symmetry_equiv_pos_as_xyz
  1  'x, y, z'
loop_
 _atom_site_type_symbol
 _atom_site_label
 _atom_site_symmetry_multiplicity
 _atom_site_fract_x
 _atom_site_fract_y
 _atom_site_fract_z
 _atom_site_occupancy
  Li  Li0  1  0.570867  0.570174  0.570174  1
  Pr  Pr1  1  0.339943  0.349821  0.349821  1
  Pr  Pr2  1  0.340033  0.348936  0.962203  1
  Pr  Pr3  1  0.340033  0.962203  0.348936  1
  Pr  Pr4  1  0.963425  0.345943  0.345943  1
  Pr  Pr5  1  0.816152  0.190754  0.190754  1
  Pr  Pr6  1  0.189118  0.811747  0.811747  1
  Pr  Pr7  1  0.193013  0.810141  0.189272  1
  Pr  Pr8  1  0.817821  0.186618  0.806566  1
  Pr  Pr9  1  0.193013  0.189272  0.810141  1
  Pr  Pr10  1  0.817821  0.806566  0.186618  1
  Pr  Pr11  1  0.937161  0.562275  0.562275  1
  Pr  Pr12  1  0.562314  0.939803  0.939803  1
  Pr  Pr13  1  0.563527  0.939109  0.557362  1
  Pr  Pr14  1  0.937019  0.562043  0.938206  1
  Pr  Pr15  1  0.563527  0.557362  0.939109  1
  Pr  Pr16  1  0.937019  0.938206  0.562043  1
  Cd  Cd17  1  0.580677  0.580260  0.260773  1
  Cd  Cd18  1  0.580677  0.260773  0.580260  1
  Cd  Cd19  1  0.259174  0.581111  0.581111  1
  Co  Co20  1  0.139282  0.142687  0.142687  1
  Co  Co21  1  0.140443  0.143219  0.578725  1
  Co  Co22  1  0.140443  0.578725  0.143219  1
  Ir  Ir23  1  0.577496  0.142247  0.142247  1
