# generated using pymatgen
data_Nd7ErSb20
_symmetry_space_group_name_H-M   'P 1'
_cell_length_a   4.26857400
_cell_length_b   13.51362547
_cell_length_c   15.19185376
_cell_angle_alpha   77.73142161
_cell_angle_beta   90.00000000
_cell_angle_gamma   90.00000000
_symmetry_Int_Tables_number   1
_chemical_formula_structural   Nd7ErSb20
_chemical_formula_sum   'Nd7 Er1 Sb20'
_cell_volume   856.31223164
_cell_formula_units_Z   1
loop_
 _symmetry_equiv_pos_site_id
 _symmetry_equiv_pos_as_xyz
  1  'x, y, z'
loop_
 _atom_site_type_symbol
 _atom_site_label
 _atom_site_symmetry_multiplicity
 _atom_site_fract_x
 _atom_site_fract_y
 _atom_site_fract_z
 _atom_site_occupancy
  Nd  Nd0  1  0.750000  0.335888  0.145334  1
  Nd  Nd1  1  0.250000  0.949297  0.361037  1
  Nd  Nd2  1  0.250000  0.664785  0.857955  1
  Nd  Nd3  1  0.250000  0.668902  0.575107  1
  Nd  Nd4  1  0.750000  0.049232  0.637746  1
  Nd  Nd5  1  0.750000  0.331658  0.422249  1
  Nd  Nd6  1  0.250000  0.395395  0.773357  1
  Er  Er7  1  0.750000  0.604012  0.227496  1
  Sb  Sb8  1  0.750000  0.850451  0.819320  1
  Sb  Sb9  1  0.250000  0.861064  0.674996  1
  Sb  Sb10  1  0.250000  0.142175  0.477364  1
  Sb  Sb11  1  0.750000  0.284254  0.941065  1
  Sb  Sb12  1  0.250000  0.143583  0.779237  1
  Sb  Sb13  1  0.750000  0.574343  0.440803  1
  Sb  Sb14  1  0.750000  0.137373  0.324884  1
  Sb  Sb15  1  0.250000  0.706494  0.349744  1
  Sb  Sb16  1  0.750000  0.292576  0.646806  1
  Sb  Sb17  1  0.750000  0.853436  0.219033  1
  Sb  Sb18  1  0.250000  0.420983  0.976575  1
  Sb  Sb19  1  0.250000  0.425277  0.555808  1
  Sb  Sb20  1  0.750000  0.578102  0.735000  1
  Sb  Sb21  1  0.250000  0.429295  0.263713  1
  Sb  Sb22  1  0.750000  0.857592  0.521669  1
  Sb  Sb23  1  0.750000  0.029680  0.889863  1
  Sb  Sb24  1  0.250000  0.715631  0.065587  1
  Sb  Sb25  1  0.250000  0.969661  0.109162  1
  Sb  Sb26  1  0.250000  0.148946  0.180528  1
  Sb  Sb27  1  0.750000  0.579914  0.028562  1
