# generated using pymatgen
data_Nd2Ga6CuNi
_symmetry_space_group_name_H-M   'P 1'
_cell_length_a   4.24129500
_cell_length_b   4.24129500
_cell_length_c   10.32144000
_cell_angle_alpha   90.00000000
_cell_angle_beta   90.00000000
_cell_angle_gamma   90.00000000
_symmetry_Int_Tables_number   1
_chemical_formula_structural   Nd2Ga6CuNi
_chemical_formula_sum   'Nd2 Ga6 Cu1 Ni1'
_cell_volume   185.66808298
_cell_formula_units_Z   1
loop_
 _symmetry_equiv_pos_site_id
 _symmetry_equiv_pos_as_xyz
  1  'x, y, z'
loop_
 _atom_site_type_symbol
 _atom_site_label
 _atom_site_symmetry_multiplicity
 _atom_site_fract_x
 _atom_site_fract_y
 _atom_site_fract_z
 _atom_site_occupancy
  Nd  Nd0  1  0.000000  0.000000  0.992452  1
  Nd  Nd1  1  0.500000  0.500000  0.484774  1
  Ga  Ga2  1  0.000000  0.500000  0.237493  1
  Ga  Ga3  1  0.500000  0.000000  0.742853  1
  Ga  Ga4  1  0.500000  0.000000  0.237493  1
  Ga  Ga5  1  0.000000  0.500000  0.742853  1
  Ga  Ga6  1  0.000000  0.000000  0.397106  1
  Ga  Ga7  1  0.500000  0.500000  0.906215  1
  Cu  Cu8  1  0.000000  0.000000  0.626954  1
  Ni  Ni9  1  0.500000  0.500000  0.131808  1
