# generated using pymatgen
data_K3B2PdPt6
_symmetry_space_group_name_H-M   'P 1'
_cell_length_a   8.43425469
_cell_length_b   8.43425424
_cell_length_c   8.43425533
_cell_angle_alpha   39.20804815
_cell_angle_beta   39.20805381
_cell_angle_gamma   39.20804227
_symmetry_Int_Tables_number   1
_chemical_formula_structural   K3B2PdPt6
_chemical_formula_sum   'K3 B2 Pd1 Pt6'
_cell_volume   215.69824333
_cell_formula_units_Z   1
loop_
 _symmetry_equiv_pos_site_id
 _symmetry_equiv_pos_as_xyz
  1  'x, y, z'
loop_
 _atom_site_type_symbol
 _atom_site_label
 _atom_site_symmetry_multiplicity
 _atom_site_fract_x
 _atom_site_fract_y
 _atom_site_fract_z
 _atom_site_occupancy
  K  K0  1  0.356646  0.356646  0.356646  1
  K  K1  1  0.500000  0.500000  0.500000  1
  K  K2  1  0.643354  0.643354  0.643354  1
  B  B3  1  0.168483  0.168483  0.168483  1
  B  B4  1  0.831517  0.831517  0.831517  1
  Pd  Pd5  1  0.000000  0.000000  0.000000  1
  Pt  Pt6  1  0.569191  0.060157  0.060157  1
  Pt  Pt7  1  0.060157  0.569191  0.060157  1
  Pt  Pt8  1  0.939843  0.939843  0.430809  1
  Pt  Pt9  1  0.060157  0.060157  0.569191  1
  Pt  Pt10  1  0.939843  0.430809  0.939843  1
  Pt  Pt11  1  0.430809  0.939843  0.939843  1
