# generated using pymatgen
data_La6Al24Ru7Pt
_symmetry_space_group_name_H-M   'P 1'
_cell_length_a   8.99150015
_cell_length_b   8.99149907
_cell_length_c   9.72450090
_cell_angle_alpha   89.75798945
_cell_angle_beta   90.24200917
_cell_angle_gamma   119.98452507
_symmetry_Int_Tables_number   1
_chemical_formula_structural   La6Al24Ru7Pt
_chemical_formula_sum   'La6 Al24 Ru7 Pt1'
_cell_volume   680.96493089
_cell_formula_units_Z   1
loop_
 _symmetry_equiv_pos_site_id
 _symmetry_equiv_pos_as_xyz
  1  'x, y, z'
loop_
 _atom_site_type_symbol
 _atom_site_label
 _atom_site_symmetry_multiplicity
 _atom_site_fract_x
 _atom_site_fract_y
 _atom_site_fract_z
 _atom_site_occupancy
  La  La0  1  0.190919  0.384510  0.250779  1
  La  La1  1  0.809081  0.615490  0.749221  1
  La  La2  1  0.615490  0.809081  0.250779  1
  La  La3  1  0.384510  0.190919  0.749221  1
  La  La4  1  0.192912  0.807088  0.249437  1
  La  La5  1  0.807088  0.192912  0.750563  1
  Al  Al6  1  0.331108  0.668892  0.000619  1
  Al  Al7  1  0.668892  0.331108  0.999381  1
  Al  Al8  1  0.666851  0.333149  0.500196  1
  Al  Al9  1  0.333149  0.666851  0.499804  1
  Al  Al10  1  0.161837  0.324139  0.577629  1
  Al  Al11  1  0.838163  0.675861  0.422371  1
  Al  Al12  1  0.675861  0.838163  0.577629  1
  Al  Al13  1  0.841333  0.677410  0.077753  1
  Al  Al14  1  0.324139  0.161837  0.422371  1
  Al  Al15  1  0.158667  0.322590  0.922247  1
  Al  Al16  1  0.162064  0.837936  0.577435  1
  Al  Al17  1  0.322590  0.158667  0.077753  1
  Al  Al18  1  0.837936  0.162064  0.422565  1
  Al  Al19  1  0.677410  0.841333  0.922247  1
  Al  Al20  1  0.837952  0.162048  0.077943  1
  Al  Al21  1  0.162048  0.837952  0.922057  1
  Al  Al22  1  0.563361  0.127128  0.249303  1
  Al  Al23  1  0.436639  0.872872  0.750697  1
  Al  Al24  1  0.872872  0.436639  0.249303  1
  Al  Al25  1  0.127128  0.563361  0.750697  1
  Al  Al26  1  0.563964  0.436036  0.252746  1
  Al  Al27  1  0.436036  0.563964  0.747254  1
  Al  Al28  1  0.999770  0.000230  0.250161  1
  Al  Al29  1  0.000230  0.999770  0.749839  1
  Ru  Ru30  1  0.500000  0.000000  0.000000  1
  Ru  Ru31  1  0.000000  0.500000  0.000000  1
  Ru  Ru32  1  0.500000  0.000000  0.500000  1
  Ru  Ru33  1  0.000000  0.500000  0.500000  1
  Ru  Ru34  1  0.500000  0.500000  0.500000  1
  Ru  Ru35  1  0.000000  0.000000  0.000000  1
  Ru  Ru36  1  0.000000  0.000000  0.500000  1
  Pt  Pt37  1  0.500000  0.500000  0.000000  1
