# generated using pymatgen
data_PrSmP7Ru12
_symmetry_space_group_name_H-M   'P 1'
_cell_length_a   9.47235100
_cell_length_b   9.47234886
_cell_length_c   3.98009800
_cell_angle_alpha   90.00000000
_cell_angle_beta   90.00000000
_cell_angle_gamma   119.99999698
_symmetry_Int_Tables_number   1
_chemical_formula_structural   PrSmP7Ru12
_chemical_formula_sum   'Pr1 Sm1 P7 Ru12'
_cell_volume   309.27148363
_cell_formula_units_Z   1
loop_
 _symmetry_equiv_pos_site_id
 _symmetry_equiv_pos_as_xyz
  1  'x, y, z'
loop_
 _atom_site_type_symbol
 _atom_site_label
 _atom_site_symmetry_multiplicity
 _atom_site_fract_x
 _atom_site_fract_y
 _atom_site_fract_z
 _atom_site_occupancy
  Pr  Pr0  1  0.333333  0.666667  0.000000  1
  Sm  Sm1  1  0.666667  0.333333  0.500000  1
  P  P2  1  0.605293  0.717974  0.500000  1
  P  P3  1  0.000000  0.000000  0.000000  1
  P  P4  1  0.282026  0.887319  0.500000  1
  P  P5  1  0.112681  0.394707  0.500000  1
  P  P6  1  0.888459  0.574037  0.000000  1
  P  P7  1  0.425963  0.314423  0.000000  1
  P  P8  1  0.685577  0.111541  0.000000  1
  Ru  Ru9  1  0.559629  0.953577  0.500000  1
  Ru  Ru10  1  0.393950  0.440371  0.500000  1
  Ru  Ru11  1  0.914524  0.119704  0.500000  1
  Ru  Ru12  1  0.205180  0.085476  0.500000  1
  Ru  Ru13  1  0.880296  0.794820  0.500000  1
  Ru  Ru14  1  0.729490  0.892864  0.000000  1
  Ru  Ru15  1  0.107136  0.836625  0.000000  1
  Ru  Ru16  1  0.163375  0.270510  0.000000  1
  Ru  Ru17  1  0.421022  0.066930  0.000000  1
  Ru  Ru18  1  0.933070  0.354093  0.000000  1
  Ru  Ru19  1  0.645907  0.578978  0.000000  1
  Ru  Ru20  1  0.046423  0.606050  0.500000  1
