# generated using pymatgen
data_CsInNiF6
_symmetry_space_group_name_H-M   'P 1'
_cell_length_a   7.66533668
_cell_length_b   7.66533810
_cell_length_c   7.66533683
_cell_angle_alpha   121.12631153
_cell_angle_beta   118.42154627
_cell_angle_gamma   90.40786603
_symmetry_Int_Tables_number   1
_chemical_formula_structural   CsInNiF6
_chemical_formula_sum   'Cs2 In2 Ni2 F12'
_cell_volume   319.33638499
_cell_formula_units_Z   2
loop_
 _symmetry_equiv_pos_site_id
 _symmetry_equiv_pos_as_xyz
  1  'x, y, z'
loop_
 _atom_site_type_symbol
 _atom_site_label
 _atom_site_symmetry_multiplicity
 _atom_site_fract_x
 _atom_site_fract_y
 _atom_site_fract_z
 _atom_site_occupancy
  Cs  Cs0  1  0.853257  0.603257  0.250000  1
  Cs  Cs1  1  0.146743  0.396743  0.750000  1
  In  In2  1  0.500000  0.000000  0.500000  1
  In  In3  1  0.000000  0.000000  0.000000  1
  Ni  Ni4  1  0.500000  0.000000  0.000000  1
  Ni  Ni5  1  0.500000  0.500000  0.500000  1
  F  F6  1  0.559169  0.326668  0.643077  1
  F  F7  1  0.816409  0.673332  0.732502  1
  F  F8  1  0.440831  0.083907  0.767498  1
  F  F9  1  0.183591  0.916093  0.856923  1
  F  F10  1  0.440831  0.673332  0.356923  1
  F  F11  1  0.183591  0.326668  0.267498  1
  F  F12  1  0.559169  0.916093  0.232502  1
  F  F13  1  0.816409  0.083907  0.143077  1
  F  F14  1  0.832041  0.082041  0.750000  1
  F  F15  1  0.167959  0.917959  0.250000  1
  F  F16  1  0.557096  0.307096  0.250000  1
  F  F17  1  0.442904  0.692904  0.750000  1
