# generated using pymatgen
data_Sc4FeCo(Si2Ir)2
_symmetry_space_group_name_H-M   'P 1'
_cell_length_a   4.05773900
_cell_length_b   6.50526106
_cell_length_c   7.04341323
_cell_angle_alpha   89.88955839
_cell_angle_beta   90.00000000
_cell_angle_gamma   90.00000000
_symmetry_Int_Tables_number   1
_chemical_formula_structural   Sc4FeCo(Si2Ir)2
_chemical_formula_sum   'Sc4 Fe1 Co1 Si4 Ir2'
_cell_volume   185.92217905
_cell_formula_units_Z   1
loop_
 _symmetry_equiv_pos_site_id
 _symmetry_equiv_pos_as_xyz
  1  'x, y, z'
loop_
 _atom_site_type_symbol
 _atom_site_label
 _atom_site_symmetry_multiplicity
 _atom_site_fract_x
 _atom_site_fract_y
 _atom_site_fract_z
 _atom_site_occupancy
  Sc  Sc0  1  0.250000  0.002573  0.314095  1
  Sc  Sc1  1  0.250000  0.506721  0.186951  1
  Sc  Sc2  1  0.750000  0.005948  0.692644  1
  Sc  Sc3  1  0.750000  0.507425  0.806273  1
  Fe  Fe4  1  0.250000  0.648637  0.561132  1
  Co  Co5  1  0.250000  0.148591  0.939088  1
  Si  Si6  1  0.250000  0.294862  0.626081  1
  Si  Si7  1  0.250000  0.794675  0.869844  1
  Si  Si8  1  0.750000  0.708864  0.400049  1
  Si  Si9  1  0.750000  0.209274  0.104369  1
  Ir  Ir10  1  0.750000  0.837141  0.059655  1
  Ir  Ir11  1  0.750000  0.335292  0.439819  1
