# generated using pymatgen
data_Nd20CdSi9Hg2
_symmetry_space_group_name_H-M   'P 1'
_cell_length_a   7.73317200
_cell_length_b   7.73317200
_cell_length_c   15.12444300
_cell_angle_alpha   90.00000000
_cell_angle_beta   90.00000000
_cell_angle_gamma   90.00000000
_symmetry_Int_Tables_number   1
_chemical_formula_structural   Nd20CdSi9Hg2
_chemical_formula_sum   'Nd20 Cd1 Si9 Hg2'
_cell_volume   904.47117169
_cell_formula_units_Z   1
loop_
 _symmetry_equiv_pos_site_id
 _symmetry_equiv_pos_as_xyz
  1  'x, y, z'
loop_
 _atom_site_type_symbol
 _atom_site_label
 _atom_site_symmetry_multiplicity
 _atom_site_fract_x
 _atom_site_fract_y
 _atom_site_fract_z
 _atom_site_occupancy
  Nd  Nd0  1  0.690805  0.164831  0.109443  1
  Nd  Nd1  1  0.180173  0.671779  0.613566  1
  Nd  Nd2  1  0.309195  0.835169  0.109443  1
  Nd  Nd3  1  0.819827  0.328221  0.613566  1
  Nd  Nd4  1  0.835169  0.690805  0.109443  1
  Nd  Nd5  1  0.328221  0.180173  0.613566  1
  Nd  Nd6  1  0.164831  0.309195  0.109443  1
  Nd  Nd7  1  0.671779  0.819827  0.613566  1
  Nd  Nd8  1  0.835169  0.309195  0.890557  1
  Nd  Nd9  1  0.328221  0.819827  0.386434  1
  Nd  Nd10  1  0.164831  0.690805  0.890557  1
  Nd  Nd11  1  0.671779  0.180173  0.386434  1
  Nd  Nd12  1  0.690805  0.835169  0.890557  1
  Nd  Nd13  1  0.180173  0.328221  0.386434  1
  Nd  Nd14  1  0.309195  0.164831  0.890557  1
  Nd  Nd15  1  0.819827  0.671779  0.386434  1
  Nd  Nd16  1  0.500000  0.500000  0.772661  1
  Nd  Nd17  1  0.000000  0.000000  0.263965  1
  Nd  Nd18  1  0.000000  0.000000  0.736035  1
  Nd  Nd19  1  0.500000  0.500000  0.227339  1
  Cd  Cd20  1  0.500000  0.500000  0.000000  1
  Si  Si21  1  0.614663  0.115857  0.752352  1
  Si  Si22  1  0.115857  0.614663  0.247648  1
  Si  Si23  1  0.884143  0.385337  0.247648  1
  Si  Si24  1  0.385337  0.884143  0.752352  1
  Si  Si25  1  0.884143  0.614663  0.752352  1
  Si  Si26  1  0.385337  0.115857  0.247648  1
  Si  Si27  1  0.115857  0.385337  0.752352  1
  Si  Si28  1  0.614663  0.884143  0.247648  1
  Si  Si29  1  0.000000  0.000000  0.000000  1
  Hg  Hg30  1  0.500000  0.500000  0.500000  1
  Hg  Hg31  1  0.000000  0.000000  0.500000  1
