# generated using pymatgen
data_La6Nd14Si15Ru
_symmetry_space_group_name_H-M   'P 1'
_cell_length_a   7.94764262
_cell_length_b   7.93090655
_cell_length_c   15.17043700
_cell_angle_alpha   89.95500664
_cell_angle_beta   89.66527708
_cell_angle_gamma   90.21905127
_symmetry_Int_Tables_number   1
_chemical_formula_structural   La6Nd14Si15Ru
_chemical_formula_sum   'La6 Nd14 Si15 Ru1'
_cell_volume   956.19953302
_cell_formula_units_Z   1
loop_
 _symmetry_equiv_pos_site_id
 _symmetry_equiv_pos_as_xyz
  1  'x, y, z'
loop_
 _atom_site_type_symbol
 _atom_site_label
 _atom_site_symmetry_multiplicity
 _atom_site_fract_x
 _atom_site_fract_y
 _atom_site_fract_z
 _atom_site_occupancy
  La  La0  1  0.628690  0.986401  0.953112  1
  La  La1  1  0.128657  0.513121  0.798929  1
  La  La2  1  0.875840  0.489522  0.305464  1
  La  La3  1  0.512214  0.127085  0.199750  1
  La  La4  1  0.491263  0.874156  0.698665  1
  La  La5  1  0.374676  0.013295  0.452644  1
  Nd  Nd6  1  0.364853  0.485510  0.377245  1
  Nd  Nd7  1  0.873129  0.014688  0.375282  1
  Nd  Nd8  1  0.981857  0.129610  0.123843  1
  Nd  Nd9  1  0.022644  0.869741  0.620241  1
  Nd  Nd10  1  0.629605  0.519490  0.874493  1
  Nd  Nd11  1  0.486458  0.372899  0.625357  1
  Nd  Nd12  1  0.514527  0.630158  0.125953  1
  Nd  Nd13  1  0.127128  0.982333  0.876000  1
  Nd  Nd14  1  0.990236  0.621394  0.053063  1
  Nd  Nd15  1  0.010998  0.378010  0.548379  1
  Nd  Nd16  1  0.700045  0.692258  0.496706  1
  Nd  Nd17  1  0.809855  0.188732  0.749084  1
  Nd  Nd18  1  0.184121  0.803272  0.258569  1
  Nd  Nd19  1  0.305088  0.306629  0.998876  1
  Si  Si20  1  0.922546  0.290898  0.938688  1
  Si  Si21  1  0.712353  0.078978  0.560427  1
  Si  Si22  1  0.215384  0.421692  0.189241  1
  Si  Si23  1  0.791035  0.576613  0.689334  1
  Si  Si24  1  0.424963  0.212954  0.809939  1
  Si  Si25  1  0.574228  0.789970  0.309257  1
  Si  Si26  1  0.285495  0.922855  0.061436  1
  Si  Si27  1  0.836189  0.802865  0.798818  1
  Si  Si28  1  0.167637  0.197481  0.298405  1
  Si  Si29  1  0.798410  0.835578  0.197345  1
  Si  Si30  1  0.301293  0.664730  0.549364  1
  Si  Si31  1  0.698536  0.337471  0.048920  1
  Si  Si32  1  0.663585  0.301797  0.451082  1
  Si  Si33  1  0.329334  0.695199  0.952520  1
  Si  Si34  1  0.200534  0.167285  0.698635  1
  Ru  Ru35  1  0.066595  0.705334  0.434941  1
