# generated using pymatgen
data_Ba8UBiSe12
_symmetry_space_group_name_H-M   'P 1'
_cell_length_a   9.08808041
_cell_length_b   9.08807969
_cell_length_c   9.08808140
_cell_angle_alpha   89.64043666
_cell_angle_beta   89.64043004
_cell_angle_gamma   89.64044279
_symmetry_Int_Tables_number   1
_chemical_formula_structural   Ba8UBiSe12
_chemical_formula_sum   'Ba8 U1 Bi1 Se12'
_cell_volume   750.56955810
_cell_formula_units_Z   1
loop_
 _symmetry_equiv_pos_site_id
 _symmetry_equiv_pos_as_xyz
  1  'x, y, z'
loop_
 _atom_site_type_symbol
 _atom_site_label
 _atom_site_symmetry_multiplicity
 _atom_site_fract_x
 _atom_site_fract_y
 _atom_site_fract_z
 _atom_site_occupancy
  Ba  Ba0  1  0.867790  0.621982  0.255667  1
  Ba  Ba1  1  0.255667  0.867790  0.621982  1
  Ba  Ba2  1  0.621982  0.255667  0.867790  1
  Ba  Ba3  1  0.744333  0.132210  0.378018  1
  Ba  Ba4  1  0.378018  0.744333  0.132210  1
  Ba  Ba5  1  0.132210  0.378018  0.744333  1
  Ba  Ba6  1  0.256156  0.256156  0.256156  1
  Ba  Ba7  1  0.743844  0.743844  0.743844  1
  U  U8  1  0.000000  0.000000  0.000000  1
  Bi  Bi9  1  0.500000  0.500000  0.500000  1
  Se  Se10  1  0.191327  0.565809  0.419794  1
  Se  Se11  1  0.419794  0.191327  0.565809  1
  Se  Se12  1  0.565809  0.419794  0.191327  1
  Se  Se13  1  0.927267  0.057216  0.708410  1
  Se  Se14  1  0.708410  0.927267  0.057216  1
  Se  Se15  1  0.057216  0.708410  0.927267  1
  Se  Se16  1  0.808673  0.434191  0.580206  1
  Se  Se17  1  0.580206  0.808673  0.434191  1
  Se  Se18  1  0.434191  0.580206  0.808673  1
  Se  Se19  1  0.072733  0.942784  0.291590  1
  Se  Se20  1  0.291590  0.072733  0.942784  1
  Se  Se21  1  0.942784  0.291590  0.072733  1
