# generated using pymatgen
data_Ca12La8(Ga3Bi)3
_symmetry_space_group_name_H-M   'P 1'
_cell_length_a   8.20386800
_cell_length_b   8.20386800
_cell_length_c   14.69415300
_cell_angle_alpha   90.00000000
_cell_angle_beta   90.00000000
_cell_angle_gamma   90.00000000
_symmetry_Int_Tables_number   1
_chemical_formula_structural   Ca12La8(Ga3Bi)3
_chemical_formula_sum   'Ca12 La8 Ga9 Bi3'
_cell_volume   988.96719410
_cell_formula_units_Z   1
loop_
 _symmetry_equiv_pos_site_id
 _symmetry_equiv_pos_as_xyz
  1  'x, y, z'
loop_
 _atom_site_type_symbol
 _atom_site_label
 _atom_site_symmetry_multiplicity
 _atom_site_fract_x
 _atom_site_fract_y
 _atom_site_fract_z
 _atom_site_occupancy
  Ca  Ca0  1  0.835422  0.324752  0.889991  1
  Ca  Ca1  1  0.332258  0.830823  0.387579  1
  Ca  Ca2  1  0.164578  0.675248  0.889991  1
  Ca  Ca3  1  0.667742  0.169177  0.387579  1
  Ca  Ca4  1  0.675248  0.835422  0.889991  1
  Ca  Ca5  1  0.169177  0.332258  0.387579  1
  Ca  Ca6  1  0.324752  0.164578  0.889991  1
  Ca  Ca7  1  0.830823  0.667742  0.387579  1
  Ca  Ca8  1  0.500000  0.500000  0.759657  1
  Ca  Ca9  1  0.000000  0.000000  0.252695  1
  Ca  Ca10  1  0.000000  0.000000  0.760179  1
  Ca  Ca11  1  0.500000  0.500000  0.249937  1
  La  La12  1  0.678428  0.166564  0.108719  1
  La  La13  1  0.171660  0.671775  0.611963  1
  La  La14  1  0.321572  0.833436  0.108719  1
  La  La15  1  0.828340  0.328225  0.611963  1
  La  La16  1  0.833436  0.678428  0.108719  1
  La  La17  1  0.328225  0.171660  0.611963  1
  La  La18  1  0.166564  0.321572  0.108719  1
  La  La19  1  0.671775  0.828340  0.611963  1
  Ga  Ga20  1  0.618952  0.120416  0.747927  1
  Ga  Ga21  1  0.120169  0.618034  0.247357  1
  Ga  Ga22  1  0.879831  0.381966  0.247357  1
  Ga  Ga23  1  0.381048  0.879584  0.747927  1
  Ga  Ga24  1  0.879584  0.618952  0.747927  1
  Ga  Ga25  1  0.381966  0.120169  0.247357  1
  Ga  Ga26  1  0.120416  0.381048  0.747927  1
  Ga  Ga27  1  0.618034  0.879831  0.247357  1
  Ga  Ga28  1  0.000000  0.000000  0.003897  1
  Bi  Bi29  1  0.500000  0.500000  0.499808  1
  Bi  Bi30  1  0.500000  0.500000  0.000357  1
  Bi  Bi31  1  0.000000  0.000000  0.499332  1
