# generated using pymatgen
data_Ga3Rh5
_symmetry_space_group_name_H-M   'P 1'
_cell_length_a   4.18073200
_cell_length_b   5.32293400
_cell_length_c   10.24509900
_cell_angle_alpha   90.00000000
_cell_angle_beta   90.00000000
_cell_angle_gamma   90.00000000
_symmetry_Int_Tables_number   1
_chemical_formula_structural   Ga3Rh5
_chemical_formula_sum   'Ga6 Rh10'
_cell_volume   227.99197952
_cell_formula_units_Z   2
loop_
 _symmetry_equiv_pos_site_id
 _symmetry_equiv_pos_as_xyz
  1  'x, y, z'
loop_
 _atom_site_type_symbol
 _atom_site_label
 _atom_site_symmetry_multiplicity
 _atom_site_fract_x
 _atom_site_fract_y
 _atom_site_fract_z
 _atom_site_occupancy
  Ga  Ga0  1  0.500000  0.360299  0.362975  1
  Ga  Ga1  1  0.500000  0.639701  0.637025  1
  Ga  Ga2  1  0.500000  0.139701  0.862975  1
  Ga  Ga3  1  0.500000  0.860299  0.137025  1
  Ga  Ga4  1  0.000000  0.000000  0.500000  1
  Ga  Ga5  1  0.000000  0.500000  0.000000  1
  Rh  Rh6  1  0.500000  0.335511  0.111766  1
  Rh  Rh7  1  0.500000  0.664489  0.888234  1
  Rh  Rh8  1  0.500000  0.835511  0.388234  1
  Rh  Rh9  1  0.500000  0.164489  0.611766  1
  Rh  Rh10  1  0.000000  0.856430  0.731548  1
  Rh  Rh11  1  0.000000  0.143570  0.268452  1
  Rh  Rh12  1  0.000000  0.356430  0.768452  1
  Rh  Rh13  1  0.000000  0.643570  0.231548  1
  Rh  Rh14  1  0.000000  0.500000  0.500000  1
  Rh  Rh15  1  0.000000  0.000000  0.000000  1
