# generated using pymatgen
data_Er8Zr9Si16W3
_symmetry_space_group_name_H-M   'P 1'
_cell_length_a   7.20139610
_cell_length_b   7.20139585
_cell_length_c   13.21594465
_cell_angle_alpha   90.07594921
_cell_angle_beta   89.92405361
_cell_angle_gamma   89.93595944
_symmetry_Int_Tables_number   1
_chemical_formula_structural   Er8Zr9Si16W3
_chemical_formula_sum   'Er8 Zr9 Si16 W3'
_cell_volume   685.37863068
_cell_formula_units_Z   1
loop_
 _symmetry_equiv_pos_site_id
 _symmetry_equiv_pos_as_xyz
  1  'x, y, z'
loop_
 _atom_site_type_symbol
 _atom_site_label
 _atom_site_symmetry_multiplicity
 _atom_site_fract_x
 _atom_site_fract_y
 _atom_site_fract_z
 _atom_site_occupancy
  Er  Er0  1  0.346441  0.004138  0.463326  1
  Er  Er1  1  0.496739  0.849444  0.716691  1
  Er  Er2  1  0.499819  0.151545  0.212078  1
  Er  Er3  1  0.849444  0.496739  0.283309  1
  Er  Er4  1  0.151545  0.499819  0.787922  1
  Er  Er5  1  0.652522  0.999498  0.963630  1
  Er  Er6  1  0.004138  0.346441  0.536674  1
  Er  Er7  1  0.999498  0.652522  0.036370  1
  Zr  Zr8  1  0.677782  0.677782  0.500000  1
  Zr  Zr9  1  0.144612  0.005387  0.876382  1
  Zr  Zr10  1  0.494179  0.645379  0.123851  1
  Zr  Zr11  1  0.503784  0.354000  0.628918  1
  Zr  Zr12  1  0.645379  0.494179  0.876149  1
  Zr  Zr13  1  0.354000  0.503784  0.371082  1
  Zr  Zr14  1  0.856655  0.996269  0.373847  1
  Zr  Zr15  1  0.005387  0.144612  0.123618  1
  Zr  Zr16  1  0.996269  0.856655  0.626153  1
  Si  Si17  1  0.200634  0.143485  0.685269  1
  Si  Si18  1  0.356197  0.700052  0.933794  1
  Si  Si19  1  0.642706  0.295616  0.433731  1
  Si  Si20  1  0.700052  0.356197  0.066206  1
  Si  Si21  1  0.295616  0.642706  0.566269  1
  Si  Si22  1  0.799530  0.856153  0.183754  1
  Si  Si23  1  0.143485  0.200634  0.314731  1
  Si  Si24  1  0.856153  0.799530  0.816246  1
  Si  Si25  1  0.295610  0.947653  0.065604  1
  Si  Si26  1  0.548160  0.798004  0.312403  1
  Si  Si27  1  0.447023  0.204960  0.817733  1
  Si  Si28  1  0.798004  0.548160  0.687597  1
  Si  Si29  1  0.204960  0.447023  0.182267  1
  Si  Si30  1  0.704426  0.056413  0.568776  1
  Si  Si31  1  0.947653  0.295610  0.934396  1
  Si  Si32  1  0.056413  0.704426  0.431224  1
  W  W33  1  0.323576  0.323576  0.000000  1
  W  W34  1  0.177284  0.824325  0.247915  1
  W  W35  1  0.824325  0.177284  0.752085  1
