# generated using pymatgen
data_Pr2Ga7Co2Sn
_symmetry_space_group_name_H-M   'P 1'
_cell_length_a   8.29099269
_cell_length_b   8.29099362
_cell_length_c   6.61993518
_cell_angle_alpha   90.71577466
_cell_angle_beta   89.28422639
_cell_angle_gamma   150.38870616
_symmetry_Int_Tables_number   1
_chemical_formula_structural   Pr2Ga7Co2Sn
_chemical_formula_sum   'Pr2 Ga7 Co2 Sn1'
_cell_volume   224.83146465
_cell_formula_units_Z   1
loop_
 _symmetry_equiv_pos_site_id
 _symmetry_equiv_pos_as_xyz
  1  'x, y, z'
loop_
 _atom_site_type_symbol
 _atom_site_label
 _atom_site_symmetry_multiplicity
 _atom_site_fract_x
 _atom_site_fract_y
 _atom_site_fract_z
 _atom_site_occupancy
  Pr  Pr0  1  0.383956  0.616044  0.742034  1
  Pr  Pr1  1  0.616044  0.383956  0.257966  1
  Ga  Ga2  1  0.000000  0.000000  0.500000  1
  Ga  Ga3  1  0.805355  0.194645  0.053303  1
  Ga  Ga4  1  0.194645  0.805355  0.946697  1
  Ga  Ga5  1  0.192326  0.807674  0.555568  1
  Ga  Ga6  1  0.807674  0.192326  0.444432  1
  Ga  Ga7  1  0.420741  0.579259  0.257578  1
  Ga  Ga8  1  0.579259  0.420741  0.742422  1
  Co  Co9  1  0.724298  0.275702  0.750133  1
  Co  Co10  1  0.275702  0.724298  0.249867  1
  Sn  Sn11  1  0.000000  0.000000  0.000000  1
