# generated using pymatgen
data_Yb2HoGa5Cu6
_symmetry_space_group_name_H-M   'P 1'
_cell_length_a   7.96926752
_cell_length_b   7.96926793
_cell_length_c   7.96926738
_cell_angle_alpha   148.92376071
_cell_angle_beta   113.47474118
_cell_angle_gamma   75.23673167
_symmetry_Int_Tables_number   1
_chemical_formula_structural   Yb2HoGa5Cu6
_chemical_formula_sum   'Yb2 Ho1 Ga5 Cu6'
_cell_volume   235.60808597
_cell_formula_units_Z   1
loop_
 _symmetry_equiv_pos_site_id
 _symmetry_equiv_pos_as_xyz
  1  'x, y, z'
loop_
 _atom_site_type_symbol
 _atom_site_label
 _atom_site_symmetry_multiplicity
 _atom_site_fract_x
 _atom_site_fract_y
 _atom_site_fract_z
 _atom_site_occupancy
  Yb  Yb0  1  0.999977  0.999977  0.000000  1
  Yb  Yb1  1  0.310011  0.310011  0.000000  1
  Ho  Ho2  1  0.693569  0.693569  0.000000  1
  Ga  Ga3  1  0.321266  0.670929  0.650337  1
  Ga  Ga4  1  0.499805  0.999805  0.500000  1
  Ga  Ga5  1  0.675868  0.328215  0.347654  1
  Ga  Ga6  1  0.980561  0.328215  0.652346  1
  Ga  Ga7  1  0.020592  0.670929  0.349663  1
  Cu  Cu8  1  0.302848  0.499294  0.803554  1
  Cu  Cu9  1  0.695740  0.499294  0.196446  1
  Cu  Cu10  1  0.402914  0.124072  0.278840  1
  Cu  Cu11  1  0.845231  0.124072  0.721160  1
  Cu  Cu12  1  0.152875  0.875810  0.277065  1
  Cu  Cu13  1  0.598742  0.875810  0.722935  1
