# generated using pymatgen
data_B2RuW2
_symmetry_space_group_name_H-M   'P 1'
_cell_length_a   3.11478900
_cell_length_b   7.52762700
_cell_length_c   9.64164100
_cell_angle_alpha   90.00000000
_cell_angle_beta   90.00000000
_cell_angle_gamma   90.00000000
_symmetry_Int_Tables_number   1
_chemical_formula_structural   B2RuW2
_chemical_formula_sum   'B8 Ru4 W8'
_cell_volume   226.06726512
_cell_formula_units_Z   4
loop_
 _symmetry_equiv_pos_site_id
 _symmetry_equiv_pos_as_xyz
  1  'x, y, z'
loop_
 _atom_site_type_symbol
 _atom_site_label
 _atom_site_symmetry_multiplicity
 _atom_site_fract_x
 _atom_site_fract_y
 _atom_site_fract_z
 _atom_site_occupancy
  B  B0  1  0.500000  0.115162  0.460631  1
  B  B1  1  0.500000  0.884838  0.539369  1
  B  B2  1  0.000000  0.384838  0.960631  1
  B  B3  1  0.000000  0.615162  0.039369  1
  B  B4  1  0.500000  0.125003  0.268041  1
  B  B5  1  0.500000  0.874997  0.731959  1
  B  B6  1  0.000000  0.374997  0.768041  1
  B  B7  1  0.000000  0.625003  0.231959  1
  Ru  Ru8  1  0.500000  0.619886  0.392275  1
  Ru  Ru9  1  0.500000  0.380114  0.607725  1
  Ru  Ru10  1  0.000000  0.880114  0.892275  1
  Ru  Ru11  1  0.000000  0.119886  0.107725  1
  W  W12  1  0.500000  0.808609  0.129590  1
  W  W13  1  0.500000  0.191391  0.870410  1
  W  W14  1  0.000000  0.691391  0.629590  1
  W  W15  1  0.000000  0.308609  0.370410  1
  W  W16  1  0.500000  0.574491  0.860089  1
  W  W17  1  0.500000  0.425509  0.139911  1
  W  W18  1  0.000000  0.925509  0.360089  1
  W  W19  1  0.000000  0.074491  0.639911  1
