# generated using pymatgen
data_Ce4Si3W
_symmetry_space_group_name_H-M   'P 1'
_cell_length_a   5.48944488
_cell_length_b   8.39063623
_cell_length_c   8.39690513
_cell_angle_alpha   83.86794132
_cell_angle_beta   70.94083852
_cell_angle_gamma   70.92426408
_symmetry_Int_Tables_number   1
_chemical_formula_structural   Ce4Si3W
_chemical_formula_sum   'Ce8 Si6 W2'
_cell_volume   345.48558827
_cell_formula_units_Z   2
loop_
 _symmetry_equiv_pos_site_id
 _symmetry_equiv_pos_as_xyz
  1  'x, y, z'
loop_
 _atom_site_type_symbol
 _atom_site_label
 _atom_site_symmetry_multiplicity
 _atom_site_fract_x
 _atom_site_fract_y
 _atom_site_fract_z
 _atom_site_occupancy
  Ce  Ce0  1  0.093613  0.135604  0.677095  1
  Ce  Ce1  1  0.906387  0.864396  0.322905  1
  Ce  Ce2  1  0.770688  0.322972  0.135586  1
  Ce  Ce3  1  0.406263  0.323022  0.864441  1
  Ce  Ce4  1  0.229312  0.677028  0.864414  1
  Ce  Ce5  1  0.593737  0.676978  0.135559  1
  Ce  Ce6  1  0.729210  0.864351  0.677323  1
  Ce  Ce7  1  0.270790  0.135649  0.322677  1
  Si  Si8  1  0.140337  0.499993  0.219112  1
  Si  Si9  1  0.859663  0.500007  0.780888  1
  Si  Si10  1  0.359732  0.780760  0.499998  1
  Si  Si11  1  0.640268  0.219240  0.500002  1
  Si  Si12  1  0.250009  0.000048  0.999951  1
  Si  Si13  1  0.749991  0.999952  0.000049  1
  W  W14  1  0.250153  0.499911  0.500087  1
  W  W15  1  0.749847  0.500089  0.499913  1
