# generated using pymatgen
data_MgZnNi(MoO4)3
_symmetry_space_group_name_H-M   'P 1'
_cell_length_a   7.03380162
_cell_length_b   8.45321732
_cell_length_c   9.79953740
_cell_angle_alpha   96.05938261
_cell_angle_beta   106.86214267
_cell_angle_gamma   101.72956197
_symmetry_Int_Tables_number   1
_chemical_formula_structural   MgZnNi(MoO4)3
_chemical_formula_sum   'Mg2 Zn2 Ni2 Mo6 O24'
_cell_volume   537.48586166
_cell_formula_units_Z   2
loop_
 _symmetry_equiv_pos_site_id
 _symmetry_equiv_pos_as_xyz
  1  'x, y, z'
loop_
 _atom_site_type_symbol
 _atom_site_label
 _atom_site_symmetry_multiplicity
 _atom_site_fract_x
 _atom_site_fract_y
 _atom_site_fract_z
 _atom_site_occupancy
  Mg  Mg0  1  0.252684  0.698560  0.908805  1
  Mg  Mg1  1  0.747316  0.301440  0.091195  1
  Zn  Zn2  1  0.966589  0.888045  0.710515  1
  Zn  Zn3  1  0.033411  0.111955  0.289485  1
  Ni  Ni4  1  0.536653  0.690959  0.492971  1
  Ni  Ni5  1  0.463347  0.309041  0.507029  1
  Mo  Mo6  1  0.505170  0.993061  0.754032  1
  Mo  Mo7  1  0.494830  0.006939  0.245968  1
  Mo  Mo8  1  0.699291  0.603065  0.838873  1
  Mo  Mo9  1  0.300709  0.396935  0.161127  1
  Mo  Mo10  1  0.978566  0.700538  0.376255  1
  Mo  Mo11  1  0.021434  0.299462  0.623745  1
  O  O12  1  0.264031  0.869423  0.762545  1
  O  O13  1  0.735969  0.130577  0.237455  1
  O  O14  1  0.555820  0.708545  0.921726  1
  O  O15  1  0.444180  0.291455  0.078274  1
  O  O16  1  0.554495  0.524600  0.647514  1
  O  O17  1  0.445505  0.475400  0.352486  1
  O  O18  1  0.549157  0.859151  0.356165  1
  O  O19  1  0.450843  0.140849  0.643835  1
  O  O20  1  0.659770  0.097042  0.927875  1
  O  O21  1  0.340230  0.902958  0.072125  1
  O  O22  1  0.648942  0.866502  0.678787  1
  O  O23  1  0.351058  0.133498  0.321213  1
  O  O24  1  0.022654  0.126379  0.715800  1
  O  O25  1  0.977346  0.873621  0.284200  1
  O  O26  1  0.048067  0.266287  0.141854  1
  O  O27  1  0.951933  0.733713  0.858146  1
  O  O28  1  0.148631  0.483025  0.751669  1
  O  O29  1  0.851369  0.516975  0.248331  1
  O  O30  1  0.145161  0.275127  0.482656  1
  O  O31  1  0.854839  0.724873  0.517344  1
  O  O32  1  0.255504  0.562189  0.072025  1
  O  O33  1  0.744496  0.437811  0.927975  1
  O  O34  1  0.236980  0.697953  0.463120  1
  O  O35  1  0.763020  0.302047  0.536880  1
