# generated using pymatgen
data_Ho3Er3(LuIn2)4
_symmetry_space_group_name_H-M   'P 1'
_cell_length_a   9.17514404
_cell_length_b   9.17740559
_cell_length_c   6.60080500
_cell_angle_alpha   90.00000000
_cell_angle_beta   90.00000000
_cell_angle_gamma   119.98168355
_symmetry_Int_Tables_number   1
_chemical_formula_structural   Ho3Er3(LuIn2)4
_chemical_formula_sum   'Ho3 Er3 Lu4 In8'
_cell_volume   481.43812477
_cell_formula_units_Z   1
loop_
 _symmetry_equiv_pos_site_id
 _symmetry_equiv_pos_as_xyz
  1  'x, y, z'
loop_
 _atom_site_type_symbol
 _atom_site_label
 _atom_site_symmetry_multiplicity
 _atom_site_fract_x
 _atom_site_fract_y
 _atom_site_fract_z
 _atom_site_occupancy
  Ho  Ho0  1  0.289984  0.000017  0.750000  1
  Ho  Ho1  1  0.710045  0.000020  0.250000  1
  Ho  Ho2  1  0.999971  0.289877  0.750000  1
  Er  Er3  1  0.000054  0.710056  0.250000  1
  Er  Er4  1  0.710094  0.710194  0.750000  1
  Er  Er5  1  0.289831  0.289891  0.250000  1
  Lu  Lu6  1  0.333351  0.666551  0.499957  1
  Lu  Lu7  1  0.666654  0.333551  0.499957  1
  Lu  Lu8  1  0.666654  0.333551  0.000043  1
  Lu  Lu9  1  0.333351  0.666551  0.000043  1
  In  In10  1  0.999995  0.999865  0.499867  1
  In  In11  1  0.999995  0.999865  0.000133  1
  In  In12  1  0.628044  0.999722  0.750000  1
  In  In13  1  0.371617  0.999912  0.250000  1
  In  In14  1  0.999801  0.628109  0.750000  1
  In  In15  1  0.000309  0.372149  0.250000  1
  In  In16  1  0.372256  0.372306  0.750000  1
  In  In17  1  0.627995  0.627814  0.250000  1
