# generated using pymatgen
data_SmCoRe2C
_symmetry_space_group_name_H-M   'P 1'
_cell_length_a   5.68704275
_cell_length_b   5.68704325
_cell_length_c   7.53355100
_cell_angle_alpha   90.00000000
_cell_angle_beta   90.00000000
_cell_angle_gamma   140.03210224
_symmetry_Int_Tables_number   1
_chemical_formula_structural   SmCoRe2C
_chemical_formula_sum   'Sm2 Co2 Re4 C2'
_cell_volume   156.51288529
_cell_formula_units_Z   2
loop_
 _symmetry_equiv_pos_site_id
 _symmetry_equiv_pos_as_xyz
  1  'x, y, z'
loop_
 _atom_site_type_symbol
 _atom_site_label
 _atom_site_symmetry_multiplicity
 _atom_site_fract_x
 _atom_site_fract_y
 _atom_site_fract_z
 _atom_site_occupancy
  Sm  Sm0  1  0.534508  0.465492  0.250000  1
  Sm  Sm1  1  0.465492  0.534508  0.750000  1
  Co  Co2  1  0.259739  0.740261  0.250000  1
  Co  Co3  1  0.740261  0.259739  0.750000  1
  Re  Re4  1  0.822136  0.177864  0.065010  1
  Re  Re5  1  0.177864  0.822136  0.934990  1
  Re  Re6  1  0.177864  0.822136  0.565010  1
  Re  Re7  1  0.822136  0.177864  0.434990  1
  C  C8  1  0.000000  0.000000  0.000000  1
  C  C9  1  0.000000  0.000000  0.500000  1
