# generated using pymatgen
data_La5Pr6Nd5(CdIr)4
_symmetry_space_group_name_H-M   'P 1'
_cell_length_a   10.02533853
_cell_length_b   10.05709938
_cell_length_c   10.05709993
_cell_angle_alpha   59.97034986
_cell_angle_beta   60.10441411
_cell_angle_gamma   60.10442213
_symmetry_Int_Tables_number   1
_chemical_formula_structural   La5Pr6Nd5(CdIr)4
_chemical_formula_sum   'La5 Pr6 Nd5 Cd4 Ir4'
_cell_volume   717.98517431
_cell_formula_units_Z   1
loop_
 _symmetry_equiv_pos_site_id
 _symmetry_equiv_pos_as_xyz
  1  'x, y, z'
loop_
 _atom_site_type_symbol
 _atom_site_label
 _atom_site_symmetry_multiplicity
 _atom_site_fract_x
 _atom_site_fract_y
 _atom_site_fract_z
 _atom_site_occupancy
  La  La0  1  0.347248  0.348348  0.348348  1
  La  La1  1  0.348118  0.348202  0.955560  1
  La  La2  1  0.348118  0.955560  0.348202  1
  La  La3  1  0.956054  0.348348  0.348348  1
  La  La4  1  0.811196  0.188804  0.188804  1
  Pr  Pr5  1  0.938627  0.561373  0.561373  1
  Pr  Pr6  1  0.561207  0.938793  0.938793  1
  Pr  Pr7  1  0.560734  0.938565  0.561649  1
  Pr  Pr8  1  0.939052  0.561649  0.938565  1
  Pr  Pr9  1  0.560734  0.561649  0.938565  1
  Pr  Pr10  1  0.939052  0.938565  0.561649  1
  Nd  Nd11  1  0.189497  0.810503  0.810503  1
  Nd  Nd12  1  0.190703  0.809405  0.189368  1
  Nd  Nd13  1  0.810524  0.189368  0.809405  1
  Nd  Nd14  1  0.190703  0.189368  0.809405  1
  Nd  Nd15  1  0.810524  0.809405  0.189368  1
  Cd  Cd16  1  0.579863  0.579805  0.579805  1
  Cd  Cd17  1  0.579460  0.580574  0.260505  1
  Cd  Cd18  1  0.579460  0.260505  0.580574  1
  Cd  Cd19  1  0.260525  0.579805  0.579805  1
  Ir  Ir20  1  0.139642  0.142384  0.142384  1
  Ir  Ir21  1  0.141683  0.142039  0.574595  1
  Ir  Ir22  1  0.141683  0.574595  0.142039  1
  Ir  Ir23  1  0.575592  0.142384  0.142384  1
