# generated using pymatgen
data_AcAl5Rh2
_symmetry_space_group_name_H-M   'P 1'
_cell_length_a   6.49377655
_cell_length_b   6.49377732
_cell_length_c   4.11192600
_cell_angle_alpha   108.32990720
_cell_angle_beta   108.32990016
_cell_angle_gamma   68.07798627
_symmetry_Int_Tables_number   1
_chemical_formula_structural   AcAl5Rh2
_chemical_formula_sum   'Ac1 Al5 Rh2'
_cell_volume   148.82402514
_cell_formula_units_Z   1
loop_
 _symmetry_equiv_pos_site_id
 _symmetry_equiv_pos_as_xyz
  1  'x, y, z'
loop_
 _atom_site_type_symbol
 _atom_site_label
 _atom_site_symmetry_multiplicity
 _atom_site_fract_x
 _atom_site_fract_y
 _atom_site_fract_z
 _atom_site_occupancy
  Ac  Ac0  1  0.000000  0.000000  0.000000  1
  Al  Al1  1  0.500000  0.500000  0.000000  1
  Al  Al2  1  0.529767  0.155412  0.343122  1
  Al  Al3  1  0.155412  0.529767  0.343122  1
  Al  Al4  1  0.844588  0.470233  0.656877  1
  Al  Al5  1  0.470233  0.844588  0.656877  1
  Rh  Rh6  1  0.737765  0.737765  0.235863  1
  Rh  Rh7  1  0.262234  0.262234  0.764135  1
