# generated using pymatgen
data_TbBiAs4O9
_symmetry_space_group_name_H-M   'P 1'
_cell_length_a   6.92448980
_cell_length_b   7.58588343
_cell_length_c   9.98951651
_cell_angle_alpha   94.56807425
_cell_angle_beta   104.36073692
_cell_angle_gamma   104.39156428
_symmetry_Int_Tables_number   1
_chemical_formula_structural   TbBiAs4O9
_chemical_formula_sum   'Tb2 Bi2 As8 O18'
_cell_volume   486.77151027
_cell_formula_units_Z   2
loop_
 _symmetry_equiv_pos_site_id
 _symmetry_equiv_pos_as_xyz
  1  'x, y, z'
loop_
 _atom_site_type_symbol
 _atom_site_label
 _atom_site_symmetry_multiplicity
 _atom_site_fract_x
 _atom_site_fract_y
 _atom_site_fract_z
 _atom_site_occupancy
  Tb  Tb0  1  0.719177  0.539264  0.409979  1
  Tb  Tb1  1  0.280823  0.460736  0.590021  1
  Bi  Bi2  1  0.239468  0.921751  0.619898  1
  Bi  Bi3  1  0.760532  0.078249  0.380102  1
  As  As4  1  0.676269  0.768698  0.070482  1
  As  As5  1  0.323731  0.231302  0.929518  1
  As  As6  1  0.177004  0.754160  0.913515  1
  As  As7  1  0.822996  0.245840  0.086485  1
  As  As8  1  0.745492  0.905584  0.705603  1
  As  As9  1  0.254508  0.094416  0.294397  1
  As  As10  1  0.805676  0.346800  0.699346  1
  As  As11  1  0.194324  0.653200  0.300654  1
  O  O12  1  0.720182  0.732462  0.244678  1
  O  O13  1  0.279818  0.267538  0.755322  1
  O  O14  1  0.317333  0.983031  0.879757  1
  O  O15  1  0.682667  0.016969  0.120243  1
  O  O16  1  0.608888  0.323257  0.986734  1
  O  O17  1  0.391112  0.676743  0.013266  1
  O  O18  1  0.139547  0.658164  0.737810  1
  O  O19  1  0.860453  0.341836  0.262190  1
  O  O20  1  0.833467  0.849101  0.556517  1
  O  O21  1  0.166533  0.150899  0.443483  1
  O  O22  1  0.488059  0.763943  0.666762  1
  O  O23  1  0.511941  0.236057  0.333238  1
  O  O24  1  0.378333  0.544483  0.381568  1
  O  O25  1  0.621667  0.455517  0.618432  1
  O  O26  1  0.088348  0.660719  0.451775  1
  O  O27  1  0.911652  0.339281  0.548225  1
  O  O28  1  0.359856  0.901915  0.358262  1
  O  O29  1  0.640144  0.098085  0.641738  1
