# generated using pymatgen
data_Nd16ErTm3Pb16
_symmetry_space_group_name_H-M   'P 1'
_cell_length_a   8.35978700
_cell_length_b   8.46406800
_cell_length_c   16.12157900
_cell_angle_alpha   90.00000000
_cell_angle_beta   90.00000000
_cell_angle_gamma   89.99801112
_symmetry_Int_Tables_number   1
_chemical_formula_structural   Nd16ErTm3Pb16
_chemical_formula_sum   'Nd16 Er1 Tm3 Pb16'
_cell_volume   1140.72755304
_cell_formula_units_Z   1
loop_
 _symmetry_equiv_pos_site_id
 _symmetry_equiv_pos_as_xyz
  1  'x, y, z'
loop_
 _atom_site_type_symbol
 _atom_site_label
 _atom_site_symmetry_multiplicity
 _atom_site_fract_x
 _atom_site_fract_y
 _atom_site_fract_z
 _atom_site_occupancy
  Nd  Nd0  1  0.376472  0.842037  0.880579  1
  Nd  Nd1  1  0.876475  0.657957  0.619412  1
  Nd  Nd2  1  0.623575  0.157994  0.380592  1
  Nd  Nd3  1  0.123502  0.342065  0.119408  1
  Nd  Nd4  1  0.623575  0.157994  0.119408  1
  Nd  Nd5  1  0.123502  0.342065  0.380592  1
  Nd  Nd6  1  0.376472  0.842037  0.619421  1
  Nd  Nd7  1  0.876475  0.657957  0.880588  1
  Nd  Nd8  1  0.533776  0.322302  0.899741  1
  Nd  Nd9  1  0.033780  0.177692  0.600265  1
  Nd  Nd10  1  0.466238  0.677668  0.399740  1
  Nd  Nd11  1  0.966197  0.822298  0.100252  1
  Nd  Nd12  1  0.466238  0.677668  0.100260  1
  Nd  Nd13  1  0.966197  0.822298  0.399748  1
  Nd  Nd14  1  0.533776  0.322302  0.600259  1
  Nd  Nd15  1  0.033780  0.177692  0.899735  1
  Er  Er16  1  0.291902  0.003946  0.250000  1
  Tm  Tm17  1  0.208106  0.503935  0.750000  1
  Tm  Tm18  1  0.708109  0.996059  0.750000  1
  Tm  Tm19  1  0.791889  0.496046  0.250000  1
  Pb  Pb20  1  0.281213  0.031018  0.045947  1
  Pb  Pb21  1  0.781215  0.468985  0.454023  1
  Pb  Pb22  1  0.718787  0.968987  0.545983  1
  Pb  Pb23  1  0.218785  0.531016  0.954017  1
  Pb  Pb24  1  0.718787  0.968987  0.954017  1
  Pb  Pb25  1  0.218785  0.531016  0.545983  1
  Pb  Pb26  1  0.281213  0.031018  0.454053  1
  Pb  Pb27  1  0.781215  0.468985  0.045977  1
  Pb  Pb28  1  0.570664  0.625745  0.750000  1
  Pb  Pb29  1  0.070672  0.874257  0.750000  1
  Pb  Pb30  1  0.429349  0.374294  0.250000  1
  Pb  Pb31  1  0.929258  0.125758  0.250000  1
  Pb  Pb32  1  0.343668  0.153565  0.750000  1
  Pb  Pb33  1  0.843670  0.346447  0.750000  1
  Pb  Pb34  1  0.656343  0.846437  0.250000  1
  Pb  Pb35  1  0.156339  0.653471  0.250000  1
