# generated using pymatgen
data_Tm13Lu7(CoBi2)4
_symmetry_space_group_name_H-M   'P 1'
_cell_length_a   7.82004383
_cell_length_b   8.81761664
_cell_length_c   12.25601948
_cell_angle_alpha   89.98367834
_cell_angle_beta   90.03357170
_cell_angle_gamma   90.01992364
_symmetry_Int_Tables_number   1
_chemical_formula_structural   Tm13Lu7(CoBi2)4
_chemical_formula_sum   'Tm13 Lu7 Co4 Bi8'
_cell_volume   845.10315814
_cell_formula_units_Z   1
loop_
 _symmetry_equiv_pos_site_id
 _symmetry_equiv_pos_as_xyz
  1  'x, y, z'
loop_
 _atom_site_type_symbol
 _atom_site_label
 _atom_site_symmetry_multiplicity
 _atom_site_fract_x
 _atom_site_fract_y
 _atom_site_fract_z
 _atom_site_occupancy
  Tm  Tm0  1  0.348418  0.750014  0.699254  1
  Tm  Tm1  1  0.651658  0.249955  0.300456  1
  Tm  Tm2  1  0.847911  0.250339  0.800443  1
  Tm  Tm3  1  0.151855  0.749847  0.199636  1
  Tm  Tm4  1  0.884146  0.749527  0.813019  1
  Tm  Tm5  1  0.114528  0.250678  0.187055  1
  Tm  Tm6  1  0.384872  0.249777  0.686514  1
  Tm  Tm7  1  0.615161  0.750101  0.313423  1
  Tm  Tm8  1  0.174567  0.037519  0.937254  1
  Tm  Tm9  1  0.056448  0.749965  0.497500  1
  Tm  Tm10  1  0.943424  0.250096  0.502437  1
  Tm  Tm11  1  0.557009  0.250394  0.002434  1
  Tm  Tm12  1  0.445387  0.749297  0.997791  1
  Lu  Lu13  1  0.671961  0.537783  0.562512  1
  Lu  Lu14  1  0.327922  0.462193  0.437376  1
  Lu  Lu15  1  0.171881  0.462034  0.937572  1
  Lu  Lu16  1  0.327860  0.037847  0.437430  1
  Lu  Lu17  1  0.827903  0.538293  0.062880  1
  Lu  Lu18  1  0.672083  0.962262  0.562452  1
  Lu  Lu19  1  0.827945  0.962226  0.062665  1
  Co  Co20  1  0.063796  0.749485  0.992923  1
  Co  Co21  1  0.933706  0.250711  0.007626  1
  Co  Co22  1  0.564474  0.250026  0.507022  1
  Co  Co23  1  0.435537  0.750004  0.492817  1
  Bi  Bi24  1  0.569036  0.508679  0.827038  1
  Bi  Bi25  1  0.430529  0.491244  0.172890  1
  Bi  Bi26  1  0.069242  0.491271  0.672743  1
  Bi  Bi27  1  0.430201  0.008745  0.172581  1
  Bi  Bi28  1  0.930422  0.508927  0.327508  1
  Bi  Bi29  1  0.570492  0.990908  0.826904  1
  Bi  Bi30  1  0.930675  0.991223  0.327319  1
  Bi  Bi31  1  0.068953  0.008630  0.672525  1
