# generated using pymatgen
data_Nb6Fe16Si7C
_symmetry_space_group_name_H-M   'P 1'
_cell_length_a   7.96515488
_cell_length_b   7.96532450
_cell_length_c   7.96542500
_cell_angle_alpha   60.00072192
_cell_angle_beta   59.99989971
_cell_angle_gamma   60.00033211
_symmetry_Int_Tables_number   1
_chemical_formula_structural   Nb6Fe16Si7C
_chemical_formula_sum   'Nb6 Fe16 Si7 C1'
_cell_volume   357.35082014
_cell_formula_units_Z   1
loop_
 _symmetry_equiv_pos_site_id
 _symmetry_equiv_pos_as_xyz
  1  'x, y, z'
loop_
 _atom_site_type_symbol
 _atom_site_label
 _atom_site_symmetry_multiplicity
 _atom_site_fract_x
 _atom_site_fract_y
 _atom_site_fract_z
 _atom_site_occupancy
  Nb  Nb0  1  0.699119  0.300857  0.300864  1
  Nb  Nb1  1  0.300882  0.699080  0.699107  1
  Nb  Nb2  1  0.300867  0.699129  0.300903  1
  Nb  Nb3  1  0.300877  0.300907  0.699136  1
  Nb  Nb4  1  0.699070  0.300873  0.699166  1
  Nb  Nb5  1  0.699091  0.699161  0.300867  1
  Fe  Fe6  1  0.325623  0.325562  0.325534  1
  Fe  Fe7  1  0.325623  0.325559  0.023247  1
  Fe  Fe8  1  0.023279  0.325571  0.325556  1
  Fe  Fe9  1  0.325623  0.023248  0.325546  1
  Fe  Fe10  1  0.674529  0.674493  0.674472  1
  Fe  Fe11  1  0.674510  0.674470  0.976595  1
  Fe  Fe12  1  0.674527  0.976561  0.674469  1
  Fe  Fe13  1  0.976529  0.674512  0.674492  1
  Fe  Fe14  1  0.119549  0.119572  0.119564  1
  Fe  Fe15  1  0.119542  0.119566  0.641323  1
  Fe  Fe16  1  0.641396  0.119538  0.119527  1
  Fe  Fe17  1  0.119535  0.641350  0.119551  1
  Fe  Fe18  1  0.880385  0.880410  0.880415  1
  Fe  Fe19  1  0.880392  0.880418  0.358777  1
  Fe  Fe20  1  0.880390  0.358788  0.880414  1
  Fe  Fe21  1  0.358860  0.880384  0.880381  1
  Si  Si22  1  0.999812  0.000059  0.000137  1
  Si  Si23  1  0.500106  0.999906  0.999925  1
  Si  Si24  1  0.999868  0.500175  0.500121  1
  Si  Si25  1  0.999861  0.500099  0.999865  1
  Si  Si26  1  0.999845  0.999831  0.500097  1
  Si  Si27  1  0.500180  0.999916  0.500007  1
  Si  Si28  1  0.500130  0.500011  0.999948  1
  C  C29  1  0.499996  0.499989  0.499991  1
