# generated using pymatgen
data_Yb2TmCoSn6
_symmetry_space_group_name_H-M   'P 1'
_cell_length_a   8.29641668
_cell_length_b   8.29641729
_cell_length_c   13.29633000
_cell_angle_alpha   90.00000000
_cell_angle_beta   90.00000000
_cell_angle_gamma   147.23715613
_symmetry_Int_Tables_number   1
_chemical_formula_structural   Yb2TmCoSn6
_chemical_formula_sum   'Yb4 Tm2 Co2 Sn12'
_cell_volume   495.26885522
_cell_formula_units_Z   2
loop_
 _symmetry_equiv_pos_site_id
 _symmetry_equiv_pos_as_xyz
  1  'x, y, z'
loop_
 _atom_site_type_symbol
 _atom_site_label
 _atom_site_symmetry_multiplicity
 _atom_site_fract_x
 _atom_site_fract_y
 _atom_site_fract_z
 _atom_site_occupancy
  Yb  Yb0  1  0.901710  0.098290  0.097524  1
  Yb  Yb1  1  0.098290  0.901710  0.597524  1
  Yb  Yb2  1  0.098290  0.901710  0.902476  1
  Yb  Yb3  1  0.901710  0.098290  0.402476  1
  Tm  Tm4  1  0.901251  0.098749  0.750000  1
  Tm  Tm5  1  0.098749  0.901251  0.250000  1
  Co  Co6  1  0.294104  0.705896  0.250000  1
  Co  Co7  1  0.705896  0.294104  0.750000  1
  Sn  Sn8  1  0.756079  0.243921  0.570502  1
  Sn  Sn9  1  0.425294  0.574706  0.577745  1
  Sn  Sn10  1  0.574706  0.425294  0.422255  1
  Sn  Sn11  1  0.730661  0.269339  0.250000  1
  Sn  Sn12  1  0.269339  0.730661  0.750000  1
  Sn  Sn13  1  0.243921  0.756079  0.070502  1
  Sn  Sn14  1  0.243921  0.756079  0.429498  1
  Sn  Sn15  1  0.574706  0.425294  0.077745  1
  Sn  Sn16  1  0.454251  0.545749  0.250000  1
  Sn  Sn17  1  0.545749  0.454251  0.750000  1
  Sn  Sn18  1  0.756079  0.243921  0.929498  1
  Sn  Sn19  1  0.425294  0.574706  0.922255  1
