# generated using pymatgen
data_Y11Tm5MgCo4Ag3
_symmetry_space_group_name_H-M   'P 1'
_cell_length_a   9.42532469
_cell_length_b   9.44326042
_cell_length_c   9.44325978
_cell_angle_alpha   59.92187171
_cell_angle_beta   60.00509464
_cell_angle_gamma   60.00508735
_symmetry_Int_Tables_number   1
_chemical_formula_structural   Y11Tm5MgCo4Ag3
_chemical_formula_sum   'Y11 Tm5 Mg1 Co4 Ag3'
_cell_volume   594.02061056
_cell_formula_units_Z   1
loop_
 _symmetry_equiv_pos_site_id
 _symmetry_equiv_pos_as_xyz
  1  'x, y, z'
loop_
 _atom_site_type_symbol
 _atom_site_label
 _atom_site_symmetry_multiplicity
 _atom_site_fract_x
 _atom_site_fract_y
 _atom_site_fract_z
 _atom_site_occupancy
  Y  Y0  1  0.186997  0.811911  0.811911  1
  Y  Y1  1  0.185306  0.813213  0.186881  1
  Y  Y2  1  0.808128  0.189737  0.810830  1
  Y  Y3  1  0.185306  0.186881  0.813213  1
  Y  Y4  1  0.808128  0.810830  0.189737  1
  Y  Y5  1  0.936487  0.561575  0.561575  1
  Y  Y6  1  0.563129  0.937133  0.937133  1
  Y  Y7  1  0.562315  0.938851  0.561070  1
  Y  Y8  1  0.937532  0.560126  0.940127  1
  Y  Y9  1  0.562315  0.561070  0.938851  1
  Y  Y10  1  0.937532  0.940127  0.560126  1
  Tm  Tm11  1  0.344769  0.344327  0.344327  1
  Tm  Tm12  1  0.344808  0.344119  0.968570  1
  Tm  Tm13  1  0.344808  0.968570  0.344119  1
  Tm  Tm14  1  0.954606  0.348975  0.348975  1
  Tm  Tm15  1  0.808469  0.189342  0.189342  1
  Mg  Mg16  1  0.290675  0.569550  0.569550  1
  Co  Co17  1  0.135196  0.145204  0.145204  1
  Co  Co18  1  0.139485  0.144473  0.572829  1
  Co  Co19  1  0.139485  0.572829  0.144473  1
  Co  Co20  1  0.574728  0.143578  0.143578  1
  Ag  Ag21  1  0.583008  0.582560  0.582560  1
  Ag  Ag22  1  0.583393  0.581461  0.253558  1
  Ag  Ag23  1  0.583393  0.253558  0.581461  1
