# generated using pymatgen
data_Sm2EuDySe3O4
_symmetry_space_group_name_H-M   'P 1'
_cell_length_a   6.80783109
_cell_length_b   6.80783041
_cell_length_c   8.40572866
_cell_angle_alpha   90.82422829
_cell_angle_beta   89.17577236
_cell_angle_gamma   146.48498490
_symmetry_Int_Tables_number   1
_chemical_formula_structural   Sm2EuDySe3O4
_chemical_formula_sum   'Sm2 Eu1 Dy1 Se3 O4'
_cell_volume   215.08258829
_cell_formula_units_Z   1
loop_
 _symmetry_equiv_pos_site_id
 _symmetry_equiv_pos_as_xyz
  1  'x, y, z'
loop_
 _atom_site_type_symbol
 _atom_site_label
 _atom_site_symmetry_multiplicity
 _atom_site_fract_x
 _atom_site_fract_y
 _atom_site_fract_z
 _atom_site_occupancy
  Sm  Sm0  1  0.321332  0.678668  0.764091  1
  Sm  Sm1  1  0.982961  0.017039  0.497806  1
  Eu  Eu2  1  0.318847  0.681153  0.242105  1
  Dy  Dy3  1  0.991327  0.008673  0.999917  1
  Se  Se4  1  0.675320  0.324680  0.996370  1
  Se  Se5  1  0.648266  0.351734  0.650834  1
  Se  Se6  1  0.646018  0.353982  0.347228  1
  O  O7  1  0.389170  0.610830  0.505293  1
  O  O8  1  0.914535  0.085465  0.757941  1
  O  O9  1  0.411516  0.588484  0.996389  1
  O  O10  1  0.918140  0.081860  0.242025  1
