# generated using pymatgen
data_MnAl3(FeCo3)2
_symmetry_space_group_name_H-M   'P 1'
_cell_length_a   4.03463700
_cell_length_b   5.69702400
_cell_length_c   12.10653800
_cell_angle_alpha   90.00000000
_cell_angle_beta   90.00016566
_cell_angle_gamma   90.00000000
_symmetry_Int_Tables_number   1
_chemical_formula_structural   MnAl3(FeCo3)2
_chemical_formula_sum   'Mn2 Al6 Fe4 Co12'
_cell_volume   278.27390693
_cell_formula_units_Z   2
loop_
 _symmetry_equiv_pos_site_id
 _symmetry_equiv_pos_as_xyz
  1  'x, y, z'
loop_
 _atom_site_type_symbol
 _atom_site_label
 _atom_site_symmetry_multiplicity
 _atom_site_fract_x
 _atom_site_fract_y
 _atom_site_fract_z
 _atom_site_occupancy
  Mn  Mn0  1  0.999939  0.000000  0.666782  1
  Mn  Mn1  1  0.499951  0.500000  0.833268  1
  Al  Al2  1  0.999999  0.500000  0.998983  1
  Al  Al3  1  0.500053  0.000000  0.167106  1
  Al  Al4  1  0.000055  0.500000  0.332832  1
  Al  Al5  1  0.499997  0.000000  0.500804  1
  Al  Al6  1  0.999948  0.500000  0.668158  1
  Al  Al7  1  0.499958  0.000000  0.832104  1
  Fe  Fe8  1  0.000004  0.000000  0.999233  1
  Fe  Fe9  1  0.500050  0.500000  0.166237  1
  Fe  Fe10  1  0.000059  0.000000  0.333782  1
  Fe  Fe11  1  0.499997  0.500000  0.500752  1
  Co  Co12  1  0.499999  0.248091  0.001329  1
  Co  Co13  1  0.499999  0.751910  0.001329  1
  Co  Co14  1  0.000059  0.250236  0.166674  1
  Co  Co15  1  0.000059  0.749762  0.166674  1
  Co  Co16  1  0.500064  0.249789  0.333234  1
  Co  Co17  1  0.500064  0.750210  0.333234  1
  Co  Co18  1  0.999998  0.252035  0.498628  1
  Co  Co19  1  0.999998  0.747966  0.498628  1
  Co  Co20  1  0.499935  0.251601  0.665485  1
  Co  Co21  1  0.499935  0.748398  0.665485  1
  Co  Co22  1  0.999940  0.248424  0.834630  1
  Co  Co23  1  0.999940  0.751574  0.834630  1
