# generated using pymatgen
data_Sm2Ho2TmSn4
_symmetry_space_group_name_H-M   'P 1'
_cell_length_a   8.06445500
_cell_length_b   8.21864100
_cell_length_c   15.52896000
_cell_angle_alpha   90.00000000
_cell_angle_beta   90.00000000
_cell_angle_gamma   90.00000000
_symmetry_Int_Tables_number   1
_chemical_formula_structural   Sm2Ho2TmSn4
_chemical_formula_sum   'Sm8 Ho8 Tm4 Sn16'
_cell_volume   1029.24177364
_cell_formula_units_Z   4
loop_
 _symmetry_equiv_pos_site_id
 _symmetry_equiv_pos_as_xyz
  1  'x, y, z'
loop_
 _atom_site_type_symbol
 _atom_site_label
 _atom_site_symmetry_multiplicity
 _atom_site_fract_x
 _atom_site_fract_y
 _atom_site_fract_z
 _atom_site_occupancy
  Sm  Sm0  1  0.519174  0.320851  0.902433  1
  Sm  Sm1  1  0.019174  0.179149  0.597567  1
  Sm  Sm2  1  0.480826  0.679149  0.402433  1
  Sm  Sm3  1  0.980826  0.820851  0.097567  1
  Sm  Sm4  1  0.480826  0.679149  0.097567  1
  Sm  Sm5  1  0.980826  0.820851  0.402433  1
  Sm  Sm6  1  0.519174  0.320851  0.597567  1
  Sm  Sm7  1  0.019174  0.179149  0.902433  1
  Ho  Ho8  1  0.365716  0.835685  0.877579  1
  Ho  Ho9  1  0.865716  0.664315  0.622421  1
  Ho  Ho10  1  0.634284  0.164315  0.377579  1
  Ho  Ho11  1  0.134284  0.335685  0.122421  1
  Ho  Ho12  1  0.634284  0.164315  0.122421  1
  Ho  Ho13  1  0.134284  0.335685  0.377579  1
  Ho  Ho14  1  0.365716  0.835685  0.622421  1
  Ho  Ho15  1  0.865716  0.664315  0.877579  1
  Tm  Tm16  1  0.197458  0.503824  0.750000  1
  Tm  Tm17  1  0.697458  0.996176  0.750000  1
  Tm  Tm18  1  0.802542  0.496176  0.250000  1
  Tm  Tm19  1  0.302542  0.003824  0.250000  1
  Sn  Sn20  1  0.297188  0.037961  0.042096  1
  Sn  Sn21  1  0.797188  0.462039  0.457904  1
  Sn  Sn22  1  0.702812  0.962039  0.542096  1
  Sn  Sn23  1  0.202812  0.537961  0.957904  1
  Sn  Sn24  1  0.702812  0.962039  0.957904  1
  Sn  Sn25  1  0.202812  0.537961  0.542096  1
  Sn  Sn26  1  0.297188  0.037961  0.457904  1
  Sn  Sn27  1  0.797188  0.462039  0.042096  1
  Sn  Sn28  1  0.563558  0.621794  0.750000  1
  Sn  Sn29  1  0.063558  0.878206  0.750000  1
  Sn  Sn30  1  0.436442  0.378206  0.250000  1
  Sn  Sn31  1  0.936442  0.121794  0.250000  1
  Sn  Sn32  1  0.327457  0.145151  0.750000  1
  Sn  Sn33  1  0.827457  0.354849  0.750000  1
  Sn  Sn34  1  0.672543  0.854849  0.250000  1
  Sn  Sn35  1  0.172543  0.645151  0.250000  1
