# generated using pymatgen
data_Ce8TaTiSn6
_symmetry_space_group_name_H-M   'P 1'
_cell_length_a   8.98802463
_cell_length_b   8.98802377
_cell_length_c   8.98802500
_cell_angle_alpha   96.57349224
_cell_angle_beta   96.57348519
_cell_angle_gamma   140.44784490
_symmetry_Int_Tables_number   1
_chemical_formula_structural   Ce8TaTiSn6
_chemical_formula_sum   'Ce8 Ta1 Ti1 Sn6'
_cell_volume   435.09306615
_cell_formula_units_Z   1
loop_
 _symmetry_equiv_pos_site_id
 _symmetry_equiv_pos_as_xyz
  1  'x, y, z'
loop_
 _atom_site_type_symbol
 _atom_site_label
 _atom_site_symmetry_multiplicity
 _atom_site_fract_x
 _atom_site_fract_y
 _atom_site_fract_z
 _atom_site_occupancy
  Ce  Ce0  1  0.096078  0.235923  0.333991  1
  Ce  Ce1  1  0.901930  0.762086  0.666009  1
  Ce  Ce2  1  0.764077  0.098070  0.860155  1
  Ce  Ce3  1  0.403922  0.737914  0.139845  1
  Ce  Ce4  1  0.237914  0.903922  0.139845  1
  Ce  Ce5  1  0.598070  0.264077  0.860155  1
  Ce  Ce6  1  0.735923  0.596078  0.333991  1
  Ce  Ce7  1  0.262086  0.401930  0.666009  1
  Ta  Ta8  1  0.750000  0.250000  0.500000  1
  Ti  Ti9  1  0.250000  0.750000  0.500000  1
  Sn  Sn10  1  0.148070  0.648070  0.792146  1
  Sn  Sn11  1  0.855926  0.355926  0.207854  1
  Sn  Sn12  1  0.351930  0.144074  0.500000  1
  Sn  Sn13  1  0.644074  0.851930  0.500000  1
  Sn  Sn14  1  0.250000  0.250000  0.000000  1
  Sn  Sn15  1  0.750000  0.750000  0.000000  1
