# generated using pymatgen
data_Si4Ni16(AsPd2)3
_symmetry_space_group_name_H-M   'P 1'
_cell_length_a   7.91413637
_cell_length_b   7.91413619
_cell_length_c   7.95691000
_cell_angle_alpha   59.82105953
_cell_angle_beta   59.82106030
_cell_angle_gamma   60.35788759
_symmetry_Int_Tables_number   1
_chemical_formula_structural   Si4Ni16(AsPd2)3
_chemical_formula_sum   'Si4 Ni16 As3 Pd6'
_cell_volume   352.37980562
_cell_formula_units_Z   1
loop_
 _symmetry_equiv_pos_site_id
 _symmetry_equiv_pos_as_xyz
  1  'x, y, z'
loop_
 _atom_site_type_symbol
 _atom_site_label
 _atom_site_symmetry_multiplicity
 _atom_site_fract_x
 _atom_site_fract_y
 _atom_site_fract_z
 _atom_site_occupancy
  Si  Si0  1  0.000000  0.500000  0.000000  1
  Si  Si1  1  0.500000  0.000000  0.000000  1
  Si  Si2  1  0.000000  0.500000  0.500000  1
  Si  Si3  1  0.500000  0.000000  0.500000  1
  Ni  Ni4  1  0.330262  0.330262  0.334312  1
  Ni  Ni5  1  0.994837  0.665688  0.669738  1
  Ni  Ni6  1  0.665688  0.994837  0.669738  1
  Ni  Ni7  1  0.669738  0.669738  0.994837  1
  Ni  Ni8  1  0.334312  0.005163  0.330262  1
  Ni  Ni9  1  0.330262  0.330262  0.005163  1
  Ni  Ni10  1  0.005163  0.334312  0.330262  1
  Ni  Ni11  1  0.669738  0.669738  0.665688  1
  Ni  Ni12  1  0.120210  0.120210  0.113603  1
  Ni  Ni13  1  0.354023  0.886397  0.879790  1
  Ni  Ni14  1  0.886397  0.354023  0.879790  1
  Ni  Ni15  1  0.879790  0.879790  0.354023  1
  Ni  Ni16  1  0.113603  0.645977  0.120210  1
  Ni  Ni17  1  0.120210  0.120210  0.645977  1
  Ni  Ni18  1  0.645977  0.113603  0.120210  1
  Ni  Ni19  1  0.879790  0.879790  0.886397  1
  As  As20  1  0.000000  0.000000  0.000000  1
  As  As21  1  0.000000  0.000000  0.500000  1
  As  As22  1  0.500000  0.500000  0.000000  1
  Pd  Pd23  1  0.307851  0.692149  0.307851  1
  Pd  Pd24  1  0.307851  0.692149  0.692149  1
  Pd  Pd25  1  0.692149  0.307851  0.307851  1
  Pd  Pd26  1  0.693227  0.693227  0.306773  1
  Pd  Pd27  1  0.306773  0.306773  0.693227  1
  Pd  Pd28  1  0.692149  0.307851  0.692149  1
