# generated using pymatgen
data_Tb3HoAl15(GaIr2)3
_symmetry_space_group_name_H-M   'P 1'
_cell_length_a   7.53686811
_cell_length_b   7.53876169
_cell_length_c   9.54162600
_cell_angle_alpha   90.00000000
_cell_angle_beta   90.00000000
_cell_angle_gamma   119.45226543
_symmetry_Int_Tables_number   1
_chemical_formula_structural   Tb3HoAl15(GaIr2)3
_chemical_formula_sum   'Tb3 Ho1 Al15 Ga3 Ir6'
_cell_volume   472.07891760
_cell_formula_units_Z   1
loop_
 _symmetry_equiv_pos_site_id
 _symmetry_equiv_pos_as_xyz
  1  'x, y, z'
loop_
 _atom_site_type_symbol
 _atom_site_label
 _atom_site_symmetry_multiplicity
 _atom_site_fract_x
 _atom_site_fract_y
 _atom_site_fract_z
 _atom_site_occupancy
  Tb  Tb0  1  0.997879  0.674300  0.250000  1
  Tb  Tb1  1  0.005697  0.326390  0.750000  1
  Tb  Tb2  1  0.669866  0.991363  0.250000  1
  Ho  Ho3  1  0.325462  0.003661  0.750000  1
  Al  Al4  1  0.001698  0.335173  0.072245  1
  Al  Al5  1  0.998537  0.664698  0.926541  1
  Al  Al6  1  0.998537  0.664698  0.573459  1
  Al  Al7  1  0.335941  0.003370  0.427912  1
  Al  Al8  1  0.001698  0.335173  0.427755  1
  Al  Al9  1  0.664074  0.998886  0.573238  1
  Al  Al10  1  0.664074  0.998886  0.926762  1
  Al  Al11  1  0.335941  0.003370  0.072088  1
  Al  Al12  1  0.334535  0.334156  0.556357  1
  Al  Al13  1  0.665856  0.665473  0.448387  1
  Al  Al14  1  0.665856  0.665473  0.051613  1
  Al  Al15  1  0.334535  0.334156  0.943643  1
  Al  Al16  1  0.662360  0.450675  0.750000  1
  Al  Al17  1  0.549396  0.339109  0.250000  1
  Al  Al18  1  0.451626  0.663085  0.750000  1
  Ga  Ga19  1  0.131690  0.132361  0.250000  1
  Ga  Ga20  1  0.865668  0.865299  0.750000  1
  Ga  Ga21  1  0.338788  0.545316  0.250000  1
  Ir  Ir22  1  0.671188  0.329126  0.000039  1
  Ir  Ir23  1  0.328550  0.672748  0.997729  1
  Ir  Ir24  1  0.328550  0.672748  0.502271  1
  Ir  Ir25  1  0.671188  0.329126  0.499961  1
  Ir  Ir26  1  0.000404  0.000591  0.999640  1
  Ir  Ir27  1  0.000404  0.000591  0.500360  1
