# generated using pymatgen
data_Nd8Be3Si12Ag
_symmetry_space_group_name_H-M   'P 1'
_cell_length_a   8.07235600
_cell_length_b   8.07235605
_cell_length_c   8.55057100
_cell_angle_alpha   90.00000000
_cell_angle_beta   90.00000000
_cell_angle_gamma   119.99999160
_symmetry_Int_Tables_number   1
_chemical_formula_structural   Nd8Be3Si12Ag
_chemical_formula_sum   'Nd8 Be3 Si12 Ag1'
_cell_volume   482.53231341
_cell_formula_units_Z   1
loop_
 _symmetry_equiv_pos_site_id
 _symmetry_equiv_pos_as_xyz
  1  'x, y, z'
loop_
 _atom_site_type_symbol
 _atom_site_label
 _atom_site_symmetry_multiplicity
 _atom_site_fract_x
 _atom_site_fract_y
 _atom_site_fract_z
 _atom_site_occupancy
  Nd  Nd0  1  0.497514  0.502486  0.753182  1
  Nd  Nd1  1  0.497676  0.502324  0.246860  1
  Nd  Nd2  1  0.004971  0.502486  0.753182  1
  Nd  Nd3  1  0.004648  0.502324  0.246860  1
  Nd  Nd4  1  0.497514  0.995029  0.753182  1
  Nd  Nd5  1  0.497676  0.995352  0.246860  1
  Nd  Nd6  1  0.000000  0.000000  0.750860  1
  Nd  Nd7  1  0.000000  0.000000  0.249233  1
  Be  Be8  1  0.666667  0.333333  0.998963  1
  Be  Be9  1  0.333333  0.666667  0.000916  1
  Be  Be10  1  0.333333  0.666667  0.499396  1
  Si  Si11  1  0.828301  0.171699  0.000009  1
  Si  Si12  1  0.172594  0.827406  0.000058  1
  Si  Si13  1  0.343399  0.171699  0.000009  1
  Si  Si14  1  0.172607  0.827393  0.499788  1
  Si  Si15  1  0.654812  0.827406  0.000058  1
  Si  Si16  1  0.837790  0.162210  0.500201  1
  Si  Si17  1  0.828301  0.656601  0.000009  1
  Si  Si18  1  0.654787  0.827393  0.499788  1
  Si  Si19  1  0.172594  0.345188  0.000058  1
  Si  Si20  1  0.324419  0.162210  0.500201  1
  Si  Si21  1  0.172607  0.345213  0.499788  1
  Si  Si22  1  0.837790  0.675581  0.500201  1
  Ag  Ag23  1  0.666667  0.333333  0.500341  1
