# generated using pymatgen
data_Hf5CuAs3
_symmetry_space_group_name_H-M   'P 1'
_cell_length_a   3.68530600
_cell_length_b   10.35359200
_cell_length_c   17.66559200
_cell_angle_alpha   90.00000000
_cell_angle_beta   90.00000000
_cell_angle_gamma   90.00000000
_symmetry_Int_Tables_number   1
_chemical_formula_structural   Hf5CuAs3
_chemical_formula_sum   'Hf20 Cu4 As12'
_cell_volume   674.05106156
_cell_formula_units_Z   4
loop_
 _symmetry_equiv_pos_site_id
 _symmetry_equiv_pos_as_xyz
  1  'x, y, z'
loop_
 _atom_site_type_symbol
 _atom_site_label
 _atom_site_symmetry_multiplicity
 _atom_site_fract_x
 _atom_site_fract_y
 _atom_site_fract_z
 _atom_site_occupancy
  Hf  Hf0  1  0.250000  0.118832  0.478351  1
  Hf  Hf1  1  0.750000  0.881168  0.521649  1
  Hf  Hf2  1  0.750000  0.618832  0.021649  1
  Hf  Hf3  1  0.250000  0.381168  0.978351  1
  Hf  Hf4  1  0.250000  0.066600  0.082701  1
  Hf  Hf5  1  0.750000  0.933400  0.917299  1
  Hf  Hf6  1  0.750000  0.566600  0.417299  1
  Hf  Hf7  1  0.250000  0.433400  0.582701  1
  Hf  Hf8  1  0.250000  0.486051  0.271931  1
  Hf  Hf9  1  0.750000  0.513949  0.728069  1
  Hf  Hf10  1  0.750000  0.986051  0.228069  1
  Hf  Hf11  1  0.250000  0.013949  0.771931  1
  Hf  Hf12  1  0.250000  0.815061  0.368613  1
  Hf  Hf13  1  0.750000  0.184939  0.631387  1
  Hf  Hf14  1  0.750000  0.315061  0.131387  1
  Hf  Hf15  1  0.250000  0.684939  0.868613  1
  Hf  Hf16  1  0.250000  0.755342  0.169651  1
  Hf  Hf17  1  0.750000  0.244658  0.830349  1
  Hf  Hf18  1  0.750000  0.255342  0.330349  1
  Hf  Hf19  1  0.250000  0.744658  0.669651  1
  Cu  Cu20  1  0.250000  0.373190  0.412418  1
  Cu  Cu21  1  0.750000  0.626810  0.587582  1
  Cu  Cu22  1  0.750000  0.873190  0.087582  1
  Cu  Cu23  1  0.250000  0.126810  0.912418  1
  As  As24  1  0.250000  0.813123  0.006901  1
  As  As25  1  0.750000  0.186877  0.993099  1
  As  As26  1  0.750000  0.313123  0.493099  1
  As  As27  1  0.250000  0.686877  0.506901  1
  As  As28  1  0.250000  0.509107  0.117484  1
  As  As29  1  0.750000  0.490893  0.882516  1
  As  As30  1  0.750000  0.009107  0.382516  1
  As  As31  1  0.250000  0.990893  0.617484  1
  As  As32  1  0.250000  0.190468  0.221809  1
  As  As33  1  0.750000  0.809532  0.778191  1
  As  As34  1  0.750000  0.690468  0.278191  1
  As  As35  1  0.250000  0.309532  0.721809  1
