# generated using pymatgen
data_Ta10Ga4AsP
_symmetry_space_group_name_H-M   'P 1'
_cell_length_a   6.65424703
_cell_length_b   7.64014724
_cell_length_c   6.65641003
_cell_angle_alpha   115.82999230
_cell_angle_beta   89.98924735
_cell_angle_gamma   115.82097525
_symmetry_Int_Tables_number   1
_chemical_formula_structural   Ta10Ga4AsP
_chemical_formula_sum   'Ta10 Ga4 As1 P1'
_cell_volume   266.57484226
_cell_formula_units_Z   1
loop_
 _symmetry_equiv_pos_site_id
 _symmetry_equiv_pos_as_xyz
  1  'x, y, z'
loop_
 _atom_site_type_symbol
 _atom_site_label
 _atom_site_symmetry_multiplicity
 _atom_site_fract_x
 _atom_site_fract_y
 _atom_site_fract_z
 _atom_site_occupancy
  Ta  Ta0  1  0.991653  0.000000  0.002420  1
  Ta  Ta1  1  0.504343  0.000000  0.495542  1
  Ta  Ta2  1  0.510958  0.696915  0.692500  1
  Ta  Ta3  1  0.191363  0.694910  0.010438  1
  Ta  Ta4  1  0.683750  0.699898  0.183959  1
  Ta  Ta5  1  0.004871  0.689473  0.504837  1
  Ta  Ta6  1  0.496454  0.305090  0.315529  1
  Ta  Ta7  1  0.814044  0.303085  0.995586  1
  Ta  Ta8  1  0.315398  0.310527  0.815365  1
  Ta  Ta9  1  0.983853  0.300102  0.484062  1
  Ga  Ga10  1  0.752516  0.499988  0.754610  1
  Ga  Ga11  1  0.252528  0.500012  0.254623  1
  Ga  Ga12  1  0.139691  0.000000  0.361947  1
  Ga  Ga13  1  0.359900  0.000000  0.861969  1
  As  As14  1  0.868946  0.000000  0.633816  1
  P  P15  1  0.629733  0.000000  0.132799  1
