# generated using pymatgen
data_Tm12Fe3BiPd
_symmetry_space_group_name_H-M   'P 1'
_cell_length_a   8.19384665
_cell_length_b   8.19384718
_cell_length_c   8.19384800
_cell_angle_alpha   110.32192322
_cell_angle_beta   107.63629803
_cell_angle_gamma   110.47091820
_symmetry_Int_Tables_number   1
_chemical_formula_structural   Tm12Fe3BiPd
_chemical_formula_sum   'Tm12 Fe3 Bi1 Pd1'
_cell_volume   423.16334134
_cell_formula_units_Z   1
loop_
 _symmetry_equiv_pos_site_id
 _symmetry_equiv_pos_as_xyz
  1  'x, y, z'
loop_
 _atom_site_type_symbol
 _atom_site_label
 _atom_site_symmetry_multiplicity
 _atom_site_fract_x
 _atom_site_fract_y
 _atom_site_fract_z
 _atom_site_occupancy
  Tm  Tm0  1  0.191976  0.456845  0.264868  1
  Tm  Tm1  1  0.808024  0.543155  0.735132  1
  Tm  Tm2  1  0.191976  0.927109  0.735132  1
  Tm  Tm3  1  0.973536  0.190671  0.782864  1
  Tm  Tm4  1  0.808024  0.072891  0.264868  1
  Tm  Tm5  1  0.026464  0.809329  0.217136  1
  Tm  Tm6  1  0.407808  0.190671  0.217136  1
  Tm  Tm7  1  0.592192  0.809329  0.782864  1
  Tm  Tm8  1  0.302860  0.315044  0.617905  1
  Tm  Tm9  1  0.697140  0.684956  0.382095  1
  Tm  Tm10  1  0.697140  0.315044  0.012184  1
  Tm  Tm11  1  0.302860  0.684956  0.987816  1
  Fe  Fe12  1  0.384275  0.384275  0.000000  1
  Fe  Fe13  1  0.615725  0.615725  0.000000  1
  Fe  Fe14  1  0.000000  0.000000  0.000000  1
  Bi  Bi15  1  0.500000  0.000000  0.500000  1
  Pd  Pd16  1  0.000000  0.500000  0.500000  1
