# generated using pymatgen
data_Cs2Rh2OF10
_symmetry_space_group_name_H-M   'P 1'
_cell_length_a   5.33399500
_cell_length_b   7.62856577
_cell_length_c   14.15167765
_cell_angle_alpha   79.24184049
_cell_angle_beta   90.00000000
_cell_angle_gamma   90.00000000
_symmetry_Int_Tables_number   1
_chemical_formula_structural   Cs2Rh2OF10
_chemical_formula_sum   'Cs4 Rh4 O2 F20'
_cell_volume   565.72101637
_cell_formula_units_Z   2
loop_
 _symmetry_equiv_pos_site_id
 _symmetry_equiv_pos_as_xyz
  1  'x, y, z'
loop_
 _atom_site_type_symbol
 _atom_site_label
 _atom_site_symmetry_multiplicity
 _atom_site_fract_x
 _atom_site_fract_y
 _atom_site_fract_z
 _atom_site_occupancy
  Cs  Cs0  1  0.400790  0.224909  0.590210  1
  Cs  Cs1  1  0.599210  0.224909  0.090210  1
  Cs  Cs2  1  0.599210  0.775091  0.409790  1
  Cs  Cs3  1  0.400790  0.775091  0.909790  1
  Rh  Rh4  1  0.017308  0.295640  0.333485  1
  Rh  Rh5  1  0.982692  0.295640  0.833485  1
  Rh  Rh6  1  0.017308  0.704360  0.166515  1
  Rh  Rh7  1  0.982692  0.704360  0.666515  1
  O  O8  1  0.107624  0.500000  0.750000  1
  O  O9  1  0.892376  0.500000  0.250000  1
  F  F10  1  0.723103  0.838459  0.184809  1
  F  F11  1  0.686406  0.580375  0.641120  1
  F  F12  1  0.165251  0.786431  0.273195  1
  F  F13  1  0.844555  0.086778  0.916919  1
  F  F14  1  0.313594  0.419625  0.358880  1
  F  F15  1  0.155445  0.913222  0.083081  1
  F  F16  1  0.165251  0.213569  0.226805  1
  F  F17  1  0.276897  0.838459  0.684809  1
  F  F18  1  0.834749  0.213569  0.726805  1
  F  F19  1  0.686406  0.419625  0.858880  1
  F  F20  1  0.155445  0.086778  0.416919  1
  F  F21  1  0.137600  0.364234  0.944071  1
  F  F22  1  0.276897  0.161541  0.815191  1
  F  F23  1  0.862400  0.635766  0.055929  1
  F  F24  1  0.834749  0.786431  0.773195  1
  F  F25  1  0.723103  0.161541  0.315191  1
  F  F26  1  0.844555  0.913222  0.583081  1
  F  F27  1  0.862400  0.364234  0.444071  1
  F  F28  1  0.313594  0.580375  0.141120  1
  F  F29  1  0.137600  0.635766  0.555929  1
