# generated using pymatgen
data_CaYb6Pr3Pt8
_symmetry_space_group_name_H-M   'P 1'
_cell_length_a   7.58177400
_cell_length_b   7.73603204
_cell_length_c   14.74613100
_cell_angle_alpha   89.89082289
_cell_angle_beta   90.00000000
_cell_angle_gamma   90.00000000
_symmetry_Int_Tables_number   1
_chemical_formula_structural   CaYb6Pr3Pt8
_chemical_formula_sum   'Ca2 Yb12 Pr6 Pt16'
_cell_volume   864.90098955
_cell_formula_units_Z   2
loop_
 _symmetry_equiv_pos_site_id
 _symmetry_equiv_pos_as_xyz
  1  'x, y, z'
loop_
 _atom_site_type_symbol
 _atom_site_label
 _atom_site_symmetry_multiplicity
 _atom_site_fract_x
 _atom_site_fract_y
 _atom_site_fract_z
 _atom_site_occupancy
  Ca  Ca0  1  0.499978  0.322882  0.598396  1
  Ca  Ca1  1  0.999978  0.177118  0.901604  1
  Yb  Yb2  1  0.338264  0.833788  0.876723  1
  Yb  Yb3  1  0.838264  0.666212  0.623277  1
  Yb  Yb4  1  0.657268  0.172128  0.377655  1
  Yb  Yb5  1  0.157268  0.327872  0.122345  1
  Yb  Yb6  1  0.659245  0.171298  0.123702  1
  Yb  Yb7  1  0.159245  0.328702  0.376298  1
  Yb  Yb8  1  0.342789  0.829646  0.624003  1
  Yb  Yb9  1  0.842789  0.670354  0.875997  1
  Yb  Yb10  1  0.177921  0.499380  0.748981  1
  Yb  Yb11  1  0.677921  0.000620  0.751019  1
  Yb  Yb12  1  0.823732  0.497265  0.249909  1
  Yb  Yb13  1  0.323732  0.002735  0.250091  1
  Pr  Pr14  1  0.499108  0.322651  0.902327  1
  Pr  Pr15  1  0.999108  0.177349  0.597673  1
  Pr  Pr16  1  0.499014  0.674590  0.403039  1
  Pr  Pr17  1  0.999014  0.825410  0.096961  1
  Pr  Pr18  1  0.499474  0.675597  0.096951  1
  Pr  Pr19  1  0.999474  0.824403  0.403049  1
  Pt  Pt20  1  0.328468  0.026271  0.043667  1
  Pt  Pt21  1  0.828468  0.473729  0.456333  1
  Pt  Pt22  1  0.680231  0.964710  0.536808  1
  Pt  Pt23  1  0.180231  0.535290  0.963192  1
  Pt  Pt24  1  0.673425  0.966873  0.962585  1
  Pt  Pt25  1  0.173425  0.533127  0.537415  1
  Pt  Pt26  1  0.323888  0.023716  0.458899  1
  Pt  Pt27  1  0.823888  0.476284  0.041101  1
  Pt  Pt28  1  0.546254  0.614635  0.753041  1
  Pt  Pt29  1  0.046254  0.885365  0.746959  1
  Pt  Pt30  1  0.453045  0.386184  0.250119  1
  Pt  Pt31  1  0.953045  0.113816  0.249881  1
  Pt  Pt32  1  0.303739  0.140023  0.752594  1
  Pt  Pt33  1  0.803739  0.359977  0.747406  1
  Pt  Pt34  1  0.694159  0.858875  0.250577  1
  Pt  Pt35  1  0.194159  0.641125  0.249423  1
