# generated using pymatgen
data_NdHoEr2(WO6)2
_symmetry_space_group_name_H-M   'P 1'
_cell_length_a   5.42784200
_cell_length_b   7.74336029
_cell_length_c   11.50396534
_cell_angle_alpha   75.47056893
_cell_angle_beta   90.00000000
_cell_angle_gamma   90.00000000
_symmetry_Int_Tables_number   1
_chemical_formula_structural   NdHoEr2(WO6)2
_chemical_formula_sum   'Nd2 Ho2 Er4 W4 O24'
_cell_volume   468.04549096
_cell_formula_units_Z   2
loop_
 _symmetry_equiv_pos_site_id
 _symmetry_equiv_pos_as_xyz
  1  'x, y, z'
loop_
 _atom_site_type_symbol
 _atom_site_label
 _atom_site_symmetry_multiplicity
 _atom_site_fract_x
 _atom_site_fract_y
 _atom_site_fract_z
 _atom_site_occupancy
  Nd  Nd0  1  0.685589  0.500000  0.250000  1
  Nd  Nd1  1  0.314411  0.500000  0.750000  1
  Ho  Ho2  1  0.742812  0.000000  0.250000  1
  Ho  Ho3  1  0.257188  0.000000  0.750000  1
  Er  Er4  1  0.185062  0.203170  0.422805  1
  Er  Er5  1  0.185062  0.796830  0.077195  1
  Er  Er6  1  0.814938  0.796830  0.577195  1
  Er  Er7  1  0.814938  0.203170  0.922805  1
  W  W8  1  0.254603  0.272139  0.115648  1
  W  W9  1  0.254603  0.727861  0.384352  1
  W  W10  1  0.745397  0.727861  0.884352  1
  W  W11  1  0.745397  0.272139  0.615648  1
  O  O12  1  0.455639  0.204058  0.273924  1
  O  O13  1  0.455639  0.795942  0.226076  1
  O  O14  1  0.544361  0.795942  0.726076  1
  O  O15  1  0.544361  0.204058  0.773924  1
  O  O16  1  0.043519  0.058094  0.103814  1
  O  O17  1  0.043519  0.941906  0.396186  1
  O  O18  1  0.956481  0.941906  0.896186  1
  O  O19  1  0.956481  0.058094  0.603814  1
  O  O20  1  0.985988  0.280098  0.230900  1
  O  O21  1  0.985988  0.719902  0.269100  1
  O  O22  1  0.014012  0.719902  0.769100  1
  O  O23  1  0.014012  0.280098  0.730900  1
  O  O24  1  0.854647  0.358881  0.453999  1
  O  O25  1  0.854647  0.641119  0.046001  1
  O  O26  1  0.145353  0.641119  0.546001  1
  O  O27  1  0.145353  0.358881  0.953999  1
  O  O28  1  0.651394  0.507490  0.612681  1
  O  O29  1  0.651394  0.492510  0.887319  1
  O  O30  1  0.348606  0.492510  0.387319  1
  O  O31  1  0.348606  0.507490  0.112681  1
  O  O32  1  0.463358  0.154882  0.569457  1
  O  O33  1  0.463358  0.845118  0.930543  1
  O  O34  1  0.536642  0.845118  0.430543  1
  O  O35  1  0.536642  0.154882  0.069457  1
