# generated using pymatgen
data_Ta6AlSi(PtN)2
_symmetry_space_group_name_H-M   'P 1'
_cell_length_a   7.01039747
_cell_length_b   7.01325800
_cell_length_c   7.01093130
_cell_angle_alpha   90.00000000
_cell_angle_beta   89.87099084
_cell_angle_gamma   90.00000000
_symmetry_Int_Tables_number   1
_chemical_formula_structural   Ta6AlSi(PtN)2
_chemical_formula_sum   'Ta12 Al2 Si2 Pt4 N4'
_cell_volume   344.69665448
_cell_formula_units_Z   2
loop_
 _symmetry_equiv_pos_site_id
 _symmetry_equiv_pos_as_xyz
  1  'x, y, z'
loop_
 _atom_site_type_symbol
 _atom_site_label
 _atom_site_symmetry_multiplicity
 _atom_site_fract_x
 _atom_site_fract_y
 _atom_site_fract_z
 _atom_site_occupancy
  Ta  Ta0  1  0.786389  0.953036  0.379225  1
  Ta  Ta1  1  0.711036  0.046799  0.878672  1
  Ta  Ta2  1  0.213611  0.453036  0.120775  1
  Ta  Ta3  1  0.288964  0.546799  0.621328  1
  Ta  Ta4  1  0.952686  0.378622  0.788967  1
  Ta  Ta5  1  0.047314  0.878622  0.711033  1
  Ta  Ta6  1  0.453470  0.120953  0.213593  1
  Ta  Ta7  1  0.546530  0.620953  0.286407  1
  Ta  Ta8  1  0.378664  0.787843  0.952111  1
  Ta  Ta9  1  0.878882  0.712237  0.045728  1
  Ta  Ta10  1  0.121118  0.212237  0.454272  1
  Ta  Ta11  1  0.621336  0.287843  0.547889  1
  Al  Al12  1  0.928713  0.571200  0.428341  1
  Al  Al13  1  0.071287  0.071200  0.071659  1
  Si  Si14  1  0.570833  0.429191  0.929616  1
  Si  Si15  1  0.429167  0.929191  0.570384  1
  Pt  Pt16  1  0.181720  0.821243  0.322445  1
  Pt  Pt17  1  0.323508  0.179293  0.819670  1
  Pt  Pt18  1  0.818280  0.321243  0.177555  1
  Pt  Pt19  1  0.676492  0.679293  0.680330  1
  N  N20  1  0.874813  0.124703  0.625824  1
  N  N21  1  0.624670  0.874880  0.124248  1
  N  N22  1  0.125187  0.624703  0.874176  1
  N  N23  1  0.375330  0.374880  0.375752  1
