# generated using pymatgen
data_Ta3Ti5Re8
_symmetry_space_group_name_H-M   'P 1'
_cell_length_a   6.31138800
_cell_length_b   6.31138800
_cell_length_c   6.31138800
_cell_angle_alpha   90.00000000
_cell_angle_beta   90.00000000
_cell_angle_gamma   90.00000000
_symmetry_Int_Tables_number   1
_chemical_formula_structural   Ta3Ti5Re8
_chemical_formula_sum   'Ta3 Ti5 Re8'
_cell_volume   251.40542171
_cell_formula_units_Z   1
loop_
 _symmetry_equiv_pos_site_id
 _symmetry_equiv_pos_as_xyz
  1  'x, y, z'
loop_
 _atom_site_type_symbol
 _atom_site_label
 _atom_site_symmetry_multiplicity
 _atom_site_fract_x
 _atom_site_fract_y
 _atom_site_fract_z
 _atom_site_occupancy
  Ta  Ta0  1  0.499999  0.000000  0.000000  1
  Ta  Ta1  1  0.000000  0.499999  0.000000  1
  Ta  Ta2  1  0.000000  0.000000  0.499999  1
  Ti  Ti3  1  0.000000  0.000000  0.000000  1
  Ti  Ti4  1  0.499999  0.499999  0.000000  1
  Ti  Ti5  1  0.499999  0.000000  0.499999  1
  Ti  Ti6  1  0.000000  0.499999  0.499999  1
  Ti  Ti7  1  0.499999  0.499999  0.499999  1
  Re  Re8  1  0.250889  0.250889  0.250889  1
  Re  Re9  1  0.749111  0.250889  0.250889  1
  Re  Re10  1  0.250889  0.749111  0.250889  1
  Re  Re11  1  0.749111  0.749111  0.250889  1
  Re  Re12  1  0.250889  0.250889  0.749111  1
  Re  Re13  1  0.749111  0.250889  0.749111  1
  Re  Re14  1  0.250889  0.749111  0.749111  1
  Re  Re15  1  0.749111  0.749111  0.749111  1
