# generated using pymatgen
data_ZrPbBr6
_symmetry_space_group_name_H-M   'P 1'
_cell_length_a   7.95834046
_cell_length_b   7.95833987
_cell_length_c   7.95834145
_cell_angle_alpha   55.57183776
_cell_angle_beta   55.57182881
_cell_angle_gamma   55.57183263
_symmetry_Int_Tables_number   1
_chemical_formula_structural   ZrPbBr6
_chemical_formula_sum   'Zr1 Pb1 Br6'
_cell_volume   319.77937819
_cell_formula_units_Z   1
loop_
 _symmetry_equiv_pos_site_id
 _symmetry_equiv_pos_as_xyz
  1  'x, y, z'
loop_
 _atom_site_type_symbol
 _atom_site_label
 _atom_site_symmetry_multiplicity
 _atom_site_fract_x
 _atom_site_fract_y
 _atom_site_fract_z
 _atom_site_occupancy
  Zr  Zr0  1  0.666532  0.666532  0.666532  1
  Pb  Pb1  1  0.334201  0.334201  0.334201  1
  Br  Br2  1  0.036703  0.454752  0.740160  1
  Br  Br3  1  0.302584  0.883722  0.581344  1
  Br  Br4  1  0.454752  0.740160  0.036703  1
  Br  Br5  1  0.581344  0.302584  0.883722  1
  Br  Br6  1  0.740160  0.036703  0.454752  1
  Br  Br7  1  0.883722  0.581344  0.302584  1
