# generated using pymatgen
data_CeNd4Al2Ru3
_symmetry_space_group_name_H-M   'P 1'
_cell_length_a   8.66756433
_cell_length_b   8.55063704
_cell_length_c   8.52809245
_cell_angle_alpha   110.10848397
_cell_angle_beta   109.12144218
_cell_angle_gamma   110.42287996
_symmetry_Int_Tables_number   1
_chemical_formula_structural   CeNd4Al2Ru3
_chemical_formula_sum   'Ce2 Nd8 Al4 Ru6'
_cell_volume   478.91271918
_cell_formula_units_Z   2
loop_
 _symmetry_equiv_pos_site_id
 _symmetry_equiv_pos_as_xyz
  1  'x, y, z'
loop_
 _atom_site_type_symbol
 _atom_site_label
 _atom_site_symmetry_multiplicity
 _atom_site_fract_x
 _atom_site_fract_y
 _atom_site_fract_z
 _atom_site_occupancy
  Ce  Ce0  1  0.945105  0.249926  0.197042  1
  Ce  Ce1  1  0.197152  0.943006  0.251093  1
  Nd  Nd2  1  0.784490  0.788525  0.781058  1
  Nd  Nd3  1  0.314034  0.562086  0.754331  1
  Nd  Nd4  1  0.753297  0.313667  0.564551  1
  Nd  Nd5  1  0.560904  0.748847  0.307564  1
  Nd  Nd6  1  0.724252  0.503628  0.998866  1
  Nd  Nd7  1  0.999268  0.720121  0.505138  1
  Nd  Nd8  1  0.501055  0.990170  0.716220  1
  Nd  Nd9  1  0.254125  0.193897  0.936294  1
  Al  Al10  1  0.412057  0.405801  0.406489  1
  Al  Al11  1  0.092079  0.491913  0.001092  1
  Al  Al12  1  0.998938  0.090972  0.497358  1
  Al  Al13  1  0.503500  0.014012  0.098560  1
  Ru  Ru14  1  0.873397  0.120524  0.738986  1
  Ru  Ru15  1  0.757450  0.917820  0.125589  1
  Ru  Ru16  1  0.133515  0.767645  0.924714  1
  Ru  Ru17  1  0.218614  0.578888  0.358549  1
  Ru  Ru18  1  0.351319  0.212920  0.583243  1
  Ru  Ru19  1  0.625447  0.385632  0.253263  1
