# generated using pymatgen
data_Tb(Y2Os)2
_symmetry_space_group_name_H-M   'P 1'
_cell_length_a   6.40346409
_cell_length_b   7.38889397
_cell_length_c   8.48175186
_cell_angle_alpha   96.81988757
_cell_angle_beta   112.17795848
_cell_angle_gamma   89.99999675
_symmetry_Int_Tables_number   1
_chemical_formula_structural   Tb(Y2Os)2
_chemical_formula_sum   'Tb2 Y8 Os4'
_cell_volume   368.55121364
_cell_formula_units_Z   2
loop_
 _symmetry_equiv_pos_site_id
 _symmetry_equiv_pos_as_xyz
  1  'x, y, z'
loop_
 _atom_site_type_symbol
 _atom_site_label
 _atom_site_symmetry_multiplicity
 _atom_site_fract_x
 _atom_site_fract_y
 _atom_site_fract_z
 _atom_site_occupancy
  Tb  Tb0  1  0.422155  0.750000  0.000000  1
  Tb  Tb1  1  0.577845  0.250000  0.000000  1
  Y  Y2  1  0.978136  0.916220  0.183103  1
  Y  Y3  1  0.795034  0.583780  0.816897  1
  Y  Y4  1  0.021864  0.083780  0.816897  1
  Y  Y5  1  0.204966  0.416220  0.183103  1
  Y  Y6  1  0.641457  0.818189  0.435655  1
  Y  Y7  1  0.205803  0.681811  0.564345  1
  Y  Y8  1  0.358543  0.181811  0.564345  1
  Y  Y9  1  0.794197  0.318189  0.435655  1
  Os  Os10  1  0.821911  0.577561  0.219201  1
  Os  Os11  1  0.602710  0.922439  0.780799  1
  Os  Os12  1  0.178089  0.422439  0.780799  1
  Os  Os13  1  0.397290  0.077561  0.219201  1
