# generated using pymatgen
data_Pr5MnRuO12
_symmetry_space_group_name_H-M   'P 1'
_cell_length_a   7.11602094
_cell_length_b   7.11602011
_cell_length_c   7.63524715
_cell_angle_alpha   74.49286546
_cell_angle_beta   74.49286812
_cell_angle_gamma   50.18666561
_symmetry_Int_Tables_number   1
_chemical_formula_structural   Pr5MnRuO12
_chemical_formula_sum   'Pr5 Mn1 Ru1 O12'
_cell_volume   283.74816222
_cell_formula_units_Z   1
loop_
 _symmetry_equiv_pos_site_id
 _symmetry_equiv_pos_as_xyz
  1  'x, y, z'
loop_
 _atom_site_type_symbol
 _atom_site_label
 _atom_site_symmetry_multiplicity
 _atom_site_fract_x
 _atom_site_fract_y
 _atom_site_fract_z
 _atom_site_occupancy
  Pr  Pr0  1  0.310107  0.300533  0.356732  1
  Pr  Pr1  1  0.699467  0.689893  0.643268  1
  Pr  Pr2  1  0.694343  0.694862  0.163417  1
  Pr  Pr3  1  0.305138  0.305657  0.836583  1
  Pr  Pr4  1  0.998213  0.001787  0.500000  1
  Mn  Mn5  1  0.749716  0.250284  0.000000  1
  Ru  Ru6  1  0.238551  0.761449  0.000000  1
  O  O7  1  0.097865  0.596869  0.576636  1
  O  O8  1  0.996689  0.001773  0.171496  1
  O  O9  1  0.403131  0.902135  0.423364  1
  O  O10  1  0.503108  0.497769  0.170009  1
  O  O11  1  0.099578  0.582626  0.078531  1
  O  O12  1  0.906349  0.402385  0.422053  1
  O  O13  1  0.998227  0.003311  0.828504  1
  O  O14  1  0.597615  0.093650  0.577947  1
  O  O15  1  0.502231  0.496892  0.829991  1
  O  O16  1  0.585378  0.103081  0.076832  1
  O  O17  1  0.417374  0.900422  0.921469  1
  O  O18  1  0.896919  0.414622  0.923168  1
