# generated using pymatgen
data_NdYNiOs3
_symmetry_space_group_name_H-M   'P 1'
_cell_length_a   5.41788936
_cell_length_b   5.41788969
_cell_length_c   5.41788954
_cell_angle_alpha   58.54008609
_cell_angle_beta   58.54008275
_cell_angle_gamma   58.54009393
_symmetry_Int_Tables_number   1
_chemical_formula_structural   NdYNiOs3
_chemical_formula_sum   'Nd1 Y1 Ni1 Os3'
_cell_volume   108.69938100
_cell_formula_units_Z   1
loop_
 _symmetry_equiv_pos_site_id
 _symmetry_equiv_pos_as_xyz
  1  'x, y, z'
loop_
 _atom_site_type_symbol
 _atom_site_label
 _atom_site_symmetry_multiplicity
 _atom_site_fract_x
 _atom_site_fract_y
 _atom_site_fract_z
 _atom_site_occupancy
  Nd  Nd0  1  0.248524  0.248524  0.248524  1
  Y  Y1  1  0.002326  0.002326  0.002326  1
  Ni  Ni2  1  0.625293  0.625293  0.625293  1
  Os  Os3  1  0.624674  0.624674  0.124511  1
  Os  Os4  1  0.624674  0.124511  0.624674  1
  Os  Os5  1  0.124511  0.624674  0.624674  1
