# generated using pymatgen
data_Ti3V(SiRh5)2
_symmetry_space_group_name_H-M   'P 1'
_cell_length_a   3.95176500
_cell_length_b   5.39241744
_cell_length_c   10.50754986
_cell_angle_alpha   89.95363144
_cell_angle_beta   90.00000000
_cell_angle_gamma   90.00000000
_symmetry_Int_Tables_number   1
_chemical_formula_structural   Ti3V(SiRh5)2
_chemical_formula_sum   'Ti3 V1 Si2 Rh10'
_cell_volume   223.91125929
_cell_formula_units_Z   1
loop_
 _symmetry_equiv_pos_site_id
 _symmetry_equiv_pos_as_xyz
  1  'x, y, z'
loop_
 _atom_site_type_symbol
 _atom_site_label
 _atom_site_symmetry_multiplicity
 _atom_site_fract_x
 _atom_site_fract_y
 _atom_site_fract_z
 _atom_site_occupancy
  Ti  Ti0  1  0.500000  0.171645  0.642174  1
  Ti  Ti1  1  0.500000  0.829915  0.360610  1
  Ti  Ti2  1  0.500000  0.672398  0.858515  1
  V  V3  1  0.500000  0.333502  0.143379  1
  Si  Si4  1  0.000000  0.498595  0.499769  1
  Si  Si5  1  0.000000  0.997680  0.999814  1
  Rh  Rh6  1  0.500000  0.317859  0.391333  1
  Rh  Rh7  1  0.500000  0.682376  0.603928  1
  Rh  Rh8  1  0.500000  0.810487  0.104943  1
  Rh  Rh9  1  0.500000  0.185393  0.899299  1
  Rh  Rh10  1  0.000000  0.418967  0.739766  1
  Rh  Rh11  1  0.000000  0.579070  0.258738  1
  Rh  Rh12  1  0.000000  0.919210  0.761575  1
  Rh  Rh13  1  0.000000  0.087915  0.233705  1
  Rh  Rh14  1  0.000000  0.493900  0.003791  1
  Rh  Rh15  1  0.000000  0.001088  0.498659  1
