# generated using pymatgen
data_CeTh7MnSe17
_symmetry_space_group_name_H-M   'P 1'
_cell_length_a   8.51524006
_cell_length_b   8.48503617
_cell_length_c   11.17977700
_cell_angle_alpha   80.47965791
_cell_angle_beta   80.48119746
_cell_angle_gamma   64.81985322
_symmetry_Int_Tables_number   1
_chemical_formula_structural   CeTh7MnSe17
_chemical_formula_sum   'Ce1 Th7 Mn1 Se17'
_cell_volume   716.84073342
_cell_formula_units_Z   1
loop_
 _symmetry_equiv_pos_site_id
 _symmetry_equiv_pos_as_xyz
  1  'x, y, z'
loop_
 _atom_site_type_symbol
 _atom_site_label
 _atom_site_symmetry_multiplicity
 _atom_site_fract_x
 _atom_site_fract_y
 _atom_site_fract_z
 _atom_site_occupancy
  Ce  Ce0  1  0.815402  0.303301  0.294833  1
  Th  Th1  1  0.303503  0.814796  0.294764  1
  Th  Th2  1  0.184221  0.697277  0.704024  1
  Th  Th3  1  0.696926  0.185905  0.703034  1
  Th  Th4  1  0.795355  0.795751  0.454968  1
  Th  Th5  1  0.204240  0.203772  0.543790  1
  Th  Th6  1  0.317564  0.316727  0.021552  1
  Th  Th7  1  0.682563  0.682141  0.979872  1
  Mn  Mn8  1  0.999332  0.002211  0.001037  1
  Se  Se9  1  0.176625  0.568078  0.466927  1
  Se  Se10  1  0.568582  0.176015  0.468915  1
  Se  Se11  1  0.824710  0.431159  0.533908  1
  Se  Se12  1  0.431706  0.821682  0.532477  1
  Se  Se13  1  0.946716  0.324751  0.029446  1
  Se  Se14  1  0.325825  0.944973  0.028541  1
  Se  Se15  1  0.053930  0.675212  0.971082  1
  Se  Se16  1  0.674747  0.055186  0.969519  1
  Se  Se17  1  0.944064  0.944047  0.226764  1
  Se  Se18  1  0.055694  0.056906  0.774494  1
  Se  Se19  1  0.790851  0.789946  0.720883  1
  Se  Se20  1  0.211945  0.206498  0.279454  1
  Se  Se21  1  0.694382  0.700466  0.244141  1
  Se  Se22  1  0.302909  0.303092  0.755268  1
  Se  Se23  1  0.477801  0.482055  0.166275  1
  Se  Se24  1  0.518917  0.521020  0.831623  1
  Se  Se25  1  0.001490  0.997035  0.502410  1
