# generated using pymatgen
data_NaHo(TaSe2)6
_symmetry_space_group_name_H-M   'P 1'
_cell_length_a   6.05794100
_cell_length_b   6.05793919
_cell_length_c   14.74944600
_cell_angle_alpha   90.00000000
_cell_angle_beta   90.00000000
_cell_angle_gamma   120.00000442
_symmetry_Int_Tables_number   1
_chemical_formula_structural   NaHo(TaSe2)6
_chemical_formula_sum   'Na1 Ho1 Ta6 Se12'
_cell_volume   468.76617814
_cell_formula_units_Z   1
loop_
 _symmetry_equiv_pos_site_id
 _symmetry_equiv_pos_as_xyz
  1  'x, y, z'
loop_
 _atom_site_type_symbol
 _atom_site_label
 _atom_site_symmetry_multiplicity
 _atom_site_fract_x
 _atom_site_fract_y
 _atom_site_fract_z
 _atom_site_occupancy
  Na  Na0  1  0.666667  0.333333  0.750000  1
  Ho  Ho1  1  0.333333  0.666667  0.250000  1
  Ta  Ta2  1  0.333333  0.666667  0.008351  1
  Ta  Ta3  1  0.000000  0.000000  0.006299  1
  Ta  Ta4  1  0.666667  0.333333  0.005785  1
  Ta  Ta5  1  0.333333  0.666667  0.491649  1
  Ta  Ta6  1  0.000000  0.000000  0.493701  1
  Ta  Ta7  1  0.666667  0.333333  0.494215  1
  Se  Se8  1  0.673794  0.666136  0.379501  1
  Se  Se9  1  0.665373  0.670360  0.605937  1
  Se  Se10  1  0.004988  0.670360  0.894063  1
  Se  Se11  1  0.665373  0.995012  0.894063  1
  Se  Se12  1  0.673794  0.007659  0.120499  1
  Se  Se13  1  0.333864  0.007659  0.379501  1
  Se  Se14  1  0.004988  0.334627  0.605937  1
  Se  Se15  1  0.329640  0.995012  0.605937  1
  Se  Se16  1  0.992341  0.666136  0.120499  1
  Se  Se17  1  0.329640  0.334627  0.894063  1
  Se  Se18  1  0.992341  0.326206  0.379501  1
  Se  Se19  1  0.333864  0.326206  0.120499  1
