# generated using pymatgen
data_IrSe23
_symmetry_space_group_name_H-M   'P 1'
_cell_length_a   5.96811026
_cell_length_b   9.84349145
_cell_length_c   15.83245300
_cell_angle_alpha   89.63402248
_cell_angle_beta   90.46347019
_cell_angle_gamma   87.71809577
_symmetry_Int_Tables_number   1
_chemical_formula_structural   IrSe23
_chemical_formula_sum   'Ir1 Se23'
_cell_volume   929.32086823
_cell_formula_units_Z   1
loop_
 _symmetry_equiv_pos_site_id
 _symmetry_equiv_pos_as_xyz
  1  'x, y, z'
loop_
 _atom_site_type_symbol
 _atom_site_label
 _atom_site_symmetry_multiplicity
 _atom_site_fract_x
 _atom_site_fract_y
 _atom_site_fract_z
 _atom_site_occupancy
  Ir  Ir0  1  0.503176  0.292383  0.420468  1
  Se  Se1  1  0.621750  0.831562  0.379541  1
  Se  Se2  1  0.999762  0.324452  0.124844  1
  Se  Se3  1  0.873442  0.245401  0.471197  1
  Se  Se4  1  0.335628  0.793256  0.477334  1
  Se  Se5  1  0.203518  0.264476  0.002523  1
  Se  Se6  1  0.777209  0.730884  0.997815  1
  Se  Se7  1  0.130334  0.290519  0.362895  1
  Se  Se8  1  0.831932  0.620195  0.371083  1
  Se  Se9  1  0.793999  0.133208  0.163205  1
  Se  Se10  1  0.229953  0.846692  0.144870  1
  Se  Se11  1  0.655917  0.607569  0.646214  1
  Se  Se12  1  0.173401  0.371022  0.622368  1
  Se  Se13  1  0.219710  0.858233  0.853685  1
  Se  Se14  1  0.773044  0.136622  0.846255  1
  Se  Se15  1  0.989939  0.666509  0.118987  1
  Se  Se16  1  0.490898  0.824051  0.613230  1
  Se  Se17  1  0.434693  0.212088  0.563212  1
  Se  Se18  1  0.998060  0.669102  0.879993  1
  Se  Se19  1  0.981985  0.327006  0.883285  1
  Se  Se20  1  0.532263  0.482586  0.330886  1
  Se  Se21  1  0.043283  0.990340  0.243237  1
  Se  Se22  1  0.397820  0.481592  0.723238  1
  Se  Se23  1  0.008287  0.000255  0.759635  1
