# generated using pymatgen
data_Tm6Si5SnRh12
_symmetry_space_group_name_H-M   'P 1'
_cell_length_a   5.57497500
_cell_length_b   5.57497477
_cell_length_c   15.19390800
_cell_angle_alpha   90.00000000
_cell_angle_beta   90.00000000
_cell_angle_gamma   119.99999542
_symmetry_Int_Tables_number   1
_chemical_formula_structural   Tm6Si5SnRh12
_chemical_formula_sum   'Tm6 Si5 Sn1 Rh12'
_cell_volume   408.96484261
_cell_formula_units_Z   1
loop_
 _symmetry_equiv_pos_site_id
 _symmetry_equiv_pos_as_xyz
  1  'x, y, z'
loop_
 _atom_site_type_symbol
 _atom_site_label
 _atom_site_symmetry_multiplicity
 _atom_site_fract_x
 _atom_site_fract_y
 _atom_site_fract_z
 _atom_site_occupancy
  Tm  Tm0  1  0.666667  0.333333  0.963156  1
  Tm  Tm1  1  0.666667  0.333333  0.539478  1
  Tm  Tm2  1  0.333333  0.666667  0.036844  1
  Tm  Tm3  1  0.666667  0.333333  0.752021  1
  Tm  Tm4  1  0.333333  0.666667  0.460522  1
  Tm  Tm5  1  0.333333  0.666667  0.247979  1
  Si  Si6  1  0.666667  0.333333  0.243765  1
  Si  Si7  1  0.000000  0.000000  0.245501  1
  Si  Si8  1  0.000000  0.000000  0.754499  1
  Si  Si9  1  0.333333  0.666667  0.756235  1
  Si  Si10  1  0.000000  0.000000  0.000000  1
  Sn  Sn11  1  0.000000  0.000000  0.500000  1
  Rh  Rh12  1  0.166728  0.333455  0.873309  1
  Rh  Rh13  1  0.169423  0.338844  0.639385  1
  Rh  Rh14  1  0.666545  0.833272  0.873309  1
  Rh  Rh15  1  0.338844  0.169423  0.360615  1
  Rh  Rh16  1  0.830577  0.661156  0.360615  1
  Rh  Rh17  1  0.830577  0.169423  0.360615  1
  Rh  Rh18  1  0.833272  0.166728  0.126691  1
  Rh  Rh19  1  0.333455  0.166728  0.126691  1
  Rh  Rh20  1  0.661156  0.830577  0.639385  1
  Rh  Rh21  1  0.169423  0.830577  0.639385  1
  Rh  Rh22  1  0.833272  0.666545  0.126691  1
  Rh  Rh23  1  0.166728  0.833272  0.873309  1
