# generated using pymatgen
data_YEr9Si5Pb
_symmetry_space_group_name_H-M   'P 1'
_cell_length_a   8.45526600
_cell_length_b   8.49202519
_cell_length_c   6.34490900
_cell_angle_alpha   90.00000000
_cell_angle_beta   90.00000000
_cell_angle_gamma   119.85690393
_symmetry_Int_Tables_number   1
_chemical_formula_structural   YEr9Si5Pb
_chemical_formula_sum   'Y1 Er9 Si5 Pb1'
_cell_volume   395.11088683
_cell_formula_units_Z   1
loop_
 _symmetry_equiv_pos_site_id
 _symmetry_equiv_pos_as_xyz
  1  'x, y, z'
loop_
 _atom_site_type_symbol
 _atom_site_label
 _atom_site_symmetry_multiplicity
 _atom_site_fract_x
 _atom_site_fract_y
 _atom_site_fract_z
 _atom_site_occupancy
  Y  Y0  1  0.240104  0.000000  0.250000  1
  Er  Er1  1  0.987439  0.746867  0.750000  1
  Er  Er2  1  0.997930  0.242461  0.250000  1
  Er  Er3  1  0.755469  0.757539  0.250000  1
  Er  Er4  1  0.767526  0.000000  0.750000  1
  Er  Er5  1  0.240571  0.253133  0.750000  1
  Er  Er6  1  0.331059  0.655630  0.496297  1
  Er  Er7  1  0.675431  0.344370  0.003703  1
  Er  Er8  1  0.675431  0.344370  0.496297  1
  Er  Er9  1  0.331059  0.655630  0.003703  1
  Si  Si10  1  0.393710  0.392297  0.250000  1
  Si  Si11  1  0.001412  0.607703  0.250000  1
  Si  Si12  1  0.998128  0.394339  0.750000  1
  Si  Si13  1  0.603790  0.605661  0.750000  1
  Si  Si14  1  0.606114  0.000000  0.250000  1
  Pb  Pb15  1  0.394830  0.000000  0.750000  1
