# generated using pymatgen
data_Sm2ReSi4Tc7
_symmetry_space_group_name_H-M   'P 1'
_cell_length_a   7.41882936
_cell_length_b   7.43433026
_cell_length_c   4.14496200
_cell_angle_alpha   90.00000000
_cell_angle_beta   90.00000000
_cell_angle_gamma   90.24015201
_symmetry_Int_Tables_number   1
_chemical_formula_structural   Sm2ReSi4Tc7
_chemical_formula_sum   'Sm2 Re1 Si4 Tc7'
_cell_volume   228.60934036
_cell_formula_units_Z   1
loop_
 _symmetry_equiv_pos_site_id
 _symmetry_equiv_pos_as_xyz
  1  'x, y, z'
loop_
 _atom_site_type_symbol
 _atom_site_label
 _atom_site_symmetry_multiplicity
 _atom_site_fract_x
 _atom_site_fract_y
 _atom_site_fract_z
 _atom_site_occupancy
  Sm  Sm0  1  0.500449  0.499891  0.000000  1
  Sm  Sm1  1  0.000689  0.999970  0.500000  1
  Re  Re2  1  0.590400  0.154742  0.500000  1
  Si  Si3  1  0.710769  0.709544  0.500000  1
  Si  Si4  1  0.289593  0.291421  0.500000  1
  Si  Si5  1  0.210596  0.790506  0.000000  1
  Si  Si6  1  0.791492  0.209929  0.000000  1
  Tc  Tc7  1  0.408781  0.842289  0.500000  1
  Tc  Tc8  1  0.091926  0.345620  0.000000  1
  Tc  Tc9  1  0.908712  0.655479  0.000000  1
  Tc  Tc10  1  0.154870  0.590936  0.500000  1
  Tc  Tc11  1  0.841542  0.407052  0.500000  1
  Tc  Tc12  1  0.344735  0.093362  0.000000  1
  Tc  Tc13  1  0.655447  0.909258  0.000000  1
