# generated using pymatgen
data_Y3ErTa5TiSi8
_symmetry_space_group_name_H-M   'P 1'
_cell_length_a   7.04553405
_cell_length_b   7.03815201
_cell_length_c   12.96079500
_cell_angle_alpha   90.00000000
_cell_angle_beta   90.00000000
_cell_angle_gamma   90.00371298
_symmetry_Int_Tables_number   1
_chemical_formula_structural   Y3ErTa5TiSi8
_chemical_formula_sum   'Y6 Er2 Ta10 Ti2 Si16'
_cell_volume   642.69393479
_cell_formula_units_Z   2
loop_
 _symmetry_equiv_pos_site_id
 _symmetry_equiv_pos_as_xyz
  1  'x, y, z'
loop_
 _atom_site_type_symbol
 _atom_site_label
 _atom_site_symmetry_multiplicity
 _atom_site_fract_x
 _atom_site_fract_y
 _atom_site_fract_z
 _atom_site_occupancy
  Y  Y0  1  0.341624  0.002377  0.467777  1
  Y  Y1  1  0.498463  0.841762  0.717851  1
  Y  Y2  1  0.501537  0.158238  0.217851  1
  Y  Y3  1  0.842022  0.498412  0.282411  1
  Y  Y4  1  0.157978  0.501588  0.782411  1
  Y  Y5  1  0.658376  0.997624  0.967777  1
  Er  Er6  1  0.001905  0.341040  0.531946  1
  Er  Er7  1  0.998096  0.658960  0.031946  1
  Ta  Ta8  1  0.328796  0.329583  0.999654  1
  Ta  Ta9  1  0.172805  0.826346  0.249914  1
  Ta  Ta10  1  0.827195  0.173654  0.749914  1
  Ta  Ta11  1  0.671204  0.670417  0.499654  1
  Ta  Ta12  1  0.152157  0.007830  0.873962  1
  Ta  Ta13  1  0.492290  0.652169  0.124106  1
  Ta  Ta14  1  0.507710  0.347831  0.624106  1
  Ta  Ta15  1  0.652158  0.491505  0.876246  1
  Ta  Ta16  1  0.347842  0.508495  0.376246  1
  Ta  Ta17  1  0.847843  0.992170  0.373962  1
  Ti  Ti18  1  0.008334  0.152930  0.126143  1
  Ti  Ti19  1  0.991666  0.847070  0.626143  1
  Si  Si20  1  0.201591  0.132384  0.681412  1
  Si  Si21  1  0.365310  0.704735  0.932098  1
  Si  Si22  1  0.634690  0.295265  0.432098  1
  Si  Si23  1  0.705371  0.365388  0.068489  1
  Si  Si24  1  0.294629  0.634612  0.568489  1
  Si  Si25  1  0.798409  0.867616  0.181412  1
  Si  Si26  1  0.133767  0.203129  0.317904  1
  Si  Si27  1  0.866233  0.796871  0.817904  1
  Si  Si28  1  0.291268  0.954184  0.064288  1
  Si  Si29  1  0.546705  0.793852  0.313579  1
  Si  Si30  1  0.453295  0.206148  0.813579  1
  Si  Si31  1  0.795791  0.547038  0.685021  1
  Si  Si32  1  0.204209  0.452962  0.185021  1
  Si  Si33  1  0.708732  0.045816  0.564288  1
  Si  Si34  1  0.954176  0.294174  0.937198  1
  Si  Si35  1  0.045824  0.705826  0.437198  1
