# generated using pymatgen
data_Ho2Fe2SiGeC
_symmetry_space_group_name_H-M   'P 1'
_cell_length_a   3.94021495
_cell_length_b   5.64699810
_cell_length_c   5.70272109
_cell_angle_alpha   72.99278185
_cell_angle_beta   69.78963406
_cell_angle_gamma   69.58135534
_symmetry_Int_Tables_number   1
_chemical_formula_structural   Ho2Fe2SiGeC
_chemical_formula_sum   'Ho2 Fe2 Si1 Ge1 C1'
_cell_volume   109.43954189
_cell_formula_units_Z   1
loop_
 _symmetry_equiv_pos_site_id
 _symmetry_equiv_pos_as_xyz
  1  'x, y, z'
loop_
 _atom_site_type_symbol
 _atom_site_label
 _atom_site_symmetry_multiplicity
 _atom_site_fract_x
 _atom_site_fract_y
 _atom_site_fract_z
 _atom_site_occupancy
  Ho  Ho0  1  0.441977  0.826343  0.289705  1
  Ho  Ho1  1  0.558588  0.174830  0.707994  1
  Fe  Fe2  1  0.797773  0.304051  0.100403  1
  Fe  Fe3  1  0.196157  0.695496  0.912191  1
  Si  Si4  1  0.164839  0.388341  0.281982  1
  Ge  Ge5  1  0.842263  0.609639  0.705834  1
  C  C6  1  0.998403  0.001301  0.001893  1
