# generated using pymatgen
data_CaNd(Ga2Ag)2
_symmetry_space_group_name_H-M   'P 1'
_cell_length_a   4.43709600
_cell_length_b   7.05837371
_cell_length_c   10.49553527
_cell_angle_alpha   89.53329675
_cell_angle_beta   90.00000000
_cell_angle_gamma   90.00000000
_symmetry_Int_Tables_number   1
_chemical_formula_structural   CaNd(Ga2Ag)2
_chemical_formula_sum   'Ca2 Nd2 Ga8 Ag4'
_cell_volume   328.69542426
_cell_formula_units_Z   2
loop_
 _symmetry_equiv_pos_site_id
 _symmetry_equiv_pos_as_xyz
  1  'x, y, z'
loop_
 _atom_site_type_symbol
 _atom_site_label
 _atom_site_symmetry_multiplicity
 _atom_site_fract_x
 _atom_site_fract_y
 _atom_site_fract_z
 _atom_site_occupancy
  Ca  Ca0  1  0.250000  0.777109  0.828663  1
  Ca  Ca1  1  0.750000  0.222891  0.171337  1
  Nd  Nd2  1  0.750000  0.718540  0.328929  1
  Nd  Nd3  1  0.250000  0.281460  0.671071  1
  Ga  Ga4  1  0.250000  0.925671  0.151044  1
  Ga  Ga5  1  0.750000  0.074329  0.848956  1
  Ga  Ga6  1  0.750000  0.578846  0.649721  1
  Ga  Ga7  1  0.250000  0.421154  0.350279  1
  Ga  Ga8  1  0.250000  0.706452  0.537236  1
  Ga  Ga9  1  0.750000  0.293548  0.462764  1
  Ga  Ga10  1  0.750000  0.800032  0.034354  1
  Ga  Ga11  1  0.250000  0.199968  0.965646  1
  Ag  Ag12  1  0.250000  0.541366  0.097813  1
  Ag  Ag13  1  0.750000  0.458634  0.902187  1
  Ag  Ag14  1  0.750000  0.957197  0.598878  1
  Ag  Ag15  1  0.250000  0.042803  0.401122  1
