# generated using pymatgen
data_Sr2LuTaO6
_symmetry_space_group_name_H-M   'P 1'
_cell_length_a   5.77838533
_cell_length_b   5.83395000
_cell_length_c   8.19374700
_cell_angle_alpha   90.00000000
_cell_angle_beta   90.16625400
_cell_angle_gamma   90.00000000
_symmetry_Int_Tables_number   1
_chemical_formula_structural   Sr2LuTaO6
_chemical_formula_sum   'Sr4 Lu2 Ta2 O12'
_cell_volume   276.21669426
_cell_formula_units_Z   2
loop_
 _symmetry_equiv_pos_site_id
 _symmetry_equiv_pos_as_xyz
  1  'x, y, z'
loop_
 _atom_site_type_symbol
 _atom_site_label
 _atom_site_symmetry_multiplicity
 _atom_site_fract_x
 _atom_site_fract_y
 _atom_site_fract_z
 _atom_site_occupancy
  Sr  Sr0  1  0.492157  0.533516  0.249775  1
  Sr  Sr1  1  0.007844  0.033517  0.250227  1
  Sr  Sr2  1  0.992157  0.966483  0.749774  1
  Sr  Sr3  1  0.507843  0.466484  0.750226  1
  Lu  Lu4  1  0.500000  0.000000  0.000000  1
  Lu  Lu5  1  0.000000  0.499999  0.500000  1
  Ta  Ta6  1  0.000000  0.499999  0.000000  1
  Ta  Ta7  1  0.500001  0.000000  0.500000  1
  O  O8  1  0.274121  0.296413  0.039767  1
  O  O9  1  0.201345  0.775091  0.042371  1
  O  O10  1  0.922484  0.479731  0.238200  1
  O  O11  1  0.577517  0.979732  0.261800  1
  O  O12  1  0.298656  0.275091  0.457629  1
  O  O13  1  0.225879  0.796413  0.460233  1
  O  O14  1  0.774122  0.203587  0.539766  1
  O  O15  1  0.701344  0.724909  0.542371  1
  O  O16  1  0.422484  0.020268  0.738200  1
  O  O17  1  0.077517  0.520269  0.761800  1
  O  O18  1  0.798655  0.224909  0.957630  1
  O  O19  1  0.725878  0.703587  0.960233  1
