# generated using pymatgen
data_Y2ErLu17Bi12
_symmetry_space_group_name_H-M   'P 1'
_cell_length_a   8.15621004
_cell_length_b   9.39430400
_cell_length_c   11.84432000
_cell_angle_alpha   90.00000000
_cell_angle_beta   90.02893517
_cell_angle_gamma   90.00000000
_symmetry_Int_Tables_number   1
_chemical_formula_structural   Y2ErLu17Bi12
_chemical_formula_sum   'Y2 Er1 Lu17 Bi12'
_cell_volume   907.53438355
_cell_formula_units_Z   1
loop_
 _symmetry_equiv_pos_site_id
 _symmetry_equiv_pos_as_xyz
  1  'x, y, z'
loop_
 _atom_site_type_symbol
 _atom_site_label
 _atom_site_symmetry_multiplicity
 _atom_site_fract_x
 _atom_site_fract_y
 _atom_site_fract_z
 _atom_site_occupancy
  Y  Y0  1  0.813421  0.750000  0.217916  1
  Y  Y1  1  0.313444  0.750000  0.282221  1
  Er  Er2  1  0.687748  0.250000  0.716784  1
  Lu  Lu3  1  0.024033  0.250000  0.511433  1
  Lu  Lu4  1  0.976330  0.750000  0.490127  1
  Lu  Lu5  1  0.475971  0.750000  0.009820  1
  Lu  Lu6  1  0.523762  0.250000  0.988626  1
  Lu  Lu7  1  0.354478  0.250000  0.281732  1
  Lu  Lu8  1  0.645001  0.750000  0.718637  1
  Lu  Lu9  1  0.144992  0.750000  0.781437  1
  Lu  Lu10  1  0.854968  0.250000  0.218009  1
  Lu  Lu11  1  0.187746  0.250000  0.783608  1
  Lu  Lu12  1  0.192926  0.067384  0.059998  1
  Lu  Lu13  1  0.806754  0.932707  0.939460  1
  Lu  Lu14  1  0.307126  0.932645  0.560569  1
  Lu  Lu15  1  0.806754  0.567293  0.939460  1
  Lu  Lu16  1  0.692720  0.067370  0.439936  1
  Lu  Lu17  1  0.192926  0.432616  0.059998  1
  Lu  Lu18  1  0.692720  0.432630  0.439936  1
  Lu  Lu19  1  0.307126  0.567355  0.560569  1
  Bi  Bi20  1  0.403434  0.250000  0.541990  1
  Bi  Bi21  1  0.596369  0.750000  0.459366  1
  Bi  Bi22  1  0.096022  0.750000  0.040629  1
  Bi  Bi23  1  0.904465  0.250000  0.957535  1
  Bi  Bi24  1  0.066536  0.005511  0.326417  1
  Bi  Bi25  1  0.933709  0.995914  0.674543  1
  Bi  Bi26  1  0.432338  0.996037  0.825750  1
  Bi  Bi27  1  0.933709  0.504086  0.674543  1
  Bi  Bi28  1  0.566793  0.005565  0.173392  1
  Bi  Bi29  1  0.066536  0.494489  0.326417  1
  Bi  Bi30  1  0.566793  0.494435  0.173392  1
  Bi  Bi31  1  0.432338  0.503963  0.825750  1
