# generated using pymatgen
data_Tb7DyRe(TcB8)3
_symmetry_space_group_name_H-M   'P 1'
_cell_length_a   3.70103100
_cell_length_b   9.18779510
_cell_length_c   11.57705604
_cell_angle_alpha   90.03286166
_cell_angle_beta   90.00000000
_cell_angle_gamma   90.00000000
_symmetry_Int_Tables_number   1
_chemical_formula_structural   Tb7DyRe(TcB8)3
_chemical_formula_sum   'Tb7 Dy1 Re1 Tc3 B24'
_cell_volume   393.66978975
_cell_formula_units_Z   1
loop_
 _symmetry_equiv_pos_site_id
 _symmetry_equiv_pos_as_xyz
  1  'x, y, z'
loop_
 _atom_site_type_symbol
 _atom_site_label
 _atom_site_symmetry_multiplicity
 _atom_site_fract_x
 _atom_site_fract_y
 _atom_site_fract_z
 _atom_site_occupancy
  Tb  Tb0  1  0.000000  0.324319  0.414102  1
  Tb  Tb1  1  0.000000  0.676015  0.585967  1
  Tb  Tb2  1  0.000000  0.824025  0.085958  1
  Tb  Tb3  1  0.000000  0.176148  0.914239  1
  Tb  Tb4  1  0.000000  0.942609  0.369040  1
  Tb  Tb5  1  0.000000  0.057930  0.629971  1
  Tb  Tb6  1  0.000000  0.442582  0.130848  1
  Dy  Dy7  1  0.000000  0.556368  0.869558  1
  Re  Re8  1  0.000000  0.861392  0.820768  1
  Tc  Tc9  1  0.000000  0.638564  0.320662  1
  Tc  Tc10  1  0.000000  0.361585  0.679414  1
  Tc  Tc11  1  0.000000  0.138600  0.179403  1
  B  B12  1  0.500000  0.553653  0.432698  1
  B  B13  1  0.500000  0.446617  0.567400  1
  B  B14  1  0.500000  0.053601  0.067458  1
  B  B15  1  0.500000  0.946580  0.932826  1
  B  B16  1  0.500000  0.748491  0.418222  1
  B  B17  1  0.500000  0.251863  0.581650  1
  B  B18  1  0.500000  0.248366  0.081819  1
  B  B19  1  0.500000  0.750942  0.918377  1
  B  B20  1  0.500000  0.791235  0.265250  1
  B  B21  1  0.500000  0.208730  0.734591  1
  B  B22  1  0.500000  0.291228  0.234845  1
  B  B23  1  0.500000  0.708197  0.765430  1
  B  B24  1  0.500000  0.630893  0.186023  1
  B  B25  1  0.500000  0.368993  0.814118  1
  B  B26  1  0.500000  0.131009  0.314044  1
  B  B27  1  0.500000  0.869230  0.685847  1
  B  B28  1  0.500000  0.982970  0.211462  1
  B  B29  1  0.500000  0.017370  0.788259  1
  B  B30  1  0.500000  0.482949  0.288538  1
  B  B31  1  0.500000  0.517144  0.711796  1
  B  B32  1  0.500000  0.600220  0.027950  1
  B  B33  1  0.500000  0.399296  0.971951  1
  B  B34  1  0.500000  0.100631  0.471608  1
  B  B35  1  0.500000  0.899657  0.527909  1
