# generated using pymatgen
data_Sm8ErLu11Si16
_symmetry_space_group_name_H-M   'P 1'
_cell_length_a   7.35218901
_cell_length_b   7.66007990
_cell_length_c   14.52446076
_cell_angle_alpha   89.97928953
_cell_angle_beta   90.03083151
_cell_angle_gamma   90.05158832
_symmetry_Int_Tables_number   1
_chemical_formula_structural   Sm8ErLu11Si16
_chemical_formula_sum   'Sm8 Er1 Lu11 Si16'
_cell_volume   817.99323808
_cell_formula_units_Z   1
loop_
 _symmetry_equiv_pos_site_id
 _symmetry_equiv_pos_as_xyz
  1  'x, y, z'
loop_
 _atom_site_type_symbol
 _atom_site_label
 _atom_site_symmetry_multiplicity
 _atom_site_fract_x
 _atom_site_fract_y
 _atom_site_fract_z
 _atom_site_occupancy
  Sm  Sm0  1  0.014077  0.175952  0.097668  1
  Sm  Sm1  1  0.985887  0.823926  0.902409  1
  Sm  Sm2  1  0.485955  0.675913  0.902446  1
  Sm  Sm3  1  0.985617  0.823938  0.597611  1
  Sm  Sm4  1  0.513967  0.324053  0.097737  1
  Sm  Sm5  1  0.014051  0.175911  0.402225  1
  Sm  Sm6  1  0.514085  0.324044  0.402107  1
  Sm  Sm7  1  0.485993  0.676022  0.597607  1
  Er  Er8  1  0.329039  0.177497  0.623567  1
  Lu  Lu9  1  0.161246  0.508383  0.750229  1
  Lu  Lu10  1  0.838705  0.492109  0.249960  1
  Lu  Lu11  1  0.338689  0.007985  0.249981  1
  Lu  Lu12  1  0.661520  0.991938  0.750149  1
  Lu  Lu13  1  0.671074  0.822653  0.376072  1
  Lu  Lu14  1  0.171198  0.677310  0.376076  1
  Lu  Lu15  1  0.671047  0.822766  0.123806  1
  Lu  Lu16  1  0.828850  0.322864  0.623785  1
  Lu  Lu17  1  0.328878  0.177324  0.876410  1
  Lu  Lu18  1  0.828901  0.322769  0.876395  1
  Lu  Lu19  1  0.171040  0.677226  0.123796  1
  Si  Si20  1  0.033146  0.114820  0.750496  1
  Si  Si21  1  0.965942  0.884986  0.249958  1
  Si  Si22  1  0.465941  0.614982  0.249956  1
  Si  Si23  1  0.534799  0.385725  0.750408  1
  Si  Si24  1  0.282435  0.874231  0.750341  1
  Si  Si25  1  0.717367  0.125128  0.249986  1
  Si  Si26  1  0.217418  0.374832  0.249962  1
  Si  Si27  1  0.782516  0.625004  0.750018  1
  Si  Si28  1  0.154549  0.467353  0.538757  1
  Si  Si29  1  0.844591  0.533625  0.460915  1
  Si  Si30  1  0.344851  0.965719  0.460347  1
  Si  Si31  1  0.844482  0.533515  0.039114  1
  Si  Si32  1  0.656553  0.033065  0.538722  1
  Si  Si33  1  0.155629  0.466479  0.960957  1
  Si  Si34  1  0.655449  0.033566  0.961022  1
  Si  Si35  1  0.344511  0.966389  0.039005  1
