# generated using pymatgen
data_SrLa3(IrO6)2
_symmetry_space_group_name_H-M   'P 1'
_cell_length_a   5.53387300
_cell_length_b   9.56114025
_cell_length_c   10.31177404
_cell_angle_alpha   90.26288758
_cell_angle_beta   90.00000000
_cell_angle_gamma   90.00000000
_symmetry_Int_Tables_number   1
_chemical_formula_structural   SrLa3(IrO6)2
_chemical_formula_sum   'Sr2 La6 Ir4 O24'
_cell_volume   545.59162258
_cell_formula_units_Z   2
loop_
 _symmetry_equiv_pos_site_id
 _symmetry_equiv_pos_as_xyz
  1  'x, y, z'
loop_
 _atom_site_type_symbol
 _atom_site_label
 _atom_site_symmetry_multiplicity
 _atom_site_fract_x
 _atom_site_fract_y
 _atom_site_fract_z
 _atom_site_occupancy
  Sr  Sr0  1  0.526211  0.101854  0.960700  1
  Sr  Sr1  1  0.026211  0.398146  0.039300  1
  La  La2  1  0.473620  0.602137  0.541720  1
  La  La3  1  0.973620  0.897863  0.458280  1
  La  La4  1  0.530275  0.218153  0.363382  1
  La  La5  1  0.030275  0.281847  0.636618  1
  La  La6  1  0.466293  0.720870  0.134609  1
  La  La7  1  0.966293  0.779130  0.865391  1
  Ir  Ir8  1  0.456935  0.997397  0.639895  1
  Ir  Ir9  1  0.956935  0.502603  0.360105  1
  Ir  Ir10  1  0.543449  0.497350  0.861399  1
  Ir  Ir11  1  0.043449  0.002650  0.138601  1
  O  O12  1  0.305214  0.126268  0.185187  1
  O  O13  1  0.805214  0.373732  0.814813  1
  O  O14  1  0.690782  0.629485  0.323133  1
  O  O15  1  0.190782  0.870515  0.676867  1
  O  O16  1  0.722011  0.111373  0.563098  1
  O  O17  1  0.222011  0.388627  0.436902  1
  O  O18  1  0.281083  0.615665  0.932518  1
  O  O19  1  0.781083  0.884335  0.067482  1
  O  O20  1  0.670719  0.638701  0.745152  1
  O  O21  1  0.170719  0.861299  0.254848  1
  O  O22  1  0.325154  0.138580  0.749716  1
  O  O23  1  0.825154  0.361420  0.250284  1
  O  O24  1  0.663649  0.939104  0.774312  1
  O  O25  1  0.163649  0.560896  0.225688  1
  O  O26  1  0.337369  0.443115  0.720673  1
  O  O27  1  0.837369  0.056885  0.279327  1
  O  O28  1  0.250295  0.086151  0.503326  1
  O  O29  1  0.750295  0.413849  0.496674  1
  O  O30  1  0.744711  0.592453  0.992650  1
  O  O31  1  0.244711  0.907547  0.007350  1
  O  O32  1  0.062705  0.647919  0.482491  1
  O  O33  1  0.562705  0.852081  0.517509  1
  O  O34  1  0.949525  0.141913  0.020385  1
  O  O35  1  0.449525  0.358087  0.979615  1
