# generated using pymatgen
data_Lu6Pa2AlPd24
_symmetry_space_group_name_H-M   'P 1'
_cell_length_a   8.28400900
_cell_length_b   8.34353543
_cell_length_c   8.34353600
_cell_angle_alpha   90.80055666
_cell_angle_beta   90.00000000
_cell_angle_gamma   90.00000000
_symmetry_Int_Tables_number   1
_chemical_formula_structural   Lu6Pa2AlPd24
_chemical_formula_sum   'Lu6 Pa2 Al1 Pd24'
_cell_volume   576.63158369
_cell_formula_units_Z   1
loop_
 _symmetry_equiv_pos_site_id
 _symmetry_equiv_pos_as_xyz
  1  'x, y, z'
loop_
 _atom_site_type_symbol
 _atom_site_label
 _atom_site_symmetry_multiplicity
 _atom_site_fract_x
 _atom_site_fract_y
 _atom_site_fract_z
 _atom_site_occupancy
  Lu  Lu0  1  0.748804  0.251262  0.251262  1
  Lu  Lu1  1  0.748804  0.748738  0.748738  1
  Lu  Lu2  1  0.748720  0.745879  0.254121  1
  Lu  Lu3  1  0.748720  0.254121  0.745879  1
  Lu  Lu4  1  0.252340  0.749766  0.749766  1
  Lu  Lu5  1  0.252340  0.250234  0.250234  1
  Pa  Pa6  1  0.255712  0.256104  0.743896  1
  Pa  Pa7  1  0.255712  0.743896  0.256104  1
  Al  Al8  1  0.989846  0.000000  0.000000  1
  Pd  Pd9  1  0.500115  0.501070  0.747533  1
  Pd  Pd10  1  0.500115  0.252467  0.498930  1
  Pd  Pd11  1  0.254915  0.500000  0.500000  1
  Pd  Pd12  1  0.500115  0.498930  0.252467  1
  Pd  Pd13  1  0.500115  0.747533  0.501070  1
  Pd  Pd14  1  0.749947  0.500000  0.500000  1
  Pd  Pd15  1  0.001376  0.004238  0.714943  1
  Pd  Pd16  1  0.001376  0.285057  0.995762  1
  Pd  Pd17  1  0.279162  0.000000  0.000000  1
  Pd  Pd18  1  0.001376  0.995762  0.285057  1
  Pd  Pd19  1  0.001376  0.714943  0.004238  1
  Pd  Pd20  1  0.705966  0.000000  0.000000  1
  Pd  Pd21  1  0.003998  0.500209  0.742326  1
  Pd  Pd22  1  0.496372  0.258877  0.995215  1
  Pd  Pd23  1  0.258075  0.000000  0.500000  1
  Pd  Pd24  1  0.003998  0.257674  0.499791  1
  Pd  Pd25  1  0.496372  0.004785  0.741123  1
  Pd  Pd26  1  0.258075  0.500000  0.000000  1
  Pd  Pd27  1  0.003998  0.499791  0.257674  1
  Pd  Pd28  1  0.496372  0.741123  0.004785  1
  Pd  Pd29  1  0.003998  0.742326  0.500209  1
  Pd  Pd30  1  0.496372  0.995215  0.258877  1
  Pd  Pd31  1  0.742709  0.000000  0.500000  1
  Pd  Pd32  1  0.742709  0.500000  0.000000  1
