# generated using pymatgen
data_TmLu2ReB7
_symmetry_space_group_name_H-M   'P 1'
_cell_length_a   7.92279533
_cell_length_b   7.92279491
_cell_length_c   9.24664000
_cell_angle_alpha   90.00000000
_cell_angle_beta   90.00000000
_cell_angle_gamma   154.57774582
_symmetry_Int_Tables_number   1
_chemical_formula_structural   TmLu2ReB7
_chemical_formula_sum   'Tm2 Lu4 Re2 B14'
_cell_volume   249.16525947
_cell_formula_units_Z   2
loop_
 _symmetry_equiv_pos_site_id
 _symmetry_equiv_pos_as_xyz
  1  'x, y, z'
loop_
 _atom_site_type_symbol
 _atom_site_label
 _atom_site_symmetry_multiplicity
 _atom_site_fract_x
 _atom_site_fract_y
 _atom_site_fract_z
 _atom_site_occupancy
  Tm  Tm0  1  0.243735  0.756265  0.250000  1
  Tm  Tm1  1  0.756265  0.243735  0.750000  1
  Lu  Lu2  1  0.894510  0.105490  0.058941  1
  Lu  Lu3  1  0.105490  0.894510  0.558941  1
  Lu  Lu4  1  0.105490  0.894510  0.941059  1
  Lu  Lu5  1  0.894510  0.105490  0.441059  1
  Re  Re6  1  0.051790  0.948210  0.250000  1
  Re  Re7  1  0.948210  0.051790  0.750000  1
  B  B8  1  0.452551  0.547449  0.250000  1
  B  B9  1  0.547449  0.452551  0.750000  1
  B  B10  1  0.727601  0.272399  0.033467  1
  B  B11  1  0.272399  0.727601  0.533467  1
  B  B12  1  0.272399  0.727601  0.966533  1
  B  B13  1  0.727601  0.272399  0.466533  1
  B  B14  1  0.632471  0.367529  0.349917  1
  B  B15  1  0.367529  0.632471  0.849917  1
  B  B16  1  0.367529  0.632471  0.650083  1
  B  B17  1  0.632471  0.367529  0.150083  1
  B  B18  1  0.519415  0.480585  0.405881  1
  B  B19  1  0.480585  0.519415  0.905881  1
  B  B20  1  0.480585  0.519415  0.594119  1
  B  B21  1  0.519415  0.480585  0.094119  1
