# generated using pymatgen
data_Th3Sc3(Be2Rh5)2
_symmetry_space_group_name_H-M   'P 1'
_cell_length_a   9.75777848
_cell_length_b   9.75777848
_cell_length_c   3.40354200
_cell_angle_alpha   90.00000000
_cell_angle_beta   90.00000000
_cell_angle_gamma   90.34208017
_symmetry_Int_Tables_number   1
_chemical_formula_structural   Th3Sc3(Be2Rh5)2
_chemical_formula_sum   'Th3 Sc3 Be4 Rh10'
_cell_volume   324.05989186
_cell_formula_units_Z   1
loop_
 _symmetry_equiv_pos_site_id
 _symmetry_equiv_pos_as_xyz
  1  'x, y, z'
loop_
 _atom_site_type_symbol
 _atom_site_label
 _atom_site_symmetry_multiplicity
 _atom_site_fract_x
 _atom_site_fract_y
 _atom_site_fract_z
 _atom_site_occupancy
  Th  Th0  1  0.825956  0.325956  0.000000  1
  Th  Th1  1  0.321384  0.176031  0.000000  1
  Th  Th2  1  0.676031  0.821384  0.000000  1
  Sc  Sc3  1  0.175124  0.675124  0.000000  1
  Sc  Sc4  1  0.003787  0.993094  0.000000  1
  Sc  Sc5  1  0.493094  0.503787  0.000000  1
  Be  Be6  1  0.617853  0.117853  0.000000  1
  Be  Be7  1  0.122382  0.393054  0.000000  1
  Be  Be8  1  0.893054  0.622382  0.000000  1
  Be  Be9  1  0.371707  0.871707  0.000000  1
  Rh  Rh10  1  0.070703  0.220813  0.500000  1
  Rh  Rh11  1  0.215407  0.923596  0.500000  1
  Rh  Rh12  1  0.780876  0.069836  0.500000  1
  Rh  Rh13  1  0.933431  0.781857  0.500000  1
  Rh  Rh14  1  0.423596  0.715407  0.500000  1
  Rh  Rh15  1  0.569836  0.280876  0.500000  1
  Rh  Rh16  1  0.720813  0.570703  0.500000  1
  Rh  Rh17  1  0.281857  0.433431  0.500000  1
  Rh  Rh18  1  0.497456  0.997456  0.500000  1
  Rh  Rh19  1  0.005649  0.505649  0.500000  1
