# generated using pymatgen
data_CePr3In2Ir3
_symmetry_space_group_name_H-M   'P 1'
_cell_length_a   7.64787998
_cell_length_b   7.49636537
_cell_length_c   4.33212200
_cell_angle_alpha   90.00000000
_cell_angle_beta   90.00000000
_cell_angle_gamma   119.34677891
_symmetry_Int_Tables_number   1
_chemical_formula_structural   CePr3In2Ir3
_chemical_formula_sum   'Ce1 Pr3 In2 Ir3'
_cell_volume   216.49322099
_cell_formula_units_Z   1
loop_
 _symmetry_equiv_pos_site_id
 _symmetry_equiv_pos_as_xyz
  1  'x, y, z'
loop_
 _atom_site_type_symbol
 _atom_site_label
 _atom_site_symmetry_multiplicity
 _atom_site_fract_x
 _atom_site_fract_y
 _atom_site_fract_z
 _atom_site_occupancy
  Ce  Ce0  1  0.000000  0.260401  0.500000  1
  Pr  Pr1  1  0.435893  0.410531  0.000000  1
  Pr  Pr2  1  0.564107  0.974637  0.000000  1
  Pr  Pr3  1  0.000000  0.617228  0.000000  1
  In  In4  1  0.749462  0.752210  0.500000  1
  In  In5  1  0.250538  0.002748  0.500000  1
  Ir  Ir6  1  0.000000  0.008415  0.000000  1
  Ir  Ir7  1  0.324272  0.649052  0.500000  1
  Ir  Ir8  1  0.675728  0.324780  0.500000  1
