# generated using pymatgen
data_Dy3Ho5Tc2(B12Os)2
_symmetry_space_group_name_H-M   'P 1'
_cell_length_a   3.66284800
_cell_length_b   9.14229038
_cell_length_c   11.52871600
_cell_angle_alpha   89.91883899
_cell_angle_beta   90.00000000
_cell_angle_gamma   90.00000000
_symmetry_Int_Tables_number   1
_chemical_formula_structural   Dy3Ho5Tc2(B12Os)2
_chemical_formula_sum   'Dy3 Ho5 Tc2 B24 Os2'
_cell_volume   386.05965069
_cell_formula_units_Z   1
loop_
 _symmetry_equiv_pos_site_id
 _symmetry_equiv_pos_as_xyz
  1  'x, y, z'
loop_
 _atom_site_type_symbol
 _atom_site_label
 _atom_site_symmetry_multiplicity
 _atom_site_fract_x
 _atom_site_fract_y
 _atom_site_fract_z
 _atom_site_occupancy
  Dy  Dy0  1  0.000000  0.324649  0.415353  1
  Dy  Dy1  1  0.000000  0.675334  0.584682  1
  Dy  Dy2  1  0.000000  0.820900  0.087269  1
  Ho  Ho3  1  0.000000  0.179214  0.912697  1
  Ho  Ho4  1  0.000000  0.941571  0.370961  1
  Ho  Ho5  1  0.000000  0.058454  0.629059  1
  Ho  Ho6  1  0.000000  0.443508  0.129845  1
  Ho  Ho7  1  0.000000  0.556393  0.870118  1
  Tc  Tc8  1  0.000000  0.638395  0.320191  1
  Tc  Tc9  1  0.000000  0.361493  0.679921  1
  B  B10  1  0.500000  0.553057  0.432924  1
  B  B11  1  0.500000  0.446906  0.567116  1
  B  B12  1  0.500000  0.053743  0.066861  1
  B  B13  1  0.500000  0.946506  0.932991  1
  B  B14  1  0.500000  0.748315  0.418726  1
  B  B15  1  0.500000  0.251688  0.581334  1
  B  B16  1  0.500000  0.248705  0.081190  1
  B  B17  1  0.500000  0.751305  0.918557  1
  B  B18  1  0.500000  0.791176  0.265389  1
  B  B19  1  0.500000  0.208709  0.734800  1
  B  B20  1  0.500000  0.290448  0.234205  1
  B  B21  1  0.500000  0.709569  0.765746  1
  B  B22  1  0.500000  0.630984  0.185268  1
  B  B23  1  0.500000  0.368828  0.814866  1
  B  B24  1  0.500000  0.130539  0.313952  1
  B  B25  1  0.500000  0.869534  0.686052  1
  B  B26  1  0.500000  0.982697  0.212020  1
  B  B27  1  0.500000  0.017578  0.788043  1
  B  B28  1  0.500000  0.482487  0.287527  1
  B  B29  1  0.500000  0.517439  0.712488  1
  B  B30  1  0.500000  0.603069  0.028367  1
  B  B31  1  0.500000  0.396613  0.971535  1
  B  B32  1  0.500000  0.103096  0.471181  1
  B  B33  1  0.500000  0.896932  0.528846  1
  Os  Os34  1  0.000000  0.137357  0.178136  1
  Os  Os35  1  0.000000  0.862809  0.821785  1
