# generated using pymatgen
data_Cs4USbI12
_symmetry_space_group_name_H-M   'P 1'
_cell_length_a   8.54651200
_cell_length_b   8.54651200
_cell_length_c   12.43080600
_cell_angle_alpha   90.00000000
_cell_angle_beta   90.00000000
_cell_angle_gamma   90.00000000
_symmetry_Int_Tables_number   1
_chemical_formula_structural   Cs4USbI12
_chemical_formula_sum   'Cs4 U1 Sb1 I12'
_cell_volume   907.98171393
_cell_formula_units_Z   1
loop_
 _symmetry_equiv_pos_site_id
 _symmetry_equiv_pos_as_xyz
  1  'x, y, z'
loop_
 _atom_site_type_symbol
 _atom_site_label
 _atom_site_symmetry_multiplicity
 _atom_site_fract_x
 _atom_site_fract_y
 _atom_site_fract_z
 _atom_site_occupancy
  Cs  Cs0  1  0.500000  0.000000  0.784531  1
  Cs  Cs1  1  0.500000  0.000000  0.215469  1
  Cs  Cs2  1  0.000000  0.500000  0.215469  1
  Cs  Cs3  1  0.000000  0.500000  0.784531  1
  U  U4  1  0.500000  0.500000  0.500000  1
  Sb  Sb5  1  0.000000  0.000000  0.000000  1
  I  I6  1  0.754189  0.258543  0.000000  1
  I  I7  1  0.245811  0.741457  0.000000  1
  I  I8  1  0.500000  0.500000  0.262415  1
  I  I9  1  0.286799  0.231197  0.500000  1
  I  I10  1  0.258543  0.245811  0.000000  1
  I  I11  1  0.768803  0.286799  0.500000  1
  I  I12  1  0.000000  0.000000  0.247083  1
  I  I13  1  0.713201  0.768803  0.500000  1
  I  I14  1  0.231197  0.713201  0.500000  1
  I  I15  1  0.500000  0.500000  0.737585  1
  I  I16  1  0.741457  0.754189  0.000000  1
  I  I17  1  0.000000  0.000000  0.752917  1
