# generated using pymatgen
data_Dy3Er(SiRu)4
_symmetry_space_group_name_H-M   'P 1'
_cell_length_a   4.34833100
_cell_length_b   6.98145607
_cell_length_c   7.08081308
_cell_angle_alpha   89.98328785
_cell_angle_beta   90.00000000
_cell_angle_gamma   90.00000000
_symmetry_Int_Tables_number   1
_chemical_formula_structural   Dy3Er(SiRu)4
_chemical_formula_sum   'Dy3 Er1 Si4 Ru4'
_cell_volume   214.95706160
_cell_formula_units_Z   1
loop_
 _symmetry_equiv_pos_site_id
 _symmetry_equiv_pos_as_xyz
  1  'x, y, z'
loop_
 _atom_site_type_symbol
 _atom_site_label
 _atom_site_symmetry_multiplicity
 _atom_site_fract_x
 _atom_site_fract_y
 _atom_site_fract_z
 _atom_site_occupancy
  Dy  Dy0  1  0.250000  0.984715  0.813358  1
  Dy  Dy1  1  0.750000  0.015664  0.186357  1
  Dy  Dy2  1  0.250000  0.484758  0.685980  1
  Er  Er3  1  0.750000  0.515776  0.312393  1
  Si  Si4  1  0.250000  0.304642  0.106587  1
  Si  Si5  1  0.750000  0.695447  0.894974  1
  Si  Si6  1  0.250000  0.803703  0.394229  1
  Si  Si7  1  0.750000  0.196089  0.604803  1
  Ru  Ru8  1  0.750000  0.846222  0.567121  1
  Ru  Ru9  1  0.250000  0.153210  0.432145  1
  Ru  Ru10  1  0.750000  0.347421  0.933240  1
  Ru  Ru11  1  0.250000  0.652354  0.068813  1
