# generated using pymatgen
data_YbPrOs4
_symmetry_space_group_name_H-M   'P 1'
_cell_length_a   5.32143700
_cell_length_b   5.32143621
_cell_length_c   9.05579300
_cell_angle_alpha   90.00000000
_cell_angle_beta   90.00000000
_cell_angle_gamma   119.99999871
_symmetry_Int_Tables_number   1
_chemical_formula_structural   YbPrOs4
_chemical_formula_sum   'Yb2 Pr2 Os8'
_cell_volume   222.08279228
_cell_formula_units_Z   2
loop_
 _symmetry_equiv_pos_site_id
 _symmetry_equiv_pos_as_xyz
  1  'x, y, z'
loop_
 _atom_site_type_symbol
 _atom_site_label
 _atom_site_symmetry_multiplicity
 _atom_site_fract_x
 _atom_site_fract_y
 _atom_site_fract_z
 _atom_site_occupancy
  Yb  Yb0  1  0.333333  0.666667  0.568126  1
  Yb  Yb1  1  0.333333  0.666667  0.931873  1
  Pr  Pr2  1  0.666666  0.333332  0.058739  1
  Pr  Pr3  1  0.666666  0.333332  0.441260  1
  Os  Os4  1  0.000000  0.000000  0.999465  1
  Os  Os5  1  0.171820  0.343642  0.250000  1
  Os  Os6  1  0.171820  0.828180  0.250000  1
  Os  Os7  1  0.656359  0.828180  0.250000  1
  Os  Os8  1  0.000000  0.000000  0.500535  1
  Os  Os9  1  0.339495  0.169747  0.750000  1
  Os  Os10  1  0.830251  0.169747  0.750000  1
  Os  Os11  1  0.830251  0.660502  0.750000  1
