# generated using pymatgen
data_Zr3Sc(AlRe3)2
_symmetry_space_group_name_H-M   'P 1'
_cell_length_a   5.27801500
_cell_length_b   5.27801555
_cell_length_c   8.66553700
_cell_angle_alpha   90.00000000
_cell_angle_beta   90.00000000
_cell_angle_gamma   119.99999026
_symmetry_Int_Tables_number   1
_chemical_formula_structural   Zr3Sc(AlRe3)2
_chemical_formula_sum   'Zr3 Sc1 Al2 Re6'
_cell_volume   209.05831281
_cell_formula_units_Z   1
loop_
 _symmetry_equiv_pos_site_id
 _symmetry_equiv_pos_as_xyz
  1  'x, y, z'
loop_
 _atom_site_type_symbol
 _atom_site_label
 _atom_site_symmetry_multiplicity
 _atom_site_fract_x
 _atom_site_fract_y
 _atom_site_fract_z
 _atom_site_occupancy
  Zr  Zr0  1  0.666667  0.333333  0.934449  1
  Zr  Zr1  1  0.666667  0.333333  0.564060  1
  Zr  Zr2  1  0.333333  0.666667  0.066785  1
  Sc  Sc3  1  0.333333  0.666667  0.435453  1
  Al  Al4  1  0.000000  0.000000  0.999719  1
  Al  Al5  1  0.000000  0.000000  0.499308  1
  Re  Re6  1  0.170270  0.340538  0.750154  1
  Re  Re7  1  0.830213  0.169787  0.249921  1
  Re  Re8  1  0.339573  0.169787  0.249921  1
  Re  Re9  1  0.659462  0.829730  0.750154  1
  Re  Re10  1  0.830213  0.660427  0.249921  1
  Re  Re11  1  0.170270  0.829730  0.750154  1
