# generated using pymatgen
data_ErTm2(SnPt)3
_symmetry_space_group_name_H-M   'P 1'
_cell_length_a   7.50324819
_cell_length_b   7.49332095
_cell_length_c   3.98249300
_cell_angle_alpha   90.00000000
_cell_angle_beta   90.00000000
_cell_angle_gamma   119.95624960
_symmetry_Int_Tables_number   1
_chemical_formula_structural   ErTm2(SnPt)3
_chemical_formula_sum   'Er1 Tm2 Sn3 Pt3'
_cell_volume   193.99949206
_cell_formula_units_Z   1
loop_
 _symmetry_equiv_pos_site_id
 _symmetry_equiv_pos_as_xyz
  1  'x, y, z'
loop_
 _atom_site_type_symbol
 _atom_site_label
 _atom_site_symmetry_multiplicity
 _atom_site_fract_x
 _atom_site_fract_y
 _atom_site_fract_z
 _atom_site_occupancy
  Er  Er0  1  0.000000  0.594389  0.500000  1
  Tm  Tm1  1  0.405348  0.405372  0.500000  1
  Tm  Tm2  1  0.594652  0.000024  0.500000  1
  Sn  Sn3  1  0.740187  0.740400  0.000000  1
  Sn  Sn4  1  0.259813  0.000213  0.000000  1
  Sn  Sn5  1  0.000000  0.259650  0.000000  1
  Pt  Pt6  1  0.665817  0.332663  0.000000  1
  Pt  Pt7  1  0.334183  0.666847  0.000000  1
  Pt  Pt8  1  0.000000  0.000442  0.500000  1
