# generated using pymatgen
data_CdNiF5
_symmetry_space_group_name_H-M   'P 1'
_cell_length_a   5.50815182
_cell_length_b   5.50829674
_cell_length_c   7.66429250
_cell_angle_alpha   69.74383840
_cell_angle_beta   69.75617272
_cell_angle_gamma   71.53177287
_symmetry_Int_Tables_number   1
_chemical_formula_structural   CdNiF5
_chemical_formula_sum   'Cd2 Ni2 F10'
_cell_volume   199.48998435
_cell_formula_units_Z   2
loop_
 _symmetry_equiv_pos_site_id
 _symmetry_equiv_pos_as_xyz
  1  'x, y, z'
loop_
 _atom_site_type_symbol
 _atom_site_label
 _atom_site_symmetry_multiplicity
 _atom_site_fract_x
 _atom_site_fract_y
 _atom_site_fract_z
 _atom_site_occupancy
  Cd  Cd0  1  0.550854  0.449208  0.249892  1
  Cd  Cd1  1  0.449146  0.550792  0.750108  1
  Ni  Ni2  1  0.000000  0.000000  0.500000  1
  Ni  Ni3  1  0.000000  0.000000  0.000000  1
  F  F4  1  0.082612  0.917446  0.750070  1
  F  F5  1  0.917388  0.082554  0.249930  1
  F  F6  1  0.206934  0.250415  0.881857  1
  F  F7  1  0.749659  0.793145  0.618068  1
  F  F8  1  0.720822  0.308231  0.530091  1
  F  F9  1  0.691588  0.279377  0.970132  1
  F  F10  1  0.279178  0.691769  0.469909  1
  F  F11  1  0.308412  0.720623  0.029868  1
  F  F12  1  0.250341  0.206855  0.381932  1
  F  F13  1  0.793066  0.749585  0.118143  1
