# generated using pymatgen
data_Ta12Al8IrRh3C4
_symmetry_space_group_name_H-M   'P 1'
_cell_length_a   8.32446253
_cell_length_b   8.32446288
_cell_length_c   8.32446181
_cell_angle_alpha   59.84921752
_cell_angle_beta   59.84921461
_cell_angle_gamma   59.84921831
_symmetry_Int_Tables_number   1
_chemical_formula_structural   Ta12Al8IrRh3C4
_chemical_formula_sum   'Ta12 Al8 Ir1 Rh3 C4'
_cell_volume   406.50411651
_cell_formula_units_Z   1
loop_
 _symmetry_equiv_pos_site_id
 _symmetry_equiv_pos_as_xyz
  1  'x, y, z'
loop_
 _atom_site_type_symbol
 _atom_site_label
 _atom_site_symmetry_multiplicity
 _atom_site_fract_x
 _atom_site_fract_y
 _atom_site_fract_z
 _atom_site_occupancy
  Ta  Ta0  1  0.564973  0.935742  0.564973  1
  Ta  Ta1  1  0.314258  0.685027  0.685027  1
  Ta  Ta2  1  0.688030  0.313915  0.313915  1
  Ta  Ta3  1  0.313915  0.688030  0.313915  1
  Ta  Ta4  1  0.685027  0.685027  0.314258  1
  Ta  Ta5  1  0.313915  0.313915  0.688030  1
  Ta  Ta6  1  0.564973  0.564973  0.935742  1
  Ta  Ta7  1  0.935742  0.564973  0.564973  1
  Ta  Ta8  1  0.561970  0.936085  0.936085  1
  Ta  Ta9  1  0.936085  0.936085  0.561970  1
  Ta  Ta10  1  0.685027  0.314258  0.685027  1
  Ta  Ta11  1  0.936085  0.561970  0.936085  1
  Al  Al12  1  0.916238  0.916238  0.916238  1
  Al  Al13  1  0.000808  0.334272  0.334272  1
  Al  Al14  1  0.334272  0.000808  0.334272  1
  Al  Al15  1  0.334272  0.334272  0.000808  1
  Al  Al16  1  0.915728  0.249192  0.915728  1
  Al  Al17  1  0.915728  0.915728  0.249192  1
  Al  Al18  1  0.249192  0.915728  0.915728  1
  Al  Al19  1  0.333762  0.333762  0.333762  1
  Ir  Ir20  1  0.125000  0.125000  0.125000  1
  Rh  Rh21  1  0.625000  0.125000  0.125000  1
  Rh  Rh22  1  0.125000  0.625000  0.125000  1
  Rh  Rh23  1  0.125000  0.125000  0.625000  1
  C  C24  1  0.625000  0.625000  0.625000  1
  C  C25  1  0.125000  0.625000  0.625000  1
  C  C26  1  0.625000  0.125000  0.625000  1
  C  C27  1  0.625000  0.625000  0.125000  1
