# generated using pymatgen
data_Tb9Ho(IrRu)2
_symmetry_space_group_name_H-M   'P 1'
_cell_length_a   6.42330464
_cell_length_b   7.28415592
_cell_length_c   8.56197696
_cell_angle_alpha   96.74832716
_cell_angle_beta   112.03089439
_cell_angle_gamma   89.99999147
_symmetry_Int_Tables_number   1
_chemical_formula_structural   Tb9Ho(IrRu)2
_chemical_formula_sum   'Tb9 Ho1 Ir2 Ru2'
_cell_volume   368.35388396
_cell_formula_units_Z   1
loop_
 _symmetry_equiv_pos_site_id
 _symmetry_equiv_pos_as_xyz
  1  'x, y, z'
loop_
 _atom_site_type_symbol
 _atom_site_label
 _atom_site_symmetry_multiplicity
 _atom_site_fract_x
 _atom_site_fract_y
 _atom_site_fract_z
 _atom_site_occupancy
  Tb  Tb0  1  0.979617  0.917475  0.186330  1
  Tb  Tb1  1  0.793288  0.582525  0.813670  1
  Tb  Tb2  1  0.022363  0.085722  0.814494  1
  Tb  Tb3  1  0.207870  0.414278  0.185506  1
  Tb  Tb4  1  0.641967  0.815428  0.434104  1
  Tb  Tb5  1  0.207863  0.684572  0.565896  1
  Tb  Tb6  1  0.357307  0.186527  0.564674  1
  Tb  Tb7  1  0.792634  0.313473  0.435326  1
  Tb  Tb8  1  0.423711  0.750000  0.000000  1
  Ho  Ho9  1  0.574440  0.250000  0.000000  1
  Ir  Ir10  1  0.822616  0.575674  0.220363  1
  Ir  Ir11  1  0.602253  0.924326  0.779637  1
  Ru  Ru12  1  0.176669  0.424952  0.779268  1
  Ru  Ru13  1  0.397401  0.075048  0.220732  1
