# generated using pymatgen
data_Sr3LaCrFeO8
_symmetry_space_group_name_H-M   'P 1'
_cell_length_a   5.48244400
_cell_length_b   12.71776400
_cell_length_c   5.50062200
_cell_angle_alpha   89.99882371
_cell_angle_beta   89.99993798
_cell_angle_gamma   90.00362351
_symmetry_Int_Tables_number   1
_chemical_formula_structural   Sr3LaCrFeO8
_chemical_formula_sum   'Sr6 La2 Cr2 Fe2 O16'
_cell_volume   383.52772735
_cell_formula_units_Z   2
loop_
 _symmetry_equiv_pos_site_id
 _symmetry_equiv_pos_as_xyz
  1  'x, y, z'
loop_
 _atom_site_type_symbol
 _atom_site_label
 _atom_site_symmetry_multiplicity
 _atom_site_fract_x
 _atom_site_fract_y
 _atom_site_fract_z
 _atom_site_occupancy
  Sr  Sr0  1  0.500007  0.145540  0.000000  1
  Sr  Sr1  1  0.499999  0.645544  0.499997  1
  Sr  Sr2  1  0.000008  0.144068  0.500002  1
  Sr  Sr3  1  0.999995  0.644069  0.999997  1
  Sr  Sr4  1  0.000006  0.353419  0.000008  1
  Sr  Sr5  1  0.999980  0.853422  0.499985  1
  La  La6  1  0.500005  0.356910  0.500021  1
  La  La7  1  0.500041  0.856917  0.000006  1
  Cr  Cr8  1  0.000022  0.501538  0.500010  1
  Cr  Cr9  1  0.999951  0.001555  0.999996  1
  Fe  Fe10  1  0.500013  0.000794  0.499988  1
  Fe  Fe11  1  0.499999  0.500796  0.999999  1
  O  O12  1  0.000025  0.338113  0.500002  1
  O  O13  1  0.999886  0.838114  0.999989  1
  O  O14  1  0.500022  0.337984  0.999998  1
  O  O15  1  0.499985  0.837985  0.500002  1
  O  O16  1  0.500010  0.172033  0.500004  1
  O  O17  1  0.499974  0.672032  0.999997  1
  O  O18  1  0.000024  0.158950  0.000036  1
  O  O19  1  0.999970  0.658949  0.500016  1
  O  O20  1  0.248521  0.497653  0.742355  1
  O  O21  1  0.248489  0.997659  0.242354  1
  O  O22  1  0.751528  0.497661  0.257624  1
  O  O23  1  0.751504  0.997662  0.757619  1
  O  O24  1  0.751532  0.497675  0.742377  1
  O  O25  1  0.751513  0.997673  0.242358  1
  O  O26  1  0.248507  0.497644  0.257637  1
  O  O27  1  0.248487  0.997649  0.757624  1
