# generated using pymatgen
data_BaSr9CrPN10
_symmetry_space_group_name_H-M   'P 1'
_cell_length_a   7.59654109
_cell_length_b   7.55691995
_cell_length_c   8.93765181
_cell_angle_alpha   76.45688428
_cell_angle_beta   76.63712889
_cell_angle_gamma   95.80557328
_symmetry_Int_Tables_number   1
_chemical_formula_structural   BaSr9CrPN10
_chemical_formula_sum   'Ba1 Sr9 Cr1 P1 N10'
_cell_volume   478.72338891
_cell_formula_units_Z   1
loop_
 _symmetry_equiv_pos_site_id
 _symmetry_equiv_pos_as_xyz
  1  'x, y, z'
loop_
 _atom_site_type_symbol
 _atom_site_label
 _atom_site_symmetry_multiplicity
 _atom_site_fract_x
 _atom_site_fract_y
 _atom_site_fract_z
 _atom_site_occupancy
  Ba  Ba0  1  0.090787  0.567148  0.737702  1
  Sr  Sr1  1  0.407696  0.390174  0.375945  1
  Sr  Sr2  1  0.605431  0.592678  0.624644  1
  Sr  Sr3  1  0.665394  0.668915  0.008390  1
  Sr  Sr4  1  0.327960  0.335957  0.992092  1
  Sr  Sr5  1  0.920493  0.928452  0.196240  1
  Sr  Sr6  1  0.071699  0.078721  0.808840  1
  Sr  Sr7  1  0.556860  0.093107  0.765412  1
  Sr  Sr8  1  0.905983  0.442354  0.234409  1
  Sr  Sr9  1  0.452441  0.913773  0.236247  1
  Cr  Cr10  1  0.242593  0.758226  0.003411  1
  P  P11  1  0.755908  0.240691  0.000415  1
  N  N12  1  0.660704  0.658238  0.320493  1
  N  N13  1  0.344254  0.335414  0.679448  1
  N  N14  1  0.722511  0.020810  0.988829  1
  N  N15  1  0.975135  0.279170  0.009850  1
  N  N16  1  0.280493  0.984694  0.019455  1
  N  N17  1  0.017651  0.721311  0.986712  1
  N  N18  1  0.400701  0.734929  0.832626  1
  N  N19  1  0.266355  0.599449  0.173626  1
  N  N20  1  0.609570  0.268240  0.164142  1
  N  N21  1  0.719379  0.387548  0.841069  1
