# generated using pymatgen
data_Zr8ZnFe4Si14Rh3
_symmetry_space_group_name_H-M   'P 1'
_cell_length_a   9.68848708
_cell_length_b   9.65002291
_cell_length_c   9.62719778
_cell_angle_alpha   94.08377908
_cell_angle_beta   94.32401466
_cell_angle_gamma   148.56749494
_symmetry_Int_Tables_number   1
_chemical_formula_structural   Zr8ZnFe4Si14Rh3
_chemical_formula_sum   'Zr8 Zn1 Fe4 Si14 Rh3'
_cell_volume   451.87262356
_cell_formula_units_Z   1
loop_
 _symmetry_equiv_pos_site_id
 _symmetry_equiv_pos_as_xyz
  1  'x, y, z'
loop_
 _atom_site_type_symbol
 _atom_site_label
 _atom_site_symmetry_multiplicity
 _atom_site_fract_x
 _atom_site_fract_y
 _atom_site_fract_z
 _atom_site_occupancy
  Zr  Zr0  1  0.696259  0.503499  0.194643  1
  Zr  Zr1  1  0.498047  0.692506  0.197231  1
  Zr  Zr2  1  0.494460  0.302693  0.802291  1
  Zr  Zr3  1  0.306174  0.499774  0.800719  1
  Zr  Zr4  1  0.862905  0.863591  0.723185  1
  Zr  Zr5  1  0.131196  0.859545  0.999695  1
  Zr  Zr6  1  0.869204  0.141263  0.999569  1
  Zr  Zr7  1  0.134428  0.135332  0.273543  1
  Zn  Zn8  1  0.097180  0.598717  0.197533  1
  Fe  Fe9  1  0.599249  0.403043  0.508525  1
  Fe  Fe10  1  0.389739  0.891067  0.782707  1
  Fe  Fe11  1  0.910657  0.104636  0.509133  1
  Fe  Fe12  1  0.393138  0.605753  0.494069  1
  Si  Si13  1  0.748438  0.749400  0.998979  1
  Si  Si14  1  0.249882  0.250507  0.998946  1
  Si  Si15  1  0.101639  0.504724  0.583201  1
  Si  Si16  1  0.507922  0.100254  0.588561  1
  Si  Si17  1  0.555829  0.949863  0.427872  1
  Si  Si18  1  0.855335  0.455384  0.426145  1
  Si  Si19  1  0.694874  0.990475  0.698984  1
  Si  Si20  1  0.996000  0.699401  0.704517  1
  Si  Si21  1  0.695421  0.699750  0.421112  1
  Si  Si22  1  0.318484  0.730345  0.990580  1
  Si  Si23  1  0.316179  0.030604  0.298479  1
  Si  Si24  1  0.672723  0.259978  0.990196  1
  Si  Si25  1  0.301160  0.305632  0.578487  1
  Si  Si26  1  0.995849  0.281400  0.305080  1
  Rh  Rh27  1  0.100407  0.888195  0.493690  1
  Rh  Rh28  1  0.901899  0.399239  0.802842  1
  Rh  Rh29  1  0.605323  0.103430  0.209485  1
