# generated using pymatgen
data_La16Cd4IrRuAu2
_symmetry_space_group_name_H-M   'P 1'
_cell_length_a   10.22469786
_cell_length_b   10.20916889
_cell_length_c   10.18773900
_cell_angle_alpha   60.06940961
_cell_angle_beta   60.11949708
_cell_angle_gamma   60.55910551
_symmetry_Int_Tables_number   1
_chemical_formula_structural   La16Cd4IrRuAu2
_chemical_formula_sum   'La16 Cd4 Ir1 Ru1 Au2'
_cell_volume   756.18645500
_cell_formula_units_Z   1
loop_
 _symmetry_equiv_pos_site_id
 _symmetry_equiv_pos_as_xyz
  1  'x, y, z'
loop_
 _atom_site_type_symbol
 _atom_site_label
 _atom_site_symmetry_multiplicity
 _atom_site_fract_x
 _atom_site_fract_y
 _atom_site_fract_z
 _atom_site_occupancy
  La  La0  1  0.897656  0.899749  0.910695  1
  La  La1  1  0.439497  0.436531  0.061986  1
  La  La2  1  0.056347  0.056393  0.443630  1
  La  La3  1  0.454532  0.057666  0.059370  1
  La  La4  1  0.307148  0.685775  0.316552  1
  La  La5  1  0.685558  0.687352  0.313545  1
  La  La6  1  0.684621  0.307071  0.317041  1
  La  La7  1  0.313770  0.883640  0.901296  1
  La  La8  1  0.882509  0.309295  0.904099  1
  La  La9  1  0.307148  0.685775  0.690525  1
  La  La10  1  0.897656  0.899749  0.291902  1
  La  La11  1  0.055366  0.453434  0.058132  1
  La  La12  1  0.308897  0.311159  0.689972  1
  La  La13  1  0.055366  0.453434  0.433068  1
  La  La14  1  0.454532  0.057666  0.428432  1
  La  La15  1  0.684621  0.307071  0.691267  1
  Cd  Cd16  1  0.670151  0.669717  0.992460  1
  Cd  Cd17  1  0.987116  0.671820  0.670532  1
  Cd  Cd18  1  0.672098  0.987634  0.670134  1
  Cd  Cd19  1  0.670151  0.669717  0.667672  1
  Ir  Ir20  1  0.113985  0.677575  0.104220  1
  Ru  Ru21  1  0.675559  0.110607  0.106917  1
  Au  Au22  1  0.112860  0.110586  0.679032  1
  Au  Au23  1  0.112860  0.110586  0.097522  1
