# generated using pymatgen
data_Ni3Ag4TeO8
_symmetry_space_group_name_H-M   'P 1'
_cell_length_a   5.31846605
_cell_length_b   6.24501281
_cell_length_c   7.31433015
_cell_angle_alpha   64.15754034
_cell_angle_beta   104.72433299
_cell_angle_gamma   90.07475597
_symmetry_Int_Tables_number   1
_chemical_formula_structural   Ni3Ag4TeO8
_chemical_formula_sum   'Ni3 Ag4 Te1 O8'
_cell_volume   209.78289852
_cell_formula_units_Z   1
loop_
 _symmetry_equiv_pos_site_id
 _symmetry_equiv_pos_as_xyz
  1  'x, y, z'
loop_
 _atom_site_type_symbol
 _atom_site_label
 _atom_site_symmetry_multiplicity
 _atom_site_fract_x
 _atom_site_fract_y
 _atom_site_fract_z
 _atom_site_occupancy
  Ni  Ni0  1  0.000193  0.010679  0.500126  1
  Ni  Ni1  1  0.500120  0.249897  0.499954  1
  Ni  Ni2  1  0.999673  0.489551  0.499871  1
  Ag  Ag3  1  0.002958  0.003905  0.990848  1
  Ag  Ag4  1  0.499891  0.249935  0.999973  1
  Ag  Ag5  1  0.997066  0.495786  0.009201  1
  Ag  Ag6  1  0.500091  0.749840  0.999997  1
  Te  Te7  1  0.499998  0.750044  0.500037  1
  O  O8  1  0.871897  0.665338  0.665389  1
  O  O9  1  0.399867  0.899382  0.663932  1
  O  O10  1  0.883357  0.167162  0.662069  1
  O  O11  1  0.398515  0.434883  0.664973  1
  O  O12  1  0.128170  0.834653  0.334565  1
  O  O13  1  0.601572  0.065079  0.335132  1
  O  O14  1  0.116542  0.333002  0.337996  1
  O  O15  1  0.600092  0.600865  0.335938  1
