# generated using pymatgen
data_Tb3Th(Ni2Hg)2
_symmetry_space_group_name_H-M   'P 1'
_cell_length_a   7.41493457
_cell_length_b   7.41493475
_cell_length_c   3.66318300
_cell_angle_alpha   90.00000000
_cell_angle_beta   90.00000000
_cell_angle_gamma   91.31786983
_symmetry_Int_Tables_number   1
_chemical_formula_structural   Tb3Th(Ni2Hg)2
_chemical_formula_sum   'Tb3 Th1 Ni4 Hg2'
_cell_volume   201.35312714
_cell_formula_units_Z   1
loop_
 _symmetry_equiv_pos_site_id
 _symmetry_equiv_pos_as_xyz
  1  'x, y, z'
loop_
 _atom_site_type_symbol
 _atom_site_label
 _atom_site_symmetry_multiplicity
 _atom_site_fract_x
 _atom_site_fract_y
 _atom_site_fract_z
 _atom_site_occupancy
  Tb  Tb0  1  0.323382  0.823382  0.500000  1
  Tb  Tb1  1  0.175806  0.326890  0.500000  1
  Tb  Tb2  1  0.826890  0.675806  0.500000  1
  Th  Th3  1  0.674978  0.174978  0.500000  1
  Ni  Ni4  1  0.114432  0.614432  0.000000  1
  Ni  Ni5  1  0.873342  0.373342  0.000000  1
  Ni  Ni6  1  0.622356  0.884846  0.000000  1
  Ni  Ni7  1  0.384846  0.122356  0.000000  1
  Hg  Hg8  1  0.495331  0.508637  0.000000  1
  Hg  Hg9  1  0.008637  0.995331  0.000000  1
