# generated using pymatgen
data_Zr4AlRe6Os
_symmetry_space_group_name_H-M   'P 1'
_cell_length_a   5.25543600
_cell_length_b   5.25543643
_cell_length_c   8.75810100
_cell_angle_alpha   90.00000000
_cell_angle_beta   90.00000000
_cell_angle_gamma   120.00000990
_symmetry_Int_Tables_number   1
_chemical_formula_structural   Zr4AlRe6Os
_chemical_formula_sum   'Zr4 Al1 Re6 Os1'
_cell_volume   209.48748182
_cell_formula_units_Z   1
loop_
 _symmetry_equiv_pos_site_id
 _symmetry_equiv_pos_as_xyz
  1  'x, y, z'
loop_
 _atom_site_type_symbol
 _atom_site_label
 _atom_site_symmetry_multiplicity
 _atom_site_fract_x
 _atom_site_fract_y
 _atom_site_fract_z
 _atom_site_occupancy
  Zr  Zr0  1  0.333333  0.666667  0.430068  1
  Zr  Zr1  1  0.666667  0.333333  0.569932  1
  Zr  Zr2  1  0.666667  0.333333  0.940453  1
  Zr  Zr3  1  0.333333  0.666667  0.059547  1
  Al  Al4  1  0.000000  0.000000  0.500000  1
  Re  Re5  1  0.829381  0.170619  0.250989  1
  Re  Re6  1  0.829381  0.658763  0.250989  1
  Re  Re7  1  0.341237  0.170619  0.250989  1
  Re  Re8  1  0.170619  0.829381  0.749011  1
  Re  Re9  1  0.170619  0.341237  0.749011  1
  Re  Re10  1  0.658763  0.829381  0.749011  1
  Os  Os11  1  0.000000  0.000000  0.000000  1
