# generated using pymatgen
data_TbLu4Tl3InPt2
_symmetry_space_group_name_H-M   'P 1'
_cell_length_a   3.55685300
_cell_length_b   8.18215566
_cell_length_c   18.24157370
_cell_angle_alpha   89.83244011
_cell_angle_beta   90.00000000
_cell_angle_gamma   90.00000000
_symmetry_Int_Tables_number   1
_chemical_formula_structural   TbLu4Tl3InPt2
_chemical_formula_sum   'Tb2 Lu8 Tl6 In2 Pt4'
_cell_volume   530.87723097
_cell_formula_units_Z   2
loop_
 _symmetry_equiv_pos_site_id
 _symmetry_equiv_pos_as_xyz
  1  'x, y, z'
loop_
 _atom_site_type_symbol
 _atom_site_label
 _atom_site_symmetry_multiplicity
 _atom_site_fract_x
 _atom_site_fract_y
 _atom_site_fract_z
 _atom_site_occupancy
  Tb  Tb0  1  0.000000  0.000000  0.000000  1
  Tb  Tb1  1  0.000000  0.500000  0.500000  1
  Lu  Lu2  1  0.000000  0.117236  0.413697  1
  Lu  Lu3  1  0.000000  0.882764  0.586303  1
  Lu  Lu4  1  0.000000  0.383088  0.912248  1
  Lu  Lu5  1  0.000000  0.616912  0.087752  1
  Lu  Lu6  1  0.000000  0.244604  0.221569  1
  Lu  Lu7  1  0.000000  0.755396  0.778431  1
  Lu  Lu8  1  0.000000  0.255006  0.720642  1
  Lu  Lu9  1  0.000000  0.744994  0.279358  1
  Tl  Tl10  1  0.500000  0.424129  0.352434  1
  Tl  Tl11  1  0.500000  0.575871  0.647566  1
  Tl  Tl12  1  0.500000  0.077453  0.851594  1
  Tl  Tl13  1  0.500000  0.922547  0.148406  1
  Tl  Tl14  1  0.500000  0.296529  0.064633  1
  Tl  Tl15  1  0.500000  0.703471  0.935367  1
  In  In16  1  0.500000  0.201818  0.565693  1
  In  In17  1  0.500000  0.798182  0.434307  1
  Pt  Pt18  1  0.500000  0.024646  0.304718  1
  Pt  Pt19  1  0.500000  0.975354  0.695282  1
  Pt  Pt20  1  0.500000  0.472596  0.803198  1
  Pt  Pt21  1  0.500000  0.527404  0.196802  1
