# generated using pymatgen
data_LiNd4Al2ZnRh4
_symmetry_space_group_name_H-M   'P 1'
_cell_length_a   4.14343200
_cell_length_b   7.13867532
_cell_length_c   8.37856009
_cell_angle_alpha   90.11920618
_cell_angle_beta   90.00000000
_cell_angle_gamma   90.00000000
_symmetry_Int_Tables_number   1
_chemical_formula_structural   LiNd4Al2ZnRh4
_chemical_formula_sum   'Li1 Nd4 Al2 Zn1 Rh4'
_cell_volume   247.82567310
_cell_formula_units_Z   1
loop_
 _symmetry_equiv_pos_site_id
 _symmetry_equiv_pos_as_xyz
  1  'x, y, z'
loop_
 _atom_site_type_symbol
 _atom_site_label
 _atom_site_symmetry_multiplicity
 _atom_site_fract_x
 _atom_site_fract_y
 _atom_site_fract_z
 _atom_site_occupancy
  Li  Li0  1  0.250000  0.627893  0.554862  1
  Nd  Nd1  1  0.250000  0.534808  0.189501  1
  Nd  Nd2  1  0.750000  0.462894  0.812682  1
  Nd  Nd3  1  0.750000  0.964943  0.684118  1
  Nd  Nd4  1  0.250000  0.039896  0.318109  1
  Al  Al5  1  0.750000  0.864185  0.061248  1
  Al  Al6  1  0.250000  0.137381  0.938833  1
  Zn  Zn7  1  0.750000  0.367821  0.440725  1
  Rh  Rh8  1  0.250000  0.774539  0.900460  1
  Rh  Rh9  1  0.750000  0.226367  0.104479  1
  Rh  Rh10  1  0.750000  0.746293  0.364902  1
  Rh  Rh11  1  0.250000  0.252980  0.630083  1
