# generated using pymatgen
data_Pa5V3(Co4P3)4
_symmetry_space_group_name_H-M   'P 1'
_cell_length_a   12.04646600
_cell_length_b   12.04646586
_cell_length_c   3.75403400
_cell_angle_alpha   90.00000000
_cell_angle_beta   90.00000000
_cell_angle_gamma   119.99999489
_symmetry_Int_Tables_number   1
_chemical_formula_structural   Pa5V3(Co4P3)4
_chemical_formula_sum   'Pa5 V3 Co16 P12'
_cell_volume   471.78938926
_cell_formula_units_Z   1
loop_
 _symmetry_equiv_pos_site_id
 _symmetry_equiv_pos_as_xyz
  1  'x, y, z'
loop_
 _atom_site_type_symbol
 _atom_site_label
 _atom_site_symmetry_multiplicity
 _atom_site_fract_x
 _atom_site_fract_y
 _atom_site_fract_z
 _atom_site_occupancy
  Pa  Pa0  1  0.666667  0.333333  0.000000  1
  Pa  Pa1  1  0.333333  0.666667  0.000000  1
  Pa  Pa2  1  0.185600  0.185600  0.500000  1
  Pa  Pa3  1  0.814400  0.000000  0.500000  1
  Pa  Pa4  1  0.000000  0.814400  0.500000  1
  V  V5  1  0.557818  0.557818  0.000000  1
  V  V6  1  0.442182  0.000000  0.000000  1
  V  V7  1  0.000000  0.442182  0.000000  1
  Co  Co8  1  0.818887  0.195575  0.000000  1
  Co  Co9  1  0.804425  0.623313  0.000000  1
  Co  Co10  1  0.376687  0.181113  0.000000  1
  Co  Co11  1  0.195575  0.818887  0.000000  1
  Co  Co12  1  0.623313  0.804425  0.000000  1
  Co  Co13  1  0.181113  0.376687  0.000000  1
  Co  Co14  1  0.641207  0.126700  0.500000  1
  Co  Co15  1  0.873300  0.514508  0.500000  1
  Co  Co16  1  0.485492  0.358793  0.500000  1
  Co  Co17  1  0.126700  0.641207  0.500000  1
  Co  Co18  1  0.514508  0.873300  0.500000  1
  Co  Co19  1  0.358793  0.485492  0.500000  1
  Co  Co20  1  0.720145  0.720145  0.500000  1
  Co  Co21  1  0.279855  0.000000  0.500000  1
  Co  Co22  1  0.000000  0.279855  0.500000  1
  Co  Co23  1  0.000000  0.000000  0.000000  1
  P  P24  1  0.369208  0.369208  0.000000  1
  P  P25  1  0.630792  0.000000  0.000000  1
  P  P26  1  0.000000  0.630792  0.000000  1
  P  P27  1  0.837294  0.313398  0.500000  1
  P  P28  1  0.686602  0.523896  0.500000  1
  P  P29  1  0.476104  0.162706  0.500000  1
  P  P30  1  0.313398  0.837294  0.500000  1
  P  P31  1  0.523896  0.686602  0.500000  1
  P  P32  1  0.162706  0.476104  0.500000  1
  P  P33  1  0.818633  0.818633  0.000000  1
  P  P34  1  0.181367  0.000000  0.000000  1
  P  P35  1  0.000000  0.181367  0.000000  1
