# generated using pymatgen
data_MgZnNi2(BrO3)8
_symmetry_space_group_name_H-M   'P 1'
_cell_length_a   5.65717336
_cell_length_b   10.48188651
_cell_length_c   10.52393236
_cell_angle_alpha   119.13991337
_cell_angle_beta   90.03903923
_cell_angle_gamma   89.88979637
_symmetry_Int_Tables_number   1
_chemical_formula_structural   MgZnNi2(BrO3)8
_chemical_formula_sum   'Mg1 Zn1 Ni2 Br8 O24'
_cell_volume   545.06195961
_cell_formula_units_Z   1
loop_
 _symmetry_equiv_pos_site_id
 _symmetry_equiv_pos_as_xyz
  1  'x, y, z'
loop_
 _atom_site_type_symbol
 _atom_site_label
 _atom_site_symmetry_multiplicity
 _atom_site_fract_x
 _atom_site_fract_y
 _atom_site_fract_z
 _atom_site_occupancy
  Mg  Mg0  1  0.639393  0.237517  0.494111  1
  Zn  Zn1  1  0.145007  0.763052  0.505672  1
  Ni  Ni2  1  0.140128  0.261247  0.006787  1
  Ni  Ni3  1  0.639423  0.738872  0.993123  1
  Br  Br4  1  0.258460  0.415055  0.347734  1
  Br  Br5  1  0.759283  0.585370  0.652232  1
  Br  Br6  1  0.259132  0.915556  0.850090  1
  Br  Br7  1  0.759945  0.084034  0.149066  1
  Br  Br8  1  0.786416  0.087068  0.692268  1
  Br  Br9  1  0.285328  0.913504  0.308678  1
  Br  Br10  1  0.284446  0.414396  0.814155  1
  Br  Br11  1  0.785092  0.586149  0.186020  1
  O  O12  1  0.427755  0.887646  0.966964  1
  O  O13  1  0.931062  0.112492  0.033783  1
  O  O14  1  0.372518  0.801290  0.683079  1
  O  O15  1  0.867786  0.197299  0.316966  1
  O  O16  1  0.366377  0.299735  0.179374  1
  O  O17  1  0.866992  0.699966  0.820757  1
  O  O18  1  0.933912  0.228904  0.827905  1
  O  O19  1  0.431442  0.771516  0.172466  1
  O  O20  1  0.928150  0.932749  0.663270  1
  O  O21  1  0.428330  0.066431  0.338105  1
  O  O22  1  0.355179  0.081770  0.880509  1
  O  O23  1  0.855968  0.917516  0.118459  1
  O  O24  1  0.427727  0.274525  0.675024  1
  O  O25  1  0.928779  0.727932  0.323966  1
  O  O26  1  0.356041  0.394578  0.960226  1
  O  O27  1  0.854007  0.604207  0.038577  1
  O  O28  1  0.426894  0.567887  0.842232  1
  O  O29  1  0.929242  0.433093  0.159008  1
  O  O30  1  0.358971  0.580376  0.378320  1
  O  O31  1  0.853491  0.419127  0.620790  1
  O  O32  1  0.429011  0.383211  0.460033  1
  O  O33  1  0.932708  0.614499  0.538410  1
  O  O34  1  0.850963  0.103995  0.544487  1
  O  O35  1  0.354244  0.897436  0.457354  1
