# generated using pymatgen
data_Ho10TlIn7IrPd3
_symmetry_space_group_name_H-M   'P 1'
_cell_length_a   3.61642000
_cell_length_b   8.12486537
_cell_length_c   18.25412494
_cell_angle_alpha   90.05885731
_cell_angle_beta   90.00000000
_cell_angle_gamma   90.00000000
_symmetry_Int_Tables_number   1
_chemical_formula_structural   Ho10TlIn7IrPd3
_chemical_formula_sum   'Ho10 Tl1 In7 Ir1 Pd3'
_cell_volume   536.35931257
_cell_formula_units_Z   1
loop_
 _symmetry_equiv_pos_site_id
 _symmetry_equiv_pos_as_xyz
  1  'x, y, z'
loop_
 _atom_site_type_symbol
 _atom_site_label
 _atom_site_symmetry_multiplicity
 _atom_site_fract_x
 _atom_site_fract_y
 _atom_site_fract_z
 _atom_site_occupancy
  Ho  Ho0  1  0.000000  0.500336  0.499728  1
  Ho  Ho1  1  0.000000  0.000552  0.000566  1
  Ho  Ho2  1  0.000000  0.730243  0.277326  1
  Ho  Ho3  1  0.000000  0.260640  0.719914  1
  Ho  Ho4  1  0.000000  0.760089  0.779536  1
  Ho  Ho5  1  0.000000  0.253059  0.219842  1
  Ho  Ho6  1  0.000000  0.612305  0.087184  1
  Ho  Ho7  1  0.000000  0.383931  0.916721  1
  Ho  Ho8  1  0.000000  0.884464  0.583103  1
  Ho  Ho9  1  0.000000  0.115765  0.416129  1
  Tl  Tl10  1  0.500000  0.711309  0.932155  1
  In  In11  1  0.500000  0.289407  0.068552  1
  In  In12  1  0.500000  0.789897  0.431662  1
  In  In13  1  0.500000  0.210402  0.568253  1
  In  In14  1  0.500000  0.580876  0.649406  1
  In  In15  1  0.500000  0.420053  0.350816  1
  In  In16  1  0.500000  0.920359  0.149783  1
  In  In17  1  0.500000  0.081941  0.850255  1
  Ir  Ir18  1  0.500000  0.520718  0.195543  1
  Pd  Pd19  1  0.500000  0.475094  0.803490  1
  Pd  Pd20  1  0.500000  0.976329  0.696081  1
  Pd  Pd21  1  0.500000  0.022233  0.303956  1
