# generated using pymatgen
data_Nd3Lu5(P7Ir8)2
_symmetry_space_group_name_H-M   'P 1'
_cell_length_a   3.93710200
_cell_length_b   12.74742525
_cell_length_c   13.10036764
_cell_angle_alpha   80.93511354
_cell_angle_beta   90.00000000
_cell_angle_gamma   90.00000000
_symmetry_Int_Tables_number   1
_chemical_formula_structural   Nd3Lu5(P7Ir8)2
_chemical_formula_sum   'Nd3 Lu5 P14 Ir16'
_cell_volume   649.26855114
_cell_formula_units_Z   1
loop_
 _symmetry_equiv_pos_site_id
 _symmetry_equiv_pos_as_xyz
  1  'x, y, z'
loop_
 _atom_site_type_symbol
 _atom_site_label
 _atom_site_symmetry_multiplicity
 _atom_site_fract_x
 _atom_site_fract_y
 _atom_site_fract_z
 _atom_site_occupancy
  Nd  Nd0  1  0.250000  0.105766  0.787361  1
  Nd  Nd1  1  0.750000  0.894005  0.213335  1
  Nd  Nd2  1  0.250000  0.278573  0.100911  1
  Lu  Lu3  1  0.750000  0.792974  0.559637  1
  Lu  Lu4  1  0.250000  0.208329  0.440250  1
  Lu  Lu5  1  0.750000  0.479191  0.706499  1
  Lu  Lu6  1  0.250000  0.521138  0.294754  1
  Lu  Lu7  1  0.750000  0.719069  0.897985  1
  P  P8  1  0.250000  0.906561  0.412702  1
  P  P9  1  0.750000  0.472543  0.129617  1
  P  P10  1  0.250000  0.528690  0.869963  1
  P  P11  1  0.750000  0.093996  0.587132  1
  P  P12  1  0.250000  0.739882  0.079725  1
  P  P13  1  0.750000  0.256307  0.916329  1
  P  P14  1  0.750000  0.159962  0.284709  1
  P  P15  1  0.250000  0.841874  0.716546  1
  P  P16  1  0.250000  0.049192  0.100453  1
  P  P17  1  0.750000  0.943422  0.899517  1
  P  P18  1  0.250000  0.317666  0.686515  1
  P  P19  1  0.750000  0.682525  0.313604  1
  P  P20  1  0.250000  0.609247  0.569518  1
  P  P21  1  0.750000  0.392833  0.432946  1
  Ir  Ir22  1  0.250000  0.991455  0.575839  1
  Ir  Ir23  1  0.750000  0.008856  0.424477  1
  Ir  Ir24  1  0.250000  0.662943  0.731764  1
  Ir  Ir25  1  0.750000  0.340847  0.272163  1
  Ir  Ir26  1  0.250000  0.552989  0.047316  1
  Ir  Ir27  1  0.750000  0.452399  0.948935  1
  Ir  Ir28  1  0.250000  0.065205  0.273934  1
  Ir  Ir29  1  0.750000  0.934292  0.726414  1
  Ir  Ir30  1  0.250000  0.422949  0.520822  1
  Ir  Ir31  1  0.750000  0.578852  0.481084  1
  Ir  Ir32  1  0.250000  0.911332  0.996677  1
  Ir  Ir33  1  0.750000  0.083326  0.000901  1
  Ir  Ir34  1  0.250000  0.728339  0.398155  1
  Ir  Ir35  1  0.750000  0.272063  0.601983  1
  Ir  Ir36  1  0.250000  0.344706  0.855436  1
  Ir  Ir37  1  0.750000  0.655702  0.144093  1
