# generated using pymatgen
data_Ac6Sn5BiIr6
_symmetry_space_group_name_H-M   'P 1'
_cell_length_a   7.71216115
_cell_length_b   7.71216184
_cell_length_c   8.68247600
_cell_angle_alpha   90.01133708
_cell_angle_beta   89.98866292
_cell_angle_gamma   120.40064548
_symmetry_Int_Tables_number   1
_chemical_formula_structural   Ac6Sn5BiIr6
_chemical_formula_sum   'Ac6 Sn5 Bi1 Ir6'
_cell_volume   445.40893719
_cell_formula_units_Z   1
loop_
 _symmetry_equiv_pos_site_id
 _symmetry_equiv_pos_as_xyz
  1  'x, y, z'
loop_
 _atom_site_type_symbol
 _atom_site_label
 _atom_site_symmetry_multiplicity
 _atom_site_fract_x
 _atom_site_fract_y
 _atom_site_fract_z
 _atom_site_occupancy
  Ac  Ac0  1  0.417561  0.000841  0.247941  1
  Ac  Ac1  1  0.584778  0.584776  0.752301  1
  Ac  Ac2  1  0.584776  0.584778  0.247699  1
  Ac  Ac3  1  0.000850  0.417577  0.247941  1
  Ac  Ac4  1  0.000841  0.417561  0.752059  1
  Ac  Ac5  1  0.417577  0.000850  0.752059  1
  Sn  Sn6  1  0.239963  0.239963  0.000000  1
  Sn  Sn7  1  0.755327  0.998865  0.999992  1
  Sn  Sn8  1  0.998154  0.752958  0.500005  1
  Sn  Sn9  1  0.752958  0.998154  0.499995  1
  Sn  Sn10  1  0.998865  0.755327  0.000008  1
  Bi  Bi11  1  0.247192  0.247192  0.500000  1
  Ir  Ir12  1  0.681972  0.335372  0.500007  1
  Ir  Ir13  1  0.666230  0.335367  0.000002  1
  Ir  Ir14  1  0.335367  0.666230  0.999998  1
  Ir  Ir15  1  0.335372  0.681972  0.499993  1
  Ir  Ir16  1  0.991110  0.991104  0.751242  1
  Ir  Ir17  1  0.991104  0.991110  0.248758  1
