# generated using pymatgen
data_Li2Zr6Ti2Al12Pt7
_symmetry_space_group_name_H-M   'P 1'
_cell_length_a   8.82522063
_cell_length_b   8.80549184
_cell_length_c   8.80549150
_cell_angle_alpha   60.17674146
_cell_angle_beta   59.92585231
_cell_angle_gamma   59.92584629
_symmetry_Int_Tables_number   1
_chemical_formula_structural   Li2Zr6Ti2Al12Pt7
_chemical_formula_sum   'Li2 Zr6 Ti2 Al12 Pt7'
_cell_volume   483.95565051
_cell_formula_units_Z   1
loop_
 _symmetry_equiv_pos_site_id
 _symmetry_equiv_pos_as_xyz
  1  'x, y, z'
loop_
 _atom_site_type_symbol
 _atom_site_label
 _atom_site_symmetry_multiplicity
 _atom_site_fract_x
 _atom_site_fract_y
 _atom_site_fract_z
 _atom_site_occupancy
  Li  Li0  1  0.353913  0.881491  0.881491  1
  Li  Li1  1  0.883105  0.881491  0.881491  1
  Zr  Zr2  1  0.686340  0.683981  0.313888  1
  Zr  Zr3  1  0.315790  0.683981  0.313888  1
  Zr  Zr4  1  0.689788  0.310212  0.310212  1
  Zr  Zr5  1  0.315790  0.313888  0.683981  1
  Zr  Zr6  1  0.686340  0.313888  0.683981  1
  Zr  Zr7  1  0.312507  0.687493  0.687493  1
  Ti  Ti8  1  0.880802  0.877156  0.361238  1
  Ti  Ti9  1  0.880802  0.361238  0.877156  1
  Al  Al10  1  0.119796  0.112735  0.647671  1
  Al  Al11  1  0.119796  0.647671  0.112735  1
  Al  Al12  1  0.643937  0.114294  0.114294  1
  Al  Al13  1  0.127476  0.114294  0.114294  1
  Al  Al14  1  0.663658  0.673335  0.999351  1
  Al  Al15  1  0.663658  0.999351  0.673335  1
  Al  Al16  1  0.004485  0.669967  0.669967  1
  Al  Al17  1  0.655582  0.669967  0.669967  1
  Al  Al18  1  0.333971  0.340441  0.991617  1
  Al  Al19  1  0.333971  0.991617  0.340441  1
  Al  Al20  1  0.996503  0.335686  0.335686  1
  Al  Al21  1  0.332123  0.335686  0.335686  1
  Pt  Pt22  1  0.993095  0.006905  0.006905  1
  Pt  Pt23  1  0.998672  0.003695  0.488855  1
  Pt  Pt24  1  0.508778  0.003695  0.488855  1
  Pt  Pt25  1  0.996473  0.503527  0.503527  1
  Pt  Pt26  1  0.508778  0.488855  0.003695  1
  Pt  Pt27  1  0.998672  0.488855  0.003695  1
  Pt  Pt28  1  0.495397  0.004603  0.004603  1
