# generated using pymatgen
data_DyV3O9
_symmetry_space_group_name_H-M   'P 1'
_cell_length_a   8.53822146
_cell_length_b   8.53822172
_cell_length_c   10.94338625
_cell_angle_alpha   57.68608482
_cell_angle_beta   57.68608156
_cell_angle_gamma   51.85644753
_symmetry_Int_Tables_number   1
_chemical_formula_structural   DyV3O9
_chemical_formula_sum   'Dy2 V6 O18'
_cell_volume   504.56733597
_cell_formula_units_Z   2
loop_
 _symmetry_equiv_pos_site_id
 _symmetry_equiv_pos_as_xyz
  1  'x, y, z'
loop_
 _atom_site_type_symbol
 _atom_site_label
 _atom_site_symmetry_multiplicity
 _atom_site_fract_x
 _atom_site_fract_y
 _atom_site_fract_z
 _atom_site_occupancy
  Dy  Dy0  1  0.203960  0.685570  0.754113  1
  Dy  Dy1  1  0.685570  0.203960  0.254113  1
  V  V2  1  0.194954  0.408008  0.583953  1
  V  V3  1  0.651204  0.750947  0.995645  1
  V  V4  1  0.180234  0.984878  0.924440  1
  V  V5  1  0.408008  0.194954  0.083953  1
  V  V6  1  0.750947  0.651204  0.495645  1
  V  V7  1  0.984878  0.180234  0.424440  1
  O  O8  1  0.195113  0.164530  0.249609  1
  O  O9  1  0.366747  0.323334  0.430127  1
  O  O10  1  0.937336  0.593323  0.563689  1
  O  O11  1  0.442265  0.859311  0.928056  1
  O  O12  1  0.517724  0.279254  0.111219  1
  O  O13  1  0.323334  0.366747  0.930127  1
  O  O14  1  0.881918  0.709650  0.855788  1
  O  O15  1  0.819997  0.140073  0.416912  1
  O  O16  1  0.279254  0.517724  0.611219  1
  O  O17  1  0.998711  0.075405  0.074948  1
  O  O18  1  0.668709  0.523643  0.136401  1
  O  O19  1  0.709650  0.881918  0.355788  1
  O  O20  1  0.140073  0.819997  0.916912  1
  O  O21  1  0.523643  0.668709  0.636401  1
  O  O22  1  0.164530  0.195113  0.749609  1
  O  O23  1  0.075405  0.998711  0.574948  1
  O  O24  1  0.859311  0.442265  0.428056  1
  O  O25  1  0.593323  0.937336  0.063689  1
