# generated using pymatgen
data_DyYHoGa8Ag3
_symmetry_space_group_name_H-M   'P 1'
_cell_length_a   4.33812027
_cell_length_b   8.36267097
_cell_length_c   8.36267055
_cell_angle_alpha   69.75477275
_cell_angle_beta   74.96708178
_cell_angle_gamma   74.96707337
_symmetry_Int_Tables_number   1
_chemical_formula_structural   DyYHoGa8Ag3
_chemical_formula_sum   'Dy1 Y1 Ho1 Ga8 Ag3'
_cell_volume   270.03950540
_cell_formula_units_Z   1
loop_
 _symmetry_equiv_pos_site_id
 _symmetry_equiv_pos_as_xyz
  1  'x, y, z'
loop_
 _atom_site_type_symbol
 _atom_site_label
 _atom_site_symmetry_multiplicity
 _atom_site_fract_x
 _atom_site_fract_y
 _atom_site_fract_z
 _atom_site_occupancy
  Dy  Dy0  1  0.299963  0.700037  0.700037  1
  Y  Y1  1  0.999952  0.000048  0.000048  1
  Ho  Ho2  1  0.699949  0.300051  0.300051  1
  Ga  Ga3  1  0.341067  0.289925  0.027939  1
  Ga  Ga4  1  0.658780  0.710153  0.972287  1
  Ga  Ga5  1  0.341067  0.027939  0.289925  1
  Ga  Ga6  1  0.658780  0.972287  0.710153  1
  Ga  Ga7  1  0.143250  0.574846  0.138656  1
  Ga  Ga8  1  0.856785  0.424907  0.861523  1
  Ga  Ga9  1  0.143250  0.138656  0.574846  1
  Ga  Ga10  1  0.856785  0.861523  0.424907  1
  Ag  Ag11  1  0.500120  0.305621  0.694140  1
  Ag  Ag12  1  0.500120  0.694140  0.305621  1
  Ag  Ag13  1  0.000133  0.499867  0.499867  1
