# generated using pymatgen
data_Tb3Si11Pt23
_symmetry_space_group_name_H-M   'P 1'
_cell_length_a   12.01570408
_cell_length_b   12.01570382
_cell_length_c   12.01570400
_cell_angle_alpha   59.99999950
_cell_angle_beta   60.00000022
_cell_angle_gamma   59.99999943
_symmetry_Int_Tables_number   1
_chemical_formula_structural   Tb3Si11Pt23
_chemical_formula_sum   'Tb6 Si22 Pt46'
_cell_volume   1226.68388297
_cell_formula_units_Z   2
loop_
 _symmetry_equiv_pos_site_id
 _symmetry_equiv_pos_as_xyz
  1  'x, y, z'
loop_
 _atom_site_type_symbol
 _atom_site_label
 _atom_site_symmetry_multiplicity
 _atom_site_fract_x
 _atom_site_fract_y
 _atom_site_fract_z
 _atom_site_occupancy
  Tb  Tb0  1  0.000000  0.000000  0.500000  1
  Tb  Tb1  1  0.500000  0.000000  0.500000  1
  Tb  Tb2  1  0.000000  0.500000  0.500000  1
  Tb  Tb3  1  0.500000  0.500000  0.000000  1
  Tb  Tb4  1  0.000000  0.500000  0.000000  1
  Tb  Tb5  1  0.500000  0.000000  0.000000  1
  Si  Si6  1  0.828460  0.828460  0.171540  1
  Si  Si7  1  0.171540  0.828460  0.171540  1
  Si  Si8  1  0.828460  0.171540  0.171540  1
  Si  Si9  1  0.171540  0.171540  0.828460  1
  Si  Si10  1  0.828460  0.171540  0.828460  1
  Si  Si11  1  0.171540  0.828460  0.828460  1
  Si  Si12  1  0.834696  0.834696  0.495912  1
  Si  Si13  1  0.834696  0.495912  0.834696  1
  Si  Si14  1  0.495912  0.834696  0.834696  1
  Si  Si15  1  0.834696  0.834696  0.834696  1
  Si  Si16  1  0.165304  0.165304  0.504088  1
  Si  Si17  1  0.165304  0.504088  0.165304  1
  Si  Si18  1  0.504088  0.165304  0.165304  1
  Si  Si19  1  0.165304  0.165304  0.165304  1
  Si  Si20  1  0.606493  0.606493  0.180521  1
  Si  Si21  1  0.606493  0.180521  0.606493  1
  Si  Si22  1  0.180521  0.606493  0.606493  1
  Si  Si23  1  0.606493  0.606493  0.606493  1
  Si  Si24  1  0.393507  0.393507  0.819479  1
  Si  Si25  1  0.393507  0.819479  0.393507  1
  Si  Si26  1  0.819479  0.393507  0.393507  1
  Si  Si27  1  0.393507  0.393507  0.393507  1
  Pt  Pt28  1  0.917121  0.917121  0.248638  1
  Pt  Pt29  1  0.917121  0.248638  0.917121  1
  Pt  Pt30  1  0.248638  0.917121  0.917121  1
  Pt  Pt31  1  0.917121  0.917121  0.917121  1
  Pt  Pt32  1  0.082879  0.082879  0.751362  1
  Pt  Pt33  1  0.082879  0.751362  0.082879  1
  Pt  Pt34  1  0.751362  0.082879  0.082879  1
  Pt  Pt35  1  0.082879  0.082879  0.082879  1
  Pt  Pt36  1  0.691765  0.691765  0.924704  1
  Pt  Pt37  1  0.691765  0.924704  0.691765  1
  Pt  Pt38  1  0.924704  0.691765  0.691765  1
  Pt  Pt39  1  0.691765  0.691765  0.691765  1
  Pt  Pt40  1  0.308235  0.308235  0.075296  1
  Pt  Pt41  1  0.308235  0.075296  0.308235  1
  Pt  Pt42  1  0.075296  0.308235  0.308235  1
  Pt  Pt43  1  0.308235  0.308235  0.308235  1
  Pt  Pt44  1  0.625219  0.625219  0.374781  1
  Pt  Pt45  1  0.374781  0.625219  0.374781  1
  Pt  Pt46  1  0.625219  0.374781  0.374781  1
  Pt  Pt47  1  0.374781  0.374781  0.625219  1
  Pt  Pt48  1  0.625219  0.374781  0.625219  1
  Pt  Pt49  1  0.374781  0.625219  0.625219  1
  Pt  Pt50  1  0.747971  0.082475  0.421583  1
  Pt  Pt51  1  0.747971  0.747971  0.421583  1
  Pt  Pt52  1  0.082475  0.747971  0.421583  1
  Pt  Pt53  1  0.747971  0.421583  0.082475  1
  Pt  Pt54  1  0.082475  0.421583  0.747971  1
  Pt  Pt55  1  0.747971  0.421583  0.747971  1
  Pt  Pt56  1  0.421583  0.747971  0.747971  1
  Pt  Pt57  1  0.421583  0.082475  0.747971  1
  Pt  Pt58  1  0.421583  0.747971  0.082475  1
  Pt  Pt59  1  0.082475  0.747971  0.747971  1
  Pt  Pt60  1  0.747971  0.747971  0.082475  1
  Pt  Pt61  1  0.747971  0.082475  0.747971  1
  Pt  Pt62  1  0.252029  0.917525  0.578417  1
  Pt  Pt63  1  0.252029  0.252029  0.578417  1
  Pt  Pt64  1  0.917525  0.252029  0.578417  1
  Pt  Pt65  1  0.252029  0.578417  0.917525  1
  Pt  Pt66  1  0.917525  0.578417  0.252029  1
  Pt  Pt67  1  0.252029  0.578417  0.252029  1
  Pt  Pt68  1  0.578417  0.252029  0.252029  1
  Pt  Pt69  1  0.578417  0.917525  0.252029  1
  Pt  Pt70  1  0.578417  0.252029  0.917525  1
  Pt  Pt71  1  0.917525  0.252029  0.252029  1
  Pt  Pt72  1  0.252029  0.252029  0.917525  1
  Pt  Pt73  1  0.252029  0.917525  0.252029  1
