# generated using pymatgen
data_Sc8V8Re3Si16Rh
_symmetry_space_group_name_H-M   'P 1'
_cell_length_a   6.63117972
_cell_length_b   6.63117972
_cell_length_c   12.25528450
_cell_angle_alpha   90.11553663
_cell_angle_beta   89.88446337
_cell_angle_gamma   89.79764917
_symmetry_Int_Tables_number   1
_chemical_formula_structural   Sc8V8Re3Si16Rh
_chemical_formula_sum   'Sc8 V8 Re3 Si16 Rh1'
_cell_volume   538.89048229
_cell_formula_units_Z   1
loop_
 _symmetry_equiv_pos_site_id
 _symmetry_equiv_pos_as_xyz
  1  'x, y, z'
loop_
 _atom_site_type_symbol
 _atom_site_label
 _atom_site_symmetry_multiplicity
 _atom_site_fract_x
 _atom_site_fract_y
 _atom_site_fract_z
 _atom_site_occupancy
  Sc  Sc0  1  0.001363  0.664937  0.029812  1
  Sc  Sc1  1  0.836315  0.500817  0.278551  1
  Sc  Sc2  1  0.163367  0.500861  0.778615  1
  Sc  Sc3  1  0.500817  0.836315  0.721449  1
  Sc  Sc4  1  0.500861  0.163367  0.221385  1
  Sc  Sc5  1  0.999007  0.335578  0.529401  1
  Sc  Sc6  1  0.664937  0.001363  0.970188  1
  Sc  Sc7  1  0.335578  0.999007  0.470599  1
  V  V8  1  0.996715  0.158799  0.125991  1
  V  V9  1  0.340729  0.500713  0.375324  1
  V  V10  1  0.663354  0.502016  0.874824  1
  V  V11  1  0.500713  0.340729  0.624676  1
  V  V12  1  0.502016  0.663354  0.125176  1
  V  V13  1  0.999977  0.841473  0.626501  1
  V  V14  1  0.158799  0.996715  0.874009  1
  V  V15  1  0.841473  0.999977  0.373499  1
  Re  Re16  1  0.165590  0.830934  0.250730  1
  Re  Re17  1  0.830934  0.165590  0.749270  1
  Re  Re18  1  0.666653  0.666653  0.500000  1
  Si  Si19  1  0.291114  0.959526  0.064239  1
  Si  Si20  1  0.538668  0.793580  0.314951  1
  Si  Si21  1  0.459590  0.207901  0.816418  1
  Si  Si22  1  0.793580  0.538668  0.685049  1
  Si  Si23  1  0.207901  0.459590  0.183582  1
  Si  Si24  1  0.706068  0.038634  0.564686  1
  Si  Si25  1  0.959526  0.291114  0.935761  1
  Si  Si26  1  0.038634  0.706068  0.435314  1
  Si  Si27  1  0.704424  0.375591  0.068655  1
  Si  Si28  1  0.128229  0.205123  0.319162  1
  Si  Si29  1  0.872367  0.796128  0.820270  1
  Si  Si30  1  0.205123  0.128229  0.680838  1
  Si  Si31  1  0.796128  0.872367  0.179730  1
  Si  Si32  1  0.294838  0.627888  0.570241  1
  Si  Si33  1  0.375591  0.704424  0.931345  1
  Si  Si34  1  0.627888  0.294838  0.429759  1
  Rh  Rh35  1  0.331133  0.331133  0.000000  1
