# generated using pymatgen
data_Hf6Ti6Si5Ge
_symmetry_space_group_name_H-M   'P 1'
_cell_length_a   7.97639589
_cell_length_b   7.97688246
_cell_length_c   7.97585900
_cell_angle_alpha   127.38195812
_cell_angle_beta   124.65452836
_cell_angle_gamma   79.87713876
_symmetry_Int_Tables_number   1
_chemical_formula_structural   Hf6Ti6Si5Ge
_chemical_formula_sum   'Hf6 Ti6 Si5 Ge1'
_cell_volume   320.36494973
_cell_formula_units_Z   1
loop_
 _symmetry_equiv_pos_site_id
 _symmetry_equiv_pos_as_xyz
  1  'x, y, z'
loop_
 _atom_site_type_symbol
 _atom_site_label
 _atom_site_symmetry_multiplicity
 _atom_site_fract_x
 _atom_site_fract_y
 _atom_site_fract_z
 _atom_site_occupancy
  Hf  Hf0  1  0.546016  0.505561  0.455954  1
  Hf  Hf1  1  0.050145  0.505712  0.958966  1
  Hf  Hf2  1  0.247284  0.098358  0.346740  1
  Hf  Hf3  1  0.750590  0.097392  0.851022  1
  Hf  Hf4  1  0.954509  0.906601  0.456004  1
  Hf  Hf5  1  0.451197  0.907631  0.952401  1
  Ti  Ti6  1  0.625633  0.505494  0.882831  1
  Ti  Ti7  1  0.000116  0.752812  0.752782  1
  Ti  Ti8  1  0.878087  0.254034  0.379027  1
  Ti  Ti9  1  0.123005  0.502194  0.376241  1
  Ti  Ti10  1  0.499419  0.749281  0.250046  1
  Ti  Ti11  1  0.374058  0.255027  0.877965  1
  Si  Si12  1  0.333470  0.837415  0.503243  1
  Si  Si13  1  0.749576  0.501976  0.254020  1
  Si  Si14  1  0.833086  0.835846  0.003398  1
  Si  Si15  1  0.250475  0.504479  0.752527  1
  Si  Si16  1  0.166371  0.169970  0.003011  1
  Ge  Ge17  1  0.666962  0.170215  0.503822  1
