# generated using pymatgen
data_Zr2TaIr3
_symmetry_space_group_name_H-M   'P 1'
_cell_length_a   5.45560070
_cell_length_b   5.45560019
_cell_length_c   5.21250325
_cell_angle_alpha   58.44488031
_cell_angle_beta   58.44488377
_cell_angle_gamma   60.00000323
_symmetry_Int_Tables_number   1
_chemical_formula_structural   Zr2TaIr3
_chemical_formula_sum   'Zr2 Ta1 Ir3'
_cell_volume   107.05272863
_cell_formula_units_Z   1
loop_
 _symmetry_equiv_pos_site_id
 _symmetry_equiv_pos_as_xyz
  1  'x, y, z'
loop_
 _atom_site_type_symbol
 _atom_site_label
 _atom_site_symmetry_multiplicity
 _atom_site_fract_x
 _atom_site_fract_y
 _atom_site_fract_z
 _atom_site_occupancy
  Zr  Zr0  1  0.496542  0.496542  0.510375  1
  Zr  Zr1  1  0.753458  0.753458  0.739625  1
  Ta  Ta2  1  0.125000  0.125000  0.625000  1
  Ir  Ir3  1  0.625000  0.125000  0.125000  1
  Ir  Ir4  1  0.125000  0.125000  0.125000  1
  Ir  Ir5  1  0.125000  0.625000  0.125000  1
