# generated using pymatgen
data_Al3ZnPd8
_symmetry_space_group_name_H-M   'P 1'
_cell_length_a   4.11096800
_cell_length_b   5.48986633
_cell_length_c   7.87180841
_cell_angle_alpha   89.82101950
_cell_angle_beta   90.00000000
_cell_angle_gamma   90.00000000
_symmetry_Int_Tables_number   1
_chemical_formula_structural   Al3ZnPd8
_chemical_formula_sum   'Al3 Zn1 Pd8'
_cell_volume   177.65533861
_cell_formula_units_Z   1
loop_
 _symmetry_equiv_pos_site_id
 _symmetry_equiv_pos_as_xyz
  1  'x, y, z'
loop_
 _atom_site_type_symbol
 _atom_site_label
 _atom_site_symmetry_multiplicity
 _atom_site_fract_x
 _atom_site_fract_y
 _atom_site_fract_z
 _atom_site_occupancy
  Al  Al0  1  0.250000  0.186173  0.099151  1
  Al  Al1  1  0.750000  0.302978  0.605925  1
  Al  Al2  1  0.250000  0.694681  0.397431  1
  Zn  Zn3  1  0.750000  0.811145  0.897567  1
  Pd  Pd4  1  0.750000  0.460610  0.287528  1
  Pd  Pd5  1  0.250000  0.542344  0.714076  1
  Pd  Pd6  1  0.750000  0.961050  0.216853  1
  Pd  Pd7  1  0.250000  0.046243  0.779816  1
  Pd  Pd8  1  0.750000  0.332899  0.934512  1
  Pd  Pd9  1  0.250000  0.660974  0.072562  1
  Pd  Pd10  1  0.750000  0.832277  0.564959  1
  Pd  Pd11  1  0.250000  0.168626  0.429619  1
