# generated using pymatgen
data_Sc8Ta9V(Si8W)2
_symmetry_space_group_name_H-M   'P 1'
_cell_length_a   6.85024461
_cell_length_b   6.85516637
_cell_length_c   12.61985605
_cell_angle_alpha   90.13092831
_cell_angle_beta   89.81417342
_cell_angle_gamma   89.99915947
_symmetry_Int_Tables_number   1
_chemical_formula_structural   Sc8Ta9V(Si8W)2
_chemical_formula_sum   'Sc8 Ta9 V1 Si16 W2'
_cell_volume   592.61830461
_cell_formula_units_Z   1
loop_
 _symmetry_equiv_pos_site_id
 _symmetry_equiv_pos_as_xyz
  1  'x, y, z'
loop_
 _atom_site_type_symbol
 _atom_site_label
 _atom_site_symmetry_multiplicity
 _atom_site_fract_x
 _atom_site_fract_y
 _atom_site_fract_z
 _atom_site_occupancy
  Sc  Sc0  1  0.999800  0.660381  0.031808  1
  Sc  Sc1  1  0.841006  0.500953  0.279775  1
  Sc  Sc2  1  0.160385  0.499785  0.780901  1
  Sc  Sc3  1  0.500011  0.841276  0.718799  1
  Sc  Sc4  1  0.497434  0.159338  0.220175  1
  Sc  Sc5  1  0.001116  0.342145  0.529214  1
  Sc  Sc6  1  0.659364  0.999911  0.970804  1
  Sc  Sc7  1  0.338956  0.000133  0.468755  1
  Ta  Ta8  1  0.829356  0.171670  0.749961  1
  Ta  Ta9  1  0.672911  0.670340  0.498215  1
  Ta  Ta10  1  0.005182  0.150144  0.126812  1
  Ta  Ta11  1  0.349856  0.502796  0.375439  1
  Ta  Ta12  1  0.650770  0.493396  0.877217  1
  Ta  Ta13  1  0.507728  0.347957  0.622863  1
  Ta  Ta14  1  0.493591  0.651687  0.124884  1
  Ta  Ta15  1  0.995168  0.848935  0.626374  1
  Ta  Ta16  1  0.150345  0.004788  0.874816  1
  V  V17  1  0.847053  0.990122  0.373344  1
  Si  Si18  1  0.301656  0.957480  0.064782  1
  Si  Si19  1  0.545555  0.804865  0.315450  1
  Si  Si20  1  0.454862  0.198187  0.814838  1
  Si  Si21  1  0.802448  0.543825  0.685572  1
  Si  Si22  1  0.198566  0.455948  0.186527  1
  Si  Si23  1  0.701534  0.042326  0.559984  1
  Si  Si24  1  0.958440  0.303156  0.936639  1
  Si  Si25  1  0.043567  0.706097  0.433081  1
  Si  Si26  1  0.704336  0.361195  0.072894  1
  Si  Si27  1  0.129778  0.199951  0.323798  1
  Si  Si28  1  0.859906  0.794629  0.821773  1
  Si  Si29  1  0.205669  0.140178  0.677479  1
  Si  Si30  1  0.796351  0.862884  0.181936  1
  Si  Si31  1  0.294756  0.638524  0.570588  1
  Si  Si32  1  0.360385  0.704572  0.928423  1
  Si  Si33  1  0.642237  0.287691  0.425182  1
  W  W34  1  0.328530  0.330980  0.001412  1
  W  W35  1  0.171393  0.831754  0.249482  1
