# generated using pymatgen
data_V3Ag2SbS6
_symmetry_space_group_name_H-M   'P 1'
_cell_length_a   5.48897200
_cell_length_b   5.48897097
_cell_length_c   8.21588900
_cell_angle_alpha   90.00000000
_cell_angle_beta   90.00000000
_cell_angle_gamma   120.00000622
_symmetry_Int_Tables_number   1
_chemical_formula_structural   V3Ag2SbS6
_chemical_formula_sum   'V3 Ag2 Sb1 S6'
_cell_volume   214.37153447
_cell_formula_units_Z   1
loop_
 _symmetry_equiv_pos_site_id
 _symmetry_equiv_pos_as_xyz
  1  'x, y, z'
loop_
 _atom_site_type_symbol
 _atom_site_label
 _atom_site_symmetry_multiplicity
 _atom_site_fract_x
 _atom_site_fract_y
 _atom_site_fract_z
 _atom_site_occupancy
  V  V0  1  0.658912  0.658912  0.500000  1
  V  V1  1  0.341088  0.000000  0.500000  1
  V  V2  1  0.000000  0.341088  0.500000  1
  Ag  Ag3  1  0.666667  0.333333  0.000000  1
  Ag  Ag4  1  0.333333  0.666667  0.000000  1
  Sb  Sb5  1  0.000000  0.000000  0.000000  1
  S  S6  1  0.333333  0.666667  0.680846  1
  S  S7  1  0.333333  0.666667  0.319154  1
  S  S8  1  0.666667  0.333333  0.680846  1
  S  S9  1  0.666667  0.333333  0.319154  1
  S  S10  1  0.000000  0.000000  0.672011  1
  S  S11  1  0.000000  0.000000  0.327989  1
