# generated using pymatgen
data_Ho3Er2TlCd2InPd2
_symmetry_space_group_name_H-M   'P 1'
_cell_length_a   3.59871900
_cell_length_b   8.08936849
_cell_length_c   18.35343268
_cell_angle_alpha   89.91003068
_cell_angle_beta   90.00000000
_cell_angle_gamma   90.00000000
_symmetry_Int_Tables_number   1
_chemical_formula_structural   Ho3Er2TlCd2InPd2
_chemical_formula_sum   'Ho6 Er4 Tl2 Cd4 In2 Pd4'
_cell_volume   534.29280175
_cell_formula_units_Z   2
loop_
 _symmetry_equiv_pos_site_id
 _symmetry_equiv_pos_as_xyz
  1  'x, y, z'
loop_
 _atom_site_type_symbol
 _atom_site_label
 _atom_site_symmetry_multiplicity
 _atom_site_fract_x
 _atom_site_fract_y
 _atom_site_fract_z
 _atom_site_occupancy
  Ho  Ho0  1  0.000000  0.500000  0.500000  1
  Ho  Ho1  1  0.000000  0.000000  0.000000  1
  Ho  Ho2  1  0.000000  0.745496  0.280587  1
  Ho  Ho3  1  0.000000  0.254504  0.719413  1
  Ho  Ho4  1  0.000000  0.754515  0.781103  1
  Ho  Ho5  1  0.000000  0.245485  0.218897  1
  Er  Er6  1  0.000000  0.614836  0.083695  1
  Er  Er7  1  0.000000  0.385164  0.916305  1
  Er  Er8  1  0.000000  0.886715  0.584071  1
  Er  Er9  1  0.000000  0.113285  0.415929  1
  Tl  Tl10  1  0.500000  0.572579  0.646343  1
  Tl  Tl11  1  0.500000  0.427421  0.353657  1
  Cd  Cd12  1  0.500000  0.709640  0.932136  1
  Cd  Cd13  1  0.500000  0.290360  0.067864  1
  Cd  Cd14  1  0.500000  0.792873  0.432741  1
  Cd  Cd15  1  0.500000  0.207127  0.567259  1
  In  In16  1  0.500000  0.928089  0.147457  1
  In  In17  1  0.500000  0.071911  0.852543  1
  Pd  Pd18  1  0.500000  0.528419  0.195488  1
  Pd  Pd19  1  0.500000  0.471581  0.804512  1
  Pd  Pd20  1  0.500000  0.973879  0.696572  1
  Pd  Pd21  1  0.500000  0.026121  0.303428  1
