# generated using pymatgen
data_Li8TbTh7Sn8
_symmetry_space_group_name_H-M   'P 1'
_cell_length_a   9.65578000
_cell_length_b   9.65577983
_cell_length_c   7.34875300
_cell_angle_alpha   90.00000000
_cell_angle_beta   90.00000000
_cell_angle_gamma   120.00000743
_symmetry_Int_Tables_number   1
_chemical_formula_structural   Li8TbTh7Sn8
_chemical_formula_sum   'Li8 Tb1 Th7 Sn8'
_cell_volume   593.36095672
_cell_formula_units_Z   1
loop_
 _symmetry_equiv_pos_site_id
 _symmetry_equiv_pos_as_xyz
  1  'x, y, z'
loop_
 _atom_site_type_symbol
 _atom_site_label
 _atom_site_symmetry_multiplicity
 _atom_site_fract_x
 _atom_site_fract_y
 _atom_site_fract_z
 _atom_site_occupancy
  Li  Li0  1  0.165944  0.331890  0.263339  1
  Li  Li1  1  0.165944  0.834056  0.263339  1
  Li  Li2  1  0.668110  0.834056  0.263339  1
  Li  Li3  1  0.834938  0.669875  0.782839  1
  Li  Li4  1  0.834938  0.165062  0.782839  1
  Li  Li5  1  0.330125  0.165062  0.782839  1
  Li  Li6  1  0.333333  0.666667  0.696816  1
  Li  Li7  1  0.666667  0.333333  0.194081  1
  Tb  Tb8  1  0.000000  0.000000  0.999742  1
  Th  Th9  1  0.507670  0.015341  0.494833  1
  Th  Th10  1  0.507670  0.492330  0.494833  1
  Th  Th11  1  0.984659  0.492330  0.494833  1
  Th  Th12  1  0.492400  0.984799  0.994699  1
  Th  Th13  1  0.492400  0.507600  0.994699  1
  Th  Th14  1  0.015201  0.507600  0.994699  1
  Th  Th15  1  0.000000  0.000000  0.499080  1
  Sn  Sn16  1  0.165731  0.331462  0.739394  1
  Sn  Sn17  1  0.165731  0.834269  0.739394  1
  Sn  Sn18  1  0.668538  0.834269  0.739394  1
  Sn  Sn19  1  0.834682  0.669363  0.233391  1
  Sn  Sn20  1  0.834682  0.165318  0.233391  1
  Sn  Sn21  1  0.330637  0.165318  0.233391  1
  Sn  Sn22  1  0.333333  0.666667  0.264751  1
  Sn  Sn23  1  0.666667  0.333333  0.762043  1
