# generated using pymatgen
data_Nd2Al(SiPd2)6
_symmetry_space_group_name_H-M   'P 1'
_cell_length_a   10.07644300
_cell_length_b   10.07644135
_cell_length_c   3.91083400
_cell_angle_alpha   90.00000000
_cell_angle_beta   90.00000000
_cell_angle_gamma   120.00000214
_symmetry_Int_Tables_number   1
_chemical_formula_structural   Nd2Al(SiPd2)6
_chemical_formula_sum   'Nd2 Al1 Si6 Pd12'
_cell_volume   343.88595479
_cell_formula_units_Z   1
loop_
 _symmetry_equiv_pos_site_id
 _symmetry_equiv_pos_as_xyz
  1  'x, y, z'
loop_
 _atom_site_type_symbol
 _atom_site_label
 _atom_site_symmetry_multiplicity
 _atom_site_fract_x
 _atom_site_fract_y
 _atom_site_fract_z
 _atom_site_occupancy
  Nd  Nd0  1  0.666667  0.333333  0.247933  1
  Nd  Nd1  1  0.000000  0.000000  0.750644  1
  Al  Al2  1  0.333333  0.666667  0.464215  1
  Si  Si3  1  0.736858  0.782021  0.251314  1
  Si  Si4  1  0.045163  0.263142  0.251314  1
  Si  Si5  1  0.217979  0.954837  0.251314  1
  Si  Si6  1  0.929438  0.551953  0.747357  1
  Si  Si7  1  0.622515  0.070562  0.747357  1
  Si  Si8  1  0.448047  0.377485  0.747357  1
  Pd  Pd9  1  0.774489  0.047780  0.249536  1
  Pd  Pd10  1  0.273291  0.225511  0.249536  1
  Pd  Pd11  1  0.952220  0.726709  0.249536  1
  Pd  Pd12  1  0.892481  0.284340  0.749248  1
  Pd  Pd13  1  0.391860  0.107519  0.749248  1
  Pd  Pd14  1  0.715660  0.608140  0.749248  1
  Pd  Pd15  1  0.485076  0.549437  0.246598  1
  Pd  Pd16  1  0.064361  0.514924  0.246598  1
  Pd  Pd17  1  0.450563  0.935639  0.246598  1
  Pd  Pd18  1  0.185248  0.780433  0.752188  1
  Pd  Pd19  1  0.595185  0.814752  0.752188  1
  Pd  Pd20  1  0.219567  0.404815  0.752188  1
