# generated using pymatgen
data_Nb3Fe(BRu2)2
_symmetry_space_group_name_H-M   'P 1'
_cell_length_a   9.34847400
_cell_length_b   9.34847400
_cell_length_c   3.03144100
_cell_angle_alpha   90.00000000
_cell_angle_beta   90.00000000
_cell_angle_gamma   90.00000000
_symmetry_Int_Tables_number   1
_chemical_formula_structural   Nb3Fe(BRu2)2
_chemical_formula_sum   'Nb6 Fe2 B4 Ru8'
_cell_volume   264.92965208
_cell_formula_units_Z   2
loop_
 _symmetry_equiv_pos_site_id
 _symmetry_equiv_pos_as_xyz
  1  'x, y, z'
loop_
 _atom_site_type_symbol
 _atom_site_label
 _atom_site_symmetry_multiplicity
 _atom_site_fract_x
 _atom_site_fract_y
 _atom_site_fract_z
 _atom_site_occupancy
  Nb  Nb0  1  0.827486  0.672514  0.000000  1
  Nb  Nb1  1  0.172514  0.327486  0.000000  1
  Nb  Nb2  1  0.327486  0.827486  0.000000  1
  Nb  Nb3  1  0.672514  0.172514  0.000000  1
  Nb  Nb4  1  0.500000  0.500000  0.000000  1
  Nb  Nb5  1  0.000000  0.000000  0.000000  1
  Fe  Fe6  1  0.500000  0.000000  0.500000  1
  Fe  Fe7  1  0.000000  0.500000  0.500000  1
  B  B8  1  0.611359  0.888641  0.000000  1
  B  B9  1  0.388641  0.111359  0.000000  1
  B  B10  1  0.111359  0.611359  0.000000  1
  B  B11  1  0.888641  0.388641  0.000000  1
  Ru  Ru12  1  0.568316  0.723341  0.500000  1
  Ru  Ru13  1  0.431684  0.276659  0.500000  1
  Ru  Ru14  1  0.068316  0.776659  0.500000  1
  Ru  Ru15  1  0.931684  0.223341  0.500000  1
  Ru  Ru16  1  0.276659  0.568316  0.500000  1
  Ru  Ru17  1  0.723341  0.431684  0.500000  1
  Ru  Ru18  1  0.223341  0.068316  0.500000  1
  Ru  Ru19  1  0.776659  0.931684  0.500000  1
