# generated using pymatgen
data_Tb5(SiHg)2
_symmetry_space_group_name_H-M   'P 1'
_cell_length_a   8.82311780
_cell_length_b   8.82311808
_cell_length_c   7.61150600
_cell_angle_alpha   90.00000000
_cell_angle_beta   90.00000000
_cell_angle_gamma   129.08592111
_symmetry_Int_Tables_number   1
_chemical_formula_structural   Tb5(SiHg)2
_chemical_formula_sum   'Tb10 Si4 Hg4'
_cell_volume   459.92726936
_cell_formula_units_Z   2
loop_
 _symmetry_equiv_pos_site_id
 _symmetry_equiv_pos_as_xyz
  1  'x, y, z'
loop_
 _atom_site_type_symbol
 _atom_site_label
 _atom_site_symmetry_multiplicity
 _atom_site_fract_x
 _atom_site_fract_y
 _atom_site_fract_z
 _atom_site_occupancy
  Tb  Tb0  1  0.055368  0.310018  0.324231  1
  Tb  Tb1  1  0.944632  0.689982  0.675769  1
  Tb  Tb2  1  0.444632  0.189982  0.824231  1
  Tb  Tb3  1  0.810018  0.555368  0.175769  1
  Tb  Tb4  1  0.555368  0.810018  0.175769  1
  Tb  Tb5  1  0.189982  0.444632  0.824231  1
  Tb  Tb6  1  0.689982  0.944632  0.675769  1
  Tb  Tb7  1  0.310018  0.055368  0.324231  1
  Tb  Tb8  1  0.000000  0.000000  0.000000  1
  Tb  Tb9  1  0.500000  0.500000  0.500000  1
  Si  Si10  1  0.382007  0.382007  0.121218  1
  Si  Si11  1  0.617993  0.617993  0.878782  1
  Si  Si12  1  0.117993  0.117993  0.621218  1
  Si  Si13  1  0.882007  0.882007  0.378782  1
  Hg  Hg14  1  0.782374  0.217626  0.000000  1
  Hg  Hg15  1  0.217626  0.782374  0.000000  1
  Hg  Hg16  1  0.717626  0.282374  0.500000  1
  Hg  Hg17  1  0.282374  0.717626  0.500000  1
