# generated using pymatgen
data_HoEr15In4(NiIr)2
_symmetry_space_group_name_H-M   'P 1'
_cell_length_a   9.50587037
_cell_length_b   9.53049160
_cell_length_c   9.53033384
_cell_angle_alpha   60.33925177
_cell_angle_beta   60.08394128
_cell_angle_gamma   60.08475789
_symmetry_Int_Tables_number   1
_chemical_formula_structural   HoEr15In4(NiIr)2
_chemical_formula_sum   'Ho1 Er15 In4 Ni2 Ir2'
_cell_volume   612.85369497
_cell_formula_units_Z   1
loop_
 _symmetry_equiv_pos_site_id
 _symmetry_equiv_pos_as_xyz
  1  'x, y, z'
loop_
 _atom_site_type_symbol
 _atom_site_label
 _atom_site_symmetry_multiplicity
 _atom_site_fract_x
 _atom_site_fract_y
 _atom_site_fract_z
 _atom_site_occupancy
  Ho  Ho0  1  0.061125  0.060935  0.435512  1
  Er  Er1  1  0.649696  0.047365  0.653158  1
  Er  Er2  1  0.190921  0.808695  0.187945  1
  Er  Er3  1  0.442549  0.060891  0.435552  1
  Er  Er4  1  0.190913  0.187992  0.808699  1
  Er  Er5  1  0.650686  0.652586  0.652573  1
  Er  Er6  1  0.044119  0.652657  0.652709  1
  Er  Er7  1  0.438147  0.061930  0.061840  1
  Er  Er8  1  0.649726  0.653133  0.047385  1
  Er  Er9  1  0.189917  0.810052  0.810060  1
  Er  Er10  1  0.812579  0.187754  0.808946  1
  Er  Er11  1  0.809668  0.190350  0.190304  1
  Er  Er12  1  0.812631  0.808905  0.187721  1
  Er  Er13  1  0.060892  0.439200  0.439167  1
  Er  Er14  1  0.442525  0.435559  0.060885  1
  Er  Er15  1  0.061132  0.435584  0.060830  1
  In  In16  1  0.748313  0.417486  0.417406  1
  In  In17  1  0.416785  0.417335  0.749273  1
  In  In18  1  0.416791  0.749076  0.417457  1
  In  In19  1  0.416592  0.417564  0.417587  1
  Ni  Ni20  1  0.855071  0.859789  0.859859  1
  Ni  Ni21  1  0.424558  0.859687  0.859683  1
  Ir  Ir22  1  0.857347  0.860149  0.425281  1
  Ir  Ir23  1  0.857324  0.425325  0.860170  1
