# generated using pymatgen
data_Cs2Cu3MoF12
_symmetry_space_group_name_H-M   'P 1'
_cell_length_a   7.12844000
_cell_length_b   8.08793500
_cell_length_c   10.96208905
_cell_angle_alpha   99.86887640
_cell_angle_beta   90.00000000
_cell_angle_gamma   90.00000000
_symmetry_Int_Tables_number   1
_chemical_formula_structural   Cs2Cu3MoF12
_chemical_formula_sum   'Cs4 Cu6 Mo2 F24'
_cell_volume   622.66006743
_cell_formula_units_Z   2
loop_
 _symmetry_equiv_pos_site_id
 _symmetry_equiv_pos_as_xyz
  1  'x, y, z'
loop_
 _atom_site_type_symbol
 _atom_site_label
 _atom_site_symmetry_multiplicity
 _atom_site_fract_x
 _atom_site_fract_y
 _atom_site_fract_z
 _atom_site_occupancy
  Cs  Cs0  1  0.501727  0.721196  0.390693  1
  Cs  Cs1  1  0.998273  0.221196  0.890693  1
  Cs  Cs2  1  0.498273  0.278804  0.609307  1
  Cs  Cs3  1  0.001727  0.778804  0.109307  1
  Cu  Cu4  1  0.500000  0.000000  0.000000  1
  Cu  Cu5  1  0.000000  0.500000  0.500000  1
  Cu  Cu6  1  0.231708  0.742802  0.758999  1
  Cu  Cu7  1  0.268292  0.242802  0.258999  1
  Cu  Cu8  1  0.768292  0.257198  0.241001  1
  Cu  Cu9  1  0.731708  0.757198  0.741001  1
  Mo  Mo10  1  0.500000  0.500000  0.000000  1
  Mo  Mo11  1  0.000000  0.000000  0.500000  1
  F  F12  1  0.290769  0.918828  0.894704  1
  F  F13  1  0.209231  0.418828  0.394704  1
  F  F14  1  0.709231  0.081172  0.105296  1
  F  F15  1  0.790769  0.581172  0.605296  1
  F  F16  1  0.823969  0.445923  0.367202  1
  F  F17  1  0.676031  0.945923  0.867202  1
  F  F18  1  0.176031  0.554077  0.632798  1
  F  F19  1  0.323969  0.054077  0.132798  1
  F  F20  1  0.476372  0.738708  0.683948  1
  F  F21  1  0.023628  0.238708  0.183948  1
  F  F22  1  0.523628  0.261292  0.316052  1
  F  F23  1  0.976372  0.761292  0.816052  1
  F  F24  1  0.767895  0.949324  0.594731  1
  F  F25  1  0.732105  0.449324  0.094731  1
  F  F26  1  0.232106  0.050676  0.405269  1
  F  F27  1  0.267894  0.550676  0.905269  1
  F  F28  1  0.332236  0.482790  0.141772  1
  F  F29  1  0.167764  0.982790  0.641772  1
  F  F30  1  0.667764  0.517210  0.858228  1
  F  F31  1  0.832236  0.017210  0.358228  1
  F  F32  1  0.450539  0.260805  0.926484  1
  F  F33  1  0.049461  0.760805  0.426484  1
  F  F34  1  0.549461  0.739195  0.073516  1
  F  F35  1  0.950539  0.239195  0.573516  1
