# generated using pymatgen
data_Ho5GeMoO12
_symmetry_space_group_name_H-M   'P 1'
_cell_length_a   6.79361817
_cell_length_b   6.79361705
_cell_length_c   7.25165331
_cell_angle_alpha   74.45524774
_cell_angle_beta   74.45524887
_cell_angle_gamma   51.54959938
_symmetry_Int_Tables_number   1
_chemical_formula_structural   Ho5GeMoO12
_chemical_formula_sum   'Ho5 Ge1 Mo1 O12'
_cell_volume   250.23334926
_cell_formula_units_Z   1
loop_
 _symmetry_equiv_pos_site_id
 _symmetry_equiv_pos_as_xyz
  1  'x, y, z'
loop_
 _atom_site_type_symbol
 _atom_site_label
 _atom_site_symmetry_multiplicity
 _atom_site_fract_x
 _atom_site_fract_y
 _atom_site_fract_z
 _atom_site_occupancy
  Ho  Ho0  1  0.312203  0.292132  0.361236  1
  Ho  Ho1  1  0.707868  0.687797  0.638764  1
  Ho  Ho2  1  0.310050  0.305095  0.828598  1
  Ho  Ho3  1  0.694905  0.689950  0.171402  1
  Ho  Ho4  1  0.997621  0.002379  0.500000  1
  Ge  Ge5  1  0.747661  0.252339  0.000000  1
  Mo  Mo6  1  0.234929  0.765071  0.000000  1
  O  O7  1  0.898895  0.424362  0.917729  1
  O  O8  1  0.428713  0.898118  0.917527  1
  O  O9  1  0.101882  0.571287  0.082473  1
  O  O10  1  0.575638  0.101105  0.082271  1
  O  O11  1  0.100768  0.596781  0.574167  1
  O  O12  1  0.597370  0.092350  0.576085  1
  O  O13  1  0.907650  0.402630  0.423915  1
  O  O14  1  0.403219  0.899232  0.425833  1
  O  O15  1  0.985381  0.013889  0.817095  1
  O  O16  1  0.986111  0.014619  0.182905  1
  O  O17  1  0.503960  0.494826  0.814446  1
  O  O18  1  0.505174  0.496040  0.185554  1
