# generated using pymatgen
data_Dy2MgPa(Co4P3)2
_symmetry_space_group_name_H-M   'P 1'
_cell_length_a   3.75865100
_cell_length_b   10.66826800
_cell_length_c   12.24582300
_cell_angle_alpha   90.00000000
_cell_angle_beta   90.00000000
_cell_angle_gamma   90.00000000
_symmetry_Int_Tables_number   1
_chemical_formula_structural   Dy2MgPa(Co4P3)2
_chemical_formula_sum   'Dy4 Mg2 Pa2 Co16 P12'
_cell_volume   491.03663770
_cell_formula_units_Z   2
loop_
 _symmetry_equiv_pos_site_id
 _symmetry_equiv_pos_as_xyz
  1  'x, y, z'
loop_
 _atom_site_type_symbol
 _atom_site_label
 _atom_site_symmetry_multiplicity
 _atom_site_fract_x
 _atom_site_fract_y
 _atom_site_fract_z
 _atom_site_occupancy
  Dy  Dy0  1  0.500000  0.818732  0.205083  1
  Dy  Dy1  1  0.500000  0.181268  0.205083  1
  Dy  Dy2  1  0.000000  0.681268  0.794917  1
  Dy  Dy3  1  0.000000  0.318732  0.794917  1
  Mg  Mg4  1  0.500000  0.500000  0.154286  1
  Mg  Mg5  1  0.000000  0.000000  0.845714  1
  Pa  Pa6  1  0.000000  0.500000  0.532545  1
  Pa  Pa7  1  0.500000  0.000000  0.467455  1
  Co  Co8  1  0.500000  0.500000  0.696052  1
  Co  Co9  1  0.000000  0.000000  0.303948  1
  Co  Co10  1  0.000000  0.500000  0.987326  1
  Co  Co11  1  0.500000  0.000000  0.012674  1
  Co  Co12  1  0.500000  0.333576  0.994763  1
  Co  Co13  1  0.500000  0.666424  0.994763  1
  Co  Co14  1  0.000000  0.166424  0.005237  1
  Co  Co15  1  0.000000  0.833576  0.005237  1
  Co  Co16  1  0.500000  0.299238  0.433641  1
  Co  Co17  1  0.500000  0.700762  0.433641  1
  Co  Co18  1  0.000000  0.200762  0.566359  1
  Co  Co19  1  0.000000  0.799238  0.566359  1
  Co  Co20  1  0.500000  0.878521  0.705629  1
  Co  Co21  1  0.500000  0.121479  0.705629  1
  Co  Co22  1  0.000000  0.621479  0.294371  1
  Co  Co23  1  0.000000  0.378521  0.294371  1
  P  P24  1  0.500000  0.500000  0.879971  1
  P  P25  1  0.000000  0.000000  0.120029  1
  P  P26  1  0.500000  0.500000  0.354264  1
  P  P27  1  0.000000  0.000000  0.645736  1
  P  P28  1  0.500000  0.306550  0.616621  1
  P  P29  1  0.500000  0.693450  0.616621  1
  P  P30  1  0.000000  0.193450  0.383379  1
  P  P31  1  0.000000  0.806550  0.383379  1
  P  P32  1  0.500000  0.839822  0.894894  1
  P  P33  1  0.500000  0.160178  0.894894  1
  P  P34  1  0.000000  0.660178  0.105106  1
  P  P35  1  0.000000  0.339822  0.105106  1
