# generated using pymatgen
data_LiTb16Cd3Pt4
_symmetry_space_group_name_H-M   'P 1'
_cell_length_a   9.71527085
_cell_length_b   9.71527057
_cell_length_c   9.71527012
_cell_angle_alpha   60.17038956
_cell_angle_beta   60.17039045
_cell_angle_gamma   60.17038917
_symmetry_Int_Tables_number   1
_chemical_formula_structural   LiTb16Cd3Pt4
_chemical_formula_sum   'Li1 Tb16 Cd3 Pt4'
_cell_volume   650.91219415
_cell_formula_units_Z   1
loop_
 _symmetry_equiv_pos_site_id
 _symmetry_equiv_pos_as_xyz
  1  'x, y, z'
loop_
 _atom_site_type_symbol
 _atom_site_label
 _atom_site_symmetry_multiplicity
 _atom_site_fract_x
 _atom_site_fract_y
 _atom_site_fract_z
 _atom_site_occupancy
  Li  Li0  1  0.572125  0.572125  0.572125  1
  Tb  Tb1  1  0.350496  0.350496  0.350496  1
  Tb  Tb2  1  0.352914  0.352914  0.942910  1
  Tb  Tb3  1  0.352914  0.942910  0.352914  1
  Tb  Tb4  1  0.942910  0.352914  0.352914  1
  Tb  Tb5  1  0.810187  0.192050  0.192050  1
  Tb  Tb6  1  0.187688  0.812832  0.812832  1
  Tb  Tb7  1  0.192050  0.810187  0.192050  1
  Tb  Tb8  1  0.812832  0.187688  0.812832  1
  Tb  Tb9  1  0.192050  0.192050  0.810187  1
  Tb  Tb10  1  0.812832  0.812832  0.187688  1
  Tb  Tb11  1  0.936455  0.564973  0.564973  1
  Tb  Tb12  1  0.563081  0.936344  0.936344  1
  Tb  Tb13  1  0.564973  0.936455  0.564973  1
  Tb  Tb14  1  0.936344  0.563081  0.936344  1
  Tb  Tb15  1  0.564973  0.564973  0.936455  1
  Tb  Tb16  1  0.936344  0.936344  0.563081  1
  Cd  Cd17  1  0.582282  0.582282  0.254002  1
  Cd  Cd18  1  0.582282  0.254002  0.582282  1
  Cd  Cd19  1  0.254002  0.582282  0.582282  1
  Pt  Pt20  1  0.144639  0.144639  0.144639  1
  Pt  Pt21  1  0.142202  0.142202  0.571222  1
  Pt  Pt22  1  0.142202  0.571222  0.142202  1
  Pt  Pt23  1  0.571222  0.142202  0.142202  1
