# generated using pymatgen
data_InPRu2
_symmetry_space_group_name_H-M   'P 1'
_cell_length_a   3.21670900
_cell_length_b   5.95789800
_cell_length_c   6.83847800
_cell_angle_alpha   90.00000000
_cell_angle_beta   90.00000000
_cell_angle_gamma   90.00000000
_symmetry_Int_Tables_number   1
_chemical_formula_structural   InPRu2
_chemical_formula_sum   'In2 P2 Ru4'
_cell_volume   131.05822810
_cell_formula_units_Z   2
loop_
 _symmetry_equiv_pos_site_id
 _symmetry_equiv_pos_as_xyz
  1  'x, y, z'
loop_
 _atom_site_type_symbol
 _atom_site_label
 _atom_site_symmetry_multiplicity
 _atom_site_fract_x
 _atom_site_fract_y
 _atom_site_fract_z
 _atom_site_occupancy
  In  In0  1  0.000000  0.500000  0.458278  1
  In  In1  1  0.499999  0.000000  0.541722  1
  P  P2  1  0.000000  0.000000  0.080971  1
  P  P3  1  0.499999  0.500000  0.919029  1
  Ru  Ru4  1  0.499999  0.250719  0.183556  1
  Ru  Ru5  1  0.499999  0.749282  0.183556  1
  Ru  Ru6  1  0.000000  0.249282  0.816445  1
  Ru  Ru7  1  0.000000  0.750719  0.816445  1
