# generated using pymatgen
data_Y5Th3(TcB6)4
_symmetry_space_group_name_H-M   'P 1'
_cell_length_a   3.76378000
_cell_length_b   9.24310828
_cell_length_c   11.65638501
_cell_angle_alpha   89.90786638
_cell_angle_beta   90.00000000
_cell_angle_gamma   90.00000000
_symmetry_Int_Tables_number   1
_chemical_formula_structural   Y5Th3(TcB6)4
_chemical_formula_sum   'Y5 Th3 Tc4 B24'
_cell_volume   405.51375784
_cell_formula_units_Z   1
loop_
 _symmetry_equiv_pos_site_id
 _symmetry_equiv_pos_as_xyz
  1  'x, y, z'
loop_
 _atom_site_type_symbol
 _atom_site_label
 _atom_site_symmetry_multiplicity
 _atom_site_fract_x
 _atom_site_fract_y
 _atom_site_fract_z
 _atom_site_occupancy
  Y  Y0  1  0.000000  0.677526  0.586087  1
  Y  Y1  1  0.000000  0.444337  0.128083  1
  Y  Y2  1  0.000000  0.556926  0.870377  1
  Y  Y3  1  0.000000  0.941893  0.372701  1
  Y  Y4  1  0.000000  0.055381  0.628286  1
  Th  Th5  1  0.000000  0.821823  0.085593  1
  Th  Th6  1  0.000000  0.177930  0.913353  1
  Th  Th7  1  0.000000  0.324103  0.415025  1
  Tc  Tc8  1  0.000000  0.138558  0.179969  1
  Tc  Tc9  1  0.000000  0.861831  0.820232  1
  Tc  Tc10  1  0.000000  0.638832  0.320587  1
  Tc  Tc11  1  0.000000  0.361424  0.679411  1
  B  B12  1  0.500000  0.055529  0.070121  1
  B  B13  1  0.500000  0.944326  0.929629  1
  B  B14  1  0.500000  0.555782  0.432407  1
  B  B15  1  0.500000  0.446599  0.569029  1
  B  B16  1  0.500000  0.249092  0.083160  1
  B  B17  1  0.500000  0.750791  0.915880  1
  B  B18  1  0.500000  0.748236  0.419355  1
  B  B19  1  0.500000  0.252155  0.583142  1
  B  B20  1  0.500000  0.289999  0.233637  1
  B  B21  1  0.500000  0.708636  0.764754  1
  B  B22  1  0.500000  0.789669  0.267901  1
  B  B23  1  0.500000  0.210235  0.732882  1
  B  B24  1  0.500000  0.130024  0.314071  1
  B  B25  1  0.500000  0.868180  0.684877  1
  B  B26  1  0.500000  0.630627  0.186949  1
  B  B27  1  0.500000  0.370562  0.812676  1
  B  B28  1  0.500000  0.485488  0.287630  1
  B  B29  1  0.500000  0.517654  0.712110  1
  B  B30  1  0.500000  0.984572  0.213845  1
  B  B31  1  0.500000  0.014584  0.785930  1
  B  B32  1  0.500000  0.101700  0.471779  1
  B  B33  1  0.500000  0.894631  0.529377  1
  B  B34  1  0.500000  0.603768  0.028183  1
  B  B35  1  0.500000  0.396597  0.970975  1
