# generated using pymatgen
data_La2Ga3SiRh6
_symmetry_space_group_name_H-M   'P 1'
_cell_length_a   5.72687680
_cell_length_b   6.83838894
_cell_length_c   6.83838955
_cell_angle_alpha   66.41673044
_cell_angle_beta   65.07292308
_cell_angle_gamma   65.07291856
_symmetry_Int_Tables_number   1
_chemical_formula_structural   La2Ga3SiRh6
_chemical_formula_sum   'La2 Ga3 Si1 Rh6'
_cell_volume   212.02726553
_cell_formula_units_Z   1
loop_
 _symmetry_equiv_pos_site_id
 _symmetry_equiv_pos_as_xyz
  1  'x, y, z'
loop_
 _atom_site_type_symbol
 _atom_site_label
 _atom_site_symmetry_multiplicity
 _atom_site_fract_x
 _atom_site_fract_y
 _atom_site_fract_z
 _atom_site_occupancy
  La  La0  1  0.538415  0.750741  0.750741  1
  La  La1  1  0.453039  0.249047  0.249047  1
  Ga  Ga2  1  0.221628  0.570217  0.570217  1
  Ga  Ga3  1  0.795994  0.413846  0.413846  1
  Ga  Ga4  1  0.114194  0.096038  0.096038  1
  Si  Si5  1  0.866083  0.921126  0.921126  1
  Rh  Rh6  1  0.504399  0.215576  0.782452  1
  Rh  Rh7  1  0.999174  0.737815  0.259681  1
  Rh  Rh8  1  0.504399  0.782452  0.215576  1
  Rh  Rh9  1  0.999174  0.259681  0.737815  1
  Rh  Rh10  1  0.001750  0.520287  0.983174  1
  Rh  Rh11  1  0.001750  0.983174  0.520287  1
