# generated using pymatgen
data_Yb7YSb6
_symmetry_space_group_name_H-M   'P 1'
_cell_length_a   8.19350795
_cell_length_b   8.19350803
_cell_length_c   8.12356900
_cell_angle_alpha   109.29840457
_cell_angle_beta   109.29840476
_cell_angle_gamma   109.64348207
_symmetry_Int_Tables_number   1
_chemical_formula_structural   Yb7YSb6
_chemical_formula_sum   'Yb7 Y1 Sb6'
_cell_volume   420.71360949
_cell_formula_units_Z   1
loop_
 _symmetry_equiv_pos_site_id
 _symmetry_equiv_pos_as_xyz
  1  'x, y, z'
loop_
 _atom_site_type_symbol
 _atom_site_label
 _atom_site_symmetry_multiplicity
 _atom_site_fract_x
 _atom_site_fract_y
 _atom_site_fract_z
 _atom_site_occupancy
  Yb  Yb0  1  0.649989  0.650847  0.650884  1
  Yb  Yb1  1  0.004483  0.355468  0.500576  1
  Yb  Yb2  1  0.350985  0.495517  0.996093  1
  Yb  Yb3  1  0.000858  0.850011  0.500895  1
  Yb  Yb4  1  0.849153  0.499142  0.000037  1
  Yb  Yb5  1  0.500000  0.000000  0.851076  1
  Yb  Yb6  1  0.144532  0.149015  0.145108  1
  Y  Y7  1  0.500000  0.000000  0.353632  1
  Sb  Sb8  1  0.870451  0.125536  0.743744  1
  Sb  Sb9  1  0.374464  0.244915  0.618209  1
  Sb  Sb10  1  0.131239  0.755789  0.884493  1
  Sb  Sb11  1  0.744211  0.875450  0.128704  1
  Sb  Sb12  1  0.255085  0.629549  0.373294  1
  Sb  Sb13  1  0.624550  0.368761  0.253254  1
