# generated using pymatgen
data_Dy2ScAlIr2
_symmetry_space_group_name_H-M   'P 1'
_cell_length_a   6.94854400
_cell_length_b   4.30288300
_cell_length_c   8.25691800
_cell_angle_alpha   90.00000000
_cell_angle_beta   90.00000000
_cell_angle_gamma   90.00000000
_symmetry_Int_Tables_number   1
_chemical_formula_structural   Dy2ScAlIr2
_chemical_formula_sum   'Dy4 Sc2 Al2 Ir4'
_cell_volume   246.87170749
_cell_formula_units_Z   2
loop_
 _symmetry_equiv_pos_site_id
 _symmetry_equiv_pos_as_xyz
  1  'x, y, z'
loop_
 _atom_site_type_symbol
 _atom_site_label
 _atom_site_symmetry_multiplicity
 _atom_site_fract_x
 _atom_site_fract_y
 _atom_site_fract_z
 _atom_site_occupancy
  Dy  Dy0  1  0.963320  0.250000  0.177915  1
  Dy  Dy1  1  0.463320  0.250000  0.322085  1
  Dy  Dy2  1  0.027937  0.750000  0.826382  1
  Dy  Dy3  1  0.527937  0.750000  0.673618  1
  Sc  Sc4  1  0.868114  0.250000  0.561646  1
  Sc  Sc5  1  0.368114  0.250000  0.938354  1
  Al  Al6  1  0.139072  0.750000  0.439464  1
  Al  Al7  1  0.639072  0.750000  0.060536  1
  Ir  Ir8  1  0.740468  0.250000  0.887321  1
  Ir  Ir9  1  0.240468  0.250000  0.612679  1
  Ir  Ir10  1  0.261088  0.750000  0.123169  1
  Ir  Ir11  1  0.761088  0.750000  0.376831  1
