# generated using pymatgen
data_Ac2S4O15
_symmetry_space_group_name_H-M   'P 1'
_cell_length_a   5.61240950
_cell_length_b   6.76494262
_cell_length_c   9.71353043
_cell_angle_alpha   90.27461410
_cell_angle_beta   109.67669616
_cell_angle_gamma   104.59792700
_symmetry_Int_Tables_number   1
_chemical_formula_structural   Ac2S4O15
_chemical_formula_sum   'Ac2 S4 O15'
_cell_volume   334.42367814
_cell_formula_units_Z   1
loop_
 _symmetry_equiv_pos_site_id
 _symmetry_equiv_pos_as_xyz
  1  'x, y, z'
loop_
 _atom_site_type_symbol
 _atom_site_label
 _atom_site_symmetry_multiplicity
 _atom_site_fract_x
 _atom_site_fract_y
 _atom_site_fract_z
 _atom_site_occupancy
  Ac  Ac0  1  0.978536  0.225089  0.556442  1
  Ac  Ac1  1  0.895384  0.929769  0.954787  1
  S  S2  1  0.680894  0.341470  0.854186  1
  S  S3  1  0.541087  0.788141  0.215087  1
  S  S4  1  0.374411  0.357335  0.294707  1
  S  S5  1  0.183744  0.815928  0.660707  1
  O  O6  1  0.020982  0.912814  0.725327  1
  O  O7  1  0.032380  0.604475  0.598811  1
  O  O8  1  0.839312  0.556017  0.900635  1
  O  O9  1  0.302969  0.387860  0.423221  1
  O  O10  1  0.810317  0.236012  0.771356  1
  O  O11  1  0.181256  0.194822  0.187001  1
  O  O12  1  0.340898  0.557033  0.203073  1
  O  O13  1  0.753669  0.758917  0.169091  1
  O  O14  1  0.432293  0.815760  0.778397  1
  O  O15  1  0.645799  0.349264  0.332417  1
  O  O16  1  0.228819  0.948766  0.545718  1
  O  O17  1  0.411572  0.336084  0.757875  1
  O  O18  1  0.627357  0.881704  0.364787  1
  O  O19  1  0.677233  0.222502  0.981213  1
  O  O20  1  0.358703  0.875433  0.104484  1
