# generated using pymatgen
data_Tb2Tc3Ge4
_symmetry_space_group_name_H-M   'P 1'
_cell_length_a   8.32125900
_cell_length_b   5.70472963
_cell_length_c   7.03701374
_cell_angle_alpha   76.25296095
_cell_angle_beta   90.00000000
_cell_angle_gamma   90.00000000
_symmetry_Int_Tables_number   1
_chemical_formula_structural   Tb2Tc3Ge4
_chemical_formula_sum   'Tb4 Tc6 Ge8'
_cell_volume   324.48169018
_cell_formula_units_Z   2
loop_
 _symmetry_equiv_pos_site_id
 _symmetry_equiv_pos_as_xyz
  1  'x, y, z'
loop_
 _atom_site_type_symbol
 _atom_site_label
 _atom_site_symmetry_multiplicity
 _atom_site_fract_x
 _atom_site_fract_y
 _atom_site_fract_z
 _atom_site_occupancy
  Tb  Tb0  1  0.555053  0.076545  0.245298  1
  Tb  Tb1  1  0.055053  0.423455  0.754702  1
  Tb  Tb2  1  0.444947  0.923455  0.754702  1
  Tb  Tb3  1  0.944947  0.576545  0.245298  1
  Tc  Tc4  1  0.204490  0.112556  0.115143  1
  Tc  Tc5  1  0.704490  0.387444  0.884857  1
  Tc  Tc6  1  0.795510  0.887444  0.884857  1
  Tc  Tc7  1  0.295510  0.612556  0.115143  1
  Tc  Tc8  1  0.000000  0.000000  0.500000  1
  Tc  Tc9  1  0.500000  0.500000  0.500000  1
  Ge  Ge10  1  0.901007  0.120085  0.127211  1
  Ge  Ge11  1  0.401007  0.379915  0.872789  1
  Ge  Ge12  1  0.098993  0.879915  0.872789  1
  Ge  Ge13  1  0.598993  0.620085  0.127211  1
  Ge  Ge14  1  0.748117  0.222603  0.579132  1
  Ge  Ge15  1  0.248117  0.277397  0.420868  1
  Ge  Ge16  1  0.251883  0.777397  0.420868  1
  Ge  Ge17  1  0.751883  0.722603  0.579132  1
