# generated using pymatgen
data_ErTm(Co3Si2)2
_symmetry_space_group_name_H-M   'P 1'
_cell_length_a   6.24412774
_cell_length_b   6.24412729
_cell_length_c   6.24412761
_cell_angle_alpha   130.64442978
_cell_angle_beta   112.82069907
_cell_angle_gamma   87.75278240
_symmetry_Int_Tables_number   1
_chemical_formula_structural   ErTm(Co3Si2)2
_chemical_formula_sum   'Er1 Tm1 Co6 Si4'
_cell_volume   162.14311486
_cell_formula_units_Z   1
loop_
 _symmetry_equiv_pos_site_id
 _symmetry_equiv_pos_as_xyz
  1  'x, y, z'
loop_
 _atom_site_type_symbol
 _atom_site_label
 _atom_site_symmetry_multiplicity
 _atom_site_fract_x
 _atom_site_fract_y
 _atom_site_fract_z
 _atom_site_occupancy
  Er  Er0  1  0.750000  0.469653  0.719653  1
  Tm  Tm1  1  0.250000  0.531496  0.281496  1
  Co  Co2  1  0.999935  0.999806  0.499742  1
  Co  Co3  1  0.500065  0.999806  0.999871  1
  Co  Co4  1  0.723561  0.999518  0.723542  1
  Co  Co5  1  0.224024  0.499981  0.723542  1
  Co  Co6  1  0.275976  0.999518  0.275957  1
  Co  Co7  1  0.776439  0.499981  0.275957  1
  Si  Si8  1  0.081174  0.874667  0.793493  1
  Si  Si9  1  0.919365  0.125992  0.206627  1
  Si  Si10  1  0.580635  0.787263  0.206627  1
  Si  Si11  1  0.418826  0.212318  0.793493  1
