# generated using pymatgen
data_CeEr5Os2
_symmetry_space_group_name_H-M   'P 1'
_cell_length_a   7.31109948
_cell_length_b   9.12710400
_cell_length_c   6.32605950
_cell_angle_alpha   90.00000000
_cell_angle_beta   87.92835256
_cell_angle_gamma   90.00000000
_symmetry_Int_Tables_number   1
_chemical_formula_structural   CeEr5Os2
_chemical_formula_sum   'Ce2 Er10 Os4'
_cell_volume   421.85676625
_cell_formula_units_Z   2
loop_
 _symmetry_equiv_pos_site_id
 _symmetry_equiv_pos_as_xyz
  1  'x, y, z'
loop_
 _atom_site_type_symbol
 _atom_site_label
 _atom_site_symmetry_multiplicity
 _atom_site_fract_x
 _atom_site_fract_y
 _atom_site_fract_z
 _atom_site_occupancy
  Ce  Ce0  1  0.054186  0.250000  0.647359  1
  Ce  Ce1  1  0.945814  0.750000  0.352641  1
  Er  Er2  1  0.465756  0.750000  0.132812  1
  Er  Er3  1  0.534244  0.250000  0.867188  1
  Er  Er4  1  0.172567  0.062850  0.167171  1
  Er  Er5  1  0.827433  0.937150  0.832829  1
  Er  Er6  1  0.325410  0.934261  0.667961  1
  Er  Er7  1  0.827433  0.562850  0.832829  1
  Er  Er8  1  0.674590  0.065739  0.332039  1
  Er  Er9  1  0.172567  0.437150  0.167171  1
  Er  Er10  1  0.674590  0.434261  0.332039  1
  Er  Er11  1  0.325410  0.565739  0.667961  1
  Os  Os12  1  0.371957  0.250000  0.461807  1
  Os  Os13  1  0.628043  0.750000  0.538193  1
  Os  Os14  1  0.118338  0.750000  0.976924  1
  Os  Os15  1  0.881662  0.250000  0.023076  1
