# generated using pymatgen
data_Dy3Tm13CdIn3Rh4
_symmetry_space_group_name_H-M   'P 1'
_cell_length_a   9.54792031
_cell_length_b   9.51403699
_cell_length_c   9.53690125
_cell_angle_alpha   60.04286443
_cell_angle_beta   60.13534820
_cell_angle_gamma   60.18717817
_symmetry_Int_Tables_number   1
_chemical_formula_structural   Dy3Tm13CdIn3Rh4
_chemical_formula_sum   'Dy3 Tm13 Cd1 In3 Rh4'
_cell_volume   614.27268717
_cell_formula_units_Z   1
loop_
 _symmetry_equiv_pos_site_id
 _symmetry_equiv_pos_as_xyz
  1  'x, y, z'
loop_
 _atom_site_type_symbol
 _atom_site_label
 _atom_site_symmetry_multiplicity
 _atom_site_fract_x
 _atom_site_fract_y
 _atom_site_fract_z
 _atom_site_occupancy
  Dy  Dy0  1  0.060957  0.060875  0.438869  1
  Dy  Dy1  1  0.435259  0.067611  0.433648  1
  Dy  Dy2  1  0.062742  0.438307  0.061683  1
  Tm  Tm3  1  0.050675  0.648077  0.649286  1
  Tm  Tm4  1  0.437334  0.436470  0.063892  1
  Tm  Tm5  1  0.648575  0.049165  0.649067  1
  Tm  Tm6  1  0.188408  0.812294  0.188628  1
  Tm  Tm7  1  0.187911  0.188526  0.813215  1
  Tm  Tm8  1  0.809795  0.810521  0.190840  1
  Tm  Tm9  1  0.440320  0.060028  0.059076  1
  Tm  Tm10  1  0.812465  0.188684  0.188231  1
  Tm  Tm11  1  0.063234  0.438322  0.437303  1
  Tm  Tm12  1  0.809396  0.190718  0.811149  1
  Tm  Tm13  1  0.190726  0.809639  0.810720  1
  Tm  Tm14  1  0.649213  0.648511  0.050014  1
  Tm  Tm15  1  0.651590  0.653033  0.652030  1
  Cd  Cd16  1  0.416752  0.419130  0.417630  1
  In  In17  1  0.746935  0.417566  0.417451  1
  In  In18  1  0.418423  0.746151  0.417508  1
  In  In19  1  0.417946  0.417899  0.747005  1
  Rh  Rh20  1  0.859997  0.856370  0.426663  1
  Rh  Rh21  1  0.856881  0.856320  0.857970  1
  Rh  Rh22  1  0.425765  0.858262  0.860841  1
  Rh  Rh23  1  0.858702  0.427521  0.857282  1
