# generated using pymatgen
data_Nb2Ir5Ru
_symmetry_space_group_name_H-M   'P 1'
_cell_length_a   5.56885800
_cell_length_b   5.58940967
_cell_length_c   4.48622000
_cell_angle_alpha   90.00000000
_cell_angle_beta   90.00000000
_cell_angle_gamma   119.87844365
_symmetry_Int_Tables_number   1
_chemical_formula_structural   Nb2Ir5Ru
_chemical_formula_sum   'Nb2 Ir5 Ru1'
_cell_volume   121.08042662
_cell_formula_units_Z   1
loop_
 _symmetry_equiv_pos_site_id
 _symmetry_equiv_pos_as_xyz
  1  'x, y, z'
loop_
 _atom_site_type_symbol
 _atom_site_label
 _atom_site_symmetry_multiplicity
 _atom_site_fract_x
 _atom_site_fract_y
 _atom_site_fract_z
 _atom_site_occupancy
  Nb  Nb0  1  0.666370  0.332739  0.250000  1
  Nb  Nb1  1  0.332351  0.664703  0.750000  1
  Ir  Ir2  1  0.837060  0.164165  0.750000  1
  Ir  Ir3  1  0.327106  0.164165  0.750000  1
  Ir  Ir4  1  0.837108  0.674216  0.750000  1
  Ir  Ir5  1  0.162494  0.836497  0.250000  1
  Ir  Ir6  1  0.674002  0.836497  0.250000  1
  Ru  Ru7  1  0.163509  0.327019  0.250000  1
