# generated using pymatgen
data_ZrTa5FeB4Ru9
_symmetry_space_group_name_H-M   'P 1'
_cell_length_a   9.39118674
_cell_length_b   9.39118609
_cell_length_c   3.04677900
_cell_angle_alpha   90.00000000
_cell_angle_beta   90.00000000
_cell_angle_gamma   89.90314021
_symmetry_Int_Tables_number   1
_chemical_formula_structural   ZrTa5FeB4Ru9
_chemical_formula_sum   'Zr1 Ta5 Fe1 B4 Ru9'
_cell_volume   268.70840796
_cell_formula_units_Z   1
loop_
 _symmetry_equiv_pos_site_id
 _symmetry_equiv_pos_as_xyz
  1  'x, y, z'
loop_
 _atom_site_type_symbol
 _atom_site_label
 _atom_site_symmetry_multiplicity
 _atom_site_fract_x
 _atom_site_fract_y
 _atom_site_fract_z
 _atom_site_occupancy
  Zr  Zr0  1  0.822504  0.677496  0.000000  1
  Ta  Ta1  1  0.178540  0.321460  0.000000  1
  Ta  Ta2  1  0.329760  0.829960  0.000000  1
  Ta  Ta3  1  0.670040  0.170240  0.000000  1
  Ta  Ta4  1  0.500173  0.500155  0.000000  1
  Ta  Ta5  1  0.999845  0.999827  0.000000  1
  Fe  Fe6  1  0.498368  0.001632  0.500000  1
  B  B7  1  0.610632  0.889368  0.000000  1
  B  B8  1  0.388615  0.111385  0.000000  1
  B  B9  1  0.122336  0.621551  0.000000  1
  B  B10  1  0.878449  0.377664  0.000000  1
  Ru  Ru11  1  0.562644  0.726033  0.500000  1
  Ru  Ru12  1  0.430738  0.277135  0.500000  1
  Ru  Ru13  1  0.076398  0.783319  0.500000  1
  Ru  Ru14  1  0.929736  0.216396  0.500000  1
  Ru  Ru15  1  0.283604  0.570264  0.500000  1
  Ru  Ru16  1  0.716681  0.423602  0.500000  1
  Ru  Ru17  1  0.222865  0.069262  0.500000  1
  Ru  Ru18  1  0.773967  0.937356  0.500000  1
  Ru  Ru19  1  0.004105  0.495895  0.500000  1
