# generated using pymatgen
data_Hf3Sc5(V3Si4)4
_symmetry_space_group_name_H-M   'P 1'
_cell_length_a   6.61914148
_cell_length_b   6.62139595
_cell_length_c   12.24159157
_cell_angle_alpha   90.06077340
_cell_angle_beta   89.95727589
_cell_angle_gamma   89.99107115
_symmetry_Int_Tables_number   1
_chemical_formula_structural   Hf3Sc5(V3Si4)4
_chemical_formula_sum   'Hf3 Sc5 V12 Si16'
_cell_volume   536.52348659
_cell_formula_units_Z   1
loop_
 _symmetry_equiv_pos_site_id
 _symmetry_equiv_pos_as_xyz
  1  'x, y, z'
loop_
 _atom_site_type_symbol
 _atom_site_label
 _atom_site_symmetry_multiplicity
 _atom_site_fract_x
 _atom_site_fract_y
 _atom_site_fract_z
 _atom_site_occupancy
  Hf  Hf0  1  0.003976  0.660245  0.029641  1
  Hf  Hf1  1  0.839134  0.504467  0.279898  1
  Hf  Hf2  1  0.159936  0.496009  0.780017  1
  Sc  Sc3  1  0.501099  0.837156  0.720579  1
  Sc  Sc4  1  0.498672  0.162210  0.220751  1
  Sc  Sc5  1  0.998391  0.338235  0.529135  1
  Sc  Sc6  1  0.662549  0.000963  0.970590  1
  Sc  Sc7  1  0.337866  0.998302  0.470468  1
  V  V8  1  0.329922  0.334523  0.999541  1
  V  V9  1  0.165611  0.830251  0.249644  1
  V  V10  1  0.834329  0.169632  0.749957  1
  V  V11  1  0.668264  0.667858  0.499833  1
  V  V12  1  0.004800  0.158564  0.126273  1
  V  V13  1  0.342849  0.506204  0.375834  1
  V  V14  1  0.658668  0.494368  0.876562  1
  V  V15  1  0.505872  0.344186  0.624177  1
  V  V16  1  0.493896  0.657451  0.123188  1
  V  V17  1  0.993866  0.842148  0.627299  1
  V  V18  1  0.157286  0.004847  0.873425  1
  V  V19  1  0.842832  0.992850  0.372859  1
  Si  Si20  1  0.293862  0.961475  0.064695  1
  Si  Si21  1  0.538078  0.794854  0.314854  1
  Si  Si22  1  0.461261  0.205725  0.814785  1
  Si  Si23  1  0.792523  0.540717  0.684444  1
  Si  Si24  1  0.209274  0.458120  0.185617  1
  Si  Si25  1  0.706755  0.039793  0.564750  1
  Si  Si26  1  0.957835  0.290255  0.935525  1
  Si  Si27  1  0.041067  0.707653  0.436383  1
  Si  Si28  1  0.703125  0.369902  0.071237  1
  Si  Si29  1  0.129499  0.203388  0.320453  1
  Si  Si30  1  0.869337  0.796107  0.821100  1
  Si  Si31  1  0.205267  0.127921  0.678900  1
  Si  Si32  1  0.794176  0.872567  0.178723  1
  Si  Si33  1  0.296682  0.629974  0.571097  1
  Si  Si34  1  0.372991  0.705721  0.928412  1
  Si  Si35  1  0.628451  0.295358  0.429353  1
