# generated using pymatgen
data_Tb5Y11InCo4Ag3
_symmetry_space_group_name_H-M   'P 1'
_cell_length_a   9.47869056
_cell_length_b   9.49350593
_cell_length_c   9.49620022
_cell_angle_alpha   59.92563157
_cell_angle_beta   59.96507785
_cell_angle_gamma   59.94639746
_symmetry_Int_Tables_number   1
_chemical_formula_structural   Tb5Y11InCo4Ag3
_chemical_formula_sum   'Tb5 Y11 In1 Co4 Ag3'
_cell_volume   603.49625142
_cell_formula_units_Z   1
loop_
 _symmetry_equiv_pos_site_id
 _symmetry_equiv_pos_as_xyz
  1  'x, y, z'
loop_
 _atom_site_type_symbol
 _atom_site_label
 _atom_site_symmetry_multiplicity
 _atom_site_fract_x
 _atom_site_fract_y
 _atom_site_fract_z
 _atom_site_occupancy
  Tb  Tb0  1  0.345369  0.348664  0.348180  1
  Tb  Tb1  1  0.345906  0.347011  0.959255  1
  Tb  Tb2  1  0.346085  0.959049  0.346737  1
  Tb  Tb3  1  0.951765  0.349690  0.349125  1
  Tb  Tb4  1  0.811374  0.188736  0.188767  1
  Y  Y5  1  0.187713  0.810824  0.811309  1
  Y  Y6  1  0.187671  0.810864  0.189557  1
  Y  Y7  1  0.811638  0.188595  0.810490  1
  Y  Y8  1  0.187808  0.189492  0.811115  1
  Y  Y9  1  0.811763  0.810334  0.188669  1
  Y  Y10  1  0.935418  0.563179  0.563272  1
  Y  Y11  1  0.565026  0.935366  0.935396  1
  Y  Y12  1  0.563758  0.936874  0.562850  1
  Y  Y13  1  0.937124  0.561680  0.937754  1
  Y  Y14  1  0.563806  0.562866  0.936927  1
  Y  Y15  1  0.937100  0.937800  0.561694  1
  In  In16  1  0.271686  0.576131  0.576138  1
  Co  Co17  1  0.135233  0.144611  0.144576  1
  Co  Co18  1  0.138642  0.143241  0.574054  1
  Co  Co19  1  0.138805  0.573953  0.143113  1
  Co  Co20  1  0.574922  0.143072  0.143009  1
  Ag  Ag21  1  0.583736  0.583165  0.583136  1
  Ag  Ag22  1  0.583839  0.583808  0.251030  1
  Ag  Ag23  1  0.583812  0.250991  0.583847  1
