# generated using pymatgen
data_YbAg10Sn2PbO12
_symmetry_space_group_name_H-M   'P 1'
_cell_length_a   8.72738608
_cell_length_b   8.72738631
_cell_length_c   5.95262823
_cell_angle_alpha   69.95234945
_cell_angle_beta   69.95235113
_cell_angle_gamma   71.79916768
_symmetry_Int_Tables_number   1
_chemical_formula_structural   YbAg10Sn2PbO12
_chemical_formula_sum   'Yb1 Ag10 Sn2 Pb1 O12'
_cell_volume   390.24220324
_cell_formula_units_Z   1
loop_
 _symmetry_equiv_pos_site_id
 _symmetry_equiv_pos_as_xyz
  1  'x, y, z'
loop_
 _atom_site_type_symbol
 _atom_site_label
 _atom_site_symmetry_multiplicity
 _atom_site_fract_x
 _atom_site_fract_y
 _atom_site_fract_z
 _atom_site_occupancy
  Yb  Yb0  1  0.420437  0.579563  0.000000  1
  Ag  Ag1  1  0.250929  0.251148  0.001296  1
  Ag  Ag2  1  0.748560  0.748247  0.498827  1
  Ag  Ag3  1  0.251753  0.251440  0.501173  1
  Ag  Ag4  1  0.748852  0.749071  0.998704  1
  Ag  Ag5  1  0.502497  0.003910  0.748454  1
  Ag  Ag6  1  0.996090  0.497503  0.251546  1
  Ag  Ag7  1  0.123329  0.609460  0.632756  1
  Ag  Ag8  1  0.609378  0.122252  0.131121  1
  Ag  Ag9  1  0.390540  0.876671  0.367244  1
  Ag  Ag10  1  0.877748  0.390622  0.868879  1
  Sn  Sn11  1  0.914144  0.085856  0.500000  1
  Sn  Sn12  1  0.584203  0.415797  0.500000  1
  Pb  Pb13  1  0.081477  0.918523  0.000000  1
  O  O14  1  0.662889  0.522028  0.693366  1
  O  O15  1  0.145243  0.039561  0.232453  1
  O  O16  1  0.543605  0.644193  0.234578  1
  O  O17  1  0.024700  0.158379  0.704124  1
  O  O18  1  0.339381  0.858242  0.781015  1
  O  O19  1  0.840988  0.334338  0.291378  1
  O  O20  1  0.355807  0.456395  0.765422  1
  O  O21  1  0.841621  0.975300  0.295876  1
  O  O22  1  0.477972  0.337111  0.306634  1
  O  O23  1  0.960439  0.854757  0.767547  1
  O  O24  1  0.665662  0.159012  0.708622  1
  O  O25  1  0.141758  0.660619  0.218985  1
