# generated using pymatgen
data_LiNdH6Ru
_symmetry_space_group_name_H-M   'P 1'
_cell_length_a   4.98526377
_cell_length_b   4.98526324
_cell_length_c   4.98526300
_cell_angle_alpha   59.99999499
_cell_angle_beta   59.99999846
_cell_angle_gamma   59.99999167
_symmetry_Int_Tables_number   1
_chemical_formula_structural   LiNdH6Ru
_chemical_formula_sum   'Li1 Nd1 H6 Ru1'
_cell_volume   87.60910941
_cell_formula_units_Z   1
loop_
 _symmetry_equiv_pos_site_id
 _symmetry_equiv_pos_as_xyz
  1  'x, y, z'
loop_
 _atom_site_type_symbol
 _atom_site_label
 _atom_site_symmetry_multiplicity
 _atom_site_fract_x
 _atom_site_fract_y
 _atom_site_fract_z
 _atom_site_occupancy
  Li  Li0  1  0.750000  0.750000  0.750000  1
  Nd  Nd1  1  0.250000  0.250000  0.250000  1
  H  H2  1  0.757398  0.757398  0.242602  1
  H  H3  1  0.242602  0.757398  0.242602  1
  H  H4  1  0.757398  0.242602  0.242602  1
  H  H5  1  0.242602  0.242602  0.757398  1
  H  H6  1  0.757398  0.242602  0.757398  1
  H  H7  1  0.242602  0.757398  0.757398  1
  Ru  Ru8  1  0.000000  0.000000  0.000000  1
