# generated using pymatgen
data_Dy3Y3Er2(HgIr)2
_symmetry_space_group_name_H-M   'P 1'
_cell_length_a   9.59106025
_cell_length_b   9.58701406
_cell_length_c   9.58965977
_cell_angle_alpha   60.09966668
_cell_angle_beta   60.02247847
_cell_angle_gamma   60.00747707
_symmetry_Int_Tables_number   1
_chemical_formula_structural   Dy3Y3Er2(HgIr)2
_chemical_formula_sum   'Dy6 Y6 Er4 Hg4 Ir4'
_cell_volume   624.11217883
_cell_formula_units_Z   2
loop_
 _symmetry_equiv_pos_site_id
 _symmetry_equiv_pos_as_xyz
  1  'x, y, z'
loop_
 _atom_site_type_symbol
 _atom_site_label
 _atom_site_symmetry_multiplicity
 _atom_site_fract_x
 _atom_site_fract_y
 _atom_site_fract_z
 _atom_site_occupancy
  Dy  Dy0  1  0.349775  0.350670  0.350518  1
  Dy  Dy1  1  0.351980  0.350693  0.947197  1
  Dy  Dy2  1  0.351927  0.947420  0.350582  1
  Dy  Dy3  1  0.947883  0.351739  0.351697  1
  Dy  Dy4  1  0.810173  0.189078  0.189115  1
  Dy  Dy5  1  0.187533  0.810660  0.810705  1
  Y  Y6  1  0.939464  0.561357  0.561387  1
  Y  Y7  1  0.560829  0.938585  0.938581  1
  Y  Y8  1  0.560661  0.940329  0.560688  1
  Y  Y9  1  0.938968  0.560253  0.938984  1
  Y  Y10  1  0.560606  0.560690  0.940410  1
  Y  Y11  1  0.938986  0.938995  0.560193  1
  Er  Er12  1  0.189455  0.809764  0.189509  1
  Er  Er13  1  0.810285  0.187736  0.810442  1
  Er  Er14  1  0.189502  0.189536  0.809822  1
  Er  Er15  1  0.810241  0.810327  0.187788  1
  Hg  Hg16  1  0.584073  0.583804  0.583841  1
  Hg  Hg17  1  0.584489  0.584925  0.246610  1
  Hg  Hg18  1  0.584528  0.246520  0.584966  1
  Hg  Hg19  1  0.246167  0.584630  0.584630  1
  Ir  Ir20  1  0.142320  0.141319  0.141294  1
  Ir  Ir21  1  0.142377  0.143395  0.575399  1
  Ir  Ir22  1  0.142364  0.575343  0.143396  1
  Ir  Ir23  1  0.575415  0.142236  0.142250  1
