# generated using pymatgen
data_Lu2MnCo11P7
_symmetry_space_group_name_H-M   'P 1'
_cell_length_a   9.00177574
_cell_length_b   9.00036282
_cell_length_c   3.57967300
_cell_angle_alpha   90.00000000
_cell_angle_beta   90.00000000
_cell_angle_gamma   120.22523800
_symmetry_Int_Tables_number   1
_chemical_formula_structural   Lu2MnCo11P7
_chemical_formula_sum   'Lu2 Mn1 Co11 P7'
_cell_volume   250.59477835
_cell_formula_units_Z   1
loop_
 _symmetry_equiv_pos_site_id
 _symmetry_equiv_pos_as_xyz
  1  'x, y, z'
loop_
 _atom_site_type_symbol
 _atom_site_label
 _atom_site_symmetry_multiplicity
 _atom_site_fract_x
 _atom_site_fract_y
 _atom_site_fract_z
 _atom_site_occupancy
  Lu  Lu0  1  0.665729  0.333824  0.000000  1
  Lu  Lu1  1  0.999193  0.999055  0.500000  1
  Mn  Mn2  1  0.212254  0.447548  0.500000  1
  Co  Co3  1  0.766607  0.727543  0.000000  1
  Co  Co4  1  0.272585  0.037638  0.000000  1
  Co  Co5  1  0.962088  0.233239  0.000000  1
  Co  Co6  1  0.490359  0.942052  0.000000  1
  Co  Co7  1  0.057105  0.549747  0.000000  1
  Co  Co8  1  0.451356  0.511168  0.000000  1
  Co  Co9  1  0.717482  0.101694  0.500000  1
  Co  Co10  1  0.895972  0.614369  0.500000  1
  Co  Co11  1  0.385595  0.280891  0.500000  1
  Co  Co12  1  0.560833  0.763084  0.500000  1
  Co  Co13  1  0.232920  0.795068  0.500000  1
  P  P14  1  0.448414  0.070366  0.500000  1
  P  P15  1  0.924957  0.375235  0.500000  1
  P  P16  1  0.623020  0.551345  0.500000  1
  P  P17  1  0.743205  0.961591  0.000000  1
  P  P18  1  0.037079  0.781341  0.000000  1
  P  P19  1  0.219102  0.253741  0.000000  1
  P  P20  1  0.334142  0.669462  0.000000  1
