# generated using pymatgen
data_K7Gd(US5)2
_symmetry_space_group_name_H-M   'P 1'
_cell_length_a   7.62141164
_cell_length_b   11.41833493
_cell_length_c   7.22136700
_cell_angle_alpha   102.18052145
_cell_angle_beta   99.51299817
_cell_angle_gamma   110.38744254
_symmetry_Int_Tables_number   1
_chemical_formula_structural   K7Gd(US5)2
_chemical_formula_sum   'K7 Gd1 U2 S10'
_cell_volume   555.90840755
_cell_formula_units_Z   1
loop_
 _symmetry_equiv_pos_site_id
 _symmetry_equiv_pos_as_xyz
  1  'x, y, z'
loop_
 _atom_site_type_symbol
 _atom_site_label
 _atom_site_symmetry_multiplicity
 _atom_site_fract_x
 _atom_site_fract_y
 _atom_site_fract_z
 _atom_site_occupancy
  K  K0  1  0.000438  0.499983  0.999935  1
  K  K1  1  0.415362  0.905895  0.203517  1
  K  K2  1  0.594571  0.593219  0.294186  1
  K  K3  1  0.789726  0.300558  0.421532  1
  K  K4  1  0.210337  0.699429  0.577860  1
  K  K5  1  0.405036  0.406616  0.705899  1
  K  K6  1  0.585046  0.094580  0.796465  1
  Gd  Gd7  1  0.999854  0.999897  0.500033  1
  U  U8  1  0.191715  0.197576  0.100880  1
  U  U9  1  0.808308  0.802582  0.899210  1
  S  S10  1  0.526651  0.314150  0.061390  1
  S  S11  1  0.844029  0.037769  0.147154  1
  S  S12  1  0.986712  0.779503  0.229756  1
  S  S13  1  0.178323  0.402879  0.307496  1
  S  S14  1  0.339134  0.141440  0.414654  1
  S  S15  1  0.660771  0.858617  0.585605  1
  S  S16  1  0.821699  0.596913  0.692835  1
  S  S17  1  0.013149  0.220323  0.770168  1
  S  S18  1  0.155948  0.962162  0.852847  1
  S  S19  1  0.473198  0.685911  0.938576  1
