# generated using pymatgen
data_HoBe12Cu
_symmetry_space_group_name_H-M   'P 1'
_cell_length_a   7.27025762
_cell_length_b   7.32347119
_cell_length_c   7.24962765
_cell_angle_alpha   59.85062533
_cell_angle_beta   59.79481788
_cell_angle_gamma   59.57202502
_symmetry_Int_Tables_number   1
_chemical_formula_structural   HoBe12Cu
_chemical_formula_sum   'Ho2 Be24 Cu2'
_cell_volume   271.31977806
_cell_formula_units_Z   2
loop_
 _symmetry_equiv_pos_site_id
 _symmetry_equiv_pos_as_xyz
  1  'x, y, z'
loop_
 _atom_site_type_symbol
 _atom_site_label
 _atom_site_symmetry_multiplicity
 _atom_site_fract_x
 _atom_site_fract_y
 _atom_site_fract_z
 _atom_site_occupancy
  Ho  Ho0  1  0.252844  0.247154  0.252846  1
  Ho  Ho1  1  0.747156  0.752846  0.747154  1
  Be  Be2  1  0.500000  0.500000  0.500000  1
  Be  Be3  1  0.000000  0.000000  0.000000  1
  Be  Be4  1  0.564388  0.793659  0.435610  1
  Be  Be5  1  0.435612  0.206341  0.564390  1
  Be  Be6  1  0.289931  0.936114  0.710069  1
  Be  Be7  1  0.710069  0.063886  0.289931  1
  Be  Be8  1  0.931463  0.278876  0.068535  1
  Be  Be9  1  0.068537  0.721124  0.931465  1
  Be  Be10  1  0.207635  0.799822  0.557428  1
  Be  Be11  1  0.792365  0.200178  0.442572  1
  Be  Be12  1  0.442574  0.564884  0.792366  1
  Be  Be13  1  0.557426  0.435116  0.207634  1
  Be  Be14  1  0.711647  0.286310  0.936121  1
  Be  Be15  1  0.288353  0.713690  0.063879  1
  Be  Be16  1  0.063877  0.934079  0.288354  1
  Be  Be17  1  0.936123  0.065921  0.711646  1
  Be  Be18  1  0.565789  0.206274  0.792070  1
  Be  Be19  1  0.434211  0.793726  0.207930  1
  Be  Be20  1  0.792071  0.435867  0.565789  1
  Be  Be21  1  0.207929  0.564133  0.434211  1
  Be  Be22  1  0.936388  0.712489  0.291083  1
  Be  Be23  1  0.063612  0.287511  0.708917  1
  Be  Be24  1  0.291084  0.060041  0.936387  1
  Be  Be25  1  0.708916  0.939959  0.063613  1
  Cu  Cu26  1  0.803996  0.556760  0.196006  1
  Cu  Cu27  1  0.196004  0.443240  0.803994  1
