# generated using pymatgen
data_Pr8Nd8MgCd3Ir4
_symmetry_space_group_name_H-M   'P 1'
_cell_length_a   10.01934465
_cell_length_b   10.01920014
_cell_length_c   10.01964703
_cell_angle_alpha   60.05341187
_cell_angle_beta   60.05386126
_cell_angle_gamma   60.05313126
_symmetry_Int_Tables_number   1
_chemical_formula_structural   Pr8Nd8MgCd3Ir4
_chemical_formula_sum   'Pr8 Nd8 Mg1 Cd3 Ir4'
_cell_volume   712.09145184
_cell_formula_units_Z   1
loop_
 _symmetry_equiv_pos_site_id
 _symmetry_equiv_pos_as_xyz
  1  'x, y, z'
loop_
 _atom_site_type_symbol
 _atom_site_label
 _atom_site_symmetry_multiplicity
 _atom_site_fract_x
 _atom_site_fract_y
 _atom_site_fract_z
 _atom_site_occupancy
  Pr  Pr0  1  0.190363  0.190367  0.809555  1
  Pr  Pr1  1  0.810317  0.810313  0.188086  1
  Pr  Pr2  1  0.940505  0.561421  0.561370  1
  Pr  Pr3  1  0.558996  0.940215  0.940206  1
  Pr  Pr4  1  0.561418  0.940507  0.561362  1
  Pr  Pr5  1  0.940216  0.558992  0.940209  1
  Pr  Pr6  1  0.561391  0.561387  0.940514  1
  Pr  Pr7  1  0.940229  0.940228  0.558924  1
  Nd  Nd8  1  0.347973  0.347970  0.347600  1
  Nd  Nd9  1  0.348113  0.348118  0.956586  1
  Nd  Nd10  1  0.347684  0.956574  0.348154  1
  Nd  Nd11  1  0.956575  0.347687  0.348155  1
  Nd  Nd12  1  0.809426  0.190489  0.190473  1
  Nd  Nd13  1  0.188244  0.810167  0.810139  1
  Nd  Nd14  1  0.190489  0.809423  0.190475  1
  Nd  Nd15  1  0.810168  0.188245  0.810134  1
  Mg  Mg16  1  0.575352  0.575352  0.575565  1
  Cd  Cd17  1  0.580517  0.580518  0.258814  1
  Cd  Cd18  1  0.580698  0.258826  0.580503  1
  Cd  Cd19  1  0.258826  0.580697  0.580503  1
  Ir  Ir20  1  0.141704  0.141704  0.142291  1
  Ir  Ir21  1  0.142474  0.142474  0.575323  1
  Ir  Ir22  1  0.143017  0.575303  0.142530  1
  Ir  Ir23  1  0.575301  0.143020  0.142529  1
