# generated using pymatgen
data_CaZn4Cd(AsO4)4
_symmetry_space_group_name_H-M   'P 1'
_cell_length_a   9.20849249
_cell_length_b   5.34267784
_cell_length_c   9.16455038
_cell_angle_alpha   60.24969690
_cell_angle_beta   89.70743772
_cell_angle_gamma   89.83523126
_symmetry_Int_Tables_number   1
_chemical_formula_structural   CaZn4Cd(AsO4)4
_chemical_formula_sum   'Ca1 Zn4 Cd1 As4 O16'
_cell_volume   391.44510669
_cell_formula_units_Z   1
loop_
 _symmetry_equiv_pos_site_id
 _symmetry_equiv_pos_as_xyz
  1  'x, y, z'
loop_
 _atom_site_type_symbol
 _atom_site_label
 _atom_site_symmetry_multiplicity
 _atom_site_fract_x
 _atom_site_fract_y
 _atom_site_fract_z
 _atom_site_occupancy
  Ca  Ca0  1  0.000000  0.500000  0.500000  1
  Zn  Zn1  1  0.127976  0.452859  0.117953  1
  Zn  Zn2  1  0.629657  0.534912  0.384373  1
  Zn  Zn3  1  0.872024  0.547141  0.882047  1
  Zn  Zn4  1  0.370343  0.465088  0.615627  1
  Cd  Cd5  1  0.500000  0.500000  0.000000  1
  As  As6  1  0.304614  0.838051  0.195635  1
  As  As7  1  0.798877  0.156037  0.299462  1
  As  As8  1  0.695386  0.161949  0.804365  1
  As  As9  1  0.201123  0.843963  0.700538  1
  O  O10  1  0.079722  0.679520  0.869039  1
  O  O11  1  0.577082  0.324948  0.634347  1
  O  O12  1  0.920278  0.320480  0.130961  1
  O  O13  1  0.422918  0.675052  0.365653  1
  O  O14  1  0.208535  0.201228  0.647575  1
  O  O15  1  0.708997  0.805505  0.855805  1
  O  O16  1  0.791465  0.798772  0.352425  1
  O  O17  1  0.291003  0.194495  0.144195  1
  O  O18  1  0.143204  0.810796  0.535760  1
  O  O19  1  0.638422  0.184075  0.974286  1
  O  O20  1  0.139392  0.656139  0.250780  1
  O  O21  1  0.632527  0.334150  0.249205  1
  O  O22  1  0.860608  0.343861  0.749220  1
  O  O23  1  0.367473  0.665850  0.750795  1
  O  O24  1  0.361578  0.815925  0.025714  1
  O  O25  1  0.856796  0.189204  0.464240  1
