# generated using pymatgen
data_HfTaMn4(NbSi2)2
_symmetry_space_group_name_H-M   'P 1'
_cell_length_a   3.56438200
_cell_length_b   6.43599022
_cell_length_c   7.54000861
_cell_angle_alpha   90.32134613
_cell_angle_beta   90.00000000
_cell_angle_gamma   90.00000000
_symmetry_Int_Tables_number   1
_chemical_formula_structural   HfTaMn4(NbSi2)2
_chemical_formula_sum   'Hf1 Ta1 Mn4 Nb2 Si4'
_cell_volume   172.96754788
_cell_formula_units_Z   1
loop_
 _symmetry_equiv_pos_site_id
 _symmetry_equiv_pos_as_xyz
  1  'x, y, z'
loop_
 _atom_site_type_symbol
 _atom_site_label
 _atom_site_symmetry_multiplicity
 _atom_site_fract_x
 _atom_site_fract_y
 _atom_site_fract_z
 _atom_site_occupancy
  Hf  Hf0  1  0.750000  0.533667  0.825560  1
  Ta  Ta1  1  0.750000  0.034070  0.671293  1
  Mn  Mn2  1  0.250000  0.361648  0.563678  1
  Mn  Mn3  1  0.250000  0.862948  0.936543  1
  Mn  Mn4  1  0.750000  0.638226  0.436579  1
  Mn  Mn5  1  0.750000  0.135300  0.062897  1
  Nb  Nb6  1  0.250000  0.968311  0.326389  1
  Nb  Nb7  1  0.250000  0.466226  0.176626  1
  Si  Si8  1  0.250000  0.738551  0.625116  1
  Si  Si9  1  0.250000  0.228610  0.872605  1
  Si  Si10  1  0.750000  0.266310  0.371666  1
  Si  Si11  1  0.750000  0.766132  0.131050  1
