# generated using pymatgen
data_CaZr2(AsPd)3
_symmetry_space_group_name_H-M   'P 1'
_cell_length_a   6.84261800
_cell_length_b   6.94624528
_cell_length_c   3.96349500
_cell_angle_alpha   90.00000000
_cell_angle_beta   90.00000000
_cell_angle_gamma   119.50770680
_symmetry_Int_Tables_number   1
_chemical_formula_structural   CaZr2(AsPd)3
_chemical_formula_sum   'Ca1 Zr2 As3 Pd3'
_cell_volume   163.95114153
_cell_formula_units_Z   1
loop_
 _symmetry_equiv_pos_site_id
 _symmetry_equiv_pos_as_xyz
  1  'x, y, z'
loop_
 _atom_site_type_symbol
 _atom_site_label
 _atom_site_symmetry_multiplicity
 _atom_site_fract_x
 _atom_site_fract_y
 _atom_site_fract_z
 _atom_site_occupancy
  Ca  Ca0  1  0.591718  0.000000  0.500000  1
  Zr  Zr1  1  0.995530  0.591567  0.500000  1
  Zr  Zr2  1  0.403962  0.408433  0.500000  1
  As  As3  1  0.670097  0.351129  0.000000  1
  As  As4  1  0.318967  0.648871  0.000000  1
  As  As5  1  0.017505  0.000000  0.500000  1
  Pd  Pd6  1  0.266169  0.000000  0.000000  1
  Pd  Pd7  1  0.742449  0.748845  0.000000  1
  Pd  Pd8  1  0.993604  0.251155  0.000000  1
