# generated using pymatgen
data_Ta3Nb7SiB4P
_symmetry_space_group_name_H-M   'P 1'
_cell_length_a   7.29859497
_cell_length_b   7.29925663
_cell_length_c   7.29539181
_cell_angle_alpha   129.43020523
_cell_angle_beta   129.43675770
_cell_angle_gamma   74.33482168
_symmetry_Int_Tables_number   1
_chemical_formula_structural   Ta3Nb7SiB4P
_chemical_formula_sum   'Ta3 Nb7 Si1 B4 P1'
_cell_volume   225.97594924
_cell_formula_units_Z   1
loop_
 _symmetry_equiv_pos_site_id
 _symmetry_equiv_pos_as_xyz
  1  'x, y, z'
loop_
 _atom_site_type_symbol
 _atom_site_label
 _atom_site_symmetry_multiplicity
 _atom_site_fract_x
 _atom_site_fract_y
 _atom_site_fract_z
 _atom_site_occupancy
  Ta  Ta0  1  0.998607  0.998132  0.999898  1
  Ta  Ta1  1  0.500788  0.501738  0.000307  1
  Ta  Ta2  1  0.808290  0.305384  0.835152  1
  Nb  Nb3  1  0.194557  0.691660  0.164532  1
  Nb  Nb4  1  0.470053  0.973113  0.164158  1
  Nb  Nb5  1  0.305988  0.469375  0.496842  1
  Nb  Nb6  1  0.029839  0.194353  0.503422  1
  Nb  Nb7  1  0.527619  0.030622  0.836648  1
  Nb  Nb8  1  0.691326  0.526414  0.497011  1
  Nb  Nb9  1  0.972705  0.808290  0.502449  1
  Si  Si10  1  0.749899  0.749560  0.999862  1
  B  B11  1  0.114262  0.614234  0.728494  1
  B  B12  1  0.885046  0.384927  0.269033  1
  B  B13  1  0.615321  0.886928  0.501331  1
  B  B14  1  0.386821  0.115308  0.501233  1
  P  P15  1  0.248877  0.249961  0.999628  1
