# generated using pymatgen
data_Ta5NbRe3(Si2W)3
_symmetry_space_group_name_H-M   'P 1'
_cell_length_a   7.65920682
_cell_length_b   7.68111728
_cell_length_c   7.66020047
_cell_angle_alpha   126.29230764
_cell_angle_beta   128.49720219
_cell_angle_gamma   77.56908026
_symmetry_Int_Tables_number   1
_chemical_formula_structural   Ta5NbRe3(Si2W)3
_chemical_formula_sum   'Ta5 Nb1 Re3 Si6 W3'
_cell_volume   275.77226906
_cell_formula_units_Z   1
loop_
 _symmetry_equiv_pos_site_id
 _symmetry_equiv_pos_as_xyz
  1  'x, y, z'
loop_
 _atom_site_type_symbol
 _atom_site_label
 _atom_site_symmetry_multiplicity
 _atom_site_fract_x
 _atom_site_fract_y
 _atom_site_fract_z
 _atom_site_occupancy
  Ta  Ta0  1  0.445608  0.493144  0.546680  1
  Ta  Ta1  1  0.945810  0.490685  0.045393  1
  Ta  Ta2  1  0.052657  0.091292  0.539934  1
  Ta  Ta3  1  0.753614  0.905813  0.653488  1
  Ta  Ta4  1  0.251885  0.904752  0.151298  1
  Nb  Nb5  1  0.551177  0.089459  0.036304  1
  Re  Re6  1  0.869793  0.498231  0.628633  1
  Re  Re7  1  0.629662  0.753024  0.126370  1
  Re  Re8  1  0.370339  0.498629  0.128206  1
  Si  Si9  1  0.746876  0.499336  0.251452  1
  Si  Si10  1  0.248623  0.500944  0.753829  1
  Si  Si11  1  0.333029  0.825230  0.490746  1
  Si  Si12  1  0.668707  0.163775  0.493287  1
  Si  Si13  1  0.832966  0.824927  0.992822  1
  Si  Si14  1  0.170255  0.165884  0.996931  1
  W  W15  1  0.500057  0.241511  0.740011  1
  W  W16  1  0.000671  0.240533  0.241634  1
  W  W17  1  0.128272  0.755029  0.625177  1
