# generated using pymatgen
data_Tm2Co5Si2NiB2
_symmetry_space_group_name_H-M   'P 1'
_cell_length_a   5.06754730
_cell_length_b   5.06754674
_cell_length_c   6.48162500
_cell_angle_alpha   90.00000000
_cell_angle_beta   90.00000000
_cell_angle_gamma   119.81935198
_symmetry_Int_Tables_number   1
_chemical_formula_structural   Tm2Co5Si2NiB2
_chemical_formula_sum   'Tm2 Co5 Si2 Ni1 B2'
_cell_volume   144.41017394
_cell_formula_units_Z   1
loop_
 _symmetry_equiv_pos_site_id
 _symmetry_equiv_pos_as_xyz
  1  'x, y, z'
loop_
 _atom_site_type_symbol
 _atom_site_label
 _atom_site_symmetry_multiplicity
 _atom_site_fract_x
 _atom_site_fract_y
 _atom_site_fract_z
 _atom_site_occupancy
  Tm  Tm0  1  0.000000  0.000000  0.005178  1
  Tm  Tm1  1  0.000000  0.000000  0.499955  1
  Co  Co2  1  0.500000  0.000000  0.717124  1
  Co  Co3  1  0.000000  0.500000  0.717124  1
  Co  Co4  1  0.500000  0.500000  0.279501  1
  Co  Co5  1  0.500000  0.000000  0.284072  1
  Co  Co6  1  0.000000  0.500000  0.284072  1
  Si  Si7  1  0.668818  0.331182  0.001261  1
  Si  Si8  1  0.331182  0.668818  0.001261  1
  Ni  Ni9  1  0.500000  0.500000  0.715888  1
  B  B10  1  0.668540  0.331460  0.497282  1
  B  B11  1  0.331460  0.668540  0.497282  1
