# generated using pymatgen
data_Na2ZnAu3
_symmetry_space_group_name_H-M   'P 1'
_cell_length_a   5.49182468
_cell_length_b   5.62925065
_cell_length_c   5.62925100
_cell_angle_alpha   60.00000383
_cell_angle_beta   59.16871465
_cell_angle_gamma   59.16871464
_symmetry_Int_Tables_number   1
_chemical_formula_structural   Na2ZnAu3
_chemical_formula_sum   'Na2 Zn1 Au3'
_cell_volume   121.48710539
_cell_formula_units_Z   1
loop_
 _symmetry_equiv_pos_site_id
 _symmetry_equiv_pos_as_xyz
  1  'x, y, z'
loop_
 _atom_site_type_symbol
 _atom_site_label
 _atom_site_symmetry_multiplicity
 _atom_site_fract_x
 _atom_site_fract_y
 _atom_site_fract_z
 _atom_site_occupancy
  Na  Na0  1  0.752406  0.749198  0.749198  1
  Na  Na1  1  0.497594  0.500802  0.500802  1
  Zn  Zn2  1  0.625000  0.125000  0.125000  1
  Au  Au3  1  0.125000  0.625000  0.125000  1
  Au  Au4  1  0.125000  0.125000  0.625000  1
  Au  Au5  1  0.125000  0.125000  0.125000  1
