# generated using pymatgen
data_Cs2Dy6Se7N2
_symmetry_space_group_name_H-M   'P 1'
_cell_length_a   4.05191453
_cell_length_b   10.85740215
_cell_length_c   11.73406136
_cell_angle_alpha   104.13947902
_cell_angle_beta   99.94229149
_cell_angle_gamma   90.00000041
_symmetry_Int_Tables_number   1
_chemical_formula_structural   Cs2Dy6Se7N2
_chemical_formula_sum   'Cs2 Dy6 Se7 N2'
_cell_volume   492.58165832
_cell_formula_units_Z   1
loop_
 _symmetry_equiv_pos_site_id
 _symmetry_equiv_pos_as_xyz
  1  'x, y, z'
loop_
 _atom_site_type_symbol
 _atom_site_label
 _atom_site_symmetry_multiplicity
 _atom_site_fract_x
 _atom_site_fract_y
 _atom_site_fract_z
 _atom_site_occupancy
  Cs  Cs0  1  0.066286  0.701110  0.132572  1
  Cs  Cs1  1  0.933713  0.298890  0.867428  1
  Dy  Dy2  1  0.588379  0.130966  0.176760  1
  Dy  Dy3  1  0.164775  0.399030  0.329551  1
  Dy  Dy4  1  0.219160  0.133634  0.438319  1
  Dy  Dy5  1  0.780840  0.866366  0.561681  1
  Dy  Dy6  1  0.835224  0.600970  0.670449  1
  Dy  Dy7  1  0.411621  0.869033  0.823240  1
  Se  Se8  1  0.000000  0.000000  0.000000  1
  Se  Se9  1  0.579767  0.401577  0.159534  1
  Se  Se10  1  0.667716  0.953304  0.335434  1
  Se  Se11  1  0.243809  0.660222  0.487620  1
  Se  Se12  1  0.756190  0.339778  0.512380  1
  Se  Se13  1  0.332284  0.046696  0.664566  1
  Se  Se14  1  0.420233  0.598423  0.840466  1
  N  N15  1  0.136905  0.193511  0.273810  1
  N  N16  1  0.863095  0.806489  0.726190  1
