# generated using pymatgen
data_DyHo4Pb3N
_symmetry_space_group_name_H-M   'P 1'
_cell_length_a   9.07999012
_cell_length_b   9.07999105
_cell_length_c   9.07999100
_cell_angle_alpha   125.72158893
_cell_angle_beta   125.72159317
_cell_angle_gamma   80.34620879
_symmetry_Int_Tables_number   1
_chemical_formula_structural   DyHo4Pb3N
_chemical_formula_sum   'Dy2 Ho8 Pb6 N2'
_cell_volume   476.08953292
_cell_formula_units_Z   2
loop_
 _symmetry_equiv_pos_site_id
 _symmetry_equiv_pos_as_xyz
  1  'x, y, z'
loop_
 _atom_site_type_symbol
 _atom_site_label
 _atom_site_symmetry_multiplicity
 _atom_site_fract_x
 _atom_site_fract_y
 _atom_site_fract_z
 _atom_site_occupancy
  Dy  Dy0  1  0.500000  0.500000  0.000000  1
  Dy  Dy1  1  0.000000  0.000000  0.000000  1
  Ho  Ho2  1  0.995142  0.202131  0.500000  1
  Ho  Ho3  1  0.797869  0.297869  0.793011  1
  Ho  Ho4  1  0.495142  0.995142  0.793011  1
  Ho  Ho5  1  0.504858  0.004858  0.206989  1
  Ho  Ho6  1  0.004858  0.797869  0.500000  1
  Ho  Ho7  1  0.202131  0.702131  0.206989  1
  Ho  Ho8  1  0.702131  0.495142  0.500000  1
  Ho  Ho9  1  0.297869  0.504858  0.500000  1
  Pb  Pb10  1  0.850023  0.350023  0.200047  1
  Pb  Pb11  1  0.149977  0.649977  0.799953  1
  Pb  Pb12  1  0.350023  0.149977  0.500000  1
  Pb  Pb13  1  0.750000  0.750000  0.000000  1
  Pb  Pb14  1  0.649977  0.850023  0.500000  1
  Pb  Pb15  1  0.250000  0.250000  0.000000  1
  N  N16  1  0.750000  0.250000  0.500000  1
  N  N17  1  0.250000  0.750000  0.500000  1
