# generated using pymatgen
data_Li3Ac8Si12Ag
_symmetry_space_group_name_H-M   'P 1'
_cell_length_a   11.74592128
_cell_length_b   10.06437599
_cell_length_c   8.55987024
_cell_angle_alpha   77.68994318
_cell_angle_beta   56.79358814
_cell_angle_gamma   45.45424494
_symmetry_Int_Tables_number   1
_chemical_formula_structural   Li3Ac8Si12Ag
_chemical_formula_sum   'Li3 Ac8 Si12 Ag1'
_cell_volume   578.07864854
_cell_formula_units_Z   1
loop_
 _symmetry_equiv_pos_site_id
 _symmetry_equiv_pos_as_xyz
  1  'x, y, z'
loop_
 _atom_site_type_symbol
 _atom_site_label
 _atom_site_symmetry_multiplicity
 _atom_site_fract_x
 _atom_site_fract_y
 _atom_site_fract_z
 _atom_site_occupancy
  Li  Li0  1  0.832836  0.167323  0.832750  1
  Li  Li1  1  0.166994  0.832944  0.167211  1
  Li  Li2  1  0.416991  0.082872  0.417407  1
  Ac  Ac3  1  0.376828  0.377173  0.622573  1
  Ac  Ac4  1  0.622924  0.622667  0.377295  1
  Ac  Ac5  1  0.873779  0.873837  0.626610  1
  Ac  Ac6  1  0.626156  0.626595  0.873520  1
  Ac  Ac7  1  0.877090  0.876180  0.124220  1
  Ac  Ac8  1  0.123861  0.123178  0.876456  1
  Ac  Ac9  1  0.374358  0.375576  0.125224  1
  Ac  Ac10  1  0.125606  0.124185  0.374589  1
  Si  Si11  1  0.664153  0.335292  0.664842  1
  Si  Si12  1  0.335680  0.665069  0.335275  1
  Si  Si13  1  0.584842  0.915778  0.584011  1
  Si  Si14  1  0.912118  0.587039  0.912130  1
  Si  Si15  1  0.333372  0.661992  0.830999  1
  Si  Si16  1  0.173554  0.831118  0.661976  1
  Si  Si17  1  0.830728  0.173792  0.333497  1
  Si  Si18  1  0.661543  0.333798  0.174158  1
  Si  Si19  1  0.915636  0.591895  0.422303  1
  Si  Si20  1  0.077406  0.415994  0.588001  1
  Si  Si21  1  0.422028  0.070181  0.915667  1
  Si  Si22  1  0.588641  0.918182  0.076356  1
  Ag  Ag23  1  0.082877  0.417339  0.082931  1
