# generated using pymatgen
data_Zr8In4Pt3Au5
_symmetry_space_group_name_H-M   'P 1'
_cell_length_a   7.59594742
_cell_length_b   7.59594785
_cell_length_c   7.10520749
_cell_angle_alpha   90.06893020
_cell_angle_beta   90.06893319
_cell_angle_gamma   90.30929490
_symmetry_Int_Tables_number   1
_chemical_formula_structural   Zr8In4Pt3Au5
_chemical_formula_sum   'Zr8 In4 Pt3 Au5'
_cell_volume   409.95267885
_cell_formula_units_Z   1
loop_
 _symmetry_equiv_pos_site_id
 _symmetry_equiv_pos_as_xyz
  1  'x, y, z'
loop_
 _atom_site_type_symbol
 _atom_site_label
 _atom_site_symmetry_multiplicity
 _atom_site_fract_x
 _atom_site_fract_y
 _atom_site_fract_z
 _atom_site_occupancy
  Zr  Zr0  1  0.147998  0.147998  0.005764  1
  Zr  Zr1  1  0.846083  0.846083  0.998741  1
  Zr  Zr2  1  0.646803  0.360911  0.495393  1
  Zr  Zr3  1  0.360911  0.646803  0.495393  1
  Zr  Zr4  1  0.688061  0.319402  0.003949  1
  Zr  Zr5  1  0.319402  0.688061  0.003949  1
  Zr  Zr6  1  0.798778  0.798778  0.499853  1
  Zr  Zr7  1  0.196792  0.196792  0.494436  1
  In  In8  1  0.500713  0.002477  0.246086  1
  In  In9  1  0.499750  0.997999  0.751519  1
  In  In10  1  0.002477  0.500713  0.246086  1
  In  In11  1  0.997999  0.499750  0.751519  1
  Pt  Pt12  1  0.369312  0.369312  0.211816  1
  Pt  Pt13  1  0.629422  0.629422  0.788376  1
  Pt  Pt14  1  0.631079  0.631079  0.208313  1
  Au  Au15  1  0.868341  0.130478  0.709124  1
  Au  Au16  1  0.868227  0.129203  0.293152  1
  Au  Au17  1  0.368169  0.368169  0.794257  1
  Au  Au18  1  0.129203  0.868227  0.293152  1
  Au  Au19  1  0.130478  0.868341  0.709124  1
