# generated using pymatgen
data_Y3HoCdIr
_symmetry_space_group_name_H-M   'P 1'
_cell_length_a   9.65840021
_cell_length_b   9.65839955
_cell_length_c   9.65840000
_cell_angle_alpha   59.99999846
_cell_angle_beta   60.00000071
_cell_angle_gamma   59.99999823
_symmetry_Int_Tables_number   1
_chemical_formula_structural   Y3HoCdIr
_chemical_formula_sum   'Y12 Ho4 Cd4 Ir4'
_cell_volume   637.08964416
_cell_formula_units_Z   4
loop_
 _symmetry_equiv_pos_site_id
 _symmetry_equiv_pos_as_xyz
  1  'x, y, z'
loop_
 _atom_site_type_symbol
 _atom_site_label
 _atom_site_symmetry_multiplicity
 _atom_site_fract_x
 _atom_site_fract_y
 _atom_site_fract_z
 _atom_site_occupancy
  Y  Y0  1  0.810108  0.189892  0.189892  1
  Y  Y1  1  0.189892  0.810108  0.810108  1
  Y  Y2  1  0.189892  0.810108  0.189892  1
  Y  Y3  1  0.810108  0.189892  0.810108  1
  Y  Y4  1  0.189892  0.189892  0.810108  1
  Y  Y5  1  0.810108  0.810108  0.189892  1
  Y  Y6  1  0.938195  0.561805  0.561805  1
  Y  Y7  1  0.561805  0.938195  0.938195  1
  Y  Y8  1  0.561805  0.938195  0.561805  1
  Y  Y9  1  0.938195  0.561805  0.938195  1
  Y  Y10  1  0.561805  0.561805  0.938195  1
  Y  Y11  1  0.938195  0.938195  0.561805  1
  Ho  Ho12  1  0.348606  0.348606  0.348606  1
  Ho  Ho13  1  0.348606  0.348606  0.954181  1
  Ho  Ho14  1  0.348606  0.954181  0.348606  1
  Ho  Ho15  1  0.954181  0.348606  0.348606  1
  Cd  Cd16  1  0.580752  0.580752  0.580752  1
  Cd  Cd17  1  0.580752  0.580752  0.257744  1
  Cd  Cd18  1  0.580752  0.257744  0.580752  1
  Cd  Cd19  1  0.257744  0.580752  0.580752  1
  Ir  Ir20  1  0.142573  0.142573  0.142573  1
  Ir  Ir21  1  0.142573  0.142573  0.572280  1
  Ir  Ir22  1  0.142573  0.572280  0.142573  1
  Ir  Ir23  1  0.572280  0.142573  0.142573  1
