# generated using pymatgen
data_Ca4TbSmU2O12
_symmetry_space_group_name_H-M   'P 1'
_cell_length_a   6.83660706
_cell_length_b   6.82161613
_cell_length_c   6.79129962
_cell_angle_alpha   91.55618820
_cell_angle_beta   91.48738420
_cell_angle_gamma   91.21582725
_symmetry_Int_Tables_number   1
_chemical_formula_structural   Ca4TbSmU2O12
_chemical_formula_sum   'Ca4 Tb1 Sm1 U2 O12'
_cell_volume   316.42419360
_cell_formula_units_Z   1
loop_
 _symmetry_equiv_pos_site_id
 _symmetry_equiv_pos_as_xyz
  1  'x, y, z'
loop_
 _atom_site_type_symbol
 _atom_site_label
 _atom_site_symmetry_multiplicity
 _atom_site_fract_x
 _atom_site_fract_y
 _atom_site_fract_z
 _atom_site_occupancy
  Ca  Ca0  1  0.552150  0.250752  0.058714  1
  Ca  Ca1  1  0.252063  0.059677  0.557174  1
  Ca  Ca2  1  0.063486  0.555143  0.249966  1
  Ca  Ca3  1  0.444594  0.749675  0.941489  1
  Tb  Tb4  1  0.937964  0.442793  0.749400  1
  Sm  Sm5  1  0.748515  0.938184  0.440875  1
  U  U6  1  0.000970  0.999034  0.998696  1
  U  U7  1  0.496280  0.498152  0.500573  1
  O  O8  1  0.293544  0.061580  0.923370  1
  O  O9  1  0.061689  0.921147  0.300544  1
  O  O10  1  0.926500  0.301309  0.056332  1
  O  O11  1  0.704230  0.936615  0.086400  1
  O  O12  1  0.928828  0.090557  0.693642  1
  O  O13  1  0.071154  0.694683  0.926159  1
  O  O14  1  0.194302  0.409616  0.547114  1
  O  O15  1  0.411284  0.540883  0.204033  1
  O  O16  1  0.467658  0.801778  0.589613  1
  O  O17  1  0.599945  0.458152  0.797277  1
  O  O18  1  0.804676  0.592897  0.469303  1
  O  O19  1  0.540168  0.197375  0.409327  1
