# generated using pymatgen
data_Sm4Lu4Sc12Si15Ru
_symmetry_space_group_name_H-M   'P 1'
_cell_length_a   7.08817273
_cell_length_b   7.44558269
_cell_length_c   13.94167363
_cell_angle_alpha   90.05009610
_cell_angle_beta   89.92114410
_cell_angle_gamma   90.06183812
_symmetry_Int_Tables_number   1
_chemical_formula_structural   Sm4Lu4Sc12Si15Ru
_chemical_formula_sum   'Sm4 Lu4 Sc12 Si15 Ru1'
_cell_volume   735.77845295
_cell_formula_units_Z   1
loop_
 _symmetry_equiv_pos_site_id
 _symmetry_equiv_pos_as_xyz
  1  'x, y, z'
loop_
 _atom_site_type_symbol
 _atom_site_label
 _atom_site_symmetry_multiplicity
 _atom_site_fract_x
 _atom_site_fract_y
 _atom_site_fract_z
 _atom_site_occupancy
  Sm  Sm0  1  0.512418  0.324395  0.092430  1
  Sm  Sm1  1  0.010276  0.177244  0.406792  1
  Sm  Sm2  1  0.512154  0.324912  0.403723  1
  Sm  Sm3  1  0.490123  0.673957  0.596580  1
  Lu  Lu4  1  0.012693  0.180040  0.094301  1
  Lu  Lu5  1  0.990720  0.826346  0.904701  1
  Lu  Lu6  1  0.488502  0.678269  0.902698  1
  Lu  Lu7  1  0.990225  0.826506  0.598792  1
  Sc  Sc8  1  0.158612  0.503706  0.751394  1
  Sc  Sc9  1  0.838443  0.497071  0.248362  1
  Sc  Sc10  1  0.339884  0.007121  0.248397  1
  Sc  Sc11  1  0.668267  0.995579  0.751089  1
  Sc  Sc12  1  0.314572  0.170103  0.630016  1
  Sc  Sc13  1  0.673865  0.828197  0.373542  1
  Sc  Sc14  1  0.170605  0.680118  0.374103  1
  Sc  Sc15  1  0.673086  0.826198  0.122987  1
  Sc  Sc16  1  0.835957  0.320438  0.630383  1
  Sc  Sc17  1  0.311940  0.169459  0.872061  1
  Sc  Sc18  1  0.839773  0.316131  0.872407  1
  Sc  Sc19  1  0.171558  0.679378  0.123648  1
  Si  Si20  1  0.969353  0.885964  0.247694  1
  Si  Si21  1  0.468512  0.620198  0.248461  1
  Si  Si22  1  0.528779  0.386040  0.753308  1
  Si  Si23  1  0.284395  0.863929  0.752576  1
  Si  Si24  1  0.717186  0.128257  0.246714  1
  Si  Si25  1  0.211934  0.373998  0.247487  1
  Si  Si26  1  0.781530  0.627075  0.753579  1
  Si  Si27  1  0.154646  0.471781  0.540115  1
  Si  Si28  1  0.846250  0.542003  0.463749  1
  Si  Si29  1  0.346817  0.964637  0.461591  1
  Si  Si30  1  0.848245  0.536312  0.036909  1
  Si  Si31  1  0.657327  0.033698  0.540925  1
  Si  Si32  1  0.160383  0.470272  0.960531  1
  Si  Si33  1  0.655634  0.029128  0.958628  1
  Si  Si34  1  0.341532  0.963686  0.038004  1
  Ru  Ru35  1  0.023806  0.097851  0.751325  1
