# generated using pymatgen
data_Tb2ZnCo2SiC
_symmetry_space_group_name_H-M   'P 1'
_cell_length_a   5.69949364
_cell_length_b   5.69949353
_cell_length_c   6.85631698
_cell_angle_alpha   126.08877757
_cell_angle_beta   126.08877711
_cell_angle_gamma   40.39205744
_symmetry_Int_Tables_number   1
_chemical_formula_structural   Tb2ZnCo2SiC
_chemical_formula_sum   'Tb2 Zn1 Co2 Si1 C1'
_cell_volume   112.36079582
_cell_formula_units_Z   1
loop_
 _symmetry_equiv_pos_site_id
 _symmetry_equiv_pos_as_xyz
  1  'x, y, z'
loop_
 _atom_site_type_symbol
 _atom_site_label
 _atom_site_symmetry_multiplicity
 _atom_site_fract_x
 _atom_site_fract_y
 _atom_site_fract_z
 _atom_site_occupancy
  Tb  Tb0  1  0.557430  0.557430  0.295174  1
  Tb  Tb1  1  0.445363  0.445363  0.716089  1
  Zn  Zn2  1  0.845820  0.845820  0.297776  1
  Co  Co3  1  0.189341  0.189341  0.075721  1
  Co  Co4  1  0.797422  0.797422  0.891981  1
  Si  Si5  1  0.164987  0.164987  0.718071  1
  C  C6  1  0.999638  0.999638  0.005188  1
