# generated using pymatgen
data_Rb4HfUI12
_symmetry_space_group_name_H-M   'P 1'
_cell_length_a   8.33928900
_cell_length_b   8.33928900
_cell_length_c   12.46851500
_cell_angle_alpha   90.00000000
_cell_angle_beta   90.00000000
_cell_angle_gamma   90.00000000
_symmetry_Int_Tables_number   1
_chemical_formula_structural   Rb4HfUI12
_chemical_formula_sum   'Rb4 Hf1 U1 I12'
_cell_volume   867.10717814
_cell_formula_units_Z   1
loop_
 _symmetry_equiv_pos_site_id
 _symmetry_equiv_pos_as_xyz
  1  'x, y, z'
loop_
 _atom_site_type_symbol
 _atom_site_label
 _atom_site_symmetry_multiplicity
 _atom_site_fract_x
 _atom_site_fract_y
 _atom_site_fract_z
 _atom_site_occupancy
  Rb  Rb0  1  0.000000  0.500000  0.248851  1
  Rb  Rb1  1  0.500000  0.000000  0.248851  1
  Rb  Rb2  1  0.000000  0.500000  0.751149  1
  Rb  Rb3  1  0.500000  0.000000  0.751149  1
  Hf  Hf4  1  0.000000  0.000000  0.000000  1
  U  U5  1  0.500000  0.500000  0.500000  1
  I  I6  1  0.000000  0.000000  0.230546  1
  I  I7  1  0.500000  0.500000  0.256769  1
  I  I8  1  0.000000  0.000000  0.769453  1
  I  I9  1  0.500000  0.500000  0.743231  1
  I  I10  1  0.190490  0.285929  0.000000  1
  I  I11  1  0.714071  0.190490  0.000000  1
  I  I12  1  0.285929  0.809510  0.000000  1
  I  I13  1  0.700318  0.198485  0.500000  1
  I  I14  1  0.299682  0.801515  0.500000  1
  I  I15  1  0.809510  0.714071  0.000000  1
  I  I16  1  0.801515  0.700318  0.500000  1
  I  I17  1  0.198485  0.299682  0.500000  1
