# generated using pymatgen
data_Y9Er7(AlCo)4
_symmetry_space_group_name_H-M   'P 1'
_cell_length_a   9.36322522
_cell_length_b   9.37738696
_cell_length_c   9.37703600
_cell_angle_alpha   59.90135064
_cell_angle_beta   59.94749089
_cell_angle_gamma   60.04746068
_symmetry_Int_Tables_number   1
_chemical_formula_structural   Y9Er7(AlCo)4
_chemical_formula_sum   'Y9 Er7 Al4 Co4'
_cell_volume   581.72248722
_cell_formula_units_Z   1
loop_
 _symmetry_equiv_pos_site_id
 _symmetry_equiv_pos_as_xyz
  1  'x, y, z'
loop_
 _atom_site_type_symbol
 _atom_site_label
 _atom_site_symmetry_multiplicity
 _atom_site_fract_x
 _atom_site_fract_y
 _atom_site_fract_z
 _atom_site_occupancy
  Y  Y0  1  0.806916  0.193084  0.806916  1
  Y  Y1  1  0.192453  0.191151  0.808528  1
  Y  Y2  1  0.808528  0.807868  0.192453  1
  Y  Y3  1  0.939792  0.561839  0.559622  1
  Y  Y4  1  0.559622  0.938747  0.939792  1
  Y  Y5  1  0.559514  0.940486  0.559514  1
  Y  Y6  1  0.938692  0.561308  0.938692  1
  Y  Y7  1  0.558918  0.561467  0.940338  1
  Y  Y8  1  0.940338  0.939277  0.558918  1
  Er  Er9  1  0.348459  0.350173  0.348425  1
  Er  Er10  1  0.347105  0.348755  0.955538  1
  Er  Er11  1  0.348425  0.952944  0.348459  1
  Er  Er12  1  0.955538  0.348603  0.347105  1
  Er  Er13  1  0.806348  0.193400  0.194592  1
  Er  Er14  1  0.194592  0.805660  0.806348  1
  Er  Er15  1  0.192762  0.807238  0.192762  1
  Al  Al16  1  0.577416  0.577122  0.577086  1
  Al  Al17  1  0.577373  0.577281  0.268482  1
  Al  Al18  1  0.577086  0.268376  0.577416  1
  Al  Al19  1  0.268482  0.576864  0.577373  1
  Co  Co20  1  0.138656  0.138807  0.144625  1
  Co  Co21  1  0.143608  0.137908  0.574753  1
  Co  Co22  1  0.144625  0.577911  0.138656  1
  Co  Co23  1  0.574753  0.143733  0.143608  1
