# generated using pymatgen
data_Y4Ho4Si12IrRh3
_symmetry_space_group_name_H-M   'P 1'
_cell_length_a   8.16346175
_cell_length_b   8.16951616
_cell_length_c   7.91511000
_cell_angle_alpha   90.00000353
_cell_angle_beta   90.00178129
_cell_angle_gamma   120.02454435
_symmetry_Int_Tables_number   1
_chemical_formula_structural   Y4Ho4Si12IrRh3
_chemical_formula_sum   'Y4 Ho4 Si12 Ir1 Rh3'
_cell_volume   457.03643094
_cell_formula_units_Z   1
loop_
 _symmetry_equiv_pos_site_id
 _symmetry_equiv_pos_as_xyz
  1  'x, y, z'
loop_
 _atom_site_type_symbol
 _atom_site_label
 _atom_site_symmetry_multiplicity
 _atom_site_fract_x
 _atom_site_fract_y
 _atom_site_fract_z
 _atom_site_occupancy
  Y  Y0  1  0.999955  0.999978  0.248759  1
  Y  Y1  1  0.999986  0.999993  0.750282  1
  Y  Y2  1  0.509103  0.491036  0.250116  1
  Y  Y3  1  0.509103  0.018067  0.250116  1
  Ho  Ho4  1  0.982921  0.491461  0.250202  1
  Ho  Ho5  1  0.490505  0.509529  0.749836  1
  Ho  Ho6  1  0.490505  0.980976  0.749836  1
  Ho  Ho7  1  0.019044  0.509522  0.749839  1
  Si  Si8  1  0.166581  0.833212  0.499488  1
  Si  Si9  1  0.166581  0.333368  0.499488  1
  Si  Si10  1  0.666423  0.833211  0.499760  1
  Si  Si11  1  0.832690  0.167602  0.500662  1
  Si  Si12  1  0.832690  0.665089  0.500662  1
  Si  Si13  1  0.334825  0.167413  0.501099  1
  Si  Si14  1  0.832830  0.167477  0.999453  1
  Si  Si15  1  0.832830  0.665356  0.999453  1
  Si  Si16  1  0.334546  0.167274  0.999022  1
  Si  Si17  1  0.167031  0.832734  0.999146  1
  Si  Si18  1  0.167031  0.334295  0.999146  1
  Si  Si19  1  0.665632  0.832815  0.998852  1
  Ir  Ir20  1  0.332435  0.666218  0.470430  1
  Rh  Rh21  1  0.667185  0.333592  0.535436  1
  Rh  Rh22  1  0.667141  0.333570  0.963385  1
  Rh  Rh23  1  0.332426  0.666214  0.035531  1
