# generated using pymatgen
data_Ce2NdHo2(In2Pd)2
_symmetry_space_group_name_H-M   'P 1'
_cell_length_a   3.70800600
_cell_length_b   8.22657100
_cell_length_c   18.43937900
_cell_angle_alpha   90.00000000
_cell_angle_beta   90.00000000
_cell_angle_gamma   90.00000000
_symmetry_Int_Tables_number   1
_chemical_formula_structural   Ce2NdHo2(In2Pd)2
_chemical_formula_sum   'Ce4 Nd2 Ho4 In8 Pd4'
_cell_volume   562.47803704
_cell_formula_units_Z   2
loop_
 _symmetry_equiv_pos_site_id
 _symmetry_equiv_pos_as_xyz
  1  'x, y, z'
loop_
 _atom_site_type_symbol
 _atom_site_label
 _atom_site_symmetry_multiplicity
 _atom_site_fract_x
 _atom_site_fract_y
 _atom_site_fract_z
 _atom_site_occupancy
  Ce  Ce0  1  0.000000  0.734381  0.285104  1
  Ce  Ce1  1  0.000000  0.265619  0.714896  1
  Ce  Ce2  1  0.000000  0.765619  0.785104  1
  Ce  Ce3  1  0.000000  0.234381  0.214896  1
  Nd  Nd4  1  0.000000  0.500000  0.500000  1
  Nd  Nd5  1  0.000000  0.000000  0.000000  1
  Ho  Ho6  1  0.000000  0.618187  0.083775  1
  Ho  Ho7  1  0.000000  0.381813  0.916225  1
  Ho  Ho8  1  0.000000  0.881813  0.583775  1
  Ho  Ho9  1  0.000000  0.118187  0.416225  1
  In  In10  1  0.500000  0.697426  0.936203  1
  In  In11  1  0.500000  0.302574  0.063797  1
  In  In12  1  0.500000  0.802574  0.436203  1
  In  In13  1  0.500000  0.197426  0.563797  1
  In  In14  1  0.500000  0.589531  0.651736  1
  In  In15  1  0.500000  0.410469  0.348264  1
  In  In16  1  0.500000  0.910469  0.151736  1
  In  In17  1  0.500000  0.089531  0.848264  1
  Pd  Pd18  1  0.500000  0.524653  0.195974  1
  Pd  Pd19  1  0.500000  0.475347  0.804026  1
  Pd  Pd20  1  0.500000  0.975347  0.695974  1
  Pd  Pd21  1  0.500000  0.024653  0.304026  1
