# generated using pymatgen
data_Tm16Cd3NiHgRu3
_symmetry_space_group_name_H-M   'P 1'
_cell_length_a   9.44730062
_cell_length_b   9.49156992
_cell_length_c   9.49156964
_cell_angle_alpha   59.90011124
_cell_angle_beta   59.80248561
_cell_angle_gamma   59.80249393
_symmetry_Int_Tables_number   1
_chemical_formula_structural   Tm16Cd3NiHgRu3
_chemical_formula_sum   'Tm16 Cd3 Ni1 Hg1 Ru3'
_cell_volume   599.56858703
_cell_formula_units_Z   1
loop_
 _symmetry_equiv_pos_site_id
 _symmetry_equiv_pos_as_xyz
  1  'x, y, z'
loop_
 _atom_site_type_symbol
 _atom_site_label
 _atom_site_symmetry_multiplicity
 _atom_site_fract_x
 _atom_site_fract_y
 _atom_site_fract_z
 _atom_site_occupancy
  Tm  Tm0  1  0.349990  0.346294  0.346294  1
  Tm  Tm1  1  0.352009  0.345529  0.956187  1
  Tm  Tm2  1  0.352009  0.956187  0.345529  1
  Tm  Tm3  1  0.956258  0.348340  0.348340  1
  Tm  Tm4  1  0.811343  0.188304  0.188304  1
  Tm  Tm5  1  0.188701  0.811288  0.811288  1
  Tm  Tm6  1  0.188707  0.811619  0.188018  1
  Tm  Tm7  1  0.811010  0.189114  0.811057  1
  Tm  Tm8  1  0.188707  0.188018  0.811619  1
  Tm  Tm9  1  0.811010  0.811057  0.189114  1
  Tm  Tm10  1  0.936789  0.561031  0.561031  1
  Tm  Tm11  1  0.559154  0.937439  0.937439  1
  Tm  Tm12  1  0.559014  0.935745  0.566060  1
  Tm  Tm13  1  0.938121  0.561062  0.939591  1
  Tm  Tm14  1  0.559014  0.566060  0.935745  1
  Tm  Tm15  1  0.938121  0.939591  0.561062  1
  Cd  Cd16  1  0.578584  0.580723  0.259560  1
  Cd  Cd17  1  0.578584  0.259560  0.580723  1
  Cd  Cd18  1  0.256813  0.580500  0.580500  1
  Ni  Ni19  1  0.577648  0.140765  0.140765  1
  Hg  Hg20  1  0.582406  0.583591  0.583591  1
  Ru  Ru21  1  0.141872  0.141246  0.141246  1
  Ru  Ru22  1  0.142068  0.140856  0.576085  1
  Ru  Ru23  1  0.142068  0.576085  0.140856  1
