# generated using pymatgen
data_Ba4Li2(CdSb2)3
_symmetry_space_group_name_H-M   'P 1'
_cell_length_a   11.03851900
_cell_length_b   11.03851789
_cell_length_c   18.10225900
_cell_angle_alpha   90.00000000
_cell_angle_beta   90.00000000
_cell_angle_gamma   153.41307009
_symmetry_Int_Tables_number   1
_chemical_formula_structural   Ba4Li2(CdSb2)3
_chemical_formula_sum   'Ba8 Li4 Cd6 Sb12'
_cell_volume   987.19026781
_cell_formula_units_Z   2
loop_
 _symmetry_equiv_pos_site_id
 _symmetry_equiv_pos_as_xyz
  1  'x, y, z'
loop_
 _atom_site_type_symbol
 _atom_site_label
 _atom_site_symmetry_multiplicity
 _atom_site_fract_x
 _atom_site_fract_y
 _atom_site_fract_z
 _atom_site_occupancy
  Ba  Ba0  1  0.980962  0.019038  0.379311  1
  Ba  Ba1  1  0.019038  0.980962  0.620689  1
  Ba  Ba2  1  0.980962  0.019038  0.120689  1
  Ba  Ba3  1  0.019038  0.980962  0.879311  1
  Ba  Ba4  1  0.823369  0.176631  0.927436  1
  Ba  Ba5  1  0.176631  0.823369  0.072564  1
  Ba  Ba6  1  0.823369  0.176631  0.572564  1
  Ba  Ba7  1  0.176631  0.823369  0.427436  1
  Li  Li8  1  0.849819  0.150181  0.250000  1
  Li  Li9  1  0.150181  0.849819  0.750000  1
  Li  Li10  1  0.568171  0.431829  0.250000  1
  Li  Li11  1  0.431829  0.568171  0.750000  1
  Cd  Cd12  1  0.354166  0.645834  0.380385  1
  Cd  Cd13  1  0.645834  0.354166  0.619615  1
  Cd  Cd14  1  0.354166  0.645834  0.119615  1
  Cd  Cd15  1  0.645834  0.354166  0.880385  1
  Cd  Cd16  1  0.702345  0.297655  0.250000  1
  Cd  Cd17  1  0.297655  0.702345  0.750000  1
  Sb  Sb18  1  0.779870  0.220130  0.383375  1
  Sb  Sb19  1  0.220130  0.779870  0.616625  1
  Sb  Sb20  1  0.779870  0.220130  0.116625  1
  Sb  Sb21  1  0.220130  0.779870  0.883375  1
  Sb  Sb22  1  0.565783  0.434217  0.481917  1
  Sb  Sb23  1  0.434217  0.565783  0.518083  1
  Sb  Sb24  1  0.565783  0.434217  0.018083  1
  Sb  Sb25  1  0.434217  0.565783  0.981917  1
  Sb  Sb26  1  0.433277  0.566723  0.250000  1
  Sb  Sb27  1  0.566723  0.433277  0.750000  1
  Sb  Sb28  1  0.112535  0.887465  0.250000  1
  Sb  Sb29  1  0.887465  0.112535  0.750000  1
