# generated using pymatgen
data_Tb12NbRe12Sn7N48
_symmetry_space_group_name_H-M   'P 1'
_cell_length_a   11.23912197
_cell_length_b   11.23912211
_cell_length_c   11.23912218
_cell_angle_alpha   109.57406369
_cell_angle_beta   109.57406765
_cell_angle_gamma   109.57407094
_symmetry_Int_Tables_number   1
_chemical_formula_structural   Tb12NbRe12Sn7N48
_chemical_formula_sum   'Tb12 Nb1 Re12 Sn7 N48'
_cell_volume   1088.70566038
_cell_formula_units_Z   1
loop_
 _symmetry_equiv_pos_site_id
 _symmetry_equiv_pos_as_xyz
  1  'x, y, z'
loop_
 _atom_site_type_symbol
 _atom_site_label
 _atom_site_symmetry_multiplicity
 _atom_site_fract_x
 _atom_site_fract_y
 _atom_site_fract_z
 _atom_site_occupancy
  Tb  Tb0  1  0.375047  0.749784  0.124329  1
  Tb  Tb1  1  0.253255  0.376477  0.128273  1
  Tb  Tb2  1  0.376477  0.128273  0.253255  1
  Tb  Tb3  1  0.875671  0.624953  0.250216  1
  Tb  Tb4  1  0.749784  0.124329  0.375047  1
  Tb  Tb5  1  0.128273  0.253255  0.376477  1
  Tb  Tb6  1  0.871727  0.746745  0.623524  1
  Tb  Tb7  1  0.250216  0.875671  0.624953  1
  Tb  Tb8  1  0.124329  0.375047  0.749784  1
  Tb  Tb9  1  0.623524  0.871727  0.746745  1
  Tb  Tb10  1  0.624953  0.250216  0.875671  1
  Tb  Tb11  1  0.746745  0.623524  0.871727  1
  Nb  Nb12  1  0.500000  0.500000  0.500000  1
  Re  Re13  1  0.875488  0.249834  0.124900  1
  Re  Re14  1  0.750165  0.875100  0.124512  1
  Re  Re15  1  0.625397  0.376886  0.250712  1
  Re  Re16  1  0.124900  0.875488  0.249834  1
  Re  Re17  1  0.250712  0.625397  0.376886  1
  Re  Re18  1  0.623114  0.749288  0.374604  1
  Re  Re19  1  0.376886  0.250712  0.625397  1
  Re  Re20  1  0.749288  0.374604  0.623114  1
  Re  Re21  1  0.875100  0.124512  0.750165  1
  Re  Re22  1  0.374604  0.623114  0.749288  1
  Re  Re23  1  0.249834  0.124900  0.875488  1
  Re  Re24  1  0.124512  0.750165  0.875100  1
  Sn  Sn25  1  0.000000  0.000000  0.000000  1
  Sn  Sn26  1  0.500000  0.000000  0.000000  1
  Sn  Sn27  1  0.000000  0.500000  0.000000  1
  Sn  Sn28  1  0.500000  0.500000  0.000000  1
  Sn  Sn29  1  0.000000  0.000000  0.500000  1
  Sn  Sn30  1  0.500000  0.000000  0.500000  1
  Sn  Sn31  1  0.000000  0.500000  0.500000  1
  N  N32  1  0.309480  0.901614  0.024349  1
  N  N33  1  0.216333  0.124599  0.026342  1
  N  N34  1  0.877153  0.400939  0.091920  1
  N  N35  1  0.715738  0.691355  0.092041  1
  N  N36  1  0.622855  0.408654  0.098401  1
  N  N37  1  0.975650  0.690520  0.098386  1
  N  N38  1  0.026342  0.216333  0.124599  1
  N  N39  1  0.599060  0.908079  0.122847  1
  N  N40  1  0.214203  0.590926  0.191770  1
  N  N41  1  0.475401  0.599393  0.189396  1
  N  N42  1  0.124599  0.026342  0.216333  1
  N  N43  1  0.590926  0.191770  0.214203  1
  N  N44  1  0.308645  0.907959  0.284262  1
  N  N45  1  0.482205  0.384298  0.295066  1
  N  N46  1  0.907959  0.284262  0.308645  1
  N  N47  1  0.901614  0.024349  0.309480  1
  N  N48  1  0.295066  0.482205  0.384298  1
  N  N49  1  0.591346  0.901599  0.377145  1
  N  N50  1  0.810604  0.524600  0.400608  1
  N  N51  1  0.091920  0.877153  0.400939  1
  N  N52  1  0.098401  0.622855  0.408654  1
  N  N53  1  0.808229  0.785796  0.409074  1
  N  N54  1  0.599393  0.189396  0.475401  1
  N  N55  1  0.384298  0.295066  0.482205  1
  N  N56  1  0.615701  0.704934  0.517795  1
  N  N57  1  0.400608  0.810604  0.524600  1
  N  N58  1  0.191770  0.214203  0.590926  1
  N  N59  1  0.901599  0.377145  0.591346  1
  N  N60  1  0.908079  0.122847  0.599060  1
  N  N61  1  0.189396  0.475401  0.599393  1
  N  N62  1  0.408654  0.098401  0.622855  1
  N  N63  1  0.704934  0.517795  0.615701  1
  N  N64  1  0.092041  0.715738  0.691355  1
  N  N65  1  0.098386  0.975650  0.690520  1
  N  N66  1  0.517795  0.615701  0.704934  1
  N  N67  1  0.691355  0.092041  0.715738  1
  N  N68  1  0.875402  0.973659  0.783668  1
  N  N69  1  0.409074  0.808229  0.785796  1
  N  N70  1  0.524600  0.400608  0.810604  1
  N  N71  1  0.785796  0.409074  0.808229  1
  N  N72  1  0.400939  0.091920  0.877153  1
  N  N73  1  0.973659  0.783668  0.875402  1
  N  N74  1  0.024349  0.309480  0.901614  1
  N  N75  1  0.377145  0.591346  0.901599  1
  N  N76  1  0.284262  0.308645  0.907959  1
  N  N77  1  0.122847  0.599060  0.908079  1
  N  N78  1  0.690520  0.098386  0.975650  1
  N  N79  1  0.783668  0.875402  0.973659  1
