# generated using pymatgen
data_PrNd7Cu2(Si6Pd)2
_symmetry_space_group_name_H-M   'P 1'
_cell_length_a   8.18863214
_cell_length_b   8.18857448
_cell_length_c   8.54411700
_cell_angle_alpha   89.99819241
_cell_angle_beta   90.00186310
_cell_angle_gamma   119.98003746
_symmetry_Int_Tables_number   1
_chemical_formula_structural   PrNd7Cu2(Si6Pd)2
_chemical_formula_sum   'Pr1 Nd7 Cu2 Si12 Pd2'
_cell_volume   496.25490110
_cell_formula_units_Z   1
loop_
 _symmetry_equiv_pos_site_id
 _symmetry_equiv_pos_as_xyz
  1  'x, y, z'
loop_
 _atom_site_type_symbol
 _atom_site_label
 _atom_site_symmetry_multiplicity
 _atom_site_fract_x
 _atom_site_fract_y
 _atom_site_fract_z
 _atom_site_occupancy
  Pr  Pr0  1  0.499898  0.500117  0.750354  1
  Nd  Nd1  1  0.500130  0.499882  0.249742  1
  Nd  Nd2  1  0.000223  0.500105  0.750251  1
  Nd  Nd3  1  0.999767  0.499862  0.249713  1
  Nd  Nd4  1  0.499906  0.999782  0.750249  1
  Nd  Nd5  1  0.500146  0.000234  0.249715  1
  Nd  Nd6  1  0.000008  0.999995  0.750449  1
  Nd  Nd7  1  0.000011  0.999996  0.249463  1
  Cu  Cu8  1  0.666393  0.333484  0.002823  1
  Cu  Cu9  1  0.333395  0.666608  0.999071  1
  Si  Si10  1  0.830781  0.169226  0.999854  1
  Si  Si11  1  0.169175  0.830824  0.000114  1
  Si  Si12  1  0.337761  0.168623  0.000413  1
  Si  Si13  1  0.165867  0.834145  0.499744  1
  Si  Si14  1  0.662172  0.831341  0.000662  1
  Si  Si15  1  0.834190  0.165824  0.500045  1
  Si  Si16  1  0.831362  0.662200  0.000415  1
  Si  Si17  1  0.668428  0.834364  0.499309  1
  Si  Si18  1  0.168660  0.337830  0.000661  1
  Si  Si19  1  0.331623  0.165621  0.499619  1
  Si  Si20  1  0.165648  0.331586  0.499310  1
  Si  Si21  1  0.834393  0.668390  0.499619  1
  Pd  Pd22  1  0.333252  0.666761  0.498216  1
  Pd  Pd23  1  0.666812  0.333198  0.500190  1
