# generated using pymatgen
data_Tm6Lu4InSb5
_symmetry_space_group_name_H-M   'P 1'
_cell_length_a   8.82319800
_cell_length_b   8.83073333
_cell_length_c   6.27653800
_cell_angle_alpha   90.00000000
_cell_angle_beta   90.00000000
_cell_angle_gamma   119.97176934
_symmetry_Int_Tables_number   1
_chemical_formula_structural   Tm6Lu4InSb5
_chemical_formula_sum   'Tm6 Lu4 In1 Sb5'
_cell_volume   423.64010157
_cell_formula_units_Z   1
loop_
 _symmetry_equiv_pos_site_id
 _symmetry_equiv_pos_as_xyz
  1  'x, y, z'
loop_
 _atom_site_type_symbol
 _atom_site_label
 _atom_site_symmetry_multiplicity
 _atom_site_fract_x
 _atom_site_fract_y
 _atom_site_fract_z
 _atom_site_occupancy
  Tm  Tm0  1  0.242499  0.000000  0.250000  1
  Tm  Tm1  1  0.757995  0.000000  0.750000  1
  Tm  Tm2  1  0.996227  0.240470  0.250000  1
  Tm  Tm3  1  0.755757  0.759530  0.250000  1
  Tm  Tm4  1  0.244530  0.242809  0.750000  1
  Tm  Tm5  1  0.001721  0.757191  0.750000  1
  Lu  Lu6  1  0.335224  0.669207  0.999790  1
  Lu  Lu7  1  0.666017  0.330793  0.500210  1
  Lu  Lu8  1  0.666017  0.330793  0.999790  1
  Lu  Lu9  1  0.335224  0.669207  0.500210  1
  In  In10  1  0.605210  0.000000  0.250000  1
  Sb  Sb11  1  0.392387  0.000000  0.750000  1
  Sb  Sb12  1  0.999134  0.608852  0.250000  1
  Sb  Sb13  1  0.390282  0.391148  0.250000  1
  Sb  Sb14  1  0.610074  0.608373  0.750000  1
  Sb  Sb15  1  0.001702  0.391627  0.750000  1
