# generated using pymatgen
data_La6FeBr10
_symmetry_space_group_name_H-M   'P 1'
_cell_length_a   7.83813423
_cell_length_b   9.64247797
_cell_length_c   9.62142000
_cell_angle_alpha   108.97170890
_cell_angle_beta   106.38208185
_cell_angle_gamma   97.53031999
_symmetry_Int_Tables_number   1
_chemical_formula_structural   La6FeBr10
_chemical_formula_sum   'La6 Fe1 Br10'
_cell_volume   639.56705463
_cell_formula_units_Z   1
loop_
 _symmetry_equiv_pos_site_id
 _symmetry_equiv_pos_as_xyz
  1  'x, y, z'
loop_
 _atom_site_type_symbol
 _atom_site_label
 _atom_site_symmetry_multiplicity
 _atom_site_fract_x
 _atom_site_fract_y
 _atom_site_fract_z
 _atom_site_occupancy
  La  La0  1  0.372632  0.195931  0.144268  1
  La  La1  1  0.028730  0.906392  0.709177  1
  La  La2  1  0.126271  0.765837  0.050120  1
  La  La3  1  0.627368  0.804069  0.855732  1
  La  La4  1  0.873729  0.234163  0.949880  1
  La  La5  1  0.971270  0.093608  0.290823  1
  Fe  Fe6  1  0.000000  0.000000  0.000000  1
  Br  Br7  1  0.452622  0.075491  0.826137  1
  Br  Br8  1  0.754376  0.542349  0.919128  1
  Br  Br9  1  0.245624  0.457651  0.080872  1
  Br  Br10  1  0.913066  0.168107  0.629956  1
  Br  Br11  1  0.641835  0.725687  0.539396  1
  Br  Br12  1  0.547378  0.924509  0.173863  1
  Br  Br13  1  0.086934  0.831893  0.370044  1
  Br  Br14  1  0.801434  0.352789  0.257656  1
  Br  Br15  1  0.198566  0.647211  0.742344  1
  Br  Br16  1  0.358165  0.274313  0.460604  1
