# generated using pymatgen
data_Tb4Dy8Co5Sn
_symmetry_space_group_name_H-M   'P 1'
_cell_length_a   8.29941964
_cell_length_b   8.29941848
_cell_length_c   8.29941912
_cell_angle_alpha   107.06544525
_cell_angle_beta   110.75636024
_cell_angle_gamma   110.61834587
_symmetry_Int_Tables_number   1
_chemical_formula_structural   Tb4Dy8Co5Sn
_chemical_formula_sum   'Tb4 Dy8 Co5 Sn1'
_cell_volume   439.48990690
_cell_formula_units_Z   1
loop_
 _symmetry_equiv_pos_site_id
 _symmetry_equiv_pos_as_xyz
  1  'x, y, z'
loop_
 _atom_site_type_symbol
 _atom_site_label
 _atom_site_symmetry_multiplicity
 _atom_site_fract_x
 _atom_site_fract_y
 _atom_site_fract_z
 _atom_site_occupancy
  Tb  Tb0  1  0.478303  0.292014  0.186289  1
  Tb  Tb1  1  0.105725  0.292014  0.813711  1
  Tb  Tb2  1  0.894275  0.707986  0.186289  1
  Tb  Tb3  1  0.521697  0.707986  0.813711  1
  Dy  Dy4  1  0.307053  0.621314  0.314261  1
  Dy  Dy5  1  0.307053  0.992793  0.685739  1
  Dy  Dy6  1  0.692947  0.378686  0.685739  1
  Dy  Dy7  1  0.692947  0.007207  0.314261  1
  Dy  Dy8  1  0.191659  0.207732  0.399391  1
  Dy  Dy9  1  0.808341  0.792268  0.600609  1
  Dy  Dy10  1  0.191659  0.792268  0.983926  1
  Dy  Dy11  1  0.808341  0.207732  0.016074  1
  Co  Co12  1  0.500000  0.611869  0.111869  1
  Co  Co13  1  0.500000  0.388131  0.888131  1
  Co  Co14  1  0.377474  0.000000  0.377474  1
  Co  Co15  1  0.622526  0.000000  0.622526  1
  Co  Co16  1  0.000000  0.000000  0.000000  1
  Sn  Sn17  1  0.000000  0.500000  0.500000  1
