# generated using pymatgen
data_EuDy2Zn11
_symmetry_space_group_name_H-M   'P 1'
_cell_length_a   8.25838085
_cell_length_b   8.25838011
_cell_length_c   8.25837959
_cell_angle_alpha   148.41392717
_cell_angle_beta   116.33927735
_cell_angle_gamma   72.81008651
_symmetry_Int_Tables_number   1
_chemical_formula_structural   EuDy2Zn11
_chemical_formula_sum   'Eu1 Dy2 Zn11'
_cell_volume   260.27334829
_cell_formula_units_Z   1
loop_
 _symmetry_equiv_pos_site_id
 _symmetry_equiv_pos_as_xyz
  1  'x, y, z'
loop_
 _atom_site_type_symbol
 _atom_site_label
 _atom_site_symmetry_multiplicity
 _atom_site_fract_x
 _atom_site_fract_y
 _atom_site_fract_z
 _atom_site_occupancy
  Eu  Eu0  1  0.000000  0.000000  0.000000  1
  Dy  Dy1  1  0.296927  0.296927  0.000000  1
  Dy  Dy2  1  0.703073  0.703073  0.000000  1
  Zn  Zn3  1  0.500000  0.000000  0.500000  1
  Zn  Zn4  1  0.679718  0.500000  0.179718  1
  Zn  Zn5  1  0.320282  0.500000  0.820282  1
  Zn  Zn6  1  0.694971  0.338372  0.356598  1
  Zn  Zn7  1  0.305029  0.661628  0.643402  1
  Zn  Zn8  1  0.981775  0.338372  0.643402  1
  Zn  Zn9  1  0.018225  0.661628  0.356598  1
  Zn  Zn10  1  0.424832  0.139590  0.285241  1
  Zn  Zn11  1  0.575168  0.860410  0.714759  1
  Zn  Zn12  1  0.854349  0.139590  0.714759  1
  Zn  Zn13  1  0.145651  0.860410  0.285241  1
