# generated using pymatgen
data_TmLu3Th6Bi6BC
_symmetry_space_group_name_H-M   'P 1'
_cell_length_a   9.32597300
_cell_length_b   9.32597365
_cell_length_c   6.48928800
_cell_angle_alpha   90.00000000
_cell_angle_beta   90.00000000
_cell_angle_gamma   120.00000123
_symmetry_Int_Tables_number   1
_chemical_formula_structural   TmLu3Th6Bi6BC
_chemical_formula_sum   'Tm1 Lu3 Th6 Bi6 B1 C1'
_cell_volume   488.78291072
_cell_formula_units_Z   1
loop_
 _symmetry_equiv_pos_site_id
 _symmetry_equiv_pos_as_xyz
  1  'x, y, z'
loop_
 _atom_site_type_symbol
 _atom_site_label
 _atom_site_symmetry_multiplicity
 _atom_site_fract_x
 _atom_site_fract_y
 _atom_site_fract_z
 _atom_site_occupancy
  Tm  Tm0  1  0.666667  0.333333  0.500000  1
  Lu  Lu1  1  0.666667  0.333333  0.000000  1
  Lu  Lu2  1  0.333333  0.666667  0.000000  1
  Lu  Lu3  1  0.333333  0.666667  0.500000  1
  Th  Th4  1  0.776164  0.776145  0.744043  1
  Th  Th5  1  0.223855  0.000018  0.744043  1
  Th  Th6  1  0.999982  0.223836  0.744043  1
  Th  Th7  1  0.223855  0.223836  0.255957  1
  Th  Th8  1  0.776164  0.000018  0.255957  1
  Th  Th9  1  0.999982  0.776145  0.255957  1
  Bi  Bi10  1  0.405953  0.406078  0.751829  1
  Bi  Bi11  1  0.593922  0.999875  0.751829  1
  Bi  Bi12  1  0.000125  0.594047  0.751829  1
  Bi  Bi13  1  0.593922  0.594047  0.248171  1
  Bi  Bi14  1  0.405953  0.999875  0.248171  1
  Bi  Bi15  1  0.000125  0.406078  0.248171  1
  B  B16  1  0.000000  0.000000  0.000000  1
  C  C17  1  0.000000  0.000000  0.500000  1
