# generated using pymatgen
data_Tb8BePd23Pt
_symmetry_space_group_name_H-M   'P 1'
_cell_length_a   8.36335800
_cell_length_b   8.36487600
_cell_length_c   8.36487600
_cell_angle_alpha   90.00000000
_cell_angle_beta   90.00000000
_cell_angle_gamma   90.00000000
_symmetry_Int_Tables_number   1
_chemical_formula_structural   Tb8BePd23Pt
_chemical_formula_sum   'Tb8 Be1 Pd23 Pt1'
_cell_volume   585.19378126
_cell_formula_units_Z   1
loop_
 _symmetry_equiv_pos_site_id
 _symmetry_equiv_pos_as_xyz
  1  'x, y, z'
loop_
 _atom_site_type_symbol
 _atom_site_label
 _atom_site_symmetry_multiplicity
 _atom_site_fract_x
 _atom_site_fract_y
 _atom_site_fract_z
 _atom_site_occupancy
  Tb  Tb0  1  0.250507  0.249784  0.249784  1
  Tb  Tb1  1  0.748802  0.749140  0.749140  1
  Tb  Tb2  1  0.748802  0.749140  0.250860  1
  Tb  Tb3  1  0.748802  0.250860  0.749140  1
  Tb  Tb4  1  0.250507  0.249784  0.750216  1
  Tb  Tb5  1  0.250507  0.750216  0.249784  1
  Tb  Tb6  1  0.250507  0.750216  0.750216  1
  Tb  Tb7  1  0.748802  0.250860  0.250860  1
  Be  Be8  1  0.003593  0.000000  0.000000  1
  Pd  Pd9  1  0.253819  0.500000  0.000000  1
  Pd  Pd10  1  0.745670  0.500000  0.000000  1
  Pd  Pd11  1  0.000056  0.253996  0.500000  1
  Pd  Pd12  1  0.500186  0.253059  0.000000  1
  Pd  Pd13  1  0.000056  0.746004  0.500000  1
  Pd  Pd14  1  0.500186  0.746941  0.000000  1
  Pd  Pd15  1  0.500186  0.000000  0.253059  1
  Pd  Pd16  1  0.253819  0.000000  0.500000  1
  Pd  Pd17  1  0.500186  0.000000  0.746941  1
  Pd  Pd18  1  0.745670  0.000000  0.500000  1
  Pd  Pd19  1  0.000056  0.500000  0.253996  1
  Pd  Pd20  1  0.000056  0.500000  0.746004  1
  Pd  Pd21  1  0.250894  0.500000  0.500000  1
  Pd  Pd22  1  0.749049  0.500000  0.500000  1
  Pd  Pd23  1  0.499786  0.250652  0.500000  1
  Pd  Pd24  1  0.499786  0.749348  0.500000  1
  Pd  Pd25  1  0.499786  0.500000  0.250652  1
  Pd  Pd26  1  0.499786  0.500000  0.749348  1
  Pd  Pd27  1  0.734848  0.000000  0.000000  1
  Pd  Pd28  1  0.999125  0.268886  0.000000  1
  Pd  Pd29  1  0.999125  0.731114  0.000000  1
  Pd  Pd30  1  0.999125  0.000000  0.268886  1
  Pd  Pd31  1  0.999125  0.000000  0.731114  1
  Pt  Pt32  1  0.268783  0.000000  0.000000  1
