# generated using pymatgen
data_Ta16BeFe3Te16
_symmetry_space_group_name_H-M   'P 1'
_cell_length_a   4.85812900
_cell_length_b   10.96078879
_cell_length_c   19.18345200
_cell_angle_alpha   89.94025008
_cell_angle_beta   90.00000000
_cell_angle_gamma   90.00000000
_symmetry_Int_Tables_number   1
_chemical_formula_structural   Ta16BeFe3Te16
_chemical_formula_sum   'Ta16 Be1 Fe3 Te16'
_cell_volume   1021.49765821
_cell_formula_units_Z   1
loop_
 _symmetry_equiv_pos_site_id
 _symmetry_equiv_pos_as_xyz
  1  'x, y, z'
loop_
 _atom_site_type_symbol
 _atom_site_label
 _atom_site_symmetry_multiplicity
 _atom_site_fract_x
 _atom_site_fract_y
 _atom_site_fract_z
 _atom_site_occupancy
  Ta  Ta0  1  0.494420  0.562002  0.387845  1
  Ta  Ta1  1  0.494420  0.437998  0.612155  1
  Ta  Ta2  1  0.500259  0.063135  0.113975  1
  Ta  Ta3  1  0.500259  0.936865  0.886025  1
  Ta  Ta4  1  0.492692  0.697288  0.534906  1
  Ta  Ta5  1  0.492692  0.302712  0.465094  1
  Ta  Ta6  1  0.499580  0.200281  0.964153  1
  Ta  Ta7  1  0.499580  0.799719  0.035847  1
  Ta  Ta8  1  0.007983  0.683289  0.445190  1
  Ta  Ta9  1  0.007983  0.316711  0.554810  1
  Ta  Ta10  1  0.000287  0.186334  0.055394  1
  Ta  Ta11  1  0.000287  0.813666  0.944606  1
  Ta  Ta12  1  0.005109  0.404630  0.395961  1
  Ta  Ta13  1  0.005109  0.595370  0.604039  1
  Ta  Ta14  1  0.999478  0.903157  0.105957  1
  Ta  Ta15  1  0.999478  0.096843  0.894043  1
  Be  Be16  1  0.249970  0.500000  0.500000  1
  Fe  Fe17  1  0.750115  0.000000  0.000000  1
  Fe  Fe18  1  0.749960  0.500000  0.500000  1
  Fe  Fe19  1  0.249976  0.000000  0.000000  1
  Te  Te20  1  0.991314  0.844804  0.561571  1
  Te  Te21  1  0.991314  0.155196  0.438429  1
  Te  Te22  1  0.999586  0.346335  0.937454  1
  Te  Te23  1  0.999586  0.653665  0.062546  1
  Te  Te24  1  0.506739  0.333201  0.317671  1
  Te  Te25  1  0.506739  0.666799  0.682329  1
  Te  Te26  1  0.499062  0.832446  0.183480  1
  Te  Te27  1  0.499062  0.167554  0.816520  1
  Te  Te28  1  0.509553  0.820708  0.404065  1
  Te  Te29  1  0.509553  0.179292  0.595935  1
  Te  Te30  1  0.500254  0.322415  0.095919  1
  Te  Te31  1  0.500254  0.677585  0.904081  1
  Te  Te32  1  0.993022  0.607914  0.303156  1
  Te  Te33  1  0.993022  0.392086  0.696844  1
  Te  Te34  1  0.000651  0.108832  0.197581  1
  Te  Te35  1  0.000651  0.891168  0.802419  1
