# generated using pymatgen
data_ErTm3V2(CoB8)2
_symmetry_space_group_name_H-M   'P 1'
_cell_length_a   3.38399700
_cell_length_b   5.92213551
_cell_length_c   11.44607411
_cell_angle_alpha   89.93739609
_cell_angle_beta   90.00000000
_cell_angle_gamma   90.00000000
_symmetry_Int_Tables_number   1
_chemical_formula_structural   ErTm3V2(CoB8)2
_chemical_formula_sum   'Er1 Tm3 V2 Co2 B16'
_cell_volume   229.38478323
_cell_formula_units_Z   1
loop_
 _symmetry_equiv_pos_site_id
 _symmetry_equiv_pos_as_xyz
  1  'x, y, z'
loop_
 _atom_site_type_symbol
 _atom_site_label
 _atom_site_symmetry_multiplicity
 _atom_site_fract_x
 _atom_site_fract_y
 _atom_site_fract_z
 _atom_site_occupancy
  Er  Er0  1  0.500000  0.371517  0.351971  1
  Tm  Tm1  1  0.500000  0.124770  0.847331  1
  Tm  Tm2  1  0.500000  0.875307  0.152526  1
  Tm  Tm3  1  0.500000  0.628394  0.648190  1
  V  V4  1  0.500000  0.627424  0.913961  1
  V  V5  1  0.500000  0.372701  0.085760  1
  Co  Co6  1  0.500000  0.135640  0.587789  1
  Co  Co7  1  0.500000  0.864145  0.412572  1
  B  B8  1  0.000000  0.282112  0.683050  1
  B  B9  1  0.000000  0.718311  0.317005  1
  B  B10  1  0.000000  0.788656  0.811197  1
  B  B11  1  0.000000  0.211306  0.188451  1
  B  B12  1  0.000000  0.361571  0.531288  1
  B  B13  1  0.000000  0.638402  0.469254  1
  B  B14  1  0.000000  0.866596  0.966742  1
  B  B15  1  0.000000  0.133503  0.032979  1
  B  B16  1  0.000000  0.020446  0.310116  1
  B  B17  1  0.000000  0.979329  0.689972  1
  B  B18  1  0.000000  0.526499  0.194945  1
  B  B19  1  0.000000  0.473870  0.804670  1
  B  B20  1  0.000000  0.111306  0.454039  1
  B  B21  1  0.000000  0.888024  0.546438  1
  B  B22  1  0.000000  0.615723  0.047355  1
  B  B23  1  0.000000  0.384447  0.952402  1
