# generated using pymatgen
data_Er10InBi5P2
_symmetry_space_group_name_H-M   'P 1'
_cell_length_a   9.11503400
_cell_length_b   9.11503302
_cell_length_c   6.65118700
_cell_angle_alpha   90.00000000
_cell_angle_beta   90.00000000
_cell_angle_gamma   119.75194895
_symmetry_Int_Tables_number   1
_chemical_formula_structural   Er10InBi5P2
_chemical_formula_sum   'Er10 In1 Bi5 P2'
_cell_volume   479.76265822
_cell_formula_units_Z   1
loop_
 _symmetry_equiv_pos_site_id
 _symmetry_equiv_pos_as_xyz
  1  'x, y, z'
loop_
 _atom_site_type_symbol
 _atom_site_label
 _atom_site_symmetry_multiplicity
 _atom_site_fract_x
 _atom_site_fract_y
 _atom_site_fract_z
 _atom_site_occupancy
  Er  Er0  1  0.662143  0.334518  0.997876  1
  Er  Er1  1  0.334518  0.662143  0.997876  1
  Er  Er2  1  0.334518  0.662143  0.502124  1
  Er  Er3  1  0.662143  0.334518  0.502124  1
  Er  Er4  1  0.761290  0.761290  0.750000  1
  Er  Er5  1  0.240297  0.006574  0.750000  1
  Er  Er6  1  0.006574  0.240297  0.750000  1
  Er  Er7  1  0.237830  0.237830  0.250000  1
  Er  Er8  1  0.763712  0.000722  0.250000  1
  Er  Er9  1  0.000722  0.763712  0.250000  1
  In  In10  1  0.401206  0.401206  0.750000  1
  Bi  Bi11  1  0.602332  0.000334  0.750000  1
  Bi  Bi12  1  0.000334  0.602332  0.750000  1
  Bi  Bi13  1  0.598809  0.598809  0.250000  1
  Bi  Bi14  1  0.398190  0.997582  0.250000  1
  Bi  Bi15  1  0.997582  0.398190  0.250000  1
  P  P16  1  0.998902  0.998902  0.000586  1
  P  P17  1  0.998902  0.998902  0.499414  1
