# generated using pymatgen
data_DyHo3Nb2(B2Ru5)2
_symmetry_space_group_name_H-M   'P 1'
_cell_length_a   9.67258717
_cell_length_b   9.67258717
_cell_length_c   3.13023500
_cell_angle_alpha   90.00000000
_cell_angle_beta   90.00000000
_cell_angle_gamma   90.02143130
_symmetry_Int_Tables_number   1
_chemical_formula_structural   DyHo3Nb2(B2Ru5)2
_chemical_formula_sum   'Dy1 Ho3 Nb2 B4 Ru10'
_cell_volume   292.86145603
_cell_formula_units_Z   1
loop_
 _symmetry_equiv_pos_site_id
 _symmetry_equiv_pos_as_xyz
  1  'x, y, z'
loop_
 _atom_site_type_symbol
 _atom_site_label
 _atom_site_symmetry_multiplicity
 _atom_site_fract_x
 _atom_site_fract_y
 _atom_site_fract_z
 _atom_site_occupancy
  Dy  Dy0  1  0.825154  0.674846  0.000000  1
  Ho  Ho1  1  0.174887  0.325113  0.000000  1
  Ho  Ho2  1  0.325062  0.825043  0.000000  1
  Ho  Ho3  1  0.674957  0.174938  0.000000  1
  Nb  Nb4  1  0.499887  0.499960  0.000000  1
  Nb  Nb5  1  0.000040  0.000113  0.000000  1
  B  B6  1  0.620080  0.879920  0.000000  1
  B  B7  1  0.379753  0.120247  0.000000  1
  B  B8  1  0.120368  0.620238  0.000000  1
  B  B9  1  0.879762  0.379632  0.000000  1
  Ru  Ru10  1  0.570598  0.718463  0.500000  1
  Ru  Ru11  1  0.429037  0.281582  0.500000  1
  Ru  Ru12  1  0.071333  0.781673  0.500000  1
  Ru  Ru13  1  0.928963  0.218397  0.500000  1
  Ru  Ru14  1  0.281603  0.571037  0.500000  1
  Ru  Ru15  1  0.718327  0.428667  0.500000  1
  Ru  Ru16  1  0.218418  0.070963  0.500000  1
  Ru  Ru17  1  0.781537  0.929402  0.500000  1
  Ru  Ru18  1  0.499948  0.000052  0.500000  1
  Ru  Ru19  1  0.000288  0.499712  0.500000  1
