# generated using pymatgen
data_DyHo15MgHg3Ir4
_symmetry_space_group_name_H-M   'P 1'
_cell_length_a   9.62371173
_cell_length_b   9.53558768
_cell_length_c   9.58051200
_cell_angle_alpha   59.84403806
_cell_angle_beta   60.14838722
_cell_angle_gamma   60.04216765
_symmetry_Int_Tables_number   1
_chemical_formula_structural   DyHo15MgHg3Ir4
_chemical_formula_sum   'Dy1 Ho15 Mg1 Hg3 Ir4'
_cell_volume   621.82904371
_cell_formula_units_Z   1
loop_
 _symmetry_equiv_pos_site_id
 _symmetry_equiv_pos_as_xyz
  1  'x, y, z'
loop_
 _atom_site_type_symbol
 _atom_site_label
 _atom_site_symmetry_multiplicity
 _atom_site_fract_x
 _atom_site_fract_y
 _atom_site_fract_z
 _atom_site_occupancy
  Dy  Dy0  1  0.936642  0.939437  0.561960  1
  Ho  Ho1  1  0.350305  0.348209  0.346453  1
  Ho  Ho2  1  0.350305  0.348209  0.955033  1
  Ho  Ho3  1  0.351761  0.955327  0.346455  1
  Ho  Ho4  1  0.941275  0.353178  0.352773  1
  Ho  Ho5  1  0.807920  0.190671  0.192782  1
  Ho  Ho6  1  0.186548  0.811629  0.811944  1
  Ho  Ho7  1  0.186548  0.811629  0.189878  1
  Ho  Ho8  1  0.807920  0.190671  0.808627  1
  Ho  Ho9  1  0.188616  0.188196  0.811593  1
  Ho  Ho10  1  0.807084  0.808364  0.192276  1
  Ho  Ho11  1  0.937313  0.560405  0.562004  1
  Ho  Ho12  1  0.559617  0.938530  0.937552  1
  Ho  Ho13  1  0.559617  0.938530  0.564302  1
  Ho  Ho14  1  0.937313  0.560405  0.940278  1
  Ho  Ho15  1  0.560935  0.563720  0.937673  1
  Mg  Mg16  1  0.284252  0.571868  0.571940  1
  Hg  Hg17  1  0.583641  0.586222  0.586886  1
  Hg  Hg18  1  0.583641  0.586222  0.243250  1
  Hg  Hg19  1  0.583046  0.242492  0.587230  1
  Ir  Ir20  1  0.139709  0.144453  0.141869  1
  Ir  Ir21  1  0.139709  0.144453  0.573969  1
  Ir  Ir22  1  0.139651  0.574580  0.142884  1
  Ir  Ir23  1  0.576629  0.142601  0.140385  1
