# generated using pymatgen
data_Zr2AlFe2Os
_symmetry_space_group_name_H-M   'P 1'
_cell_length_a   5.08982567
_cell_length_b   5.15523940
_cell_length_c   5.08982566
_cell_angle_alpha   60.52352643
_cell_angle_beta   59.57652166
_cell_angle_gamma   60.52352630
_symmetry_Int_Tables_number   1
_chemical_formula_structural   Zr2AlFe2Os
_chemical_formula_sum   'Zr2 Al1 Fe2 Os1'
_cell_volume   94.86384633
_cell_formula_units_Z   1
loop_
 _symmetry_equiv_pos_site_id
 _symmetry_equiv_pos_as_xyz
  1  'x, y, z'
loop_
 _atom_site_type_symbol
 _atom_site_label
 _atom_site_symmetry_multiplicity
 _atom_site_fract_x
 _atom_site_fract_y
 _atom_site_fract_z
 _atom_site_occupancy
  Zr  Zr0  1  0.122894  0.122330  0.122894  1
  Zr  Zr1  1  0.877106  0.877670  0.877106  1
  Al  Al2  1  0.500000  0.500000  0.500000  1
  Fe  Fe3  1  0.000000  0.500000  0.500000  1
  Fe  Fe4  1  0.500000  0.500000  0.000000  1
  Os  Os5  1  0.500000  0.000000  0.500000  1
