# generated using pymatgen
data_La3MgZn2Pt3
_symmetry_space_group_name_H-M   'P 1'
_cell_length_a   7.57688172
_cell_length_b   7.56328152
_cell_length_c   4.09099600
_cell_angle_alpha   90.00000000
_cell_angle_beta   90.00000000
_cell_angle_gamma   119.94063185
_symmetry_Int_Tables_number   1
_chemical_formula_structural   La3MgZn2Pt3
_chemical_formula_sum   'La3 Mg1 Zn2 Pt3'
_cell_volume   203.15146496
_cell_formula_units_Z   1
loop_
 _symmetry_equiv_pos_site_id
 _symmetry_equiv_pos_as_xyz
  1  'x, y, z'
loop_
 _atom_site_type_symbol
 _atom_site_label
 _atom_site_symmetry_multiplicity
 _atom_site_fract_x
 _atom_site_fract_y
 _atom_site_fract_z
 _atom_site_occupancy
  La  La0  1  0.422154  0.414156  0.000000  1
  La  La1  1  0.577846  0.992002  0.000000  1
  La  La2  1  0.000000  0.602194  0.000000  1
  Mg  Mg3  1  0.000000  0.234304  0.500000  1
  Zn  Zn4  1  0.759158  0.762282  0.500000  1
  Zn  Zn5  1  0.240842  0.003126  0.500000  1
  Pt  Pt6  1  0.329921  0.661974  0.500000  1
  Pt  Pt7  1  0.000000  0.997911  0.000000  1
  Pt  Pt8  1  0.670079  0.332051  0.500000  1
