# generated using pymatgen
data_Ce10PuNiPb6
_symmetry_space_group_name_H-M   'P 1'
_cell_length_a   9.48698900
_cell_length_b   9.48699020
_cell_length_c   6.48881700
_cell_angle_alpha   90.00000000
_cell_angle_beta   90.00000000
_cell_angle_gamma   120.00000627
_symmetry_Int_Tables_number   1
_chemical_formula_structural   Ce10PuNiPb6
_chemical_formula_sum   'Ce10 Pu1 Ni1 Pb6'
_cell_volume   505.76989994
_cell_formula_units_Z   1
loop_
 _symmetry_equiv_pos_site_id
 _symmetry_equiv_pos_as_xyz
  1  'x, y, z'
loop_
 _atom_site_type_symbol
 _atom_site_label
 _atom_site_symmetry_multiplicity
 _atom_site_fract_x
 _atom_site_fract_y
 _atom_site_fract_z
 _atom_site_occupancy
  Ce  Ce0  1  0.221544  0.221544  0.783491  1
  Ce  Ce1  1  0.778456  0.778456  0.216509  1
  Ce  Ce2  1  0.221544  0.000000  0.216509  1
  Ce  Ce3  1  0.778456  0.000000  0.783491  1
  Ce  Ce4  1  0.333333  0.666667  0.500000  1
  Ce  Ce5  1  0.666667  0.333333  0.500000  1
  Ce  Ce6  1  0.000000  0.221544  0.216509  1
  Ce  Ce7  1  0.000000  0.778456  0.783491  1
  Ce  Ce8  1  0.333333  0.666667  0.000000  1
  Ce  Ce9  1  0.666667  0.333333  0.000000  1
  Pu  Pu10  1  0.000000  0.000000  0.000000  1
  Ni  Ni11  1  0.000000  0.000000  0.500000  1
  Pb  Pb12  1  0.403573  0.403573  0.258727  1
  Pb  Pb13  1  0.596427  0.596427  0.741273  1
  Pb  Pb14  1  0.000000  0.403573  0.741273  1
  Pb  Pb15  1  0.596427  0.000000  0.258727  1
  Pb  Pb16  1  0.403573  0.000000  0.741273  1
  Pb  Pb17  1  0.000000  0.596427  0.258727  1
