# generated using pymatgen
data_NaTmPbI6
_symmetry_space_group_name_H-M   'P 1'
_cell_length_a   8.71431661
_cell_length_b   8.71422929
_cell_length_c   8.71435004
_cell_angle_alpha   54.15292720
_cell_angle_beta   54.15197242
_cell_angle_gamma   54.15222670
_symmetry_Int_Tables_number   1
_chemical_formula_structural   NaTmPbI6
_chemical_formula_sum   'Na1 Tm1 Pb1 I6'
_cell_volume   404.05469252
_cell_formula_units_Z   1
loop_
 _symmetry_equiv_pos_site_id
 _symmetry_equiv_pos_as_xyz
  1  'x, y, z'
loop_
 _atom_site_type_symbol
 _atom_site_label
 _atom_site_symmetry_multiplicity
 _atom_site_fract_x
 _atom_site_fract_y
 _atom_site_fract_z
 _atom_site_occupancy
  Na  Na0  1  0.669906  0.669915  0.669910  1
  Tm  Tm1  1  0.999798  0.999817  0.999799  1
  Pb  Pb2  1  0.330621  0.330550  0.330621  1
  I  I3  1  0.231277  0.614725  0.915028  1
  I  I4  1  0.614712  0.915036  0.231278  1
  I  I5  1  0.915034  0.231282  0.614706  1
  I  I6  1  0.767273  0.384393  0.087005  1
  I  I7  1  0.384382  0.087004  0.767272  1
  I  I8  1  0.086999  0.767278  0.384381  1
