# generated using pymatgen
data_Hf4Zr6Sn2Sb5
_symmetry_space_group_name_H-M   'P 1'
_cell_length_a   5.88543824
_cell_length_b   8.65025389
_cell_length_c   8.64107003
_cell_angle_alpha   120.03517267
_cell_angle_beta   89.92025443
_cell_angle_gamma   90.15929388
_symmetry_Int_Tables_number   1
_chemical_formula_structural   Hf4Zr6Sn2Sb5
_chemical_formula_sum   'Hf4 Zr6 Sn2 Sb5'
_cell_volume   380.84662022
_cell_formula_units_Z   1
loop_
 _symmetry_equiv_pos_site_id
 _symmetry_equiv_pos_as_xyz
  1  'x, y, z'
loop_
 _atom_site_type_symbol
 _atom_site_label
 _atom_site_symmetry_multiplicity
 _atom_site_fract_x
 _atom_site_fract_y
 _atom_site_fract_z
 _atom_site_occupancy
  Hf  Hf0  1  0.499737  0.333577  0.667807  1
  Hf  Hf1  1  0.499737  0.665769  0.332193  1
  Hf  Hf2  1  0.001643  0.666178  0.332653  1
  Hf  Hf3  1  0.001643  0.333525  0.667347  1
  Zr  Zr4  1  0.771058  0.269127  0.000000  1
  Zr  Zr5  1  0.773259  0.732808  0.732340  1
  Zr  Zr6  1  0.773259  0.000466  0.267660  1
  Zr  Zr7  1  0.226697  0.729365  0.000000  1
  Zr  Zr8  1  0.226551  0.268609  0.268683  1
  Zr  Zr9  1  0.226551  0.999926  0.731317  1
  Sn  Sn10  1  0.257451  0.614017  0.613948  1
  Sn  Sn11  1  0.257451  0.000070  0.386052  1
  Sb  Sb12  1  0.743903  0.613553  0.000000  1
  Sb  Sb13  1  0.744377  0.388330  0.388944  1
  Sb  Sb14  1  0.744377  0.999385  0.611056  1
  Sb  Sb15  1  0.254784  0.385967  0.000000  1
  Sb  Sb16  1  0.497517  0.999330  0.000000  1
