# generated using pymatgen
data_HfZr(Al3Ir)3
_symmetry_space_group_name_H-M   'P 1'
_cell_length_a   7.47235005
_cell_length_b   7.47363691
_cell_length_c   9.23503200
_cell_angle_alpha   90.00000000
_cell_angle_beta   90.00000000
_cell_angle_gamma   119.81250171
_symmetry_Int_Tables_number   1
_chemical_formula_structural   HfZr(Al3Ir)3
_chemical_formula_sum   'Hf2 Zr2 Al18 Ir6'
_cell_volume   447.48211341
_cell_formula_units_Z   2
loop_
 _symmetry_equiv_pos_site_id
 _symmetry_equiv_pos_as_xyz
  1  'x, y, z'
loop_
 _atom_site_type_symbol
 _atom_site_label
 _atom_site_symmetry_multiplicity
 _atom_site_fract_x
 _atom_site_fract_y
 _atom_site_fract_z
 _atom_site_occupancy
  Hf  Hf0  1  0.670941  0.993714  0.250000  1
  Hf  Hf1  1  0.329059  0.006286  0.750000  1
  Zr  Zr2  1  0.993992  0.671305  0.250000  1
  Zr  Zr3  1  0.006008  0.328695  0.750000  1
  Al  Al4  1  0.123622  0.124302  0.250000  1
  Al  Al5  1  0.876378  0.875698  0.750000  1
  Al  Al6  1  0.997669  0.334368  0.076061  1
  Al  Al7  1  0.002331  0.665632  0.923939  1
  Al  Al8  1  0.002331  0.665632  0.576061  1
  Al  Al9  1  0.334771  0.998426  0.423041  1
  Al  Al10  1  0.997669  0.334368  0.423939  1
  Al  Al11  1  0.665229  0.001574  0.576959  1
  Al  Al12  1  0.665229  0.001574  0.923041  1
  Al  Al13  1  0.334771  0.998426  0.076959  1
  Al  Al14  1  0.331879  0.331667  0.557512  1
  Al  Al15  1  0.668121  0.668333  0.442488  1
  Al  Al16  1  0.668121  0.668333  0.057512  1
  Al  Al17  1  0.331879  0.331667  0.942488  1
  Al  Al18  1  0.338633  0.552757  0.250000  1
  Al  Al19  1  0.661367  0.447243  0.750000  1
  Al  Al20  1  0.553345  0.339543  0.250000  1
  Al  Al21  1  0.446655  0.660457  0.750000  1
  Ir  Ir22  1  0.672203  0.326490  0.999754  1
  Ir  Ir23  1  0.327797  0.673510  0.000246  1
  Ir  Ir24  1  0.327797  0.673510  0.499754  1
  Ir  Ir25  1  0.672203  0.326490  0.500246  1
  Ir  Ir26  1  0.000000  0.000000  0.000000  1
  Ir  Ir27  1  0.000000  0.000000  0.500000  1
