# generated using pymatgen
data_Y12Er4MgHg3Ir4
_symmetry_space_group_name_H-M   'P 1'
_cell_length_a   9.64725639
_cell_length_b   9.64061814
_cell_length_c   9.64061800
_cell_angle_alpha   60.00000049
_cell_angle_beta   60.02275995
_cell_angle_gamma   60.02275818
_symmetry_Int_Tables_number   1
_chemical_formula_structural   Y12Er4MgHg3Ir4
_chemical_formula_sum   'Y12 Er4 Mg1 Hg3 Ir4'
_cell_volume   634.23162475
_cell_formula_units_Z   1
loop_
 _symmetry_equiv_pos_site_id
 _symmetry_equiv_pos_as_xyz
  1  'x, y, z'
loop_
 _atom_site_type_symbol
 _atom_site_label
 _atom_site_symmetry_multiplicity
 _atom_site_fract_x
 _atom_site_fract_y
 _atom_site_fract_z
 _atom_site_occupancy
  Y  Y0  1  0.058665  0.441085  0.441085  1
  Y  Y1  1  0.437388  0.061849  0.061849  1
  Y  Y2  1  0.437388  0.061849  0.438913  1
  Y  Y3  1  0.058665  0.441085  0.059163  1
  Y  Y4  1  0.437388  0.438913  0.061849  1
  Y  Y5  1  0.058665  0.059163  0.441085  1
  Y  Y6  1  0.186890  0.812086  0.812086  1
  Y  Y7  1  0.811455  0.187939  0.187939  1
  Y  Y8  1  0.811455  0.187939  0.812667  1
  Y  Y9  1  0.186890  0.812086  0.188938  1
  Y  Y10  1  0.811455  0.812667  0.187939  1
  Y  Y11  1  0.186890  0.188938  0.812086  1
  Er  Er12  1  0.599319  0.597829  0.597829  1
  Er  Er13  1  0.599319  0.597829  0.205023  1
  Er  Er14  1  0.599319  0.205023  0.597829  1
  Er  Er15  1  0.194751  0.601749  0.601749  1
  Mg  Mg16  1  0.537464  0.820846  0.820846  1
  Hg  Hg17  1  0.831185  0.835886  0.835886  1
  Hg  Hg18  1  0.831185  0.835886  0.497044  1
  Hg  Hg19  1  0.831185  0.497044  0.835886  1
  Ir  Ir20  1  0.390642  0.394478  0.394478  1
  Ir  Ir21  1  0.390642  0.394478  0.820401  1
  Ir  Ir22  1  0.390642  0.820401  0.394478  1
  Ir  Ir23  1  0.821156  0.392948  0.392948  1
