# generated using pymatgen
data_K2Y10Fe2Br17
_symmetry_space_group_name_H-M   'P 1'
_cell_length_a   9.31717885
_cell_length_b   10.76087909
_cell_length_c   10.76092800
_cell_angle_alpha   107.06134665
_cell_angle_beta   93.47456687
_cell_angle_gamma   93.47515419
_symmetry_Int_Tables_number   1
_chemical_formula_structural   K2Y10Fe2Br17
_chemical_formula_sum   'K2 Y10 Fe2 Br17'
_cell_volume   1026.04419231
_cell_formula_units_Z   1
loop_
 _symmetry_equiv_pos_site_id
 _symmetry_equiv_pos_as_xyz
  1  'x, y, z'
loop_
 _atom_site_type_symbol
 _atom_site_label
 _atom_site_symmetry_multiplicity
 _atom_site_fract_x
 _atom_site_fract_y
 _atom_site_fract_z
 _atom_site_occupancy
  K  K0  1  0.999902  0.786994  0.212877  1
  K  K1  1  0.000108  0.212793  0.786878  1
  Y  Y2  1  0.436897  0.171681  0.171710  1
  Y  Y3  1  0.570370  0.503950  0.208418  1
  Y  Y4  1  0.816361  0.290481  0.290457  1
  Y  Y5  1  0.303079  0.434306  0.434357  1
  Y  Y6  1  0.429579  0.791116  0.495811  1
  Y  Y7  1  0.570492  0.208429  0.503930  1
  Y  Y8  1  0.697019  0.565772  0.565738  1
  Y  Y9  1  0.183222  0.709334  0.709362  1
  Y  Y10  1  0.429685  0.495813  0.791148  1
  Y  Y11  1  0.563525  0.828357  0.828366  1
  Fe  Fe12  1  0.565250  0.363547  0.363554  1
  Fe  Fe13  1  0.435033  0.636508  0.636502  1
  Br  Br14  1  0.577845  0.683616  0.020949  1
  Br  Br15  1  0.703464  0.065515  0.065527  1
  Br  Br16  1  0.852707  0.450302  0.119309  1
  Br  Br17  1  0.131206  0.216699  0.216730  1
  Br  Br18  1  0.284373  0.607684  0.256920  1
  Br  Br19  1  0.421816  0.979175  0.316585  1
  Br  Br20  1  0.715467  0.743079  0.392355  1
  Br  Br21  1  0.852784  0.119302  0.450254  1
  Br  Br22  1  0.999927  0.500004  0.499986  1
  Br  Br23  1  0.147250  0.880950  0.549993  1
  Br  Br24  1  0.284609  0.256936  0.607766  1
  Br  Br25  1  0.577822  0.020877  0.683560  1
  Br  Br26  1  0.715637  0.392395  0.743045  1
  Br  Br27  1  0.868940  0.783557  0.783520  1
  Br  Br28  1  0.147305  0.549944  0.880919  1
  Br  Br29  1  0.296517  0.934339  0.934314  1
  Br  Br30  1  0.421815  0.316543  0.979156  1
