# generated using pymatgen
data_LaY7Cd2CoNi
_symmetry_space_group_name_H-M   'P 1'
_cell_length_a   9.61333395
_cell_length_b   9.61333408
_cell_length_c   9.65309500
_cell_angle_alpha   59.86308360
_cell_angle_beta   59.86308316
_cell_angle_gamma   60.37619165
_symmetry_Int_Tables_number   1
_chemical_formula_structural   LaY7Cd2CoNi
_chemical_formula_sum   'La2 Y14 Cd4 Co2 Ni2'
_cell_volume   631.26560311
_cell_formula_units_Z   2
loop_
 _symmetry_equiv_pos_site_id
 _symmetry_equiv_pos_as_xyz
  1  'x, y, z'
loop_
 _atom_site_type_symbol
 _atom_site_label
 _atom_site_symmetry_multiplicity
 _atom_site_fract_x
 _atom_site_fract_y
 _atom_site_fract_z
 _atom_site_occupancy
  La  La0  1  0.592594  0.592594  0.604675  1
  La  La1  1  0.592594  0.592594  0.210136  1
  Y  Y2  1  0.598748  0.199887  0.600683  1
  Y  Y3  1  0.199887  0.598748  0.600683  1
  Y  Y4  1  0.068117  0.437485  0.436904  1
  Y  Y5  1  0.437485  0.068117  0.057494  1
  Y  Y6  1  0.437485  0.068117  0.436904  1
  Y  Y7  1  0.068117  0.437485  0.057494  1
  Y  Y8  1  0.436158  0.436158  0.063842  1
  Y  Y9  1  0.062394  0.062394  0.437606  1
  Y  Y10  1  0.185871  0.813707  0.815531  1
  Y  Y11  1  0.813707  0.185871  0.184891  1
  Y  Y12  1  0.813707  0.185871  0.815531  1
  Y  Y13  1  0.185871  0.813707  0.184891  1
  Y  Y14  1  0.813700  0.813700  0.186300  1
  Y  Y15  1  0.188234  0.188234  0.811766  1
  Cd  Cd16  1  0.831535  0.831535  0.828193  1
  Cd  Cd17  1  0.831535  0.831535  0.508735  1
  Cd  Cd18  1  0.833792  0.504703  0.830752  1
  Cd  Cd19  1  0.504703  0.833792  0.830752  1
  Co  Co20  1  0.393008  0.393008  0.392177  1
  Co  Co21  1  0.393008  0.393008  0.821810  1
  Ni  Ni22  1  0.389139  0.828611  0.391126  1
  Ni  Ni23  1  0.828611  0.389139  0.391126  1
