# generated using pymatgen
data_Nd3Dy(RuO6)2
_symmetry_space_group_name_H-M   'P 1'
_cell_length_a   10.13173304
_cell_length_b   10.13173211
_cell_length_c   5.53621069
_cell_angle_alpha   74.84801606
_cell_angle_beta   74.84801534
_cell_angle_gamma   69.23110113
_symmetry_Int_Tables_number   1
_chemical_formula_structural   Nd3Dy(RuO6)2
_chemical_formula_sum   'Nd6 Dy2 Ru4 O24'
_cell_volume   503.86156417
_cell_formula_units_Z   2
loop_
 _symmetry_equiv_pos_site_id
 _symmetry_equiv_pos_as_xyz
  1  'x, y, z'
loop_
 _atom_site_type_symbol
 _atom_site_label
 _atom_site_symmetry_multiplicity
 _atom_site_fract_x
 _atom_site_fract_y
 _atom_site_fract_z
 _atom_site_occupancy
  Nd  Nd0  1  0.063401  0.286366  0.625748  1
  Nd  Nd1  1  0.713634  0.936599  0.874252  1
  Nd  Nd2  1  0.936599  0.713634  0.374252  1
  Nd  Nd3  1  0.286366  0.063401  0.125748  1
  Nd  Nd4  1  0.635732  0.364268  0.750000  1
  Nd  Nd5  1  0.364268  0.635732  0.250000  1
  Dy  Dy6  1  0.101323  0.898677  0.750000  1
  Dy  Dy7  1  0.898677  0.101323  0.250000  1
  Ru  Ru8  1  0.500546  0.798646  0.555921  1
  Ru  Ru9  1  0.201354  0.499454  0.944079  1
  Ru  Ru10  1  0.499454  0.201354  0.444079  1
  Ru  Ru11  1  0.798646  0.500546  0.055921  1
  O  O12  1  0.611897  0.169664  0.135260  1
  O  O13  1  0.830336  0.388103  0.364740  1
  O  O14  1  0.388103  0.830336  0.864740  1
  O  O15  1  0.169664  0.611897  0.635260  1
  O  O16  1  0.475281  0.071266  0.737060  1
  O  O17  1  0.928734  0.524719  0.762940  1
  O  O18  1  0.524719  0.928734  0.262940  1
  O  O19  1  0.071266  0.475281  0.237060  1
  O  O20  1  0.323481  0.213478  0.371956  1
  O  O21  1  0.786522  0.676519  0.128044  1
  O  O22  1  0.676519  0.786522  0.628044  1
  O  O23  1  0.213478  0.323481  0.871956  1
  O  O24  1  0.892021  0.929804  0.069824  1
  O  O25  1  0.070196  0.107979  0.430176  1
  O  O26  1  0.107979  0.070196  0.930176  1
  O  O27  1  0.929804  0.892021  0.569824  1
  O  O28  1  0.161561  0.695639  0.068162  1
  O  O29  1  0.304361  0.838439  0.431838  1
  O  O30  1  0.838439  0.304361  0.931838  1
  O  O31  1  0.695639  0.161561  0.568162  1
  O  O32  1  0.384390  0.459047  0.980861  1
  O  O33  1  0.540953  0.615610  0.519139  1
  O  O34  1  0.615610  0.540953  0.019139  1
  O  O35  1  0.459047  0.384390  0.480861  1
