# generated using pymatgen
data_Cs8Zr6CI20
_symmetry_space_group_name_H-M   'P 1'
_cell_length_a   13.26766753
_cell_length_b   13.26766812
_cell_length_c   13.26766800
_cell_angle_alpha   60.00000029
_cell_angle_beta   59.99999884
_cell_angle_gamma   60.00000355
_symmetry_Int_Tables_number   1
_chemical_formula_structural   Cs8Zr6CI20
_chemical_formula_sum   'Cs8 Zr6 C1 I20'
_cell_volume   1651.46276464
_cell_formula_units_Z   1
loop_
 _symmetry_equiv_pos_site_id
 _symmetry_equiv_pos_as_xyz
  1  'x, y, z'
loop_
 _atom_site_type_symbol
 _atom_site_label
 _atom_site_symmetry_multiplicity
 _atom_site_fract_x
 _atom_site_fract_y
 _atom_site_fract_z
 _atom_site_occupancy
  Cs  Cs0  1  0.361698  0.361698  0.361698  1
  Cs  Cs1  1  0.638302  0.638302  0.638302  1
  Cs  Cs2  1  0.361698  0.361698  0.914907  1
  Cs  Cs3  1  0.361698  0.914907  0.361698  1
  Cs  Cs4  1  0.638302  0.638302  0.085093  1
  Cs  Cs5  1  0.638302  0.085093  0.638302  1
  Cs  Cs6  1  0.914907  0.361698  0.361698  1
  Cs  Cs7  1  0.085093  0.638302  0.638302  1
  Zr  Zr8  1  0.876920  0.123080  0.123080  1
  Zr  Zr9  1  0.123080  0.876920  0.876920  1
  Zr  Zr10  1  0.123080  0.876920  0.123080  1
  Zr  Zr11  1  0.876920  0.123080  0.876920  1
  Zr  Zr12  1  0.123080  0.123080  0.876920  1
  Zr  Zr13  1  0.876920  0.876920  0.123080  1
  C  C14  1  0.000000  0.000000  0.000000  1
  I  I15  1  0.307080  0.000000  0.000000  1
  I  I16  1  0.692920  0.000000  0.000000  1
  I  I17  1  0.000000  0.307080  0.692920  1
  I  I18  1  0.000000  0.692920  0.307080  1
  I  I19  1  0.000000  0.307080  0.000000  1
  I  I20  1  0.692920  0.000000  0.307080  1
  I  I21  1  0.000000  0.692920  0.000000  1
  I  I22  1  0.307080  0.000000  0.692920  1
  I  I23  1  0.000000  0.000000  0.307080  1
  I  I24  1  0.000000  0.000000  0.692920  1
  I  I25  1  0.692920  0.307080  0.000000  1
  I  I26  1  0.307080  0.692920  0.000000  1
  I  I27  1  0.699440  0.300560  0.300560  1
  I  I28  1  0.300560  0.699440  0.699440  1
  I  I29  1  0.300560  0.699440  0.300560  1
  I  I30  1  0.699440  0.300560  0.699440  1
  I  I31  1  0.300560  0.300560  0.699440  1
  I  I32  1  0.699440  0.699440  0.300560  1
  I  I33  1  0.250000  0.250000  0.250000  1
  I  I34  1  0.750000  0.750000  0.750000  1
