# generated using pymatgen
data_Nd4HoErGa4
_symmetry_space_group_name_H-M   'P 1'
_cell_length_a   7.69182400
_cell_length_b   7.69182400
_cell_length_c   4.56491200
_cell_angle_alpha   90.00000000
_cell_angle_beta   90.00000000
_cell_angle_gamma   90.00000000
_symmetry_Int_Tables_number   1
_chemical_formula_structural   Nd4HoErGa4
_chemical_formula_sum   'Nd4 Ho1 Er1 Ga4'
_cell_volume   270.07916773
_cell_formula_units_Z   1
loop_
 _symmetry_equiv_pos_site_id
 _symmetry_equiv_pos_as_xyz
  1  'x, y, z'
loop_
 _atom_site_type_symbol
 _atom_site_label
 _atom_site_symmetry_multiplicity
 _atom_site_fract_x
 _atom_site_fract_y
 _atom_site_fract_z
 _atom_site_occupancy
  Nd  Nd0  1  0.326284  0.173800  0.500000  1
  Nd  Nd1  1  0.826199  0.326284  0.500000  1
  Nd  Nd2  1  0.173800  0.673715  0.500000  1
  Nd  Nd3  1  0.673715  0.826199  0.500000  1
  Ho  Ho4  1  0.000000  0.000000  0.000000  1
  Er  Er5  1  0.500000  0.500000  0.000000  1
  Ga  Ga6  1  0.620457  0.120561  0.000000  1
  Ga  Ga7  1  0.120561  0.379542  0.000000  1
  Ga  Ga8  1  0.879439  0.620457  0.000000  1
  Ga  Ga9  1  0.379542  0.879439  0.000000  1
