# generated using pymatgen
data_Ho3Er3MnBiSb
_symmetry_space_group_name_H-M   'P 1'
_cell_length_a   8.18389200
_cell_length_b   8.18389254
_cell_length_c   4.24650100
_cell_angle_alpha   90.00000000
_cell_angle_beta   90.00000000
_cell_angle_gamma   119.99999781
_symmetry_Int_Tables_number   1
_chemical_formula_structural   Ho3Er3MnBiSb
_chemical_formula_sum   'Ho3 Er3 Mn1 Bi1 Sb1'
_cell_volume   246.30979330
_cell_formula_units_Z   1
loop_
 _symmetry_equiv_pos_site_id
 _symmetry_equiv_pos_as_xyz
  1  'x, y, z'
loop_
 _atom_site_type_symbol
 _atom_site_label
 _atom_site_symmetry_multiplicity
 _atom_site_fract_x
 _atom_site_fract_y
 _atom_site_fract_z
 _atom_site_occupancy
  Ho  Ho0  1  0.005193  0.609551  0.500000  1
  Ho  Ho1  1  0.390449  0.395642  0.500000  1
  Ho  Ho2  1  0.604358  0.994807  0.500000  1
  Er  Er3  1  0.233398  0.997931  0.000000  1
  Er  Er4  1  0.764533  0.766602  0.000000  1
  Er  Er5  1  0.002069  0.235467  0.000000  1
  Mn  Mn6  1  0.000000  0.000000  0.500000  1
  Bi  Bi7  1  0.666667  0.333333  0.000000  1
  Sb  Sb8  1  0.333333  0.666667  0.000000  1
