# generated using pymatgen
data_Tm6Lu6In2FeTc2
_symmetry_space_group_name_H-M   'P 1'
_cell_length_a   8.28462054
_cell_length_b   8.27673834
_cell_length_c   8.28462046
_cell_angle_alpha   108.76049648
_cell_angle_beta   108.72009421
_cell_angle_gamma   110.98285643
_symmetry_Int_Tables_number   1
_chemical_formula_structural   Tm6Lu6In2FeTc2
_chemical_formula_sum   'Tm6 Lu6 In2 Fe1 Tc2'
_cell_volume   436.86580767
_cell_formula_units_Z   1
loop_
 _symmetry_equiv_pos_site_id
 _symmetry_equiv_pos_as_xyz
  1  'x, y, z'
loop_
 _atom_site_type_symbol
 _atom_site_label
 _atom_site_symmetry_multiplicity
 _atom_site_fract_x
 _atom_site_fract_y
 _atom_site_fract_z
 _atom_site_occupancy
  Tm  Tm0  1  0.303065  0.303489  0.610281  1
  Tm  Tm1  1  0.694181  0.693788  0.389706  1
  Tm  Tm2  1  0.693208  0.303489  0.000424  1
  Tm  Tm3  1  0.304083  0.693788  0.999608  1
  Tm  Tm4  1  0.190206  0.431211  0.241005  1
  Tm  Tm5  1  0.806665  0.569008  0.762343  1
  Lu  Lu6  1  0.190168  0.949475  0.759308  1
  Lu  Lu7  1  0.949768  0.188953  0.759937  1
  Lu  Lu8  1  0.806712  0.043935  0.237222  1
  Lu  Lu9  1  0.044685  0.808366  0.237329  1
  Lu  Lu10  1  0.429016  0.188953  0.239184  1
  Lu  Lu11  1  0.571036  0.808366  0.763682  1
  In  In12  1  0.997429  0.496680  0.499251  1
  In  In13  1  0.499287  0.999547  0.500261  1
  Fe  Fe14  1  0.633117  0.633933  0.000816  1
  Tc  Tc15  1  0.386649  0.386389  0.999740  1
  Tc  Tc16  1  0.000725  0.000628  0.999903  1
