# generated using pymatgen
data_Tb16In4Pd3Pt
_symmetry_space_group_name_H-M   'P 1'
_cell_length_a   9.80119090
_cell_length_b   9.77889099
_cell_length_c   9.77891400
_cell_angle_alpha   60.00020408
_cell_angle_beta   60.07513266
_cell_angle_gamma   60.07537969
_symmetry_Int_Tables_number   1
_chemical_formula_structural   Tb16In4Pd3Pt
_chemical_formula_sum   'Tb16 In4 Pd3 Pt1'
_cell_volume   663.49526295
_cell_formula_units_Z   1
loop_
 _symmetry_equiv_pos_site_id
 _symmetry_equiv_pos_as_xyz
  1  'x, y, z'
loop_
 _atom_site_type_symbol
 _atom_site_label
 _atom_site_symmetry_multiplicity
 _atom_site_fract_x
 _atom_site_fract_y
 _atom_site_fract_z
 _atom_site_occupancy
  Tb  Tb0  1  0.810630  0.810461  0.189455  1
  Tb  Tb1  1  0.810628  0.189456  0.810463  1
  Tb  Tb2  1  0.190760  0.188848  0.810196  1
  Tb  Tb3  1  0.646557  0.055092  0.649175  1
  Tb  Tb4  1  0.061047  0.063165  0.437894  1
  Tb  Tb5  1  0.437154  0.437922  0.062462  1
  Tb  Tb6  1  0.646556  0.649175  0.649177  1
  Tb  Tb7  1  0.810628  0.189456  0.189454  1
  Tb  Tb8  1  0.190760  0.810195  0.810197  1
  Tb  Tb9  1  0.057019  0.647660  0.647661  1
  Tb  Tb10  1  0.437153  0.062462  0.062461  1
  Tb  Tb11  1  0.437153  0.062462  0.437923  1
  Tb  Tb12  1  0.061048  0.437894  0.063165  1
  Tb  Tb13  1  0.646557  0.649175  0.055091  1
  Tb  Tb14  1  0.190762  0.810195  0.188847  1
  Tb  Tb15  1  0.061048  0.437894  0.437894  1
  In  In16  1  0.417194  0.416797  0.416797  1
  In  In17  1  0.417196  0.416797  0.749211  1
  In  In18  1  0.417195  0.749212  0.416797  1
  In  In19  1  0.749571  0.416810  0.416810  1
  Pd  Pd20  1  0.857421  0.431595  0.855492  1
  Pd  Pd21  1  0.857421  0.855490  0.855491  1
  Pd  Pd22  1  0.857421  0.855492  0.431597  1
  Pt  Pt23  1  0.431123  0.856294  0.856291  1
