# generated using pymatgen
data_Yb4Al15(SiIr2)3
_symmetry_space_group_name_H-M   'P 1'
_cell_length_a   7.51546076
_cell_length_b   7.46870455
_cell_length_c   9.51851534
_cell_angle_alpha   89.97198086
_cell_angle_beta   90.00287277
_cell_angle_gamma   119.67901342
_symmetry_Int_Tables_number   1
_chemical_formula_structural   Yb4Al15(SiIr2)3
_chemical_formula_sum   'Yb4 Al15 Si3 Ir6'
_cell_volume   464.19057848
_cell_formula_units_Z   1
loop_
 _symmetry_equiv_pos_site_id
 _symmetry_equiv_pos_as_xyz
  1  'x, y, z'
loop_
 _atom_site_type_symbol
 _atom_site_label
 _atom_site_symmetry_multiplicity
 _atom_site_fract_x
 _atom_site_fract_y
 _atom_site_fract_z
 _atom_site_occupancy
  Yb  Yb0  1  0.994875  0.664084  0.246529  1
  Yb  Yb1  1  0.006131  0.342121  0.754567  1
  Yb  Yb2  1  0.675774  0.002278  0.247479  1
  Yb  Yb3  1  0.319740  0.991417  0.750068  1
  Al  Al4  1  0.129746  0.127559  0.249606  1
  Al  Al5  1  0.870762  0.870421  0.749795  1
  Al  Al6  1  0.338809  0.004189  0.425068  1
  Al  Al7  1  0.000984  0.329560  0.430697  1
  Al  Al8  1  0.665943  0.000982  0.574092  1
  Al  Al9  1  0.662213  0.997342  0.924182  1
  Al  Al10  1  0.339244  0.004238  0.074575  1
  Al  Al11  1  0.333544  0.331725  0.555559  1
  Al  Al12  1  0.662321  0.667316  0.445583  1
  Al  Al13  1  0.662688  0.667264  0.054652  1
  Al  Al14  1  0.335957  0.331830  0.945186  1
  Al  Al15  1  0.337294  0.549334  0.249532  1
  Al  Al16  1  0.662348  0.451346  0.751748  1
  Al  Al17  1  0.547453  0.341666  0.249588  1
  Al  Al18  1  0.455853  0.659969  0.750402  1
  Si  Si19  1  0.003502  0.328752  0.073975  1
  Si  Si20  1  0.996612  0.671123  0.930809  1
  Si  Si21  1  0.998206  0.666126  0.564821  1
  Ir  Ir22  1  0.689693  0.338003  0.002613  1
  Ir  Ir23  1  0.310851  0.662570  0.996876  1
  Ir  Ir24  1  0.319158  0.669773  0.502622  1
  Ir  Ir25  1  0.680085  0.337563  0.500367  1
  Ir  Ir26  1  0.000095  0.999403  0.999421  1
  Ir  Ir27  1  0.000119  0.992044  0.499586  1
