# generated using pymatgen
data_GdCu3Ni2
_symmetry_space_group_name_H-M   'P 1'
_cell_length_a   4.92097400
_cell_length_b   4.92097444
_cell_length_c   4.12492000
_cell_angle_alpha   90.00000000
_cell_angle_beta   90.00000000
_cell_angle_gamma   119.99999706
_symmetry_Int_Tables_number   1
_chemical_formula_structural   GdCu3Ni2
_chemical_formula_sum   'Gd1 Cu3 Ni2'
_cell_volume   86.50642292
_cell_formula_units_Z   1
loop_
 _symmetry_equiv_pos_site_id
 _symmetry_equiv_pos_as_xyz
  1  'x, y, z'
loop_
 _atom_site_type_symbol
 _atom_site_label
 _atom_site_symmetry_multiplicity
 _atom_site_fract_x
 _atom_site_fract_y
 _atom_site_fract_z
 _atom_site_occupancy
  Gd  Gd0  1  0.000000  0.000000  0.000000  1
  Cu  Cu1  1  0.500000  0.000000  0.500001  1
  Cu  Cu2  1  0.000000  0.499999  0.500001  1
  Cu  Cu3  1  0.500000  0.499999  0.500001  1
  Ni  Ni4  1  0.666667  0.333334  0.000000  1
  Ni  Ni5  1  0.333333  0.666666  0.000000  1
