# generated using pymatgen
data_La8Cd2OsRu
_symmetry_space_group_name_H-M   'P 1'
_cell_length_a   10.07916110
_cell_length_b   10.07916119
_cell_length_c   10.11565900
_cell_angle_alpha   59.88013869
_cell_angle_beta   59.88013841
_cell_angle_gamma   59.79520557
_symmetry_Int_Tables_number   1
_chemical_formula_structural   La8Cd2OsRu
_chemical_formula_sum   'La16 Cd4 Os2 Ru2'
_cell_volume   724.21000562
_cell_formula_units_Z   2
loop_
 _symmetry_equiv_pos_site_id
 _symmetry_equiv_pos_as_xyz
  1  'x, y, z'
loop_
 _atom_site_type_symbol
 _atom_site_label
 _atom_site_symmetry_multiplicity
 _atom_site_fract_x
 _atom_site_fract_y
 _atom_site_fract_z
 _atom_site_occupancy
  La  La0  1  0.905050  0.905050  0.903414  1
  La  La1  1  0.438608  0.438608  0.061392  1
  La  La2  1  0.060631  0.060631  0.439369  1
  La  La3  1  0.439748  0.060825  0.061193  1
  La  La4  1  0.309060  0.691545  0.309039  1
  La  La5  1  0.689604  0.689604  0.310396  1
  La  La6  1  0.691545  0.309060  0.309039  1
  La  La7  1  0.287103  0.905094  0.903902  1
  La  La8  1  0.905094  0.287103  0.903902  1
  La  La9  1  0.309060  0.691545  0.690356  1
  La  La10  1  0.905050  0.905050  0.286488  1
  La  La11  1  0.060825  0.439748  0.061193  1
  La  La12  1  0.307794  0.307794  0.692206  1
  La  La13  1  0.060825  0.439748  0.438234  1
  La  La14  1  0.439748  0.060825  0.438234  1
  La  La15  1  0.691545  0.309060  0.690356  1
  Cd  Cd16  1  0.671138  0.671138  0.986713  1
  Cd  Cd17  1  0.986836  0.671162  0.671000  1
  Cd  Cd18  1  0.671162  0.986836  0.671000  1
  Cd  Cd19  1  0.671138  0.671138  0.671009  1
  Os  Os20  1  0.112533  0.112533  0.663613  1
  Os  Os21  1  0.112533  0.112533  0.111319  1
  Ru  Ru22  1  0.114233  0.659135  0.113315  1
  Ru  Ru23  1  0.659135  0.114233  0.113315  1
