# generated using pymatgen
data_Dy5HoRuO12
_symmetry_space_group_name_H-M   'P 1'
_cell_length_a   6.46953255
_cell_length_b   6.46916602
_cell_length_c   6.46193525
_cell_angle_alpha   98.63227902
_cell_angle_beta   98.61756389
_cell_angle_gamma   98.42843762
_symmetry_Int_Tables_number   1
_chemical_formula_structural   Dy5HoRuO12
_chemical_formula_sum   'Dy5 Ho1 Ru1 O12'
_cell_volume   260.38175499
_cell_formula_units_Z   1
loop_
 _symmetry_equiv_pos_site_id
 _symmetry_equiv_pos_as_xyz
  1  'x, y, z'
loop_
 _atom_site_type_symbol
 _atom_site_label
 _atom_site_symmetry_multiplicity
 _atom_site_fract_x
 _atom_site_fract_y
 _atom_site_fract_z
 _atom_site_occupancy
  Dy  Dy0  1  0.611650  0.143525  0.312939  1
  Dy  Dy1  1  0.856543  0.686733  0.387955  1
  Dy  Dy2  1  0.686876  0.388129  0.856576  1
  Dy  Dy3  1  0.388057  0.856260  0.686790  1
  Dy  Dy4  1  0.143623  0.313546  0.611919  1
  Ho  Ho5  1  0.313811  0.611724  0.143929  1
  Ru  Ru6  1  0.000275  0.000101  0.000164  1
  O  O7  1  0.589746  0.434740  0.177732  1
  O  O8  1  0.434518  0.177590  0.590784  1
  O  O9  1  0.178061  0.590507  0.433272  1
  O  O10  1  0.408582  0.565810  0.823432  1
  O  O11  1  0.564938  0.822096  0.408421  1
  O  O12  1  0.822468  0.409456  0.565434  1
  O  O13  1  0.701900  0.035830  0.927918  1
  O  O14  1  0.072546  0.298378  0.965277  1
  O  O15  1  0.964807  0.071886  0.298045  1
  O  O16  1  0.298095  0.963474  0.072235  1
  O  O17  1  0.928338  0.702026  0.035311  1
  O  O18  1  0.035164  0.928189  0.701867  1
