# generated using pymatgen
data_Sr3Nd5(Si3Pt)4
_symmetry_space_group_name_H-M   'P 1'
_cell_length_a   8.28913800
_cell_length_b   8.28913829
_cell_length_c   8.74518700
_cell_angle_alpha   90.00000000
_cell_angle_beta   90.00000000
_cell_angle_gamma   119.99999085
_symmetry_Int_Tables_number   1
_chemical_formula_structural   Sr3Nd5(Si3Pt)4
_chemical_formula_sum   'Sr3 Nd5 Si12 Pt4'
_cell_volume   520.37752065
_cell_formula_units_Z   1
loop_
 _symmetry_equiv_pos_site_id
 _symmetry_equiv_pos_as_xyz
  1  'x, y, z'
loop_
 _atom_site_type_symbol
 _atom_site_label
 _atom_site_symmetry_multiplicity
 _atom_site_fract_x
 _atom_site_fract_y
 _atom_site_fract_z
 _atom_site_occupancy
  Sr  Sr0  1  0.499898  0.500102  0.750000  1
  Sr  Sr1  1  0.000205  0.500102  0.750000  1
  Sr  Sr2  1  0.499898  0.999795  0.750000  1
  Nd  Nd3  1  0.500046  0.499954  0.250000  1
  Nd  Nd4  1  0.999908  0.499954  0.250000  1
  Nd  Nd5  1  0.500046  0.000092  0.250000  1
  Nd  Nd6  1  0.000000  0.000000  0.750000  1
  Nd  Nd7  1  0.000000  0.000000  0.250000  1
  Si  Si8  1  0.834815  0.165185  0.006840  1
  Si  Si9  1  0.165206  0.834794  0.007491  1
  Si  Si10  1  0.330371  0.165185  0.006840  1
  Si  Si11  1  0.165206  0.834794  0.492509  1
  Si  Si12  1  0.669588  0.834794  0.007491  1
  Si  Si13  1  0.834815  0.165185  0.493160  1
  Si  Si14  1  0.834815  0.669629  0.006840  1
  Si  Si15  1  0.669588  0.834794  0.492509  1
  Si  Si16  1  0.165206  0.330412  0.007491  1
  Si  Si17  1  0.330371  0.165185  0.493160  1
  Si  Si18  1  0.165206  0.330412  0.492509  1
  Si  Si19  1  0.834815  0.669629  0.493160  1
  Pt  Pt20  1  0.666667  0.333333  0.012054  1
  Pt  Pt21  1  0.333333  0.666667  0.012101  1
  Pt  Pt22  1  0.333333  0.666667  0.487899  1
  Pt  Pt23  1  0.666667  0.333333  0.487946  1
