# generated using pymatgen
data_DyCo4CuP3
_symmetry_space_group_name_H-M   'P 1'
_cell_length_a   3.69789800
_cell_length_b   10.25609500
_cell_length_c   11.87224300
_cell_angle_alpha   90.00000000
_cell_angle_beta   90.00000000
_cell_angle_gamma   90.00000000
_symmetry_Int_Tables_number   1
_chemical_formula_structural   DyCo4CuP3
_chemical_formula_sum   'Dy4 Co16 Cu4 P12'
_cell_volume   450.26660715
_cell_formula_units_Z   4
loop_
 _symmetry_equiv_pos_site_id
 _symmetry_equiv_pos_as_xyz
  1  'x, y, z'
loop_
 _atom_site_type_symbol
 _atom_site_label
 _atom_site_symmetry_multiplicity
 _atom_site_fract_x
 _atom_site_fract_y
 _atom_site_fract_z
 _atom_site_occupancy
  Dy  Dy0  1  0.250000  0.578616  0.701930  1
  Dy  Dy1  1  0.250000  0.921384  0.201930  1
  Dy  Dy2  1  0.750000  0.421384  0.298070  1
  Dy  Dy3  1  0.750000  0.078616  0.798070  1
  Co  Co4  1  0.250000  0.405717  0.483881  1
  Co  Co5  1  0.250000  0.094283  0.983881  1
  Co  Co6  1  0.750000  0.594283  0.516119  1
  Co  Co7  1  0.750000  0.905717  0.016119  1
  Co  Co8  1  0.250000  0.224414  0.172555  1
  Co  Co9  1  0.250000  0.275586  0.672555  1
  Co  Co10  1  0.750000  0.775586  0.827445  1
  Co  Co11  1  0.750000  0.724414  0.327445  1
  Co  Co12  1  0.250000  0.878934  0.699856  1
  Co  Co13  1  0.250000  0.621066  0.199856  1
  Co  Co14  1  0.750000  0.121066  0.300144  1
  Co  Co15  1  0.750000  0.378934  0.800144  1
  Co  Co16  1  0.250000  0.464664  0.933322  1
  Co  Co17  1  0.250000  0.035336  0.433322  1
  Co  Co18  1  0.750000  0.535336  0.066678  1
  Co  Co19  1  0.750000  0.964664  0.566678  1
  Cu  Cu20  1  0.250000  0.710369  0.991661  1
  Cu  Cu21  1  0.250000  0.789631  0.491661  1
  Cu  Cu22  1  0.750000  0.289631  0.008339  1
  Cu  Cu23  1  0.750000  0.210369  0.508339  1
  P  P24  1  0.250000  0.425555  0.115926  1
  P  P25  1  0.250000  0.074445  0.615926  1
  P  P26  1  0.750000  0.574445  0.884074  1
  P  P27  1  0.750000  0.925555  0.384074  1
  P  P28  1  0.250000  0.269402  0.859293  1
  P  P29  1  0.250000  0.230598  0.359293  1
  P  P30  1  0.750000  0.730598  0.140707  1
  P  P31  1  0.750000  0.769402  0.640707  1
  P  P32  1  0.250000  0.600535  0.392339  1
  P  P33  1  0.250000  0.899465  0.892339  1
  P  P34  1  0.750000  0.399465  0.607661  1
  P  P35  1  0.750000  0.100535  0.107661  1
