# generated using pymatgen
data_Y3Er5Re2(TcB12)2
_symmetry_space_group_name_H-M   'P 1'
_cell_length_a   3.66768200
_cell_length_b   9.14185044
_cell_length_c   11.52521403
_cell_angle_alpha   90.04587289
_cell_angle_beta   90.00000000
_cell_angle_gamma   90.00000000
_symmetry_Int_Tables_number   1
_chemical_formula_structural   Y3Er5Re2(TcB12)2
_chemical_formula_sum   'Y3 Er5 Re2 Tc2 B24'
_cell_volume   386.43339095
_cell_formula_units_Z   1
loop_
 _symmetry_equiv_pos_site_id
 _symmetry_equiv_pos_as_xyz
  1  'x, y, z'
loop_
 _atom_site_type_symbol
 _atom_site_label
 _atom_site_symmetry_multiplicity
 _atom_site_fract_x
 _atom_site_fract_y
 _atom_site_fract_z
 _atom_site_occupancy
  Y  Y0  1  0.000000  0.323435  0.414114  1
  Y  Y1  1  0.000000  0.676517  0.585961  1
  Y  Y2  1  0.000000  0.823088  0.085898  1
  Er  Er3  1  0.000000  0.176561  0.914060  1
  Er  Er4  1  0.000000  0.942334  0.369823  1
  Er  Er5  1  0.000000  0.057919  0.630161  1
  Er  Er6  1  0.000000  0.443670  0.130144  1
  Er  Er7  1  0.000000  0.556189  0.869643  1
  Re  Re8  1  0.000000  0.138783  0.179331  1
  Re  Re9  1  0.000000  0.861616  0.820466  1
  Tc  Tc10  1  0.000000  0.639090  0.320113  1
  Tc  Tc11  1  0.000000  0.360575  0.680306  1
  B  B12  1  0.500000  0.553494  0.432568  1
  B  B13  1  0.500000  0.446312  0.567640  1
  B  B14  1  0.500000  0.053781  0.066712  1
  B  B15  1  0.500000  0.947300  0.932711  1
  B  B16  1  0.500000  0.749511  0.418180  1
  B  B17  1  0.500000  0.250522  0.582120  1
  B  B18  1  0.500000  0.249816  0.080905  1
  B  B19  1  0.500000  0.750297  0.918195  1
  B  B20  1  0.500000  0.792134  0.265403  1
  B  B21  1  0.500000  0.207598  0.735234  1
  B  B22  1  0.500000  0.292324  0.234334  1
  B  B23  1  0.500000  0.707733  0.765417  1
  B  B24  1  0.500000  0.630326  0.185406  1
  B  B25  1  0.500000  0.368981  0.815103  1
  B  B26  1  0.500000  0.130151  0.314568  1
  B  B27  1  0.500000  0.870191  0.685434  1
  B  B28  1  0.500000  0.982051  0.212033  1
  B  B29  1  0.500000  0.018878  0.788140  1
  B  B30  1  0.500000  0.482161  0.287683  1
  B  B31  1  0.500000  0.517495  0.712415  1
  B  B32  1  0.500000  0.598906  0.027408  1
  B  B33  1  0.500000  0.400126  0.972279  1
  B  B34  1  0.500000  0.098788  0.472374  1
  B  B35  1  0.500000  0.901346  0.527715  1
