# generated using pymatgen
data_TmLuFe2(Ni4P3)2
_symmetry_space_group_name_H-M   'P 1'
_cell_length_a   3.67552300
_cell_length_b   10.28059700
_cell_length_c   11.85032100
_cell_angle_alpha   90.00000000
_cell_angle_beta   90.00000000
_cell_angle_gamma   90.00000000
_symmetry_Int_Tables_number   1
_chemical_formula_structural   TmLuFe2(Ni4P3)2
_chemical_formula_sum   'Tm2 Lu2 Fe4 Ni16 P12'
_cell_volume   447.78299261
_cell_formula_units_Z   2
loop_
 _symmetry_equiv_pos_site_id
 _symmetry_equiv_pos_as_xyz
  1  'x, y, z'
loop_
 _atom_site_type_symbol
 _atom_site_label
 _atom_site_symmetry_multiplicity
 _atom_site_fract_x
 _atom_site_fract_y
 _atom_site_fract_z
 _atom_site_occupancy
  Tm  Tm0  1  0.750000  0.420560  0.294891  1
  Tm  Tm1  1  0.750000  0.079440  0.794891  1
  Lu  Lu2  1  0.250000  0.579373  0.705165  1
  Lu  Lu3  1  0.250000  0.920627  0.205165  1
  Fe  Fe4  1  0.250000  0.463804  0.931128  1
  Fe  Fe5  1  0.250000  0.036196  0.431128  1
  Fe  Fe6  1  0.750000  0.536429  0.068521  1
  Fe  Fe7  1  0.750000  0.963571  0.568521  1
  Ni  Ni8  1  0.250000  0.714213  0.993451  1
  Ni  Ni9  1  0.250000  0.785787  0.493451  1
  Ni  Ni10  1  0.750000  0.285899  0.006606  1
  Ni  Ni11  1  0.750000  0.214101  0.506606  1
  Ni  Ni12  1  0.250000  0.407532  0.487201  1
  Ni  Ni13  1  0.250000  0.092468  0.987201  1
  Ni  Ni14  1  0.750000  0.592541  0.513335  1
  Ni  Ni15  1  0.750000  0.907459  0.013335  1
  Ni  Ni16  1  0.250000  0.224937  0.177312  1
  Ni  Ni17  1  0.250000  0.275063  0.677312  1
  Ni  Ni18  1  0.750000  0.774700  0.822615  1
  Ni  Ni19  1  0.750000  0.725300  0.322615  1
  Ni  Ni20  1  0.250000  0.877492  0.701777  1
  Ni  Ni21  1  0.250000  0.622508  0.201777  1
  Ni  Ni22  1  0.750000  0.121986  0.298040  1
  Ni  Ni23  1  0.750000  0.378014  0.798040  1
  P  P24  1  0.250000  0.425470  0.112243  1
  P  P25  1  0.250000  0.074530  0.612243  1
  P  P26  1  0.750000  0.574585  0.887367  1
  P  P27  1  0.750000  0.925415  0.387367  1
  P  P28  1  0.250000  0.267524  0.869189  1
  P  P29  1  0.250000  0.232476  0.369189  1
  P  P30  1  0.750000  0.732886  0.131016  1
  P  P31  1  0.750000  0.767114  0.631016  1
  P  P32  1  0.250000  0.602449  0.392181  1
  P  P33  1  0.250000  0.897551  0.892181  1
  P  P34  1  0.750000  0.397844  0.607963  1
  P  P35  1  0.750000  0.102156  0.107963  1
