# generated using pymatgen
data_NdGdDy4(RuO7)2
_symmetry_space_group_name_H-M   'P 1'
_cell_length_a   6.44953819
_cell_length_b   6.44953851
_cell_length_c   7.43440228
_cell_angle_alpha   89.96770929
_cell_angle_beta   89.96771355
_cell_angle_gamma   110.13808486
_symmetry_Int_Tables_number   1
_chemical_formula_structural   NdGdDy4(RuO7)2
_chemical_formula_sum   'Nd1 Gd1 Dy4 Ru2 O14'
_cell_volume   290.33977661
_cell_formula_units_Z   1
loop_
 _symmetry_equiv_pos_site_id
 _symmetry_equiv_pos_as_xyz
  1  'x, y, z'
loop_
 _atom_site_type_symbol
 _atom_site_label
 _atom_site_symmetry_multiplicity
 _atom_site_fract_x
 _atom_site_fract_y
 _atom_site_fract_z
 _atom_site_occupancy
  Nd  Nd0  1  0.000000  0.000000  0.000000  1
  Gd  Gd1  1  0.000000  0.000000  0.500000  1
  Dy  Dy2  1  0.480359  0.931245  0.748188  1
  Dy  Dy3  1  0.519641  0.068755  0.251812  1
  Dy  Dy4  1  0.931245  0.480359  0.748188  1
  Dy  Dy5  1  0.068755  0.519641  0.251812  1
  Ru  Ru6  1  0.500000  0.500000  0.500000  1
  Ru  Ru7  1  0.500000  0.500000  0.000000  1
  O  O8  1  0.584241  0.584241  0.750086  1
  O  O9  1  0.415759  0.415759  0.249914  1
  O  O10  1  0.840110  0.114347  0.744441  1
  O  O11  1  0.159890  0.885653  0.255559  1
  O  O12  1  0.114347  0.840110  0.744441  1
  O  O13  1  0.885653  0.159890  0.255559  1
  O  O14  1  0.439644  0.180546  0.963776  1
  O  O15  1  0.560589  0.818334  0.462952  1
  O  O16  1  0.180546  0.439644  0.963776  1
  O  O17  1  0.818334  0.560589  0.462952  1
  O  O18  1  0.439411  0.181666  0.537048  1
  O  O19  1  0.560356  0.819454  0.036224  1
  O  O20  1  0.819454  0.560356  0.036224  1
  O  O21  1  0.181666  0.439411  0.537048  1
