# generated using pymatgen
data_BaLa3(Eu3Pt4)2
_symmetry_space_group_name_H-M   'P 1'
_cell_length_a   7.81237400
_cell_length_b   7.94296475
_cell_length_c   15.12716700
_cell_angle_alpha   89.79119326
_cell_angle_beta   90.00000000
_cell_angle_gamma   90.00000000
_symmetry_Int_Tables_number   1
_chemical_formula_structural   BaLa3(Eu3Pt4)2
_chemical_formula_sum   'Ba2 La6 Eu12 Pt16'
_cell_volume   938.68608164
_cell_formula_units_Z   2
loop_
 _symmetry_equiv_pos_site_id
 _symmetry_equiv_pos_as_xyz
  1  'x, y, z'
loop_
 _atom_site_type_symbol
 _atom_site_label
 _atom_site_symmetry_multiplicity
 _atom_site_fract_x
 _atom_site_fract_y
 _atom_site_fract_z
 _atom_site_occupancy
  Ba  Ba0  1  0.498455  0.324115  0.592377  1
  Ba  Ba1  1  0.998455  0.175885  0.907623  1
  La  La2  1  0.493811  0.324290  0.900872  1
  La  La3  1  0.993811  0.175710  0.599128  1
  La  La4  1  0.505463  0.681366  0.398706  1
  La  La5  1  0.005463  0.818634  0.101294  1
  La  La6  1  0.503887  0.680134  0.097627  1
  La  La7  1  0.003887  0.819866  0.402373  1
  Eu  Eu8  1  0.340414  0.833160  0.877073  1
  Eu  Eu9  1  0.840414  0.666840  0.622927  1
  Eu  Eu10  1  0.659738  0.168718  0.377216  1
  Eu  Eu11  1  0.159738  0.331282  0.122784  1
  Eu  Eu12  1  0.658115  0.171386  0.123005  1
  Eu  Eu13  1  0.158115  0.328614  0.376995  1
  Eu  Eu14  1  0.343022  0.831229  0.621342  1
  Eu  Eu15  1  0.843022  0.668771  0.878658  1
  Eu  Eu16  1  0.176289  0.497792  0.749052  1
  Eu  Eu17  1  0.676289  0.002208  0.750948  1
  Eu  Eu18  1  0.823777  0.500335  0.249986  1
  Eu  Eu19  1  0.323777  0.999665  0.250014  1
  Pt  Pt20  1  0.326161  0.020173  0.047267  1
  Pt  Pt21  1  0.826161  0.479827  0.452733  1
  Pt  Pt22  1  0.691303  0.958700  0.536117  1
  Pt  Pt23  1  0.191303  0.541300  0.963883  1
  Pt  Pt24  1  0.663133  0.959035  0.963481  1
  Pt  Pt25  1  0.163133  0.540965  0.536519  1
  Pt  Pt26  1  0.316902  0.016267  0.454188  1
  Pt  Pt27  1  0.816902  0.483733  0.045812  1
  Pt  Pt28  1  0.547047  0.612343  0.755946  1
  Pt  Pt29  1  0.047047  0.887657  0.744054  1
  Pt  Pt30  1  0.452456  0.395016  0.250567  1
  Pt  Pt31  1  0.952456  0.104984  0.249433  1
  Pt  Pt32  1  0.303544  0.137938  0.754182  1
  Pt  Pt33  1  0.803544  0.362062  0.745818  1
  Pt  Pt34  1  0.696481  0.856453  0.250542  1
  Pt  Pt35  1  0.196481  0.643547  0.249458  1
