# generated using pymatgen
data_Ho4Tm(SiB4)2
_symmetry_space_group_name_H-M   'P 1'
_cell_length_a   7.20065700
_cell_length_b   7.20065700
_cell_length_c   8.02659000
_cell_angle_alpha   90.00000000
_cell_angle_beta   90.00000000
_cell_angle_gamma   90.00000000
_symmetry_Int_Tables_number   1
_chemical_formula_structural   Ho4Tm(SiB4)2
_chemical_formula_sum   'Ho8 Tm2 Si4 B16'
_cell_volume   416.17436703
_cell_formula_units_Z   2
loop_
 _symmetry_equiv_pos_site_id
 _symmetry_equiv_pos_as_xyz
  1  'x, y, z'
loop_
 _atom_site_type_symbol
 _atom_site_label
 _atom_site_symmetry_multiplicity
 _atom_site_fract_x
 _atom_site_fract_y
 _atom_site_fract_z
 _atom_site_occupancy
  Ho  Ho0  1  0.680302  0.180302  0.224683  1
  Ho  Ho1  1  0.319698  0.819698  0.775317  1
  Ho  Ho2  1  0.319698  0.819698  0.224683  1
  Ho  Ho3  1  0.819698  0.680302  0.224683  1
  Ho  Ho4  1  0.819698  0.680302  0.775317  1
  Ho  Ho5  1  0.680302  0.180302  0.775317  1
  Ho  Ho6  1  0.180302  0.319698  0.775317  1
  Ho  Ho7  1  0.180302  0.319698  0.224683  1
  Tm  Tm8  1  0.000000  0.000000  0.500000  1
  Tm  Tm9  1  0.500000  0.500000  0.500000  1
  Si  Si10  1  0.115835  0.615835  0.500000  1
  Si  Si11  1  0.884165  0.384165  0.500000  1
  Si  Si12  1  0.384165  0.115835  0.500000  1
  Si  Si13  1  0.615835  0.884165  0.500000  1
  B  B14  1  0.172701  0.039142  0.000000  1
  B  B15  1  0.827299  0.960858  0.000000  1
  B  B16  1  0.960858  0.172701  0.000000  1
  B  B17  1  0.327299  0.539142  0.000000  1
  B  B18  1  0.039142  0.827299  0.000000  1
  B  B19  1  0.672701  0.460858  0.000000  1
  B  B20  1  0.539142  0.672701  0.000000  1
  B  B21  1  0.460858  0.327299  0.000000  1
  B  B22  1  0.089747  0.589747  0.000000  1
  B  B23  1  0.910253  0.410253  0.000000  1
  B  B24  1  0.410253  0.089747  0.000000  1
  B  B25  1  0.589747  0.910253  0.000000  1
  B  B26  1  0.000000  0.000000  0.164229  1
  B  B27  1  0.000000  0.000000  0.835771  1
  B  B28  1  0.500000  0.500000  0.835771  1
  B  B29  1  0.500000  0.500000  0.164229  1
