# generated using pymatgen
data_Nd16Mg2Cd2Co3Ni
_symmetry_space_group_name_H-M   'P 1'
_cell_length_a   9.85168267
_cell_length_b   9.86767423
_cell_length_c   9.88560500
_cell_angle_alpha   59.93986849
_cell_angle_beta   59.88602757
_cell_angle_gamma   59.93611695
_symmetry_Int_Tables_number   1
_chemical_formula_structural   Nd16Mg2Cd2Co3Ni
_chemical_formula_sum   'Nd16 Mg2 Cd2 Co3 Ni1'
_cell_volume   678.31438062
_cell_formula_units_Z   1
loop_
 _symmetry_equiv_pos_site_id
 _symmetry_equiv_pos_as_xyz
  1  'x, y, z'
loop_
 _atom_site_type_symbol
 _atom_site_label
 _atom_site_symmetry_multiplicity
 _atom_site_fract_x
 _atom_site_fract_y
 _atom_site_fract_z
 _atom_site_occupancy
  Nd  Nd0  1  0.593749  0.597775  0.597595  1
  Nd  Nd1  1  0.593749  0.597775  0.210880  1
  Nd  Nd2  1  0.593810  0.211792  0.597199  1
  Nd  Nd3  1  0.214400  0.595070  0.595265  1
  Nd  Nd4  1  0.065304  0.438099  0.439612  1
  Nd  Nd5  1  0.437085  0.061759  0.061512  1
  Nd  Nd6  1  0.437085  0.061759  0.439644  1
  Nd  Nd7  1  0.065304  0.438099  0.056985  1
  Nd  Nd8  1  0.439530  0.439702  0.060384  1
  Nd  Nd9  1  0.066132  0.058151  0.437859  1
  Nd  Nd10  1  0.189028  0.811468  0.812476  1
  Nd  Nd11  1  0.809781  0.190300  0.187143  1
  Nd  Nd12  1  0.809781  0.190300  0.812776  1
  Nd  Nd13  1  0.189028  0.811468  0.187029  1
  Nd  Nd14  1  0.811468  0.813738  0.187397  1
  Nd  Nd15  1  0.188134  0.189386  0.811241  1
  Mg  Mg16  1  0.825642  0.825316  0.829856  1
  Mg  Mg17  1  0.825642  0.825316  0.519186  1
  Cd  Cd18  1  0.830934  0.509293  0.829886  1
  Cd  Cd19  1  0.508319  0.831110  0.830285  1
  Co  Co20  1  0.393612  0.391876  0.389467  1
  Co  Co21  1  0.393612  0.391876  0.825045  1
  Co  Co22  1  0.393293  0.826803  0.389952  1
  Ni  Ni23  1  0.825579  0.391767  0.391327  1
