# generated using pymatgen
data_Ho10Th6MgZn3Ru4
_symmetry_space_group_name_H-M   'P 1'
_cell_length_a   9.58277821
_cell_length_b   9.69337105
_cell_length_c   9.69337210
_cell_angle_alpha   59.31084228
_cell_angle_beta   59.99664836
_cell_angle_gamma   59.99664913
_symmetry_Int_Tables_number   1
_chemical_formula_structural   Ho10Th6MgZn3Ru4
_chemical_formula_sum   'Ho10 Th6 Mg1 Zn3 Ru4'
_cell_volume   633.27345551
_cell_formula_units_Z   1
loop_
 _symmetry_equiv_pos_site_id
 _symmetry_equiv_pos_as_xyz
  1  'x, y, z'
loop_
 _atom_site_type_symbol
 _atom_site_label
 _atom_site_symmetry_multiplicity
 _atom_site_fract_x
 _atom_site_fract_y
 _atom_site_fract_z
 _atom_site_occupancy
  Ho  Ho0  1  0.190532  0.808702  0.191639  1
  Ho  Ho1  1  0.806217  0.192657  0.806939  1
  Ho  Ho2  1  0.190532  0.191639  0.808702  1
  Ho  Ho3  1  0.806217  0.806939  0.192657  1
  Ho  Ho4  1  0.926723  0.570223  0.570223  1
  Ho  Ho5  1  0.565468  0.933266  0.933266  1
  Ho  Ho6  1  0.561181  0.940013  0.565248  1
  Ho  Ho7  1  0.933072  0.564008  0.940790  1
  Ho  Ho8  1  0.561181  0.565248  0.940013  1
  Ho  Ho9  1  0.933072  0.940790  0.564008  1
  Th  Th10  1  0.342384  0.350956  0.350956  1
  Th  Th11  1  0.356316  0.344159  0.948601  1
  Th  Th12  1  0.356316  0.948601  0.344159  1
  Th  Th13  1  0.944030  0.355092  0.355092  1
  Th  Th14  1  0.812636  0.188347  0.188347  1
  Th  Th15  1  0.183220  0.816405  0.816405  1
  Mg  Mg16  1  0.281969  0.569770  0.569770  1
  Zn  Zn17  1  0.587288  0.581150  0.581150  1
  Zn  Zn18  1  0.580652  0.583619  0.250128  1
  Zn  Zn19  1  0.580652  0.250128  0.583619  1
  Ru  Ru20  1  0.129600  0.148130  0.148130  1
  Ru  Ru21  1  0.147449  0.127875  0.573736  1
  Ru  Ru22  1  0.147449  0.573736  0.127875  1
  Ru  Ru23  1  0.575842  0.148544  0.148544  1
