# generated using pymatgen
data_BaIn4Ag9
_symmetry_space_group_name_H-M   'P 1'
_cell_length_a   9.66041962
_cell_length_b   9.66041993
_cell_length_c   9.66041988
_cell_angle_alpha   121.07865058
_cell_angle_beta   121.07865026
_cell_angle_gamma   88.14165744
_symmetry_Int_Tables_number   1
_chemical_formula_structural   BaIn4Ag9
_chemical_formula_sum   'Ba2 In8 Ag18'
_cell_volume   626.73807771
_cell_formula_units_Z   2
loop_
 _symmetry_equiv_pos_site_id
 _symmetry_equiv_pos_as_xyz
  1  'x, y, z'
loop_
 _atom_site_type_symbol
 _atom_site_label
 _atom_site_symmetry_multiplicity
 _atom_site_fract_x
 _atom_site_fract_y
 _atom_site_fract_z
 _atom_site_occupancy
  Ba  Ba0  1  0.750000  0.750000  0.000000  1
  Ba  Ba1  1  0.250000  0.250000  0.000000  1
  In  In2  1  0.302092  0.441874  0.500000  1
  In  In3  1  0.802092  0.302092  0.860217  1
  In  In4  1  0.697908  0.558126  0.500000  1
  In  In5  1  0.941874  0.802092  0.500000  1
  In  In6  1  0.058126  0.197908  0.500000  1
  In  In7  1  0.558126  0.058126  0.860217  1
  In  In8  1  0.197908  0.697908  0.139783  1
  In  In9  1  0.441874  0.941874  0.139783  1
  Ag  Ag10  1  0.203959  0.061000  0.264959  1
  Ag  Ag11  1  0.797122  0.063709  0.500000  1
  Ag  Ag12  1  0.702878  0.202878  0.266587  1
  Ag  Ag13  1  0.063709  0.563709  0.266587  1
  Ag  Ag14  1  0.561000  0.703959  0.264959  1
  Ag  Ag15  1  0.703959  0.439000  0.142959  1
  Ag  Ag16  1  0.796041  0.939000  0.735041  1
  Ag  Ag17  1  0.202878  0.936291  0.500000  1
  Ag  Ag18  1  0.061000  0.796041  0.857041  1
  Ag  Ag19  1  0.936291  0.436291  0.733413  1
  Ag  Ag20  1  0.297122  0.797122  0.733413  1
  Ag  Ag21  1  0.939000  0.203959  0.142959  1
  Ag  Ag22  1  0.296041  0.561000  0.857041  1
  Ag  Ag23  1  0.436291  0.702878  0.500000  1
  Ag  Ag24  1  0.439000  0.296041  0.735041  1
  Ag  Ag25  1  0.500000  0.000000  0.500000  1
  Ag  Ag26  1  0.000000  0.500000  0.500000  1
  Ag  Ag27  1  0.563709  0.297122  0.500000  1
