# generated using pymatgen
data_Er4Lu8CdCo5
_symmetry_space_group_name_H-M   'P 1'
_cell_length_a   8.11002966
_cell_length_b   8.11002859
_cell_length_c   8.11002821
_cell_angle_alpha   110.72932527
_cell_angle_beta   110.76690899
_cell_angle_gamma   106.94654311
_symmetry_Int_Tables_number   1
_chemical_formula_structural   Er4Lu8CdCo5
_chemical_formula_sum   'Er4 Lu8 Cd1 Co5'
_cell_volume   410.03024624
_cell_formula_units_Z   1
loop_
 _symmetry_equiv_pos_site_id
 _symmetry_equiv_pos_as_xyz
  1  'x, y, z'
loop_
 _atom_site_type_symbol
 _atom_site_label
 _atom_site_symmetry_multiplicity
 _atom_site_fract_x
 _atom_site_fract_y
 _atom_site_fract_z
 _atom_site_occupancy
  Er  Er0  1  0.214988  0.408365  0.193378  1
  Er  Er1  1  0.785012  0.591635  0.806622  1
  Er  Er2  1  0.214988  0.021610  0.806622  1
  Er  Er3  1  0.785012  0.978390  0.193378  1
  Lu  Lu4  1  0.287208  0.182941  0.470149  1
  Lu  Lu5  1  0.712792  0.817059  0.529851  1
  Lu  Lu6  1  0.287208  0.817059  0.104267  1
  Lu  Lu7  1  0.712792  0.182941  0.895733  1
  Lu  Lu8  1  0.621257  0.315941  0.305316  1
  Lu  Lu9  1  0.378743  0.684059  0.694684  1
  Lu  Lu10  1  0.010627  0.315941  0.694684  1
  Lu  Lu11  1  0.989373  0.684059  0.305316  1
  Cd  Cd12  1  0.500000  0.500000  0.000000  1
  Co  Co13  1  0.000000  0.375268  0.375268  1
  Co  Co14  1  0.000000  0.624732  0.624732  1
  Co  Co15  1  0.386043  0.886043  0.500000  1
  Co  Co16  1  0.613957  0.113957  0.500000  1
  Co  Co17  1  0.000000  0.000000  0.000000  1
