# generated using pymatgen
data_Er2UAl3IrRu2
_symmetry_space_group_name_H-M   'P 1'
_cell_length_a   6.77340629
_cell_length_b   6.77340502
_cell_length_c   4.06681700
_cell_angle_alpha   90.00000000
_cell_angle_beta   90.00000000
_cell_angle_gamma   115.22694855
_symmetry_Int_Tables_number   1
_chemical_formula_structural   Er2UAl3IrRu2
_chemical_formula_sum   'Er2 U1 Al3 Ir1 Ru2'
_cell_volume   168.78669132
_cell_formula_units_Z   1
loop_
 _symmetry_equiv_pos_site_id
 _symmetry_equiv_pos_as_xyz
  1  'x, y, z'
loop_
 _atom_site_type_symbol
 _atom_site_label
 _atom_site_symmetry_multiplicity
 _atom_site_fract_x
 _atom_site_fract_y
 _atom_site_fract_z
 _atom_site_occupancy
  Er  Er0  1  0.418064  0.002853  0.500000  1
  Er  Er1  1  0.002853  0.418064  0.500000  1
  U  U2  1  0.586923  0.586923  0.500000  1
  Al  Al3  1  0.755851  0.015501  0.000000  1
  Al  Al4  1  0.015501  0.755851  0.000000  1
  Al  Al5  1  0.216097  0.216097  0.000000  1
  Ir  Ir6  1  0.981877  0.981877  0.500000  1
  Ru  Ru7  1  0.377890  0.644943  0.000000  1
  Ru  Ru8  1  0.644943  0.377890  0.000000  1
