# generated using pymatgen
data_Ho3Zn2In3Rh
_symmetry_space_group_name_H-M   'P 1'
_cell_length_a   7.74368200
_cell_length_b   7.74368258
_cell_length_c   3.82329100
_cell_angle_alpha   90.00000000
_cell_angle_beta   90.00000000
_cell_angle_gamma   120.00000492
_symmetry_Int_Tables_number   1
_chemical_formula_structural   Ho3Zn2In3Rh
_chemical_formula_sum   'Ho3 Zn2 In3 Rh1'
_cell_volume   198.54685730
_cell_formula_units_Z   1
loop_
 _symmetry_equiv_pos_site_id
 _symmetry_equiv_pos_as_xyz
  1  'x, y, z'
loop_
 _atom_site_type_symbol
 _atom_site_label
 _atom_site_symmetry_multiplicity
 _atom_site_fract_x
 _atom_site_fract_y
 _atom_site_fract_z
 _atom_site_occupancy
  Ho  Ho0  1  0.975684  0.391971  0.500000  1
  Ho  Ho1  1  0.608029  0.583712  0.500000  1
  Ho  Ho2  1  0.416288  0.024316  0.500000  1
  Zn  Zn3  1  0.333333  0.666667  0.000000  1
  Zn  Zn4  1  0.000000  0.000000  0.500000  1
  In  In5  1  0.260783  0.264337  0.000000  1
  In  In6  1  0.003554  0.739217  0.000000  1
  In  In7  1  0.735663  0.996446  0.000000  1
  Rh  Rh8  1  0.666667  0.333333  0.000000  1
