# generated using pymatgen
data_Pr3Al12Ir2OsRh
_symmetry_space_group_name_H-M   'P 1'
_cell_length_a   8.91440700
_cell_length_b   8.92543062
_cell_length_c   9.67176100
_cell_angle_alpha   90.00000000
_cell_angle_beta   90.00000000
_cell_angle_gamma   119.95915598
_symmetry_Int_Tables_number   1
_chemical_formula_structural   Pr3Al12Ir2OsRh
_chemical_formula_sum   'Pr6 Al24 Ir4 Os2 Rh2'
_cell_volume   666.70915868
_cell_formula_units_Z   2
loop_
 _symmetry_equiv_pos_site_id
 _symmetry_equiv_pos_as_xyz
  1  'x, y, z'
loop_
 _atom_site_type_symbol
 _atom_site_label
 _atom_site_symmetry_multiplicity
 _atom_site_fract_x
 _atom_site_fract_y
 _atom_site_fract_z
 _atom_site_occupancy
  Pr  Pr0  1  0.190874  0.381748  0.250000  1
  Pr  Pr1  1  0.809126  0.618252  0.750000  1
  Pr  Pr2  1  0.619985  0.808848  0.250000  1
  Pr  Pr3  1  0.380015  0.191152  0.750000  1
  Pr  Pr4  1  0.188863  0.808848  0.250000  1
  Pr  Pr5  1  0.811137  0.191152  0.750000  1
  Al  Al6  1  0.333917  0.667836  0.022125  1
  Al  Al7  1  0.666083  0.332164  0.977875  1
  Al  Al8  1  0.666083  0.332164  0.522125  1
  Al  Al9  1  0.333917  0.667836  0.477875  1
  Al  Al10  1  0.163935  0.327869  0.573974  1
  Al  Al11  1  0.836065  0.672131  0.426026  1
  Al  Al12  1  0.672533  0.835332  0.575822  1
  Al  Al13  1  0.836065  0.672131  0.073974  1
  Al  Al14  1  0.327467  0.164668  0.424178  1
  Al  Al15  1  0.163935  0.327869  0.926026  1
  Al  Al16  1  0.162801  0.835332  0.575822  1
  Al  Al17  1  0.327467  0.164668  0.075822  1
  Al  Al18  1  0.837199  0.164668  0.424178  1
  Al  Al19  1  0.672533  0.835332  0.924178  1
  Al  Al20  1  0.837199  0.164668  0.075822  1
  Al  Al21  1  0.162801  0.835332  0.924178  1
  Al  Al22  1  0.562712  0.125423  0.250000  1
  Al  Al23  1  0.437288  0.874577  0.750000  1
  Al  Al24  1  0.873264  0.437038  0.250000  1
  Al  Al25  1  0.126736  0.562962  0.750000  1
  Al  Al26  1  0.563774  0.437038  0.250000  1
  Al  Al27  1  0.436226  0.562962  0.750000  1
  Al  Al28  1  0.000448  0.000895  0.250000  1
  Al  Al29  1  0.999552  0.999105  0.750000  1
  Ir  Ir30  1  0.000000  0.500000  0.000000  1
  Ir  Ir31  1  0.500000  0.500000  0.000000  1
  Ir  Ir32  1  0.000000  0.500000  0.500000  1
  Ir  Ir33  1  0.500000  0.500000  0.500000  1
  Os  Os34  1  0.000000  0.000000  0.000000  1
  Os  Os35  1  0.000000  0.000000  0.500000  1
  Rh  Rh36  1  0.500000  0.000000  0.000000  1
  Rh  Rh37  1  0.500000  0.000000  0.500000  1
