# generated using pymatgen
data_Ho3Tm5B24(RuW)2
_symmetry_space_group_name_H-M   'P 1'
_cell_length_a   3.60321000
_cell_length_b   9.17404898
_cell_length_c   11.56955248
_cell_angle_alpha   89.78490604
_cell_angle_beta   90.00000000
_cell_angle_gamma   90.00000000
_symmetry_Int_Tables_number   1
_chemical_formula_structural   Ho3Tm5B24(RuW)2
_chemical_formula_sum   'Ho3 Tm5 B24 Ru2 W2'
_cell_volume   382.44072149
_cell_formula_units_Z   1
loop_
 _symmetry_equiv_pos_site_id
 _symmetry_equiv_pos_as_xyz
  1  'x, y, z'
loop_
 _atom_site_type_symbol
 _atom_site_label
 _atom_site_symmetry_multiplicity
 _atom_site_fract_x
 _atom_site_fract_y
 _atom_site_fract_z
 _atom_site_occupancy
  Ho  Ho0  1  0.000000  0.321162  0.413915  1
  Ho  Ho1  1  0.000000  0.678798  0.586162  1
  Ho  Ho2  1  0.000000  0.821808  0.086179  1
  Tm  Tm3  1  0.000000  0.178488  0.913720  1
  Tm  Tm4  1  0.000000  0.945397  0.371237  1
  Tm  Tm5  1  0.000000  0.054667  0.628838  1
  Tm  Tm6  1  0.000000  0.441467  0.127506  1
  Tm  Tm7  1  0.000000  0.558268  0.872414  1
  B  B8  1  0.500000  0.551089  0.434636  1
  B  B9  1  0.500000  0.448760  0.565507  1
  B  B10  1  0.500000  0.054076  0.066319  1
  B  B11  1  0.500000  0.946608  0.933267  1
  B  B12  1  0.500000  0.752462  0.421432  1
  B  B13  1  0.500000  0.247563  0.578698  1
  B  B14  1  0.500000  0.248628  0.080695  1
  B  B15  1  0.500000  0.751396  0.918712  1
  B  B16  1  0.500000  0.796435  0.262952  1
  B  B17  1  0.500000  0.203358  0.737573  1
  B  B18  1  0.500000  0.290135  0.233297  1
  B  B19  1  0.500000  0.709877  0.766565  1
  B  B20  1  0.500000  0.631642  0.180948  1
  B  B21  1  0.500000  0.367840  0.819369  1
  B  B22  1  0.500000  0.130466  0.313448  1
  B  B23  1  0.500000  0.869713  0.686555  1
  B  B24  1  0.500000  0.983884  0.211457  1
  B  B25  1  0.500000  0.016672  0.788684  1
  B  B26  1  0.500000  0.477052  0.285812  1
  B  B27  1  0.500000  0.522772  0.714195  1
  B  B28  1  0.500000  0.602806  0.027574  1
  B  B29  1  0.500000  0.396525  0.972267  1
  B  B30  1  0.500000  0.102465  0.470724  1
  B  B31  1  0.500000  0.897600  0.529341  1
  Ru  Ru32  1  0.000000  0.138275  0.177905  1
  Ru  Ru33  1  0.000000  0.862070  0.821865  1
  W  W34  1  0.000000  0.639042  0.319131  1
  W  W35  1  0.000000  0.360733  0.681100  1
