# generated using pymatgen
data_Ho4Zr3SnF28
_symmetry_space_group_name_H-M   'P 1'
_cell_length_a   5.67589100
_cell_length_b   9.02010644
_cell_length_c   12.16606400
_cell_angle_alpha   62.58635554
_cell_angle_beta   90.00109022
_cell_angle_gamma   90.03174112
_symmetry_Int_Tables_number   1
_chemical_formula_structural   Ho4Zr3SnF28
_chemical_formula_sum   'Ho4 Zr3 Sn1 F28'
_cell_volume   552.92313967
_cell_formula_units_Z   1
loop_
 _symmetry_equiv_pos_site_id
 _symmetry_equiv_pos_as_xyz
  1  'x, y, z'
loop_
 _atom_site_type_symbol
 _atom_site_label
 _atom_site_symmetry_multiplicity
 _atom_site_fract_x
 _atom_site_fract_y
 _atom_site_fract_z
 _atom_site_occupancy
  Ho  Ho0  1  0.756083  0.814555  0.766063  1
  Ho  Ho1  1  0.257249  0.183687  0.736777  1
  Ho  Ho2  1  0.243304  0.184084  0.233625  1
  Ho  Ho3  1  0.743128  0.816923  0.264979  1
  Zr  Zr4  1  0.256065  0.725381  0.544156  1
  Zr  Zr5  1  0.244081  0.725787  0.043620  1
  Zr  Zr6  1  0.743478  0.273591  0.456533  1
  Sn  Sn7  1  0.757334  0.272913  0.956700  1
  F  F8  1  0.459343  0.709561  0.916396  1
  F  F9  1  0.957448  0.290170  0.584444  1
  F  F10  1  0.544089  0.292532  0.080098  1
  F  F11  1  0.040958  0.708657  0.416829  1
  F  F12  1  0.441534  0.273264  0.549853  1
  F  F13  1  0.942813  0.723159  0.951104  1
  F  F14  1  0.557825  0.725850  0.450597  1
  F  F15  1  0.049598  0.278578  0.048275  1
  F  F16  1  0.773604  0.520981  0.859447  1
  F  F17  1  0.278222  0.472397  0.641706  1
  F  F18  1  0.227754  0.472715  0.140929  1
  F  F19  1  0.722503  0.526878  0.358826  1
  F  F20  1  0.758696  0.024714  0.054506  1
  F  F21  1  0.259029  0.978092  0.440640  1
  F  F22  1  0.241136  0.978604  0.941640  1
  F  F23  1  0.741703  0.020775  0.558805  1
  F  F24  1  0.976626  0.730754  0.647422  1
  F  F25  1  0.481709  0.269266  0.855415  1
  F  F26  1  0.023476  0.268138  0.353302  1
  F  F27  1  0.524435  0.733734  0.145438  1
  F  F28  1  0.037393  0.748712  0.173633  1
  F  F29  1  0.538635  0.252062  0.325011  1
  F  F30  1  0.963027  0.255667  0.828337  1
  F  F31  1  0.460857  0.747747  0.674786  1
  F  F32  1  0.423976  0.972012  0.232638  1
  F  F33  1  0.924704  0.028187  0.266358  1
  F  F34  1  0.574483  0.027428  0.766284  1
  F  F35  1  0.073701  0.972441  0.734830  1
