# generated using pymatgen
data_Pr3NdTi8O20
_symmetry_space_group_name_H-M   'P 1'
_cell_length_a   5.86387100
_cell_length_b   7.78385726
_cell_length_c   8.83244929
_cell_angle_alpha   89.97058970
_cell_angle_beta   90.00000000
_cell_angle_gamma   90.00000000
_symmetry_Int_Tables_number   1
_chemical_formula_structural   Pr3NdTi8O20
_chemical_formula_sum   'Pr3 Nd1 Ti8 O20'
_cell_volume   403.14415377
_cell_formula_units_Z   1
loop_
 _symmetry_equiv_pos_site_id
 _symmetry_equiv_pos_as_xyz
  1  'x, y, z'
loop_
 _atom_site_type_symbol
 _atom_site_label
 _atom_site_symmetry_multiplicity
 _atom_site_fract_x
 _atom_site_fract_y
 _atom_site_fract_z
 _atom_site_occupancy
  Pr  Pr0  1  0.000000  0.357421  0.671853  1
  Pr  Pr1  1  0.000000  0.642503  0.328108  1
  Pr  Pr2  1  0.000000  0.857730  0.828441  1
  Nd  Nd3  1  0.000000  0.143058  0.171821  1
  Ti  Ti4  1  0.500000  0.114929  0.858251  1
  Ti  Ti5  1  0.500000  0.885482  0.142060  1
  Ti  Ti6  1  0.500000  0.614862  0.641941  1
  Ti  Ti7  1  0.500000  0.384863  0.357807  1
  Ti  Ti8  1  0.253984  0.499730  0.000110  1
  Ti  Ti9  1  0.746165  0.000074  0.499755  1
  Ti  Ti10  1  0.746016  0.499730  0.000110  1
  Ti  Ti11  1  0.253835  0.000074  0.499755  1
  O  O12  1  0.255346  0.899907  0.289159  1
  O  O13  1  0.255866  0.100684  0.710482  1
  O  O14  1  0.744842  0.398156  0.210498  1
  O  O15  1  0.744189  0.600585  0.789508  1
  O  O16  1  0.744134  0.100684  0.710482  1
  O  O17  1  0.744654  0.899907  0.289159  1
  O  O18  1  0.255811  0.600585  0.789508  1
  O  O19  1  0.255158  0.398156  0.210498  1
  O  O20  1  0.500000  0.334711  0.923993  1
  O  O21  1  0.500000  0.665380  0.076073  1
  O  O22  1  0.500000  0.834642  0.575841  1
  O  O23  1  0.500000  0.165469  0.424241  1
  O  O24  1  0.280155  0.000769  0.000641  1
  O  O25  1  0.719086  0.499997  0.499914  1
  O  O26  1  0.719845  0.000769  0.000641  1
  O  O27  1  0.280914  0.499997  0.499914  1
  O  O28  1  0.000000  0.161846  0.445587  1
  O  O29  1  0.000000  0.838231  0.553183  1
  O  O30  1  0.000000  0.661628  0.053180  1
  O  O31  1  0.000000  0.337442  0.947484  1
