# generated using pymatgen
data_Ho2LuAl9Si3Os4
_symmetry_space_group_name_H-M   'P 1'
_cell_length_a   8.69048000
_cell_length_b   8.66384999
_cell_length_c   9.50863600
_cell_angle_alpha   90.00000000
_cell_angle_beta   90.00000000
_cell_angle_gamma   120.10172911
_symmetry_Int_Tables_number   1
_chemical_formula_structural   Ho2LuAl9Si3Os4
_chemical_formula_sum   'Ho4 Lu2 Al18 Si6 Os8'
_cell_volume   619.38037216
_cell_formula_units_Z   2
loop_
 _symmetry_equiv_pos_site_id
 _symmetry_equiv_pos_as_xyz
  1  'x, y, z'
loop_
 _atom_site_type_symbol
 _atom_site_label
 _atom_site_symmetry_multiplicity
 _atom_site_fract_x
 _atom_site_fract_y
 _atom_site_fract_z
 _atom_site_occupancy
  Ho  Ho0  1  0.609637  0.807363  0.250000  1
  Ho  Ho1  1  0.390363  0.192637  0.750000  1
  Ho  Ho2  1  0.197726  0.807363  0.250000  1
  Ho  Ho3  1  0.802274  0.192637  0.750000  1
  Lu  Lu4  1  0.194906  0.389811  0.250000  1
  Lu  Lu5  1  0.805094  0.610189  0.750000  1
  Al  Al6  1  0.165047  0.330092  0.578099  1
  Al  Al7  1  0.834953  0.669908  0.421901  1
  Al  Al8  1  0.670682  0.834538  0.577299  1
  Al  Al9  1  0.834953  0.669908  0.078099  1
  Al  Al10  1  0.329318  0.165462  0.422701  1
  Al  Al11  1  0.165047  0.330092  0.921901  1
  Al  Al12  1  0.163856  0.834538  0.577299  1
  Al  Al13  1  0.329318  0.165462  0.077299  1
  Al  Al14  1  0.836144  0.165462  0.422701  1
  Al  Al15  1  0.670682  0.834538  0.922701  1
  Al  Al16  1  0.836144  0.165462  0.077299  1
  Al  Al17  1  0.163856  0.834538  0.922701  1
  Al  Al18  1  0.873077  0.432887  0.250000  1
  Al  Al19  1  0.126923  0.567113  0.750000  1
  Al  Al20  1  0.559809  0.432887  0.250000  1
  Al  Al21  1  0.440191  0.567113  0.750000  1
  Al  Al22  1  0.000398  0.000797  0.250000  1
  Al  Al23  1  0.999602  0.999203  0.750000  1
  Si  Si24  1  0.331774  0.663549  0.040001  1
  Si  Si25  1  0.668226  0.336451  0.959999  1
  Si  Si26  1  0.668226  0.336451  0.540001  1
  Si  Si27  1  0.331774  0.663549  0.459999  1
  Si  Si28  1  0.563477  0.126956  0.250000  1
  Si  Si29  1  0.436523  0.873044  0.750000  1
  Os  Os30  1  0.500000  0.000000  0.000000  1
  Os  Os31  1  0.000000  0.500000  0.000000  1
  Os  Os32  1  0.500000  0.000000  0.500000  1
  Os  Os33  1  0.500000  0.500000  0.000000  1
  Os  Os34  1  0.000000  0.500000  0.500000  1
  Os  Os35  1  0.500000  0.500000  0.500000  1
  Os  Os36  1  0.000000  0.000000  0.000000  1
  Os  Os37  1  0.000000  0.000000  0.500000  1
