# generated using pymatgen
data_Ca4La9Yb7Sn16
_symmetry_space_group_name_H-M   'P 1'
_cell_length_a   8.12607261
_cell_length_b   8.52866222
_cell_length_c   16.18281000
_cell_angle_alpha   90.01520961
_cell_angle_beta   90.04587993
_cell_angle_gamma   90.02658448
_symmetry_Int_Tables_number   1
_chemical_formula_structural   Ca4La9Yb7Sn16
_chemical_formula_sum   'Ca4 La9 Yb7 Sn16'
_cell_volume   1121.54149564
_cell_formula_units_Z   1
loop_
 _symmetry_equiv_pos_site_id
 _symmetry_equiv_pos_as_xyz
  1  'x, y, z'
loop_
 _atom_site_type_symbol
 _atom_site_label
 _atom_site_symmetry_multiplicity
 _atom_site_fract_x
 _atom_site_fract_y
 _atom_site_fract_z
 _atom_site_occupancy
  Ca  Ca0  1  0.162733  0.499933  0.748631  1
  Ca  Ca1  1  0.660733  0.999129  0.748319  1
  Ca  Ca2  1  0.838049  0.497565  0.250407  1
  Ca  Ca3  1  0.337844  0.002914  0.250253  1
  La  La4  1  0.834421  0.674023  0.875369  1
  La  La5  1  0.491841  0.314760  0.905171  1
  La  La6  1  0.993072  0.183908  0.594900  1
  La  La7  1  0.507253  0.684229  0.403987  1
  La  La8  1  0.008792  0.816594  0.097654  1
  La  La9  1  0.506567  0.683612  0.096933  1
  La  La10  1  0.007010  0.815970  0.403758  1
  La  La11  1  0.491785  0.315667  0.594020  1
  La  La12  1  0.993777  0.182339  0.904185  1
  Yb  Yb13  1  0.332842  0.828767  0.876682  1
  Yb  Yb14  1  0.832895  0.670900  0.622916  1
  Yb  Yb15  1  0.667025  0.171444  0.375888  1
  Yb  Yb16  1  0.168767  0.328447  0.125072  1
  Yb  Yb17  1  0.665669  0.171260  0.125253  1
  Yb  Yb18  1  0.167352  0.328960  0.375803  1
  Yb  Yb19  1  0.332812  0.828532  0.623200  1
  Sn  Sn20  1  0.329703  0.037143  0.038386  1
  Sn  Sn21  1  0.832175  0.463972  0.461453  1
  Sn  Sn22  1  0.668043  0.963912  0.538156  1
  Sn  Sn23  1  0.170552  0.534592  0.962182  1
  Sn  Sn24  1  0.666612  0.965868  0.962572  1
  Sn  Sn25  1  0.167016  0.535800  0.538258  1
  Sn  Sn26  1  0.331434  0.036357  0.461786  1
  Sn  Sn27  1  0.831988  0.461726  0.039894  1
  Sn  Sn28  1  0.531605  0.604167  0.749585  1
  Sn  Sn29  1  0.034436  0.897046  0.749560  1
  Sn  Sn30  1  0.467437  0.395520  0.250457  1
  Sn  Sn31  1  0.967558  0.104840  0.250146  1
  Sn  Sn32  1  0.288789  0.138210  0.749653  1
  Sn  Sn33  1  0.786614  0.361185  0.749759  1
  Sn  Sn34  1  0.711877  0.862599  0.249789  1
  Sn  Sn35  1  0.212921  0.638111  0.249962  1
