# generated using pymatgen
data_Er3Cu6Ni7B2
_symmetry_space_group_name_H-M   'P 1'
_cell_length_a   4.99765649
_cell_length_b   4.99364041
_cell_length_c   10.94253500
_cell_angle_alpha   90.00000000
_cell_angle_beta   90.00000000
_cell_angle_gamma   119.97341170
_symmetry_Int_Tables_number   1
_chemical_formula_structural   Er3Cu6Ni7B2
_chemical_formula_sum   'Er3 Cu6 Ni7 B2'
_cell_volume   236.56393650
_cell_formula_units_Z   1
loop_
 _symmetry_equiv_pos_site_id
 _symmetry_equiv_pos_as_xyz
  1  'x, y, z'
loop_
 _atom_site_type_symbol
 _atom_site_label
 _atom_site_symmetry_multiplicity
 _atom_site_fract_x
 _atom_site_fract_y
 _atom_site_fract_z
 _atom_site_occupancy
  Er  Er0  1  0.000000  0.000000  0.000000  1
  Er  Er1  1  0.000000  0.000000  0.679514  1
  Er  Er2  1  0.000000  0.000000  0.320486  1
  Cu  Cu3  1  0.500000  0.500000  0.500000  1
  Cu  Cu4  1  0.500000  0.000000  0.500000  1
  Cu  Cu5  1  0.670725  0.335362  0.684270  1
  Cu  Cu6  1  0.329275  0.664638  0.684270  1
  Cu  Cu7  1  0.329275  0.664638  0.315730  1
  Cu  Cu8  1  0.670725  0.335362  0.315730  1
  Ni  Ni9  1  0.000000  0.500000  0.500000  1
  Ni  Ni10  1  0.500000  0.500000  0.870121  1
  Ni  Ni11  1  0.500000  0.000000  0.870121  1
  Ni  Ni12  1  0.000000  0.500000  0.870558  1
  Ni  Ni13  1  0.500000  0.500000  0.129879  1
  Ni  Ni14  1  0.500000  0.000000  0.129879  1
  Ni  Ni15  1  0.000000  0.500000  0.129442  1
  B  B16  1  0.665945  0.332973  0.000000  1
  B  B17  1  0.334055  0.667027  0.000000  1
