# generated using pymatgen
data_Tm3In3GaPt2
_symmetry_space_group_name_H-M   'P 1'
_cell_length_a   7.63666700
_cell_length_b   7.63666571
_cell_length_c   3.87540900
_cell_angle_alpha   90.00000000
_cell_angle_beta   90.00000000
_cell_angle_gamma   119.99999259
_symmetry_Int_Tables_number   1
_chemical_formula_structural   Tm3In3GaPt2
_chemical_formula_sum   'Tm3 In3 Ga1 Pt2'
_cell_volume   195.72929923
_cell_formula_units_Z   1
loop_
 _symmetry_equiv_pos_site_id
 _symmetry_equiv_pos_as_xyz
  1  'x, y, z'
loop_
 _atom_site_type_symbol
 _atom_site_label
 _atom_site_symmetry_multiplicity
 _atom_site_fract_x
 _atom_site_fract_y
 _atom_site_fract_z
 _atom_site_occupancy
  Tm  Tm0  1  0.392454  0.407537  0.500000  1
  Tm  Tm1  1  0.592463  0.984917  0.500000  1
  Tm  Tm2  1  0.015083  0.607546  0.500000  1
  In  In3  1  0.999446  0.261521  0.000000  1
  In  In4  1  0.738479  0.737926  0.000000  1
  In  In5  1  0.262074  0.000554  0.000000  1
  Ga  Ga6  1  0.666667  0.333333  0.000000  1
  Pt  Pt7  1  0.000000  0.000000  0.500000  1
  Pt  Pt8  1  0.333333  0.666667  0.000000  1
