# generated using pymatgen
data_La4Yb3Ag10
_symmetry_space_group_name_H-M   'P 1'
_cell_length_a   9.06474643
_cell_length_b   9.06474715
_cell_length_c   10.75712500
_cell_angle_alpha   90.00000000
_cell_angle_beta   90.00000000
_cell_angle_gamma   106.90426730
_symmetry_Int_Tables_number   1
_chemical_formula_structural   La4Yb3Ag10
_chemical_formula_sum   'La8 Yb6 Ag20'
_cell_volume   845.71702452
_cell_formula_units_Z   2
loop_
 _symmetry_equiv_pos_site_id
 _symmetry_equiv_pos_as_xyz
  1  'x, y, z'
loop_
 _atom_site_type_symbol
 _atom_site_label
 _atom_site_symmetry_multiplicity
 _atom_site_fract_x
 _atom_site_fract_y
 _atom_site_fract_z
 _atom_site_occupancy
  La  La0  1  0.703335  0.296665  0.000000  1
  La  La1  1  0.296665  0.703335  0.000000  1
  La  La2  1  0.796665  0.203335  0.500000  1
  La  La3  1  0.203335  0.796665  0.500000  1
  La  La4  1  0.305488  0.305488  0.201347  1
  La  La5  1  0.694512  0.694512  0.798653  1
  La  La6  1  0.194512  0.194512  0.701347  1
  La  La7  1  0.805488  0.805488  0.298653  1
  Yb  Yb8  1  0.014996  0.514996  0.250000  1
  Yb  Yb9  1  0.985004  0.485004  0.750000  1
  Yb  Yb10  1  0.485004  0.985004  0.750000  1
  Yb  Yb11  1  0.514996  0.014996  0.250000  1
  Yb  Yb12  1  0.000000  0.000000  0.000000  1
  Yb  Yb13  1  0.500000  0.500000  0.500000  1
  Ag  Ag14  1  0.097953  0.097953  0.405033  1
  Ag  Ag15  1  0.902047  0.902047  0.594967  1
  Ag  Ag16  1  0.402047  0.402047  0.905033  1
  Ag  Ag17  1  0.597953  0.597953  0.094967  1
  Ag  Ag18  1  0.887947  0.165725  0.208561  1
  Ag  Ag19  1  0.112053  0.834275  0.791439  1
  Ag  Ag20  1  0.612053  0.334275  0.708561  1
  Ag  Ag21  1  0.665725  0.387947  0.291439  1
  Ag  Ag22  1  0.387947  0.665725  0.291439  1
  Ag  Ag23  1  0.334275  0.612053  0.708561  1
  Ag  Ag24  1  0.834275  0.112053  0.791439  1
  Ag  Ag25  1  0.165725  0.887947  0.208561  1
  Ag  Ag26  1  0.926923  0.654784  0.017577  1
  Ag  Ag27  1  0.073077  0.345216  0.982423  1
  Ag  Ag28  1  0.573077  0.845216  0.517577  1
  Ag  Ag29  1  0.154784  0.426923  0.482423  1
  Ag  Ag30  1  0.426923  0.154784  0.482423  1
  Ag  Ag31  1  0.845216  0.573077  0.517577  1
  Ag  Ag32  1  0.345216  0.073077  0.982423  1
  Ag  Ag33  1  0.654784  0.926923  0.017577  1
