# generated using pymatgen
data_La9Pr(Hg2Ir)4
_symmetry_space_group_name_H-M   'P 1'
_cell_length_a   3.84562700
_cell_length_b   8.33757272
_cell_length_c   18.85694800
_cell_angle_alpha   89.89991618
_cell_angle_beta   90.00000000
_cell_angle_gamma   90.00000000
_symmetry_Int_Tables_number   1
_chemical_formula_structural   La9Pr(Hg2Ir)4
_chemical_formula_sum   'La9 Pr1 Hg8 Ir4'
_cell_volume   604.61307401
_cell_formula_units_Z   1
loop_
 _symmetry_equiv_pos_site_id
 _symmetry_equiv_pos_as_xyz
  1  'x, y, z'
loop_
 _atom_site_type_symbol
 _atom_site_label
 _atom_site_symmetry_multiplicity
 _atom_site_fract_x
 _atom_site_fract_y
 _atom_site_fract_z
 _atom_site_occupancy
  La  La0  1  0.000000  0.109371  0.409227  1
  La  La1  1  0.000000  0.890629  0.590773  1
  La  La2  1  0.000000  0.389466  0.908901  1
  La  La3  1  0.000000  0.610534  0.091099  1
  La  La4  1  0.000000  0.239619  0.218765  1
  La  La5  1  0.000000  0.760381  0.781235  1
  La  La6  1  0.000000  0.260769  0.718278  1
  La  La7  1  0.000000  0.739231  0.281722  1
  La  La8  1  0.000000  0.000000  0.000000  1
  Pr  Pr9  1  0.000000  0.500000  0.500000  1
  Hg  Hg10  1  0.500000  0.425101  0.353500  1
  Hg  Hg11  1  0.500000  0.574899  0.646500  1
  Hg  Hg12  1  0.500000  0.075244  0.852486  1
  Hg  Hg13  1  0.500000  0.924756  0.147514  1
  Hg  Hg14  1  0.500000  0.289124  0.064163  1
  Hg  Hg15  1  0.500000  0.710876  0.935837  1
  Hg  Hg16  1  0.500000  0.213558  0.563370  1
  Hg  Hg17  1  0.500000  0.786442  0.436630  1
  Ir  Ir18  1  0.500000  0.021052  0.303234  1
  Ir  Ir19  1  0.500000  0.978948  0.696766  1
  Ir  Ir20  1  0.500000  0.479384  0.802894  1
  Ir  Ir21  1  0.500000  0.520616  0.197106  1
