# generated using pymatgen
data_Y7Ho3(In2Pd)4
_symmetry_space_group_name_H-M   'P 1'
_cell_length_a   3.64136400
_cell_length_b   8.16539201
_cell_length_c   18.27921503
_cell_angle_alpha   90.00631520
_cell_angle_beta   90.00000000
_cell_angle_gamma   90.00000000
_symmetry_Int_Tables_number   1
_chemical_formula_structural   Y7Ho3(In2Pd)4
_chemical_formula_sum   'Y7 Ho3 In8 Pd4'
_cell_volume   543.49890441
_cell_formula_units_Z   1
loop_
 _symmetry_equiv_pos_site_id
 _symmetry_equiv_pos_as_xyz
  1  'x, y, z'
loop_
 _atom_site_type_symbol
 _atom_site_label
 _atom_site_symmetry_multiplicity
 _atom_site_fract_x
 _atom_site_fract_y
 _atom_site_fract_z
 _atom_site_occupancy
  Y  Y0  1  0.000000  0.499882  0.500128  1
  Y  Y1  1  0.000000  0.000715  0.999681  1
  Y  Y2  1  0.000000  0.738494  0.282024  1
  Y  Y3  1  0.000000  0.261234  0.717958  1
  Y  Y4  1  0.000000  0.761202  0.781470  1
  Y  Y5  1  0.000000  0.239117  0.218778  1
  Y  Y6  1  0.000000  0.618606  0.083063  1
  Ho  Ho7  1  0.000000  0.381972  0.915653  1
  Ho  Ho8  1  0.000000  0.882315  0.583823  1
  Ho  Ho9  1  0.000000  0.117562  0.416381  1
  In  In10  1  0.500000  0.706505  0.932661  1
  In  In11  1  0.500000  0.293092  0.067153  1
  In  In12  1  0.500000  0.793431  0.433571  1
  In  In13  1  0.500000  0.206132  0.566544  1
  In  In14  1  0.500000  0.581096  0.650424  1
  In  In15  1  0.500000  0.418582  0.349652  1
  In  In16  1  0.500000  0.919930  0.151019  1
  In  In17  1  0.500000  0.080651  0.848944  1
  Pd  Pd18  1  0.500000  0.522947  0.196326  1
  Pd  Pd19  1  0.500000  0.476421  0.804568  1
  Pd  Pd20  1  0.500000  0.976574  0.694616  1
  Pd  Pd21  1  0.500000  0.023542  0.305563  1
