# generated using pymatgen
data_Er4MnAl18CoPd4
_symmetry_space_group_name_H-M   'P 1'
_cell_length_a   7.56040256
_cell_length_b   7.56040232
_cell_length_c   9.40124151
_cell_angle_alpha   89.88013105
_cell_angle_beta   89.88013695
_cell_angle_gamma   119.81229916
_symmetry_Int_Tables_number   1
_chemical_formula_structural   Er4MnAl18CoPd4
_chemical_formula_sum   'Er4 Mn1 Al18 Co1 Pd4'
_cell_volume   466.25146421
_cell_formula_units_Z   1
loop_
 _symmetry_equiv_pos_site_id
 _symmetry_equiv_pos_as_xyz
  1  'x, y, z'
loop_
 _atom_site_type_symbol
 _atom_site_label
 _atom_site_symmetry_multiplicity
 _atom_site_fract_x
 _atom_site_fract_y
 _atom_site_fract_z
 _atom_site_occupancy
  Er  Er0  1  0.993614  0.664367  0.249319  1
  Er  Er1  1  0.006386  0.335633  0.750681  1
  Er  Er2  1  0.664367  0.993614  0.249319  1
  Er  Er3  1  0.335633  0.006386  0.750681  1
  Mn  Mn4  1  0.000000  0.000000  0.000000  1
  Al  Al5  1  0.111799  0.111799  0.249824  1
  Al  Al6  1  0.888201  0.888201  0.750176  1
  Al  Al7  1  0.999202  0.322474  0.074867  1
  Al  Al8  1  0.000798  0.677526  0.925133  1
  Al  Al9  1  0.000689  0.676227  0.575529  1
  Al  Al10  1  0.323773  0.999311  0.424471  1
  Al  Al11  1  0.999311  0.323773  0.424471  1
  Al  Al12  1  0.676227  0.000689  0.575529  1
  Al  Al13  1  0.677526  0.000798  0.925133  1
  Al  Al14  1  0.322474  0.999202  0.074867  1
  Al  Al15  1  0.324182  0.324182  0.554564  1
  Al  Al16  1  0.675818  0.675818  0.445436  1
  Al  Al17  1  0.676468  0.676468  0.054612  1
  Al  Al18  1  0.323532  0.323532  0.945388  1
  Al  Al19  1  0.339343  0.543081  0.250086  1
  Al  Al20  1  0.660657  0.456919  0.749914  1
  Al  Al21  1  0.543081  0.339343  0.250086  1
  Al  Al22  1  0.456919  0.660657  0.749914  1
  Co  Co23  1  0.000000  0.000000  0.500000  1
  Pd  Pd24  1  0.672690  0.327310  0.000000  1
  Pd  Pd25  1  0.327310  0.672690  0.000000  1
  Pd  Pd26  1  0.327586  0.672414  0.500000  1
  Pd  Pd27  1  0.672414  0.327586  0.500000  1
