# generated using pymatgen
data_ZrSc9(As2P)2
_symmetry_space_group_name_H-M   'P 1'
_cell_length_a   7.17041000
_cell_length_b   8.07179756
_cell_length_c   10.72346276
_cell_angle_alpha   90.04292674
_cell_angle_beta   90.00000000
_cell_angle_gamma   90.00000000
_symmetry_Int_Tables_number   1
_chemical_formula_structural   ZrSc9(As2P)2
_chemical_formula_sum   'Zr2 Sc18 As8 P4'
_cell_volume   620.65345376
_cell_formula_units_Z   2
loop_
 _symmetry_equiv_pos_site_id
 _symmetry_equiv_pos_as_xyz
  1  'x, y, z'
loop_
 _atom_site_type_symbol
 _atom_site_label
 _atom_site_symmetry_multiplicity
 _atom_site_fract_x
 _atom_site_fract_y
 _atom_site_fract_z
 _atom_site_occupancy
  Zr  Zr0  1  0.811811  0.949729  0.067416  1
  Zr  Zr1  1  0.311811  0.050271  0.432584  1
  Sc  Sc2  1  0.187030  0.451495  0.931062  1
  Sc  Sc3  1  0.687030  0.548505  0.568938  1
  Sc  Sc4  1  0.184921  0.049654  0.931839  1
  Sc  Sc5  1  0.684921  0.950346  0.568161  1
  Sc  Sc6  1  0.812427  0.551543  0.069338  1
  Sc  Sc7  1  0.312427  0.448457  0.430662  1
  Sc  Sc8  1  0.160018  0.752225  0.215971  1
  Sc  Sc9  1  0.660018  0.247775  0.284029  1
  Sc  Sc10  1  0.838356  0.249009  0.784143  1
  Sc  Sc11  1  0.338356  0.750991  0.715857  1
  Sc  Sc12  1  0.466924  0.750114  0.002625  1
  Sc  Sc13  1  0.966924  0.249886  0.497375  1
  Sc  Sc14  1  0.535284  0.249357  0.998562  1
  Sc  Sc15  1  0.035284  0.750643  0.501438  1
  Sc  Sc16  1  0.641854  0.751527  0.295639  1
  Sc  Sc17  1  0.141854  0.248473  0.204361  1
  Sc  Sc18  1  0.358976  0.249247  0.703940  1
  Sc  Sc19  1  0.858976  0.750753  0.796060  1
  As  As20  1  0.933578  0.509310  0.327477  1
  As  As21  1  0.433578  0.490690  0.172523  1
  As  As22  1  0.068514  0.010429  0.670826  1
  As  As23  1  0.568514  0.989571  0.829174  1
  As  As24  1  0.065363  0.490738  0.672617  1
  As  As25  1  0.565363  0.509262  0.827383  1
  As  As26  1  0.934207  0.990230  0.326193  1
  As  As27  1  0.434207  0.009770  0.173807  1
  P  P28  1  0.421482  0.747014  0.484996  1
  P  P29  1  0.921482  0.252986  0.015004  1
  P  P30  1  0.579256  0.250165  0.515911  1
  P  P31  1  0.079256  0.749835  0.984089  1
