# generated using pymatgen
data_MgFe3AgAu3O8
_symmetry_space_group_name_H-M   'P 1'
_cell_length_a   5.35518668
_cell_length_b   6.17385280
_cell_length_c   7.14539563
_cell_angle_alpha   64.40545381
_cell_angle_beta   75.47718324
_cell_angle_gamma   90.01868138
_symmetry_Int_Tables_number   1
_chemical_formula_structural   MgFe3AgAu3O8
_chemical_formula_sum   'Mg1 Fe3 Ag1 Au3 O8'
_cell_volume   204.64914743
_cell_formula_units_Z   1
loop_
 _symmetry_equiv_pos_site_id
 _symmetry_equiv_pos_as_xyz
  1  'x, y, z'
loop_
 _atom_site_type_symbol
 _atom_site_label
 _atom_site_symmetry_multiplicity
 _atom_site_fract_x
 _atom_site_fract_y
 _atom_site_fract_z
 _atom_site_occupancy
  Mg  Mg0  1  0.501560  0.750050  0.999839  1
  Fe  Fe1  1  0.999966  0.502454  0.999780  1
  Fe  Fe2  1  0.497394  0.249775  0.000435  1
  Fe  Fe3  1  0.999961  0.997779  0.999809  1
  Ag  Ag4  1  0.001106  0.999462  0.501236  1
  Au  Au5  1  0.997947  0.500522  0.499028  1
  Au  Au6  1  0.500118  0.750667  0.499921  1
  Au  Au7  1  0.500100  0.249335  0.499939  1
  O  O8  1  0.896692  0.830387  0.839186  1
  O  O9  1  0.887548  0.334571  0.830929  1
  O  O10  1  0.387082  0.579417  0.831307  1
  O  O11  1  0.387086  0.089228  0.831303  1
  O  O12  1  0.112477  0.169530  0.161008  1
  O  O13  1  0.104898  0.665362  0.169265  1
  O  O14  1  0.613005  0.923020  0.168495  1
  O  O15  1  0.613062  0.408439  0.168517  1
