# generated using pymatgen
data_Dy4Tc3B16Rh
_symmetry_space_group_name_H-M   'P 1'
_cell_length_a   3.58777200
_cell_length_b   5.97115520
_cell_length_c   11.55591107
_cell_angle_alpha   90.15124805
_cell_angle_beta   90.00000000
_cell_angle_gamma   90.00000000
_symmetry_Int_Tables_number   1
_chemical_formula_structural   Dy4Tc3B16Rh
_chemical_formula_sum   'Dy4 Tc3 B16 Rh1'
_cell_volume   247.56307776
_cell_formula_units_Z   1
loop_
 _symmetry_equiv_pos_site_id
 _symmetry_equiv_pos_as_xyz
  1  'x, y, z'
loop_
 _atom_site_type_symbol
 _atom_site_label
 _atom_site_symmetry_multiplicity
 _atom_site_fract_x
 _atom_site_fract_y
 _atom_site_fract_z
 _atom_site_occupancy
  Dy  Dy0  1  0.500000  0.371535  0.147740  1
  Dy  Dy1  1  0.500000  0.628527  0.849356  1
  Dy  Dy2  1  0.500000  0.128145  0.651424  1
  Dy  Dy3  1  0.500000  0.872551  0.350969  1
  Tc  Tc4  1  0.500000  0.366590  0.411657  1
  Tc  Tc5  1  0.500000  0.632034  0.586341  1
  Tc  Tc6  1  0.500000  0.139147  0.910018  1
  B  B7  1  0.000000  0.114128  0.046726  1
  B  B8  1  0.000000  0.887427  0.952191  1
  B  B9  1  0.000000  0.386982  0.546836  1
  B  B10  1  0.000000  0.612678  0.452811  1
  B  B11  1  0.000000  0.135395  0.468811  1
  B  B12  1  0.000000  0.864404  0.531164  1
  B  B13  1  0.000000  0.365690  0.969338  1
  B  B14  1  0.000000  0.635853  0.030798  1
  B  B15  1  0.000000  0.026441  0.192318  1
  B  B16  1  0.000000  0.974813  0.807899  1
  B  B17  1  0.000000  0.477922  0.692104  1
  B  B18  1  0.000000  0.524090  0.307403  1
  B  B19  1  0.000000  0.211650  0.314630  1
  B  B20  1  0.000000  0.786833  0.685264  1
  B  B21  1  0.000000  0.287736  0.814554  1
  B  B22  1  0.000000  0.710039  0.185551  1
  Rh  Rh23  1  0.500000  0.859389  0.094096  1
