# generated using pymatgen
data_SrCd4SnAu3
_symmetry_space_group_name_H-M   'P 1'
_cell_length_a   4.55024400
_cell_length_b   13.39432200
_cell_length_c   13.98108100
_cell_angle_alpha   90.00000000
_cell_angle_beta   90.00000000
_cell_angle_gamma   90.00000000
_symmetry_Int_Tables_number   1
_chemical_formula_structural   SrCd4SnAu3
_chemical_formula_sum   'Sr4 Cd16 Sn4 Au12'
_cell_volume   852.11100191
_cell_formula_units_Z   4
loop_
 _symmetry_equiv_pos_site_id
 _symmetry_equiv_pos_as_xyz
  1  'x, y, z'
loop_
 _atom_site_type_symbol
 _atom_site_label
 _atom_site_symmetry_multiplicity
 _atom_site_fract_x
 _atom_site_fract_y
 _atom_site_fract_z
 _atom_site_occupancy
  Sr  Sr0  1  0.250000  0.892119  0.296997  1
  Sr  Sr1  1  0.750000  0.107881  0.703003  1
  Sr  Sr2  1  0.750000  0.392119  0.203003  1
  Sr  Sr3  1  0.250000  0.607881  0.796997  1
  Cd  Cd4  1  0.250000  0.607247  0.321793  1
  Cd  Cd5  1  0.750000  0.392753  0.678207  1
  Cd  Cd6  1  0.750000  0.107247  0.178207  1
  Cd  Cd7  1  0.250000  0.892753  0.821793  1
  Cd  Cd8  1  0.250000  0.012357  0.072531  1
  Cd  Cd9  1  0.750000  0.987643  0.927469  1
  Cd  Cd10  1  0.750000  0.512357  0.427469  1
  Cd  Cd11  1  0.250000  0.487643  0.572531  1
  Cd  Cd12  1  0.250000  0.780115  0.036694  1
  Cd  Cd13  1  0.750000  0.219885  0.963306  1
  Cd  Cd14  1  0.750000  0.280115  0.463306  1
  Cd  Cd15  1  0.250000  0.719885  0.536694  1
  Cd  Cd16  1  0.250000  0.196095  0.301748  1
  Cd  Cd17  1  0.750000  0.803905  0.698252  1
  Cd  Cd18  1  0.750000  0.696095  0.198252  1
  Cd  Cd19  1  0.250000  0.303905  0.801748  1
  Sn  Sn20  1  0.250000  0.407557  0.001511  1
  Sn  Sn21  1  0.750000  0.592443  0.998489  1
  Sn  Sn22  1  0.750000  0.907557  0.498489  1
  Sn  Sn23  1  0.250000  0.092443  0.501511  1
  Au  Au24  1  0.250000  0.578597  0.121293  1
  Au  Au25  1  0.750000  0.421403  0.878707  1
  Au  Au26  1  0.750000  0.078597  0.378707  1
  Au  Au27  1  0.250000  0.921403  0.621293  1
  Au  Au28  1  0.250000  0.227257  0.101048  1
  Au  Au29  1  0.750000  0.772743  0.898952  1
  Au  Au30  1  0.750000  0.727257  0.398952  1
  Au  Au31  1  0.250000  0.272743  0.601048  1
  Au  Au32  1  0.250000  0.390078  0.381638  1
  Au  Au33  1  0.750000  0.609922  0.618362  1
  Au  Au34  1  0.750000  0.890078  0.118362  1
  Au  Au35  1  0.250000  0.109922  0.881638  1
