# generated using pymatgen
data_TbDyNiB8Rh
_symmetry_space_group_name_H-M   'P 1'
_cell_length_a   6.92110286
_cell_length_b   6.92110379
_cell_length_c   6.92110300
_cell_angle_alpha   111.19894557
_cell_angle_beta   113.37190242
_cell_angle_gamma   103.98659281
_symmetry_Int_Tables_number   1
_chemical_formula_structural   TbDyNiB8Rh
_chemical_formula_sum   'Tb2 Dy2 Ni2 B16 Rh2'
_cell_volume   253.38118405
_cell_formula_units_Z   2
loop_
 _symmetry_equiv_pos_site_id
 _symmetry_equiv_pos_as_xyz
  1  'x, y, z'
loop_
 _atom_site_type_symbol
 _atom_site_label
 _atom_site_symmetry_multiplicity
 _atom_site_fract_x
 _atom_site_fract_y
 _atom_site_fract_z
 _atom_site_occupancy
  Tb  Tb0  1  0.791130  0.791130  0.000000  1
  Tb  Tb1  1  0.208870  0.208870  0.000000  1
  Dy  Dy2  1  0.751186  0.251186  0.500000  1
  Dy  Dy3  1  0.248814  0.748814  0.500000  1
  Ni  Ni4  1  0.500000  0.744648  0.244648  1
  Ni  Ni5  1  0.500000  0.255352  0.755352  1
  B  B6  1  0.273333  0.108693  0.382027  1
  B  B7  1  0.726667  0.891307  0.617973  1
  B  B8  1  0.273333  0.891307  0.164640  1
  B  B9  1  0.726667  0.108693  0.835360  1
  B  B10  1  0.111010  0.730291  0.841302  1
  B  B11  1  0.888990  0.269709  0.158698  1
  B  B12  1  0.111010  0.269709  0.380719  1
  B  B13  1  0.888990  0.730291  0.619281  1
  B  B14  1  0.114516  0.109012  0.527598  1
  B  B15  1  0.581413  0.586916  0.472402  1
  B  B16  1  0.114516  0.586916  0.005504  1
  B  B17  1  0.581413  0.109012  0.994496  1
  B  B18  1  0.885484  0.890988  0.472402  1
  B  B19  1  0.418587  0.413084  0.527598  1
  B  B20  1  0.885484  0.413084  0.994496  1
  B  B21  1  0.418587  0.890988  0.005504  1
  Rh  Rh22  1  0.276307  0.500000  0.776307  1
  Rh  Rh23  1  0.723693  0.500000  0.223693  1
