# generated using pymatgen
data_TbY3CuPt3
_symmetry_space_group_name_H-M   'P 1'
_cell_length_a   4.48799400
_cell_length_b   5.63174989
_cell_length_c   7.08240647
_cell_angle_alpha   89.75414000
_cell_angle_beta   90.00000000
_cell_angle_gamma   90.00000000
_symmetry_Int_Tables_number   1
_chemical_formula_structural   TbY3CuPt3
_chemical_formula_sum   'Tb1 Y3 Cu1 Pt3'
_cell_volume   179.00801491
_cell_formula_units_Z   1
loop_
 _symmetry_equiv_pos_site_id
 _symmetry_equiv_pos_as_xyz
  1  'x, y, z'
loop_
 _atom_site_type_symbol
 _atom_site_label
 _atom_site_symmetry_multiplicity
 _atom_site_fract_x
 _atom_site_fract_y
 _atom_site_fract_z
 _atom_site_occupancy
  Tb  Tb0  1  0.000000  0.856708  0.819183  1
  Y  Y1  1  0.000000  0.641353  0.316701  1
  Y  Y2  1  0.500000  0.363575  0.686757  1
  Y  Y3  1  0.500000  0.139233  0.177088  1
  Cu  Cu4  1  0.000000  0.136916  0.463885  1
  Pt  Pt5  1  0.000000  0.341176  0.956245  1
  Pt  Pt6  1  0.500000  0.866427  0.534587  1
  Pt  Pt7  1  0.500000  0.654613  0.045554  1
