# generated using pymatgen
data_Er6Mn2Al24NiOs5
_symmetry_space_group_name_H-M   'P 1'
_cell_length_a   8.79148500
_cell_length_b   8.74332958
_cell_length_c   9.49635069
_cell_angle_alpha   90.35969889
_cell_angle_beta   90.00000000
_cell_angle_gamma   120.18235649
_symmetry_Int_Tables_number   1
_chemical_formula_structural   Er6Mn2Al24NiOs5
_chemical_formula_sum   'Er6 Mn2 Al24 Ni1 Os5'
_cell_volume   630.97774191
_cell_formula_units_Z   1
loop_
 _symmetry_equiv_pos_site_id
 _symmetry_equiv_pos_as_xyz
  1  'x, y, z'
loop_
 _atom_site_type_symbol
 _atom_site_label
 _atom_site_symmetry_multiplicity
 _atom_site_fract_x
 _atom_site_fract_y
 _atom_site_fract_z
 _atom_site_occupancy
  Er  Er0  1  0.195193  0.390387  0.248337  1
  Er  Er1  1  0.804807  0.609613  0.751663  1
  Er  Er2  1  0.612942  0.802439  0.251573  1
  Er  Er3  1  0.387058  0.197561  0.748427  1
  Er  Er4  1  0.189496  0.802439  0.251573  1
  Er  Er5  1  0.810504  0.197561  0.748427  1
  Mn  Mn6  1  0.000000  0.000000  0.000000  1
  Mn  Mn7  1  0.000000  0.000000  0.500000  1
  Al  Al8  1  0.335674  0.671350  0.018478  1
  Al  Al9  1  0.664326  0.328650  0.981522  1
  Al  Al10  1  0.666449  0.332896  0.517266  1
  Al  Al11  1  0.333551  0.667104  0.482734  1
  Al  Al12  1  0.160375  0.320748  0.574059  1
  Al  Al13  1  0.839625  0.679252  0.425941  1
  Al  Al14  1  0.679883  0.841226  0.576821  1
  Al  Al15  1  0.839430  0.678861  0.074748  1
  Al  Al16  1  0.320117  0.158774  0.423179  1
  Al  Al17  1  0.160570  0.321139  0.925252  1
  Al  Al18  1  0.161343  0.841226  0.576821  1
  Al  Al19  1  0.319548  0.159551  0.076378  1
  Al  Al20  1  0.838657  0.158774  0.423179  1
  Al  Al21  1  0.680452  0.840449  0.923622  1
  Al  Al22  1  0.840004  0.159551  0.076378  1
  Al  Al23  1  0.159996  0.840449  0.923622  1
  Al  Al24  1  0.559505  0.119010  0.245866  1
  Al  Al25  1  0.440495  0.880990  0.754134  1
  Al  Al26  1  0.873811  0.434973  0.249024  1
  Al  Al27  1  0.126189  0.565027  0.750976  1
  Al  Al28  1  0.561162  0.434973  0.249024  1
  Al  Al29  1  0.438838  0.565027  0.750976  1
  Al  Al30  1  0.999881  0.999762  0.250165  1
  Al  Al31  1  0.000119  0.000238  0.749835  1
  Ni  Ni32  1  0.500000  0.000000  0.000000  1
  Os  Os33  1  0.000000  0.500000  0.000000  1
  Os  Os34  1  0.500000  0.000000  0.500000  1
  Os  Os35  1  0.500000  0.500000  0.000000  1
  Os  Os36  1  0.000000  0.500000  0.500000  1
  Os  Os37  1  0.500000  0.500000  0.500000  1
