# generated using pymatgen
data_KAc(SO4)2
_symmetry_space_group_name_H-M   'P 1'
_cell_length_a   5.37444600
_cell_length_b   5.37448159
_cell_length_c   7.87797187
_cell_angle_alpha   70.04706002
_cell_angle_beta   89.99784740
_cell_angle_gamma   59.99808485
_symmetry_Int_Tables_number   1
_chemical_formula_structural   KAc(SO4)2
_chemical_formula_sum   'K1 Ac1 S2 O8'
_cell_volume   181.12129387
_cell_formula_units_Z   1
loop_
 _symmetry_equiv_pos_site_id
 _symmetry_equiv_pos_as_xyz
  1  'x, y, z'
loop_
 _atom_site_type_symbol
 _atom_site_label
 _atom_site_symmetry_multiplicity
 _atom_site_fract_x
 _atom_site_fract_y
 _atom_site_fract_z
 _atom_site_occupancy
  K  K0  1  0.500124  0.999962  0.500028  1
  Ac  Ac1  1  0.999994  0.999986  0.000000  1
  S  S2  1  0.735755  0.528302  0.207591  1
  S  S3  1  0.264174  0.471645  0.792410  1
  O  O4  1  0.333954  0.332220  0.001337  1
  O  O5  1  0.909330  0.635239  0.273920  1
  O  O6  1  0.455418  0.635259  0.273895  1
  O  O7  1  0.909087  0.181735  0.273721  1
  O  O8  1  0.090804  0.818352  0.726242  1
  O  O9  1  0.090729  0.364735  0.726126  1
  O  O10  1  0.544564  0.364769  0.726074  1
  O  O11  1  0.666062  0.667805  0.998655  1
