# generated using pymatgen
data_TmNb5(B2Ru5)2
_symmetry_space_group_name_H-M   'P 1'
_cell_length_a   9.50410286
_cell_length_b   9.50410286
_cell_length_c   3.05650300
_cell_angle_alpha   90.00000000
_cell_angle_beta   90.00000000
_cell_angle_gamma   90.25131761
_symmetry_Int_Tables_number   1
_chemical_formula_structural   TmNb5(B2Ru5)2
_chemical_formula_sum   'Tm1 Nb5 B4 Ru10'
_cell_volume   276.08505878
_cell_formula_units_Z   1
loop_
 _symmetry_equiv_pos_site_id
 _symmetry_equiv_pos_as_xyz
  1  'x, y, z'
loop_
 _atom_site_type_symbol
 _atom_site_label
 _atom_site_symmetry_multiplicity
 _atom_site_fract_x
 _atom_site_fract_y
 _atom_site_fract_z
 _atom_site_occupancy
  Tm  Tm0  1  0.824429  0.675571  0.000000  1
  Nb  Nb1  1  0.177857  0.322143  0.000000  1
  Nb  Nb2  1  0.324513  0.822957  0.000000  1
  Nb  Nb3  1  0.677043  0.175487  0.000000  1
  Nb  Nb4  1  0.500945  0.500732  0.000000  1
  Nb  Nb5  1  0.999268  0.999055  0.000000  1
  B  B6  1  0.619800  0.880200  0.000000  1
  B  B7  1  0.377716  0.122284  0.000000  1
  B  B8  1  0.122094  0.620497  0.000000  1
  B  B9  1  0.879503  0.377906  0.000000  1
  Ru  Ru10  1  0.560469  0.723575  0.500000  1
  Ru  Ru11  1  0.427064  0.282493  0.500000  1
  Ru  Ru12  1  0.080440  0.782857  0.500000  1
  Ru  Ru13  1  0.930186  0.216921  0.500000  1
  Ru  Ru14  1  0.283079  0.569814  0.500000  1
  Ru  Ru15  1  0.717143  0.419560  0.500000  1
  Ru  Ru16  1  0.217507  0.072936  0.500000  1
  Ru  Ru17  1  0.776425  0.939531  0.500000  1
  Ru  Ru18  1  0.496935  0.003065  0.500000  1
  Ru  Ru19  1  0.007584  0.492416  0.500000  1
