# generated using pymatgen
data_BaFeN2
_symmetry_space_group_name_H-M   'P 1'
_cell_length_a   6.39984283
_cell_length_b   6.39984317
_cell_length_c   7.78077300
_cell_angle_alpha   90.00000000
_cell_angle_beta   90.00000000
_cell_angle_gamma   126.21382348
_symmetry_Int_Tables_number   1
_chemical_formula_structural   BaFeN2
_chemical_formula_sum   'Ba4 Fe4 N8'
_cell_volume   257.12058874
_cell_formula_units_Z   4
loop_
 _symmetry_equiv_pos_site_id
 _symmetry_equiv_pos_as_xyz
  1  'x, y, z'
loop_
 _atom_site_type_symbol
 _atom_site_label
 _atom_site_symmetry_multiplicity
 _atom_site_fract_x
 _atom_site_fract_y
 _atom_site_fract_z
 _atom_site_occupancy
  Ba  Ba0  1  0.156163  0.843837  0.561787  1
  Ba  Ba1  1  0.843837  0.156163  0.438213  1
  Ba  Ba2  1  0.343837  0.656163  0.061787  1
  Ba  Ba3  1  0.656163  0.343837  0.938213  1
  Fe  Fe4  1  0.948462  0.051538  0.865508  1
  Fe  Fe5  1  0.551538  0.448462  0.365508  1
  Fe  Fe6  1  0.051538  0.948462  0.134492  1
  Fe  Fe7  1  0.448462  0.551538  0.634492  1
  N  N8  1  0.164937  0.335063  0.750000  1
  N  N9  1  0.335063  0.164937  0.250000  1
  N  N10  1  0.835063  0.664937  0.250000  1
  N  N11  1  0.664937  0.835063  0.750000  1
  N  N12  1  0.111589  0.888411  0.915778  1
  N  N13  1  0.611589  0.388411  0.584222  1
  N  N14  1  0.388411  0.611589  0.415778  1
  N  N15  1  0.888411  0.111589  0.084222  1
