# generated using pymatgen
data_Ba2SrCa2(SiN3)2
_symmetry_space_group_name_H-M   'P 1'
_cell_length_a   6.06132761
_cell_length_b   6.06132743
_cell_length_c   13.20557183
_cell_angle_alpha   81.99505141
_cell_angle_beta   81.99505177
_cell_angle_gamma   68.17770454
_symmetry_Int_Tables_number   1
_chemical_formula_structural   Ba2SrCa2(SiN3)2
_chemical_formula_sum   'Ba4 Sr2 Ca4 Si4 N12'
_cell_volume   443.98878714
_cell_formula_units_Z   2
loop_
 _symmetry_equiv_pos_site_id
 _symmetry_equiv_pos_as_xyz
  1  'x, y, z'
loop_
 _atom_site_type_symbol
 _atom_site_label
 _atom_site_symmetry_multiplicity
 _atom_site_fract_x
 _atom_site_fract_y
 _atom_site_fract_z
 _atom_site_occupancy
  Ba  Ba0  1  0.678105  0.202898  0.987890  1
  Ba  Ba1  1  0.797102  0.321895  0.512110  1
  Ba  Ba2  1  0.321895  0.797102  0.012110  1
  Ba  Ba3  1  0.202898  0.678105  0.487890  1
  Sr  Sr4  1  0.394938  0.605062  0.750000  1
  Sr  Sr5  1  0.605062  0.394938  0.250000  1
  Ca  Ca6  1  0.787984  0.904978  0.715300  1
  Ca  Ca7  1  0.095022  0.212016  0.784700  1
  Ca  Ca8  1  0.212016  0.095022  0.284700  1
  Ca  Ca9  1  0.904978  0.787984  0.215300  1
  Si  Si10  1  0.371020  0.073324  0.580872  1
  Si  Si11  1  0.926676  0.628980  0.919128  1
  Si  Si12  1  0.628980  0.926676  0.419128  1
  Si  Si13  1  0.073324  0.371020  0.080872  1
  N  N14  1  0.123281  0.000773  0.632978  1
  N  N15  1  0.999227  0.876719  0.867022  1
  N  N16  1  0.876719  0.999227  0.367022  1
  N  N17  1  0.000773  0.123281  0.132978  1
  N  N18  1  0.635152  0.809929  0.554829  1
  N  N19  1  0.190071  0.364848  0.945171  1
  N  N20  1  0.364848  0.190071  0.445171  1
  N  N21  1  0.809929  0.635152  0.054829  1
  N  N22  1  0.428091  0.249627  0.661870  1
  N  N23  1  0.750373  0.571909  0.838130  1
  N  N24  1  0.571909  0.750373  0.338130  1
  N  N25  1  0.249627  0.428091  0.161870  1
