# generated using pymatgen
data_Zr8V11Si16Rh
_symmetry_space_group_name_H-M   'P 1'
_cell_length_a   6.65105635
_cell_length_b   6.65105635
_cell_length_c   12.29112849
_cell_angle_alpha   89.91068490
_cell_angle_beta   90.08931510
_cell_angle_gamma   89.79807554
_symmetry_Int_Tables_number   1
_chemical_formula_structural   Zr8V11Si16Rh
_chemical_formula_sum   'Zr8 V11 Si16 Rh1'
_cell_volume   543.71242468
_cell_formula_units_Z   1
loop_
 _symmetry_equiv_pos_site_id
 _symmetry_equiv_pos_as_xyz
  1  'x, y, z'
loop_
 _atom_site_type_symbol
 _atom_site_label
 _atom_site_symmetry_multiplicity
 _atom_site_fract_x
 _atom_site_fract_y
 _atom_site_fract_z
 _atom_site_occupancy
  Zr  Zr0  1  0.002082  0.661201  0.030553  1
  Zr  Zr1  1  0.998603  0.336325  0.531068  1
  Zr  Zr2  1  0.661201  0.002082  0.969447  1
  Zr  Zr3  1  0.160740  0.497887  0.780218  1
  Zr  Zr4  1  0.839485  0.499554  0.280058  1
  Zr  Zr5  1  0.497887  0.160740  0.219782  1
  Zr  Zr6  1  0.499554  0.839485  0.719942  1
  Zr  Zr7  1  0.336325  0.998603  0.468932  1
  V  V8  1  0.332964  0.503935  0.375183  1
  V  V9  1  0.841744  0.001418  0.371477  1
  V  V10  1  0.004728  0.158880  0.127074  1
  V  V11  1  0.001418  0.841744  0.628523  1
  V  V12  1  0.658932  0.494675  0.876445  1
  V  V13  1  0.503935  0.332964  0.624817  1
  V  V14  1  0.494675  0.658932  0.123555  1
  V  V15  1  0.158880  0.004728  0.872926  1
  V  V16  1  0.833444  0.168678  0.749538  1
  V  V17  1  0.168678  0.833444  0.250462  1
  V  V18  1  0.333500  0.333500  0.000000  1
  Si  Si19  1  0.040730  0.714353  0.437452  1
  Si  Si20  1  0.960160  0.289974  0.935873  1
  Si  Si21  1  0.714353  0.040730  0.562548  1
  Si  Si22  1  0.209964  0.459591  0.185536  1
  Si  Si23  1  0.788734  0.541303  0.684283  1
  Si  Si24  1  0.459591  0.209964  0.814464  1
  Si  Si25  1  0.541303  0.788734  0.315717  1
  Si  Si26  1  0.289974  0.960160  0.064127  1
  Si  Si27  1  0.872463  0.794082  0.820108  1
  Si  Si28  1  0.127109  0.205581  0.320662  1
  Si  Si29  1  0.794082  0.872463  0.179892  1
  Si  Si30  1  0.295447  0.621923  0.569686  1
  Si  Si31  1  0.705611  0.373354  0.071202  1
  Si  Si32  1  0.621923  0.295447  0.430314  1
  Si  Si33  1  0.373354  0.705611  0.928798  1
  Si  Si34  1  0.205581  0.127109  0.679338  1
  Rh  Rh35  1  0.670847  0.670847  0.500000  1
