# generated using pymatgen
data_HoPu3Ga12Pd
_symmetry_space_group_name_H-M   'P 1'
_cell_length_a   7.44333558
_cell_length_b   7.44333603
_cell_length_c   7.44333549
_cell_angle_alpha   109.45035983
_cell_angle_beta   109.45036642
_cell_angle_gamma   109.45035814
_symmetry_Int_Tables_number   1
_chemical_formula_structural   HoPu3Ga12Pd
_chemical_formula_sum   'Ho1 Pu3 Ga12 Pd1'
_cell_volume   317.69902189
_cell_formula_units_Z   1
loop_
 _symmetry_equiv_pos_site_id
 _symmetry_equiv_pos_as_xyz
  1  'x, y, z'
loop_
 _atom_site_type_symbol
 _atom_site_label
 _atom_site_symmetry_multiplicity
 _atom_site_fract_x
 _atom_site_fract_y
 _atom_site_fract_z
 _atom_site_occupancy
  Ho  Ho0  1  0.500000  0.500000  0.500000  1
  Pu  Pu1  1  0.000000  0.000000  0.500000  1
  Pu  Pu2  1  0.000000  0.500000  0.000000  1
  Pu  Pu3  1  0.500000  0.000000  0.000000  1
  Ga  Ga4  1  0.500000  0.750590  0.249410  1
  Ga  Ga5  1  0.500000  0.249410  0.750590  1
  Ga  Ga6  1  0.249410  0.500000  0.750590  1
  Ga  Ga7  1  0.750590  0.500000  0.249410  1
  Ga  Ga8  1  0.750590  0.249410  0.500000  1
  Ga  Ga9  1  0.249410  0.750590  0.500000  1
  Ga  Ga10  1  0.996859  0.293305  0.293305  1
  Ga  Ga11  1  0.003141  0.706695  0.706695  1
  Ga  Ga12  1  0.293305  0.996859  0.293305  1
  Ga  Ga13  1  0.706695  0.003141  0.706695  1
  Ga  Ga14  1  0.293305  0.293305  0.996859  1
  Ga  Ga15  1  0.706695  0.706695  0.003141  1
  Pd  Pd16  1  0.000000  0.000000  0.000000  1
