# generated using pymatgen
data_YHo4(CoB3)2
_symmetry_space_group_name_H-M   'P 1'
_cell_length_a   5.38664450
_cell_length_b   5.38664385
_cell_length_c   8.32542142
_cell_angle_alpha   71.12491677
_cell_angle_beta   71.12492176
_cell_angle_gamma   60.00000818
_symmetry_Int_Tables_number   1
_chemical_formula_structural   YHo4(CoB3)2
_chemical_formula_sum   'Y1 Ho4 Co2 B6'
_cell_volume   194.06108204
_cell_formula_units_Z   1
loop_
 _symmetry_equiv_pos_site_id
 _symmetry_equiv_pos_as_xyz
  1  'x, y, z'
loop_
 _atom_site_type_symbol
 _atom_site_label
 _atom_site_symmetry_multiplicity
 _atom_site_fract_x
 _atom_site_fract_y
 _atom_site_fract_z
 _atom_site_occupancy
  Y  Y0  1  0.000000  0.000000  0.000000  1
  Ho  Ho1  1  0.251264  0.251264  0.246210  1
  Ho  Ho2  1  0.748736  0.748736  0.753790  1
  Ho  Ho3  1  0.416376  0.416376  0.750871  1
  Ho  Ho4  1  0.583624  0.583624  0.249129  1
  Co  Co5  1  0.119587  0.119587  0.641238  1
  Co  Co6  1  0.880413  0.880413  0.358762  1
  B  B7  1  0.168532  0.831468  0.500000  1
  B  B8  1  0.831468  0.500000  0.500000  1
  B  B9  1  0.500000  0.168532  0.500000  1
  B  B10  1  0.168532  0.500000  0.500000  1
  B  B11  1  0.500000  0.831468  0.500000  1
  B  B12  1  0.831468  0.168532  0.500000  1
