# generated using pymatgen
data_Tb4MnAl6Tc
_symmetry_space_group_name_H-M   'P 1'
_cell_length_a   5.56320200
_cell_length_b   5.56320178
_cell_length_c   8.88143700
_cell_angle_alpha   90.00000000
_cell_angle_beta   90.00000000
_cell_angle_gamma   120.00000133
_symmetry_Int_Tables_number   1
_chemical_formula_structural   Tb4MnAl6Tc
_chemical_formula_sum   'Tb4 Mn1 Al6 Tc1'
_cell_volume   238.04743533
_cell_formula_units_Z   1
loop_
 _symmetry_equiv_pos_site_id
 _symmetry_equiv_pos_as_xyz
  1  'x, y, z'
loop_
 _atom_site_type_symbol
 _atom_site_label
 _atom_site_symmetry_multiplicity
 _atom_site_fract_x
 _atom_site_fract_y
 _atom_site_fract_z
 _atom_site_occupancy
  Tb  Tb0  1  0.666666  0.333333  0.055534  1
  Tb  Tb1  1  0.666666  0.333333  0.447651  1
  Tb  Tb2  1  0.333334  0.666667  0.552350  1
  Tb  Tb3  1  0.333334  0.666667  0.944465  1
  Mn  Mn4  1  0.000000  0.000000  0.500000  1
  Al  Al5  1  0.162781  0.325562  0.249800  1
  Al  Al6  1  0.162781  0.837219  0.249800  1
  Al  Al7  1  0.674437  0.837219  0.249800  1
  Al  Al8  1  0.325562  0.162781  0.750200  1
  Al  Al9  1  0.837218  0.162781  0.750200  1
  Al  Al10  1  0.837218  0.674438  0.750200  1
  Tc  Tc11  1  0.000000  0.000000  0.000000  1
