# generated using pymatgen
data_YbTh(ZnRh)2
_symmetry_space_group_name_H-M   'P 1'
_cell_length_a   4.03037900
_cell_length_b   7.08599914
_cell_length_c   8.28122428
_cell_angle_alpha   89.23705468
_cell_angle_beta   90.00000000
_cell_angle_gamma   90.00000000
_symmetry_Int_Tables_number   1
_chemical_formula_structural   YbTh(ZnRh)2
_chemical_formula_sum   'Yb2 Th2 Zn4 Rh4'
_cell_volume   236.48468751
_cell_formula_units_Z   2
loop_
 _symmetry_equiv_pos_site_id
 _symmetry_equiv_pos_as_xyz
  1  'x, y, z'
loop_
 _atom_site_type_symbol
 _atom_site_label
 _atom_site_symmetry_multiplicity
 _atom_site_fract_x
 _atom_site_fract_y
 _atom_site_fract_z
 _atom_site_occupancy
  Yb  Yb0  1  0.750000  0.968276  0.682758  1
  Yb  Yb1  1  0.250000  0.031724  0.317242  1
  Th  Th2  1  0.250000  0.532387  0.192702  1
  Th  Th3  1  0.750000  0.467613  0.807298  1
  Zn  Zn4  1  0.250000  0.657531  0.560638  1
  Zn  Zn5  1  0.750000  0.342469  0.439362  1
  Zn  Zn6  1  0.750000  0.876438  0.063867  1
  Zn  Zn7  1  0.250000  0.123562  0.936133  1
  Rh  Rh8  1  0.250000  0.745772  0.880439  1
  Rh  Rh9  1  0.750000  0.254228  0.119561  1
  Rh  Rh10  1  0.750000  0.730123  0.365418  1
  Rh  Rh11  1  0.250000  0.269877  0.634582  1
