# generated using pymatgen
data_K8ThSb4
_symmetry_space_group_name_H-M   'P 1'
_cell_length_a   11.84836593
_cell_length_b   11.84817936
_cell_length_c   11.84827200
_cell_angle_alpha   59.99974134
_cell_angle_beta   60.00026224
_cell_angle_gamma   59.99907494
_symmetry_Int_Tables_number   1
_chemical_formula_structural   K8ThSb4
_chemical_formula_sum   'K16 Th2 Sb8'
_cell_volume   1176.10764150
_cell_formula_units_Z   2
loop_
 _symmetry_equiv_pos_site_id
 _symmetry_equiv_pos_as_xyz
  1  'x, y, z'
loop_
 _atom_site_type_symbol
 _atom_site_label
 _atom_site_symmetry_multiplicity
 _atom_site_fract_x
 _atom_site_fract_y
 _atom_site_fract_z
 _atom_site_occupancy
  K  K0  1  0.625000  0.125000  0.625000  1
  K  K1  1  0.625000  0.625000  0.125000  1
  K  K2  1  0.125000  0.625000  0.625000  1
  K  K3  1  0.625000  0.625000  0.625000  1
  K  K4  1  0.029655  0.029643  0.470351  1
  K  K5  1  0.779637  0.220354  0.220357  1
  K  K6  1  0.220359  0.779630  0.779652  1
  K  K7  1  0.779647  0.779630  0.220361  1
  K  K8  1  0.779637  0.220354  0.779652  1
  K  K9  1  0.220359  0.779630  0.220359  1
  K  K10  1  0.470363  0.029646  0.470348  1
  K  K11  1  0.470363  0.029646  0.029643  1
  K  K12  1  0.029641  0.470370  0.470348  1
  K  K13  1  0.029641  0.470370  0.029641  1
  K  K14  1  0.220345  0.220357  0.779649  1
  K  K15  1  0.470353  0.470370  0.029639  1
  Th  Th16  1  0.749999  0.750002  0.750000  1
  Th  Th17  1  0.500001  0.499998  0.500000  1
  Sb  Sb18  1  0.393978  0.818068  0.393977  1
  Sb  Sb19  1  0.856022  0.856022  0.431934  1
  Sb  Sb20  1  0.431934  0.856023  0.856022  1
  Sb  Sb21  1  0.856022  0.856022  0.856022  1
  Sb  Sb22  1  0.818066  0.393977  0.393978  1
  Sb  Sb23  1  0.393978  0.393978  0.393978  1
  Sb  Sb24  1  0.393978  0.393978  0.818066  1
  Sb  Sb25  1  0.856022  0.431932  0.856023  1
