# generated using pymatgen
data_ErTh(Tc2Ge)4
_symmetry_space_group_name_H-M   'P 1'
_cell_length_a   4.19067000
_cell_length_b   7.30897547
_cell_length_c   7.73711827
_cell_angle_alpha   90.78267111
_cell_angle_beta   90.00000172
_cell_angle_gamma   90.00004426
_symmetry_Int_Tables_number   1
_chemical_formula_structural   ErTh(Tc2Ge)4
_chemical_formula_sum   'Er1 Th1 Tc8 Ge4'
_cell_volume   236.96198626
_cell_formula_units_Z   1
loop_
 _symmetry_equiv_pos_site_id
 _symmetry_equiv_pos_as_xyz
  1  'x, y, z'
loop_
 _atom_site_type_symbol
 _atom_site_label
 _atom_site_symmetry_multiplicity
 _atom_site_fract_x
 _atom_site_fract_y
 _atom_site_fract_z
 _atom_site_occupancy
  Er  Er0  1  0.000008  0.500045  0.499983  1
  Th  Th1  1  0.500005  0.000006  0.999996  1
  Tc  Tc2  1  0.000002  0.916100  0.653558  1
  Tc  Tc3  1  0.999996  0.351498  0.105769  1
  Tc  Tc4  1  0.499996  0.577913  0.152495  1
  Tc  Tc5  1  0.000000  0.083895  0.346467  1
  Tc  Tc6  1  0.499998  0.146715  0.601454  1
  Tc  Tc7  1  0.500000  0.422084  0.847505  1
  Tc  Tc8  1  0.999997  0.648475  0.894235  1
  Tc  Tc9  1  0.500000  0.853261  0.398546  1
  Ge  Ge10  1  0.499998  0.713030  0.689245  1
  Ge  Ge11  1  0.500002  0.286961  0.310761  1
  Ge  Ge12  1  0.000001  0.228145  0.795173  1
  Ge  Ge13  1  0.999996  0.771870  0.204812  1
