# generated using pymatgen
data_La3Pr13Cd2(HgPd2)2
_symmetry_space_group_name_H-M   'P 1'
_cell_length_a   10.11684192
_cell_length_b   10.11933524
_cell_length_c   10.13910400
_cell_angle_alpha   59.93535559
_cell_angle_beta   59.92718142
_cell_angle_gamma   59.91235126
_symmetry_Int_Tables_number   1
_chemical_formula_structural   La3Pr13Cd2(HgPd2)2
_chemical_formula_sum   'La3 Pr13 Cd2 Hg2 Pd4'
_cell_volume   732.72609173
_cell_formula_units_Z   1
loop_
 _symmetry_equiv_pos_site_id
 _symmetry_equiv_pos_as_xyz
  1  'x, y, z'
loop_
 _atom_site_type_symbol
 _atom_site_label
 _atom_site_symmetry_multiplicity
 _atom_site_fract_x
 _atom_site_fract_y
 _atom_site_fract_z
 _atom_site_occupancy
  La  La0  1  0.350974  0.351702  0.351008  1
  La  La1  1  0.350974  0.351702  0.946317  1
  La  La2  1  0.353738  0.939913  0.353176  1
  Pr  Pr3  1  0.938103  0.354856  0.353521  1
  Pr  Pr4  1  0.808994  0.191151  0.192636  1
  Pr  Pr5  1  0.191222  0.808873  0.807581  1
  Pr  Pr6  1  0.191222  0.808873  0.192325  1
  Pr  Pr7  1  0.808994  0.191151  0.807220  1
  Pr  Pr8  1  0.190832  0.190615  0.809276  1
  Pr  Pr9  1  0.806758  0.806271  0.193486  1
  Pr  Pr10  1  0.936916  0.563529  0.565904  1
  Pr  Pr11  1  0.563555  0.936818  0.933549  1
  Pr  Pr12  1  0.563555  0.936818  0.566078  1
  Pr  Pr13  1  0.936916  0.563529  0.933651  1
  Pr  Pr14  1  0.564097  0.564160  0.935871  1
  Pr  Pr15  1  0.934549  0.934598  0.565426  1
  Cd  Cd16  1  0.579255  0.260151  0.580297  1
  Cd  Cd17  1  0.259961  0.578729  0.580655  1
  Hg  Hg18  1  0.583975  0.583377  0.586468  1
  Hg  Hg19  1  0.583975  0.583377  0.246179  1
  Pd  Pd20  1  0.144401  0.143772  0.144777  1
  Pd  Pd21  1  0.144401  0.143772  0.567049  1
  Pd  Pd22  1  0.143696  0.568937  0.143684  1
  Pd  Pd23  1  0.568937  0.143324  0.143870  1
