# generated using pymatgen
data_Ho8Cu3Si12Ru
_symmetry_space_group_name_H-M   'P 1'
_cell_length_a   8.02248097
_cell_length_b   8.02314010
_cell_length_c   7.99874530
_cell_angle_alpha   89.99757541
_cell_angle_beta   89.97403670
_cell_angle_gamma   119.90243013
_symmetry_Int_Tables_number   1
_chemical_formula_structural   Ho8Cu3Si12Ru
_chemical_formula_sum   'Ho8 Cu3 Si12 Ru1'
_cell_volume   446.30490059
_cell_formula_units_Z   1
loop_
 _symmetry_equiv_pos_site_id
 _symmetry_equiv_pos_as_xyz
  1  'x, y, z'
loop_
 _atom_site_type_symbol
 _atom_site_label
 _atom_site_symmetry_multiplicity
 _atom_site_fract_x
 _atom_site_fract_y
 _atom_site_fract_z
 _atom_site_occupancy
  Ho  Ho0  1  0.000027  0.000023  0.250709  1
  Ho  Ho1  1  0.000037  0.000051  0.749366  1
  Ho  Ho2  1  0.498703  0.501434  0.246130  1
  Ho  Ho3  1  0.498558  0.997223  0.246084  1
  Ho  Ho4  1  0.002813  0.501529  0.246068  1
  Ho  Ho5  1  0.497606  0.502517  0.753918  1
  Ho  Ho6  1  0.497547  0.995188  0.753982  1
  Ho  Ho7  1  0.004798  0.502501  0.753967  1
  Cu  Cu8  1  0.333228  0.666338  0.498177  1
  Cu  Cu9  1  0.666248  0.333289  0.500035  1
  Cu  Cu10  1  0.666551  0.333580  0.998726  1
  Si  Si11  1  0.168468  0.831399  0.500562  1
  Si  Si12  1  0.168417  0.337096  0.500574  1
  Si  Si13  1  0.662783  0.831457  0.500544  1
  Si  Si14  1  0.831410  0.168524  0.499596  1
  Si  Si15  1  0.831535  0.662640  0.499583  1
  Si  Si16  1  0.337016  0.168258  0.499576  1
  Si  Si17  1  0.832377  0.167786  0.999204  1
  Si  Si18  1  0.832544  0.664540  0.999120  1
  Si  Si19  1  0.335523  0.167561  0.999114  1
  Si  Si20  1  0.167746  0.832430  0.000840  1
  Si  Si21  1  0.166875  0.334937  0.000889  1
  Si  Si22  1  0.665324  0.833348  0.000885  1
  Ru  Ru23  1  0.333865  0.666350  0.002345  1
