# generated using pymatgen
data_Y12Ni4AgPb
_symmetry_space_group_name_H-M   'P 1'
_cell_length_a   8.48939741
_cell_length_b   8.48939709
_cell_length_c   8.48939800
_cell_angle_alpha   112.52194198
_cell_angle_beta   109.32920698
_cell_angle_gamma   106.61667693
_symmetry_Int_Tables_number   1
_chemical_formula_structural   Y12Ni4AgPb
_chemical_formula_sum   'Y12 Ni4 Ag1 Pb1'
_cell_volume   469.73040848
_cell_formula_units_Z   1
loop_
 _symmetry_equiv_pos_site_id
 _symmetry_equiv_pos_as_xyz
  1  'x, y, z'
loop_
 _atom_site_type_symbol
 _atom_site_label
 _atom_site_symmetry_multiplicity
 _atom_site_fract_x
 _atom_site_fract_y
 _atom_site_fract_z
 _atom_site_occupancy
  Y  Y0  1  0.323650  0.131507  0.807856  1
  Y  Y1  1  0.676333  0.484134  0.807800  1
  Y  Y2  1  0.421142  0.721888  0.699225  1
  Y  Y3  1  0.578858  0.278112  0.300775  1
  Y  Y4  1  0.977336  0.278112  0.699253  1
  Y  Y5  1  0.022664  0.721888  0.300747  1
  Y  Y6  1  0.323667  0.515866  0.192200  1
  Y  Y7  1  0.676350  0.868493  0.192144  1
  Y  Y8  1  0.180389  0.794493  0.974864  1
  Y  Y9  1  0.819631  0.794493  0.614104  1
  Y  Y10  1  0.180369  0.205507  0.385896  1
  Y  Y11  1  0.819611  0.205507  0.025136  1
  Ni  Ni12  1  0.875684  0.875618  0.999933  1
  Ni  Ni13  1  0.124316  0.124382  0.000067  1
  Ni  Ni14  1  0.641102  0.500000  0.141102  1
  Ni  Ni15  1  0.358898  0.500000  0.858898  1
  Ag  Ag16  1  0.000000  0.500000  0.500000  1
  Pb  Pb17  1  0.500000  0.000000  0.500000  1
