# generated using pymatgen
data_Dy4HoP12Ir16Rh3
_symmetry_space_group_name_H-M   'P 1'
_cell_length_a   12.72877400
_cell_length_b   12.72877294
_cell_length_c   3.96852500
_cell_angle_alpha   90.00000000
_cell_angle_beta   90.00000000
_cell_angle_gamma   119.99999755
_symmetry_Int_Tables_number   1
_chemical_formula_structural   Dy4HoP12Ir16Rh3
_chemical_formula_sum   'Dy4 Ho1 P12 Ir16 Rh3'
_cell_volume   556.84314563
_cell_formula_units_Z   1
loop_
 _symmetry_equiv_pos_site_id
 _symmetry_equiv_pos_as_xyz
  1  'x, y, z'
loop_
 _atom_site_type_symbol
 _atom_site_label
 _atom_site_symmetry_multiplicity
 _atom_site_fract_x
 _atom_site_fract_y
 _atom_site_fract_z
 _atom_site_occupancy
  Dy  Dy0  1  0.666667  0.333333  0.500000  1
  Dy  Dy1  1  0.999998  0.814054  0.000000  1
  Dy  Dy2  1  0.185946  0.185944  0.000000  1
  Dy  Dy3  1  0.814056  0.000002  0.000000  1
  Ho  Ho4  1  0.333333  0.666667  0.500000  1
  P  P5  1  0.999971  0.640453  0.500000  1
  P  P6  1  0.359547  0.359518  0.500000  1
  P  P7  1  0.640482  0.000029  0.500000  1
  P  P8  1  0.516376  0.686977  0.000000  1
  P  P9  1  0.313023  0.829399  0.000000  1
  P  P10  1  0.170601  0.483624  0.000000  1
  P  P11  1  0.483442  0.170416  0.000000  1
  P  P12  1  0.686974  0.516558  0.000000  1
  P  P13  1  0.829584  0.313026  0.000000  1
  P  P14  1  0.000015  0.179016  0.500000  1
  P  P15  1  0.820984  0.821000  0.500000  1
  P  P16  1  0.179000  0.999985  0.500000  1
  Ir  Ir17  1  0.507278  0.866374  0.000000  1
  Ir  Ir18  1  0.133626  0.640905  0.000000  1
  Ir  Ir19  1  0.359095  0.492722  0.000000  1
  Ir  Ir20  1  0.492369  0.359129  0.000000  1
  Ir  Ir21  1  0.866761  0.507631  0.000000  1
  Ir  Ir22  1  0.640871  0.133239  0.000000  1
  Ir  Ir23  1  0.000049  0.283484  0.000000  1
  Ir  Ir24  1  0.716516  0.716565  0.000000  1
  Ir  Ir25  1  0.283435  0.999951  0.000000  1
  Ir  Ir26  1  0.625568  0.805964  0.500000  1
  Ir  Ir27  1  0.194036  0.819604  0.500000  1
  Ir  Ir28  1  0.180396  0.374432  0.500000  1
  Ir  Ir29  1  0.374321  0.180336  0.500000  1
  Ir  Ir30  1  0.806014  0.625679  0.500000  1
  Ir  Ir31  1  0.819664  0.193986  0.500000  1
  Ir  Ir32  1  0.000000  0.000000  0.500000  1
  Rh  Rh33  1  0.000013  0.461059  0.500000  1
  Rh  Rh34  1  0.538941  0.538954  0.500000  1
  Rh  Rh35  1  0.461046  0.999987  0.500000  1
