# generated using pymatgen
data_Ho5Er6TmRh4
_symmetry_space_group_name_H-M   'P 1'
_cell_length_a   6.28228395
_cell_length_b   7.14067577
_cell_length_c   9.32733003
_cell_angle_alpha   90.00785142
_cell_angle_beta   89.95022582
_cell_angle_gamma   89.97278096
_symmetry_Int_Tables_number   1
_chemical_formula_structural   Ho5Er6TmRh4
_chemical_formula_sum   'Ho5 Er6 Tm1 Rh4'
_cell_volume   418.42151029
_cell_formula_units_Z   1
loop_
 _symmetry_equiv_pos_site_id
 _symmetry_equiv_pos_as_xyz
  1  'x, y, z'
loop_
 _atom_site_type_symbol
 _atom_site_label
 _atom_site_symmetry_multiplicity
 _atom_site_fract_x
 _atom_site_fract_y
 _atom_site_fract_z
 _atom_site_occupancy
  Ho  Ho0  1  0.672757  0.178596  0.062991  1
  Ho  Ho1  1  0.866967  0.966116  0.749808  1
  Ho  Ho2  1  0.366570  0.534057  0.250082  1
  Ho  Ho3  1  0.632996  0.466120  0.749818  1
  Ho  Ho4  1  0.133389  0.033725  0.250144  1
  Er  Er5  1  0.827213  0.678515  0.436656  1
  Er  Er6  1  0.327294  0.821589  0.563256  1
  Er  Er7  1  0.327067  0.821507  0.936622  1
  Er  Er8  1  0.827422  0.678327  0.063436  1
  Er  Er9  1  0.172651  0.321529  0.563401  1
  Er  Er10  1  0.672764  0.178330  0.436952  1
  Tm  Tm11  1  0.172693  0.321645  0.936403  1
  Rh  Rh12  1  0.053762  0.615688  0.750059  1
  Rh  Rh13  1  0.553998  0.883891  0.250397  1
  Rh  Rh14  1  0.445813  0.115888  0.749753  1
  Rh  Rh15  1  0.946646  0.384475  0.250223  1
