# generated using pymatgen
data_Pr16Mg2In2IrOs3
_symmetry_space_group_name_H-M   'P 1'
_cell_length_a   10.03600335
_cell_length_b   10.06931805
_cell_length_c   10.11682403
_cell_angle_alpha   59.84295033
_cell_angle_beta   59.73304363
_cell_angle_gamma   59.72265062
_symmetry_Int_Tables_number   1
_chemical_formula_structural   Pr16Mg2In2IrOs3
_chemical_formula_sum   'Pr16 Mg2 In2 Ir1 Os3'
_cell_volume   719.08030216
_cell_formula_units_Z   1
loop_
 _symmetry_equiv_pos_site_id
 _symmetry_equiv_pos_as_xyz
  1  'x, y, z'
loop_
 _atom_site_type_symbol
 _atom_site_label
 _atom_site_symmetry_multiplicity
 _atom_site_fract_x
 _atom_site_fract_y
 _atom_site_fract_z
 _atom_site_occupancy
  Pr  Pr0  1  0.345447  0.346902  0.345715  1
  Pr  Pr1  1  0.345434  0.346913  0.961953  1
  Pr  Pr2  1  0.347165  0.959243  0.346800  1
  Pr  Pr3  1  0.962048  0.346983  0.345482  1
  Pr  Pr4  1  0.809892  0.191742  0.191432  1
  Pr  Pr5  1  0.191033  0.808057  0.808927  1
  Pr  Pr6  1  0.191045  0.808082  0.191964  1
  Pr  Pr7  1  0.809874  0.191745  0.806940  1
  Pr  Pr8  1  0.188335  0.188717  0.811475  1
  Pr  Pr9  1  0.807408  0.803266  0.194653  1
  Pr  Pr10  1  0.939626  0.559377  0.558846  1
  Pr  Pr11  1  0.557396  0.939994  0.941419  1
  Pr  Pr12  1  0.557415  0.939994  0.561194  1
  Pr  Pr13  1  0.939609  0.559376  0.942135  1
  Pr  Pr14  1  0.556863  0.561351  0.940887  1
  Pr  Pr15  1  0.940713  0.942661  0.558312  1
  Mg  Mg16  1  0.576969  0.269711  0.576662  1
  Mg  Mg17  1  0.268335  0.577891  0.576887  1
  In  In18  1  0.579719  0.579620  0.581900  1
  In  In19  1  0.579751  0.579617  0.258743  1
  Ir  Ir20  1  0.581333  0.139991  0.139340  1
  Os  Os21  1  0.141173  0.137864  0.137713  1
  Os  Os22  1  0.141173  0.137864  0.583255  1
  Os  Os23  1  0.142247  0.583038  0.137370  1
