# generated using pymatgen
data_DyCo2(PIr)3
_symmetry_space_group_name_H-M   'P 1'
_cell_length_a   3.87015700
_cell_length_b   10.59270900
_cell_length_c   12.20564600
_cell_angle_alpha   90.00000000
_cell_angle_beta   90.00000000
_cell_angle_gamma   90.00000000
_symmetry_Int_Tables_number   1
_chemical_formula_structural   DyCo2(PIr)3
_chemical_formula_sum   'Dy4 Co8 P12 Ir12'
_cell_volume   500.37591229
_cell_formula_units_Z   4
loop_
 _symmetry_equiv_pos_site_id
 _symmetry_equiv_pos_as_xyz
  1  'x, y, z'
loop_
 _atom_site_type_symbol
 _atom_site_label
 _atom_site_symmetry_multiplicity
 _atom_site_fract_x
 _atom_site_fract_y
 _atom_site_fract_z
 _atom_site_occupancy
  Dy  Dy0  1  0.250000  0.584383  0.710805  1
  Dy  Dy1  1  0.250000  0.915617  0.210805  1
  Dy  Dy2  1  0.750000  0.415617  0.289195  1
  Dy  Dy3  1  0.750000  0.084383  0.789195  1
  Co  Co4  1  0.250000  0.883190  0.696989  1
  Co  Co5  1  0.250000  0.616810  0.196989  1
  Co  Co6  1  0.750000  0.116810  0.303011  1
  Co  Co7  1  0.750000  0.383190  0.803011  1
  Co  Co8  1  0.250000  0.463740  0.933658  1
  Co  Co9  1  0.250000  0.036260  0.433658  1
  Co  Co10  1  0.750000  0.536260  0.066342  1
  Co  Co11  1  0.750000  0.963740  0.566342  1
  P  P12  1  0.250000  0.432764  0.110900  1
  P  P13  1  0.250000  0.067236  0.610900  1
  P  P14  1  0.750000  0.567236  0.889100  1
  P  P15  1  0.750000  0.932764  0.389100  1
  P  P16  1  0.250000  0.274533  0.870164  1
  P  P17  1  0.250000  0.225467  0.370164  1
  P  P18  1  0.750000  0.725467  0.129836  1
  P  P19  1  0.750000  0.774533  0.629836  1
  P  P20  1  0.250000  0.598004  0.376902  1
  P  P21  1  0.250000  0.901996  0.876902  1
  P  P22  1  0.750000  0.401996  0.623098  1
  P  P23  1  0.750000  0.098004  0.123098  1
  Ir  Ir24  1  0.250000  0.723335  0.990575  1
  Ir  Ir25  1  0.250000  0.776665  0.490575  1
  Ir  Ir26  1  0.750000  0.276665  0.009425  1
  Ir  Ir27  1  0.750000  0.223335  0.509425  1
  Ir  Ir28  1  0.250000  0.410333  0.476487  1
  Ir  Ir29  1  0.250000  0.089667  0.976487  1
  Ir  Ir30  1  0.750000  0.589667  0.523513  1
  Ir  Ir31  1  0.750000  0.910333  0.023513  1
  Ir  Ir32  1  0.250000  0.227663  0.178258  1
  Ir  Ir33  1  0.250000  0.272337  0.678258  1
  Ir  Ir34  1  0.750000  0.772337  0.821742  1
  Ir  Ir35  1  0.750000  0.727663  0.321742  1
