# generated using pymatgen
data_K4H8PdPt
_symmetry_space_group_name_H-M   'P 1'
_cell_length_a   5.68019069
_cell_length_b   5.68019049
_cell_length_c   9.73812063
_cell_angle_alpha   76.15912809
_cell_angle_beta   103.84087134
_cell_angle_gamma   118.03444025
_symmetry_Int_Tables_number   1
_chemical_formula_structural   K4H8PdPt
_chemical_formula_sum   'K4 H8 Pd1 Pt1'
_cell_volume   266.31448533
_cell_formula_units_Z   1
loop_
 _symmetry_equiv_pos_site_id
 _symmetry_equiv_pos_as_xyz
  1  'x, y, z'
loop_
 _atom_site_type_symbol
 _atom_site_label
 _atom_site_symmetry_multiplicity
 _atom_site_fract_x
 _atom_site_fract_y
 _atom_site_fract_z
 _atom_site_occupancy
  K  K0  1  0.373448  0.626552  0.124077  1
  K  K1  1  0.876318  0.123682  0.625780  1
  K  K2  1  0.123682  0.876318  0.374220  1
  K  K3  1  0.626552  0.373448  0.875923  1
  H  H4  1  0.197980  0.399805  0.399496  1
  H  H5  1  0.698280  0.899004  0.899197  1
  H  H6  1  0.301720  0.100996  0.100803  1
  H  H7  1  0.802020  0.600195  0.600504  1
  H  H8  1  0.600195  0.802020  0.399496  1
  H  H9  1  0.100996  0.301720  0.899197  1
  H  H10  1  0.899004  0.698280  0.100803  1
  H  H11  1  0.399805  0.197980  0.600504  1
  Pd  Pd12  1  0.500000  0.500000  0.500000  1
  Pt  Pt13  1  0.000000  0.000000  0.000000  1
