# generated using pymatgen
data_Ho8NiHg2Rh
_symmetry_space_group_name_H-M   'P 1'
_cell_length_a   9.50350646
_cell_length_b   9.50350544
_cell_length_c   9.51854300
_cell_angle_alpha   59.94764702
_cell_angle_beta   59.94765059
_cell_angle_gamma   59.91781193
_symmetry_Int_Tables_number   1
_chemical_formula_structural   Ho8NiHg2Rh
_chemical_formula_sum   'Ho16 Ni2 Hg4 Rh2'
_cell_volume   607.02841264
_cell_formula_units_Z   2
loop_
 _symmetry_equiv_pos_site_id
 _symmetry_equiv_pos_as_xyz
  1  'x, y, z'
loop_
 _atom_site_type_symbol
 _atom_site_label
 _atom_site_symmetry_multiplicity
 _atom_site_fract_x
 _atom_site_fract_y
 _atom_site_fract_z
 _atom_site_occupancy
  Ho  Ho0  1  0.352004  0.352004  0.345698  1
  Ho  Ho1  1  0.352004  0.352004  0.950293  1
  Ho  Ho2  1  0.356629  0.944596  0.349387  1
  Ho  Ho3  1  0.944596  0.356629  0.349387  1
  Ho  Ho4  1  0.808945  0.188002  0.189919  1
  Ho  Ho5  1  0.188002  0.808945  0.813134  1
  Ho  Ho6  1  0.188002  0.808945  0.189919  1
  Ho  Ho7  1  0.808945  0.188002  0.813134  1
  Ho  Ho8  1  0.189317  0.189317  0.810683  1
  Ho  Ho9  1  0.811568  0.811568  0.188432  1
  Ho  Ho10  1  0.937112  0.562769  0.565370  1
  Ho  Ho11  1  0.562769  0.937112  0.934749  1
  Ho  Ho12  1  0.562769  0.937112  0.565370  1
  Ho  Ho13  1  0.937112  0.562769  0.934749  1
  Ho  Ho14  1  0.565327  0.565327  0.934673  1
  Ho  Ho15  1  0.938223  0.938223  0.561777  1
  Ni  Ni16  1  0.141506  0.571284  0.143606  1
  Ni  Ni17  1  0.571284  0.141506  0.143606  1
  Hg  Hg18  1  0.584366  0.584366  0.586318  1
  Hg  Hg19  1  0.584366  0.584366  0.244952  1
  Hg  Hg20  1  0.584301  0.243649  0.586026  1
  Hg  Hg21  1  0.243649  0.584301  0.586026  1
  Rh  Rh22  1  0.143603  0.143603  0.142835  1
  Rh  Rh23  1  0.143603  0.143603  0.569960  1
