# generated using pymatgen
data_Tb9Dy10LuPb16
_symmetry_space_group_name_H-M   'P 1'
_cell_length_a   8.21199101
_cell_length_b   8.30171033
_cell_length_c   15.67274501
_cell_angle_alpha   90.00347978
_cell_angle_beta   90.00092104
_cell_angle_gamma   89.95102321
_symmetry_Int_Tables_number   1
_chemical_formula_structural   Tb9Dy10LuPb16
_chemical_formula_sum   'Tb9 Dy10 Lu1 Pb16'
_cell_volume   1068.46659569
_cell_formula_units_Z   1
loop_
 _symmetry_equiv_pos_site_id
 _symmetry_equiv_pos_as_xyz
  1  'x, y, z'
loop_
 _atom_site_type_symbol
 _atom_site_label
 _atom_site_symmetry_multiplicity
 _atom_site_fract_x
 _atom_site_fract_y
 _atom_site_fract_z
 _atom_site_occupancy
  Tb  Tb0  1  0.877404  0.658754  0.879486  1
  Tb  Tb1  1  0.533724  0.323444  0.899726  1
  Tb  Tb2  1  0.034343  0.177285  0.600218  1
  Tb  Tb3  1  0.465964  0.676839  0.399870  1
  Tb  Tb4  1  0.965916  0.823198  0.100364  1
  Tb  Tb5  1  0.465985  0.676801  0.100125  1
  Tb  Tb6  1  0.965882  0.823170  0.399690  1
  Tb  Tb7  1  0.533763  0.323473  0.600281  1
  Tb  Tb8  1  0.034343  0.177244  0.899768  1
  Dy  Dy9  1  0.376339  0.840622  0.879501  1
  Dy  Dy10  1  0.877362  0.658707  0.620530  1
  Dy  Dy11  1  0.623225  0.159158  0.379536  1
  Dy  Dy12  1  0.123265  0.340872  0.120217  1
  Dy  Dy13  1  0.623210  0.159171  0.120493  1
  Dy  Dy14  1  0.123283  0.340834  0.379761  1
  Dy  Dy15  1  0.376375  0.840633  0.620479  1
  Dy  Dy16  1  0.708474  0.996335  0.749958  1
  Dy  Dy17  1  0.791383  0.496237  0.250009  1
  Dy  Dy18  1  0.291386  0.003953  0.249998  1
  Lu  Lu19  1  0.209069  0.504212  0.749964  1
  Pb  Pb20  1  0.281253  0.033182  0.042749  1
  Pb  Pb21  1  0.781190  0.466614  0.457281  1
  Pb  Pb22  1  0.718841  0.966752  0.542913  1
  Pb  Pb23  1  0.218951  0.532910  0.956429  1
  Pb  Pb24  1  0.718709  0.966995  0.957119  1
  Pb  Pb25  1  0.218719  0.532967  0.543611  1
  Pb  Pb26  1  0.281257  0.033184  0.457248  1
  Pb  Pb27  1  0.781113  0.466456  0.042863  1
  Pb  Pb28  1  0.570970  0.625825  0.749944  1
  Pb  Pb29  1  0.072958  0.872632  0.749934  1
  Pb  Pb30  1  0.427397  0.373368  0.249998  1
  Pb  Pb31  1  0.927430  0.126765  0.249996  1
  Pb  Pb32  1  0.344936  0.153536  0.749998  1
  Pb  Pb33  1  0.845622  0.348335  0.749954  1
  Pb  Pb34  1  0.654914  0.848010  0.249995  1
  Pb  Pb35  1  0.155051  0.651528  0.249996  1
