# generated using pymatgen
data_TmZnCdAg3
_symmetry_space_group_name_H-M   'P 1'
_cell_length_a   5.58478702
_cell_length_b   5.58478567
_cell_length_c   5.41756399
_cell_angle_alpha   58.97357197
_cell_angle_beta   58.97358377
_cell_angle_gamma   60.00000735
_symmetry_Int_Tables_number   1
_chemical_formula_structural   TmZnCdAg3
_chemical_formula_sum   'Tm1 Zn1 Cd1 Ag3'
_cell_volume   117.59455571
_cell_formula_units_Z   1
loop_
 _symmetry_equiv_pos_site_id
 _symmetry_equiv_pos_as_xyz
  1  'x, y, z'
loop_
 _atom_site_type_symbol
 _atom_site_label
 _atom_site_symmetry_multiplicity
 _atom_site_fract_x
 _atom_site_fract_y
 _atom_site_fract_z
 _atom_site_occupancy
  Tm  Tm0  1  0.248859  0.248859  0.253424  1
  Zn  Zn1  1  0.626176  0.626176  0.121472  1
  Cd  Cd2  1  0.998031  0.998031  0.005905  1
  Ag  Ag3  1  0.626011  0.124912  0.623066  1
  Ag  Ag4  1  0.124912  0.626011  0.623066  1
  Ag  Ag5  1  0.626011  0.626011  0.623066  1
