# generated using pymatgen
data_Tb4Tm4Hf9Si16W3
_symmetry_space_group_name_H-M   'P 1'
_cell_length_a   7.17565030
_cell_length_b   7.17259970
_cell_length_c   13.13024277
_cell_angle_alpha   90.07423388
_cell_angle_beta   90.07025805
_cell_angle_gamma   90.09274948
_symmetry_Int_Tables_number   1
_chemical_formula_structural   Tb4Tm4Hf9Si16W3
_chemical_formula_sum   'Tb4 Tm4 Hf9 Si16 W3'
_cell_volume   675.78625416
_cell_formula_units_Z   1
loop_
 _symmetry_equiv_pos_site_id
 _symmetry_equiv_pos_as_xyz
  1  'x, y, z'
loop_
 _atom_site_type_symbol
 _atom_site_label
 _atom_site_symmetry_multiplicity
 _atom_site_fract_x
 _atom_site_fract_y
 _atom_site_fract_z
 _atom_site_occupancy
  Tb  Tb0  1  0.846294  0.503052  0.968036  1
  Tb  Tb1  1  0.497157  0.154072  0.532050  1
  Tb  Tb2  1  0.343549  0.995436  0.785138  1
  Tb  Tb3  1  0.655951  0.001685  0.284193  1
  Tm  Tm4  1  0.000221  0.344974  0.215388  1
  Tm  Tm5  1  0.002770  0.655659  0.714406  1
  Tm  Tm6  1  0.153714  0.500707  0.463726  1
  Tm  Tm7  1  0.499082  0.845996  0.036310  1
  Hf  Hf8  1  0.676035  0.324952  0.749962  1
  Hf  Hf9  1  0.145953  0.993065  0.373263  1
  Hf  Hf10  1  0.855402  0.004083  0.876712  1
  Hf  Hf11  1  0.505486  0.648562  0.621073  1
  Hf  Hf12  1  0.351060  0.495048  0.878940  1
  Hf  Hf13  1  0.493260  0.353006  0.125727  1
  Hf  Hf14  1  0.647279  0.506215  0.374123  1
  Hf  Hf15  1  0.996365  0.144733  0.623220  1
  Hf  Hf16  1  0.006487  0.853841  0.126631  1
  Si  Si17  1  0.357345  0.299703  0.317060  1
  Si  Si18  1  0.640003  0.704712  0.816983  1
  Si  Si19  1  0.201272  0.858024  0.565881  1
  Si  Si20  1  0.140309  0.796902  0.934809  1
  Si  Si21  1  0.797681  0.139341  0.068174  1
  Si  Si22  1  0.862523  0.204305  0.432491  1
  Si  Si23  1  0.293552  0.362832  0.682507  1
  Si  Si24  1  0.702034  0.639928  0.182341  1
  Si  Si25  1  0.296105  0.050901  0.183575  1
  Si  Si26  1  0.705638  0.946383  0.681973  1
  Si  Si27  1  0.447594  0.794440  0.432044  1
  Si  Si28  1  0.204179  0.550867  0.068517  1
  Si  Si29  1  0.547237  0.201239  0.936606  1
  Si  Si30  1  0.799991  0.454269  0.563928  1
  Si  Si31  1  0.052342  0.296870  0.817535  1
  Si  Si32  1  0.950664  0.701323  0.315979  1
  W  W33  1  0.177158  0.175536  0.002064  1
  W  W34  1  0.825643  0.821772  0.498620  1
  W  W35  1  0.322665  0.675569  0.250014  1
