# generated using pymatgen
data_CeTh7(ReC2)4
_symmetry_space_group_name_H-M   'P 1'
_cell_length_a   5.34407300
_cell_length_b   6.69778807
_cell_length_c   10.10311642
_cell_angle_alpha   89.79994342
_cell_angle_beta   90.00000000
_cell_angle_gamma   90.00000000
_symmetry_Int_Tables_number   1
_chemical_formula_structural   CeTh7(ReC2)4
_chemical_formula_sum   'Ce1 Th7 Re4 C8'
_cell_volume   361.62337411
_cell_formula_units_Z   1
loop_
 _symmetry_equiv_pos_site_id
 _symmetry_equiv_pos_as_xyz
  1  'x, y, z'
loop_
 _atom_site_type_symbol
 _atom_site_label
 _atom_site_symmetry_multiplicity
 _atom_site_fract_x
 _atom_site_fract_y
 _atom_site_fract_z
 _atom_site_occupancy
  Ce  Ce0  1  0.750000  0.188384  0.952017  1
  Th  Th1  1  0.250000  0.472132  0.780672  1
  Th  Th2  1  0.750000  0.026596  0.274577  1
  Th  Th3  1  0.250000  0.973655  0.722619  1
  Th  Th4  1  0.750000  0.524243  0.219422  1
  Th  Th5  1  0.250000  0.810814  0.047563  1
  Th  Th6  1  0.750000  0.691813  0.547931  1
  Th  Th7  1  0.250000  0.308342  0.451958  1
  Re  Re8  1  0.250000  0.272193  0.136544  1
  Re  Re9  1  0.750000  0.229268  0.639766  1
  Re  Re10  1  0.250000  0.771196  0.361491  1
  Re  Re11  1  0.750000  0.729245  0.862297  1
  C  C12  1  0.250000  0.665338  0.551551  1
  C  C13  1  0.750000  0.833884  0.051213  1
  C  C14  1  0.250000  0.167611  0.948745  1
  C  C15  1  0.750000  0.333949  0.449081  1
  C  C16  1  0.250000  0.031438  0.255768  1
  C  C17  1  0.750000  0.468091  0.758605  1
  C  C18  1  0.250000  0.531229  0.242638  1
  C  C19  1  0.750000  0.970577  0.745542  1
