# generated using pymatgen
data_DyTm3MoOsC4
_symmetry_space_group_name_H-M   'P 1'
_cell_length_a   5.04030100
_cell_length_b   6.55626947
_cell_length_c   9.80787902
_cell_angle_alpha   88.88769293
_cell_angle_beta   90.00000000
_cell_angle_gamma   90.00000000
_symmetry_Int_Tables_number   1
_chemical_formula_structural   DyTm3MoOsC4
_chemical_formula_sum   'Dy2 Tm6 Mo2 Os2 C8'
_cell_volume   324.04589524
_cell_formula_units_Z   2
loop_
 _symmetry_equiv_pos_site_id
 _symmetry_equiv_pos_as_xyz
  1  'x, y, z'
loop_
 _atom_site_type_symbol
 _atom_site_label
 _atom_site_symmetry_multiplicity
 _atom_site_fract_x
 _atom_site_fract_y
 _atom_site_fract_z
 _atom_site_occupancy
  Dy  Dy0  1  0.750000  0.967936  0.715668  1
  Dy  Dy1  1  0.250000  0.032064  0.284332  1
  Tm  Tm2  1  0.250000  0.676206  0.558707  1
  Tm  Tm3  1  0.750000  0.323794  0.441293  1
  Tm  Tm4  1  0.750000  0.826699  0.059009  1
  Tm  Tm5  1  0.250000  0.173301  0.940991  1
  Tm  Tm6  1  0.250000  0.538849  0.219151  1
  Tm  Tm7  1  0.750000  0.461151  0.780849  1
  Mo  Mo8  1  0.250000  0.714438  0.869181  1
  Mo  Mo9  1  0.750000  0.285562  0.130819  1
  Os  Os10  1  0.750000  0.779717  0.368172  1
  Os  Os11  1  0.250000  0.220283  0.631828  1
  C  C12  1  0.250000  0.447676  0.757845  1
  C  C13  1  0.750000  0.552324  0.242155  1
  C  C14  1  0.750000  0.048146  0.260406  1
  C  C15  1  0.250000  0.951854  0.739594  1
  C  C16  1  0.250000  0.825057  0.054412  1
  C  C17  1  0.750000  0.174943  0.945588  1
  C  C18  1  0.750000  0.671439  0.551249  1
  C  C19  1  0.250000  0.328561  0.448751  1
