# generated using pymatgen
data_Y3Co8
_symmetry_space_group_name_H-M   'P 1'
_cell_length_a   7.61859558
_cell_length_b   7.61795131
_cell_length_c   7.61921901
_cell_angle_alpha   109.46827605
_cell_angle_beta   109.47604372
_cell_angle_gamma   109.46929430
_symmetry_Int_Tables_number   1
_chemical_formula_structural   Y3Co8
_chemical_formula_sum   'Y6 Co16'
_cell_volume   340.40970548
_cell_formula_units_Z   2
loop_
 _symmetry_equiv_pos_site_id
 _symmetry_equiv_pos_as_xyz
  1  'x, y, z'
loop_
 _atom_site_type_symbol
 _atom_site_label
 _atom_site_symmetry_multiplicity
 _atom_site_fract_x
 _atom_site_fract_y
 _atom_site_fract_z
 _atom_site_occupancy
  Y  Y0  1  0.716597  0.716594  0.000028  1
  Y  Y1  1  0.716597  0.000003  0.716569  1
  Y  Y2  1  0.283403  0.283406  0.999972  1
  Y  Y3  1  0.000000  0.716595  0.716564  1
  Y  Y4  1  0.283403  0.999997  0.283431  1
  Y  Y5  1  0.000000  0.283405  0.283436  1
  Co  Co6  1  0.500000  0.500000  0.500000  1
  Co  Co7  1  0.000000  0.500000  0.000000  1
  Co  Co8  1  0.500000  0.000000  0.000000  1
  Co  Co9  1  0.000000  0.000000  0.500000  1
  Co  Co10  1  0.664150  0.664164  0.328249  1
  Co  Co11  1  0.664139  0.328285  0.664150  1
  Co  Co12  1  0.335861  0.671715  0.335850  1
  Co  Co13  1  0.335850  0.000014  0.664101  1
  Co  Co14  1  0.671711  0.335855  0.335855  1
  Co  Co15  1  0.335861  0.664147  0.000012  1
  Co  Co16  1  0.000000  0.335839  0.664091  1
  Co  Co17  1  0.664150  0.999986  0.335899  1
  Co  Co18  1  0.328289  0.664145  0.664145  1
  Co  Co19  1  0.335850  0.335836  0.671751  1
  Co  Co20  1  0.000000  0.664161  0.335909  1
  Co  Co21  1  0.664139  0.335853  0.999988  1
