# generated using pymatgen
data_TbLuHf2CN3
_symmetry_space_group_name_H-M   'P 1'
_cell_length_a   11.10002412
_cell_length_b   11.10002409
_cell_length_c   11.10002424
_cell_angle_alpha   17.22059788
_cell_angle_beta   17.22059947
_cell_angle_gamma   17.22059554
_symmetry_Int_Tables_number   1
_chemical_formula_structural   TbLuHf2CN3
_chemical_formula_sum   'Tb1 Lu1 Hf2 C1 N3'
_cell_volume   104.59076768
_cell_formula_units_Z   1
loop_
 _symmetry_equiv_pos_site_id
 _symmetry_equiv_pos_as_xyz
  1  'x, y, z'
loop_
 _atom_site_type_symbol
 _atom_site_label
 _atom_site_symmetry_multiplicity
 _atom_site_fract_x
 _atom_site_fract_y
 _atom_site_fract_z
 _atom_site_occupancy
  Tb  Tb0  1  0.124348  0.124348  0.124348  1
  Lu  Lu1  1  0.876730  0.876730  0.876730  1
  Hf  Hf2  1  0.372503  0.372503  0.372503  1
  Hf  Hf3  1  0.626392  0.626392  0.626392  1
  C  C4  1  0.999225  0.999225  0.999225  1
  N  N5  1  0.253029  0.253029  0.253029  1
  N  N6  1  0.502573  0.502573  0.502573  1
  N  N7  1  0.745201  0.745201  0.745201  1
