# generated using pymatgen
data_Zr11ScSi12IrRu3
_symmetry_space_group_name_H-M   'P 1'
_cell_length_a   3.95038500
_cell_length_b   10.34481496
_cell_length_c   11.78024436
_cell_angle_alpha   90.04941146
_cell_angle_beta   90.00000000
_cell_angle_gamma   90.00000000
_symmetry_Int_Tables_number   1
_chemical_formula_structural   Zr11ScSi12IrRu3
_chemical_formula_sum   'Zr11 Sc1 Si12 Ir1 Ru3'
_cell_volume   481.41130864
_cell_formula_units_Z   1
loop_
 _symmetry_equiv_pos_site_id
 _symmetry_equiv_pos_as_xyz
  1  'x, y, z'
loop_
 _atom_site_type_symbol
 _atom_site_label
 _atom_site_symmetry_multiplicity
 _atom_site_fract_x
 _atom_site_fract_y
 _atom_site_fract_z
 _atom_site_occupancy
  Zr  Zr0  1  0.250000  0.875419  0.021259  1
  Zr  Zr1  1  0.250000  0.625579  0.521473  1
  Zr  Zr2  1  0.750000  0.123991  0.978272  1
  Zr  Zr3  1  0.750000  0.375853  0.477460  1
  Zr  Zr4  1  0.250000  0.923793  0.596545  1
  Zr  Zr5  1  0.250000  0.575499  0.097417  1
  Zr  Zr6  1  0.750000  0.075798  0.402423  1
  Zr  Zr7  1  0.750000  0.423414  0.903465  1
  Zr  Zr8  1  0.250000  0.659012  0.800916  1
  Zr  Zr9  1  0.250000  0.842163  0.300472  1
  Zr  Zr10  1  0.750000  0.342066  0.199252  1
  Sc  Sc11  1  0.750000  0.157366  0.699440  1
  Si  Si12  1  0.250000  0.014241  0.823990  1
  Si  Si13  1  0.250000  0.485984  0.325301  1
  Si  Si14  1  0.750000  0.985633  0.174389  1
  Si  Si15  1  0.750000  0.515510  0.674255  1
  Si  Si16  1  0.250000  0.248632  0.842025  1
  Si  Si17  1  0.250000  0.250322  0.341864  1
  Si  Si18  1  0.750000  0.749669  0.158665  1
  Si  Si19  1  0.750000  0.750882  0.659321  1
  Si  Si20  1  0.250000  0.194161  0.544860  1
  Si  Si21  1  0.250000  0.305456  0.043886  1
  Si  Si22  1  0.750000  0.805970  0.455907  1
  Si  Si23  1  0.750000  0.695184  0.956293  1
  Ir  Ir24  1  0.250000  0.385578  0.680063  1
  Ru  Ru25  1  0.250000  0.113219  0.179685  1
  Ru  Ru26  1  0.750000  0.612608  0.319938  1
  Ru  Ru27  1  0.750000  0.886999  0.821167  1
