# generated using pymatgen
data_Sr5ScOs3O16
_symmetry_space_group_name_H-M   'P 1'
_cell_length_a   5.76080620
_cell_length_b   5.76235048
_cell_length_c   10.29524644
_cell_angle_alpha   93.45889053
_cell_angle_beta   93.44018132
_cell_angle_gamma   90.58451637
_symmetry_Int_Tables_number   1
_chemical_formula_structural   Sr5ScOs3O16
_chemical_formula_sum   'Sr5 Sc1 Os3 O16'
_cell_volume   340.48871759
_cell_formula_units_Z   1
loop_
 _symmetry_equiv_pos_site_id
 _symmetry_equiv_pos_as_xyz
  1  'x, y, z'
loop_
 _atom_site_type_symbol
 _atom_site_label
 _atom_site_symmetry_multiplicity
 _atom_site_fract_x
 _atom_site_fract_y
 _atom_site_fract_z
 _atom_site_occupancy
  Sr  Sr0  1  0.514636  0.029273  0.203043  1
  Sr  Sr1  1  0.029659  0.514441  0.203386  1
  Sr  Sr2  1  0.999927  0.999948  0.499954  1
  Sr  Sr3  1  0.970278  0.485644  0.796728  1
  Sr  Sr4  1  0.485516  0.970673  0.797056  1
  Sc  Sc5  1  0.499958  0.499976  0.999954  1
  Os  Os6  1  0.000010  0.000013  0.000008  1
  Os  Os7  1  0.562751  0.562632  0.391332  1
  Os  Os8  1  0.437263  0.437320  0.608579  1
  O  O9  1  0.756053  0.237348  0.999668  1
  O  O10  1  0.767958  0.762078  0.033129  1
  O  O11  1  0.061018  0.062290  0.176855  1
  O  O12  1  0.470102  0.469582  0.197609  1
  O  O13  1  0.772992  0.773221  0.326614  1
  O  O14  1  0.308815  0.756667  0.371855  1
  O  O15  1  0.757377  0.309339  0.372081  1
  O  O16  1  0.316476  0.315828  0.437035  1
  O  O17  1  0.683478  0.684180  0.562975  1
  O  O18  1  0.242693  0.690678  0.627943  1
  O  O19  1  0.691140  0.243448  0.628168  1
  O  O20  1  0.226973  0.226746  0.673428  1
  O  O21  1  0.529973  0.530514  0.802388  1
  O  O22  1  0.938990  0.937677  0.823117  1
  O  O23  1  0.232051  0.237894  0.966824  1
  O  O24  1  0.243912  0.762579  0.000278  1
