# generated using pymatgen
data_Pr4Ga18Ir5Pt
_symmetry_space_group_name_H-M   'P 1'
_cell_length_a   7.69291292
_cell_length_b   7.69291160
_cell_length_c   9.61710711
_cell_angle_alpha   89.99488610
_cell_angle_beta   89.99488502
_cell_angle_gamma   119.63225416
_symmetry_Int_Tables_number   1
_chemical_formula_structural   Pr4Ga18Ir5Pt
_chemical_formula_sum   'Pr4 Ga18 Ir5 Pt1'
_cell_volume   494.71386483
_cell_formula_units_Z   1
loop_
 _symmetry_equiv_pos_site_id
 _symmetry_equiv_pos_as_xyz
  1  'x, y, z'
loop_
 _atom_site_type_symbol
 _atom_site_label
 _atom_site_symmetry_multiplicity
 _atom_site_fract_x
 _atom_site_fract_y
 _atom_site_fract_z
 _atom_site_occupancy
  Pr  Pr0  1  0.995602  0.668516  0.250398  1
  Pr  Pr1  1  0.002243  0.329880  0.749835  1
  Pr  Pr2  1  0.670120  0.997757  0.250165  1
  Pr  Pr3  1  0.331484  0.004398  0.749602  1
  Ga  Ga4  1  0.129280  0.127856  0.250375  1
  Ga  Ga5  1  0.872144  0.870720  0.749625  1
  Ga  Ga6  1  0.005804  0.335032  0.080575  1
  Ga  Ga7  1  0.002228  0.668685  0.919749  1
  Ga  Ga8  1  0.999426  0.665060  0.578323  1
  Ga  Ga9  1  0.334940  0.000574  0.421677  1
  Ga  Ga10  1  0.001546  0.335033  0.421574  1
  Ga  Ga11  1  0.664967  0.998454  0.578426  1
  Ga  Ga12  1  0.664968  0.994196  0.919425  1
  Ga  Ga13  1  0.331315  0.997772  0.080251  1
  Ga  Ga14  1  0.332068  0.332332  0.556609  1
  Ga  Ga15  1  0.667668  0.667932  0.443391  1
  Ga  Ga16  1  0.667049  0.670429  0.059639  1
  Ga  Ga17  1  0.329571  0.332951  0.940361  1
  Ga  Ga18  1  0.342071  0.547516  0.250381  1
  Ga  Ga19  1  0.658788  0.456751  0.747406  1
  Ga  Ga20  1  0.543249  0.341212  0.252594  1
  Ga  Ga21  1  0.452484  0.657929  0.749619  1
  Ir  Ir22  1  0.329814  0.670186  0.000000  1
  Ir  Ir23  1  0.329471  0.670529  0.500000  1
  Ir  Ir24  1  0.670799  0.329201  0.500000  1
  Ir  Ir25  1  0.000220  0.999780  0.000000  1
  Ir  Ir26  1  0.999897  0.000103  0.500000  1
  Pt  Pt27  1  0.670784  0.329216  0.000000  1
