# generated using pymatgen
data_Tb2Y6Be3Si12Pd
_symmetry_space_group_name_H-M   'P 1'
_cell_length_a   7.95084100
_cell_length_b   7.95084100
_cell_length_c   8.11380700
_cell_angle_alpha   90.00000000
_cell_angle_beta   90.00000000
_cell_angle_gamma   120.00000416
_symmetry_Int_Tables_number   1
_chemical_formula_structural   Tb2Y6Be3Si12Pd
_chemical_formula_sum   'Tb2 Y6 Be3 Si12 Pd1'
_cell_volume   444.20293506
_cell_formula_units_Z   1
loop_
 _symmetry_equiv_pos_site_id
 _symmetry_equiv_pos_as_xyz
  1  'x, y, z'
loop_
 _atom_site_type_symbol
 _atom_site_label
 _atom_site_symmetry_multiplicity
 _atom_site_fract_x
 _atom_site_fract_y
 _atom_site_fract_z
 _atom_site_occupancy
  Tb  Tb0  1  0.000000  0.000000  0.248919  1
  Tb  Tb1  1  0.000000  0.000000  0.750710  1
  Y  Y2  1  0.501247  0.002495  0.247734  1
  Y  Y3  1  0.501977  0.003957  0.752296  1
  Y  Y4  1  0.997505  0.498753  0.247734  1
  Y  Y5  1  0.996043  0.498023  0.752296  1
  Y  Y6  1  0.501247  0.498753  0.247734  1
  Y  Y7  1  0.501977  0.498023  0.752296  1
  Be  Be8  1  0.333333  0.666667  0.001271  1
  Be  Be9  1  0.666667  0.333333  0.001059  1
  Be  Be10  1  0.666667  0.333333  0.497936  1
  Si  Si11  1  0.172182  0.344362  0.999347  1
  Si  Si12  1  0.826796  0.653594  0.000273  1
  Si  Si13  1  0.655638  0.827818  0.999347  1
  Si  Si14  1  0.828152  0.656304  0.500076  1
  Si  Si15  1  0.346406  0.173204  0.000273  1
  Si  Si16  1  0.166167  0.332333  0.499547  1
  Si  Si17  1  0.172182  0.827818  0.999347  1
  Si  Si18  1  0.343696  0.171848  0.500076  1
  Si  Si19  1  0.826796  0.173204  0.000273  1
  Si  Si20  1  0.667667  0.833833  0.499547  1
  Si  Si21  1  0.828152  0.171848  0.500076  1
  Si  Si22  1  0.166167  0.833833  0.499547  1
  Pd  Pd23  1  0.333333  0.666667  0.502280  1
