# generated using pymatgen
data_Y4ErP12Ru17Pt2
_symmetry_space_group_name_H-M   'P 1'
_cell_length_a   12.63361501
_cell_length_b   12.54275487
_cell_length_c   3.98575900
_cell_angle_alpha   90.00000000
_cell_angle_beta   90.00000000
_cell_angle_gamma   120.24426886
_symmetry_Int_Tables_number   1
_chemical_formula_structural   Y4ErP12Ru17Pt2
_chemical_formula_sum   'Y4 Er1 P12 Ru17 Pt2'
_cell_volume   545.61712138
_cell_formula_units_Z   1
loop_
 _symmetry_equiv_pos_site_id
 _symmetry_equiv_pos_as_xyz
  1  'x, y, z'
loop_
 _atom_site_type_symbol
 _atom_site_label
 _atom_site_symmetry_multiplicity
 _atom_site_fract_x
 _atom_site_fract_y
 _atom_site_fract_z
 _atom_site_occupancy
  Y  Y0  1  0.001325  0.182819  0.500000  1
  Y  Y1  1  0.818510  0.817180  0.500000  1
  Y  Y2  1  0.183576  0.000002  0.500000  1
  Y  Y3  1  0.336684  0.672528  0.000000  1
  Er  Er4  1  0.664198  0.327372  0.000000  1
  P  P5  1  0.997945  0.812470  0.000000  1
  P  P6  1  0.185503  0.187519  0.000000  1
  P  P7  1  0.817849  0.000018  0.000000  1
  P  P8  1  0.692975  0.170216  0.500000  1
  P  P9  1  0.816657  0.516141  0.500000  1
  P  P10  1  0.477967  0.299250  0.500000  1
  P  P11  1  0.178379  0.700889  0.500000  1
  P  P12  1  0.523222  0.830154  0.500000  1
  P  P13  1  0.300371  0.483345  0.500000  1
  P  P14  1  0.000358  0.365428  0.000000  1
  P  P15  1  0.634883  0.634618  0.000000  1
  P  P16  1  0.373378  0.999956  0.000000  1
  Ru  Ru17  1  0.555144  0.000010  0.000000  1
  Ru  Ru18  1  0.997523  0.709514  0.500000  1
  Ru  Ru19  1  0.288070  0.290421  0.500000  1
  Ru  Ru20  1  0.718404  0.000078  0.500000  1
  Ru  Ru21  1  0.808519  0.184887  0.000000  1
  Ru  Ru22  1  0.812855  0.617792  0.000000  1
  Ru  Ru23  1  0.376677  0.193078  0.000000  1
  Ru  Ru24  1  0.183363  0.807048  0.000000  1
  Ru  Ru25  1  0.623993  0.815318  0.000000  1
  Ru  Ru26  1  0.194899  0.381847  0.000000  1
  Ru  Ru27  1  0.870062  0.365244  0.500000  1
  Ru  Ru28  1  0.629080  0.505573  0.500000  1
  Ru  Ru29  1  0.492227  0.124358  0.500000  1
  Ru  Ru30  1  0.367938  0.876298  0.500000  1
  Ru  Ru31  1  0.505386  0.634692  0.500000  1
  Ru  Ru32  1  0.122999  0.493948  0.500000  1
  Ru  Ru33  1  0.002522  0.000003  0.000000  1
  Pt  Pt34  1  0.998245  0.549937  0.000000  1
  Pt  Pt35  1  0.448317  0.450051  0.000000  1
