# generated using pymatgen
data_Er3Mn(Ni4P3)2
_symmetry_space_group_name_H-M   'P 1'
_cell_length_a   3.74563100
_cell_length_b   10.52841900
_cell_length_c   12.26592900
_cell_angle_alpha   90.00000000
_cell_angle_beta   90.00000000
_cell_angle_gamma   90.00000000
_symmetry_Int_Tables_number   1
_chemical_formula_structural   Er3Mn(Ni4P3)2
_chemical_formula_sum   'Er6 Mn2 Ni16 P12'
_cell_volume   483.71393343
_cell_formula_units_Z   2
loop_
 _symmetry_equiv_pos_site_id
 _symmetry_equiv_pos_as_xyz
  1  'x, y, z'
loop_
 _atom_site_type_symbol
 _atom_site_label
 _atom_site_symmetry_multiplicity
 _atom_site_fract_x
 _atom_site_fract_y
 _atom_site_fract_z
 _atom_site_occupancy
  Er  Er0  1  0.000000  0.500000  0.522153  1
  Er  Er1  1  0.500000  0.000000  0.477847  1
  Er  Er2  1  0.500000  0.817764  0.205732  1
  Er  Er3  1  0.500000  0.182236  0.205732  1
  Er  Er4  1  0.000000  0.682236  0.794268  1
  Er  Er5  1  0.000000  0.317764  0.794268  1
  Mn  Mn6  1  0.500000  0.500000  0.155450  1
  Mn  Mn7  1  0.000000  0.000000  0.844550  1
  Ni  Ni8  1  0.000000  0.500000  0.983690  1
  Ni  Ni9  1  0.500000  0.000000  0.016310  1
  Ni  Ni10  1  0.500000  0.300924  0.428739  1
  Ni  Ni11  1  0.500000  0.699076  0.428739  1
  Ni  Ni12  1  0.000000  0.199076  0.571261  1
  Ni  Ni13  1  0.000000  0.800924  0.571261  1
  Ni  Ni14  1  0.500000  0.878853  0.710254  1
  Ni  Ni15  1  0.500000  0.121147  0.710254  1
  Ni  Ni16  1  0.000000  0.621147  0.289746  1
  Ni  Ni17  1  0.000000  0.378853  0.289746  1
  Ni  Ni18  1  0.500000  0.333099  0.992779  1
  Ni  Ni19  1  0.500000  0.666901  0.992779  1
  Ni  Ni20  1  0.000000  0.166901  0.007221  1
  Ni  Ni21  1  0.000000  0.833099  0.007221  1
  Ni  Ni22  1  0.500000  0.500000  0.700090  1
  Ni  Ni23  1  0.000000  0.000000  0.299910  1
  P  P24  1  0.500000  0.314465  0.614585  1
  P  P25  1  0.500000  0.685535  0.614585  1
  P  P26  1  0.000000  0.185535  0.385415  1
  P  P27  1  0.000000  0.814465  0.385415  1
  P  P28  1  0.500000  0.500000  0.876987  1
  P  P29  1  0.000000  0.000000  0.123013  1
  P  P30  1  0.500000  0.846077  0.892239  1
  P  P31  1  0.500000  0.153923  0.892239  1
  P  P32  1  0.000000  0.653923  0.107761  1
  P  P33  1  0.000000  0.346077  0.107761  1
  P  P34  1  0.500000  0.500000  0.347087  1
  P  P35  1  0.000000  0.000000  0.652913  1
