# generated using pymatgen
data_DyY5Al21Si3Os8
_symmetry_space_group_name_H-M   'P 1'
_cell_length_a   8.73339700
_cell_length_b   8.73339618
_cell_length_c   9.66158000
_cell_angle_alpha   90.00058431
_cell_angle_beta   89.99941420
_cell_angle_gamma   119.99746046
_symmetry_Int_Tables_number   1
_chemical_formula_structural   DyY5Al21Si3Os8
_chemical_formula_sum   'Dy1 Y5 Al21 Si3 Os8'
_cell_volume   638.19921216
_cell_formula_units_Z   1
loop_
 _symmetry_equiv_pos_site_id
 _symmetry_equiv_pos_as_xyz
  1  'x, y, z'
loop_
 _atom_site_type_symbol
 _atom_site_label
 _atom_site_symmetry_multiplicity
 _atom_site_fract_x
 _atom_site_fract_y
 _atom_site_fract_z
 _atom_site_occupancy
  Dy  Dy0  1  0.804415  0.195585  0.752775  1
  Y  Y1  1  0.194992  0.389965  0.247511  1
  Y  Y2  1  0.804444  0.608853  0.752756  1
  Y  Y3  1  0.610035  0.805008  0.247511  1
  Y  Y4  1  0.391147  0.195556  0.752756  1
  Y  Y5  1  0.194982  0.805018  0.247513  1
  Al  Al6  1  0.333353  0.666647  0.477300  1
  Al  Al7  1  0.164157  0.328323  0.574350  1
  Al  Al8  1  0.835112  0.670279  0.423574  1
  Al  Al9  1  0.671677  0.835843  0.574350  1
  Al  Al10  1  0.834931  0.669904  0.076798  1
  Al  Al11  1  0.329721  0.164888  0.423574  1
  Al  Al12  1  0.165296  0.330608  0.922767  1
  Al  Al13  1  0.164158  0.835842  0.574324  1
  Al  Al14  1  0.330096  0.165069  0.076798  1
  Al  Al15  1  0.835152  0.164848  0.423605  1
  Al  Al16  1  0.669392  0.834704  0.922767  1
  Al  Al17  1  0.834958  0.165042  0.076762  1
  Al  Al18  1  0.165306  0.834694  0.922797  1
  Al  Al19  1  0.563524  0.127065  0.248799  1
  Al  Al20  1  0.436857  0.873652  0.748785  1
  Al  Al21  1  0.872935  0.436476  0.248799  1
  Al  Al22  1  0.126348  0.563143  0.748785  1
  Al  Al23  1  0.563524  0.436476  0.248805  1
  Al  Al24  1  0.436820  0.563180  0.748778  1
  Al  Al25  1  0.999996  0.000004  0.249052  1
  Al  Al26  1  0.999935  0.000065  0.749761  1
  Si  Si27  1  0.333339  0.666661  0.037937  1
  Si  Si28  1  0.666681  0.333319  0.962940  1
  Si  Si29  1  0.666671  0.333329  0.538052  1
  Os  Os30  1  0.499974  0.999893  0.998780  1
  Os  Os31  1  0.000107  0.500026  0.998780  1
  Os  Os32  1  0.504332  0.008596  0.501371  1
  Os  Os33  1  0.499931  0.500069  0.998844  1
  Os  Os34  1  0.991404  0.495668  0.501371  1
  Os  Os35  1  0.504276  0.495724  0.501305  1
  Os  Os36  1  0.000009  0.999991  0.999097  1
  Os  Os37  1  0.000012  0.999988  0.499363  1
