# generated using pymatgen
data_MgCoSi4(Pb2O7)2
_symmetry_space_group_name_H-M   'P 1'
_cell_length_a   8.15774800
_cell_length_b   8.15774800
_cell_length_c   5.34858500
_cell_angle_alpha   90.00000000
_cell_angle_beta   90.00000000
_cell_angle_gamma   90.00000000
_symmetry_Int_Tables_number   1
_chemical_formula_structural   MgCoSi4(Pb2O7)2
_chemical_formula_sum   'Mg1 Co1 Si4 Pb4 O14'
_cell_volume   355.94219388
_cell_formula_units_Z   1
loop_
 _symmetry_equiv_pos_site_id
 _symmetry_equiv_pos_as_xyz
  1  'x, y, z'
loop_
 _atom_site_type_symbol
 _atom_site_label
 _atom_site_symmetry_multiplicity
 _atom_site_fract_x
 _atom_site_fract_y
 _atom_site_fract_z
 _atom_site_occupancy
  Mg  Mg0  1  0.500000  0.500000  0.000000  1
  Co  Co1  1  0.000000  0.000000  0.000000  1
  Si  Si2  1  0.859490  0.359832  0.950246  1
  Si  Si3  1  0.140510  0.640168  0.950246  1
  Si  Si4  1  0.640168  0.859490  0.049754  1
  Si  Si5  1  0.359832  0.140510  0.049754  1
  Pb  Pb6  1  0.677742  0.177034  0.506036  1
  Pb  Pb7  1  0.822966  0.677742  0.493964  1
  Pb  Pb8  1  0.177034  0.322258  0.493964  1
  Pb  Pb9  1  0.322258  0.822966  0.506036  1
  O  O10  1  0.689978  0.418256  0.806602  1
  O  O11  1  0.310022  0.581744  0.806602  1
  O  O12  1  0.418256  0.310022  0.193398  1
  O  O13  1  0.581744  0.689978  0.193398  1
  O  O14  1  0.918022  0.190457  0.804543  1
  O  O15  1  0.809543  0.918022  0.195457  1
  O  O16  1  0.190457  0.081978  0.195457  1
  O  O17  1  0.081978  0.809543  0.804543  1
  O  O18  1  0.845012  0.345425  0.251941  1
  O  O19  1  0.654575  0.845012  0.748059  1
  O  O20  1  0.500000  0.000000  0.123418  1
  O  O21  1  0.000000  0.500000  0.876582  1
  O  O22  1  0.154988  0.654575  0.251941  1
  O  O23  1  0.345425  0.154988  0.748059  1
