# generated using pymatgen
data_Tb4AgPd
_symmetry_space_group_name_H-M   'P 1'
_cell_length_a   9.63960478
_cell_length_b   9.63960526
_cell_length_c   9.63959900
_cell_angle_alpha   60.00001804
_cell_angle_beta   60.00001640
_cell_angle_gamma   60.00013201
_symmetry_Int_Tables_number   1
_chemical_formula_structural   Tb4AgPd
_chemical_formula_sum   'Tb16 Ag4 Pd4'
_cell_volume   633.37802946
_cell_formula_units_Z   4
loop_
 _symmetry_equiv_pos_site_id
 _symmetry_equiv_pos_as_xyz
  1  'x, y, z'
loop_
 _atom_site_type_symbol
 _atom_site_label
 _atom_site_symmetry_multiplicity
 _atom_site_fract_x
 _atom_site_fract_y
 _atom_site_fract_z
 _atom_site_occupancy
  Tb  Tb0  1  0.357126  0.357126  0.357131  1
  Tb  Tb1  1  0.357126  0.357126  0.928617  1
  Tb  Tb2  1  0.357124  0.928618  0.357130  1
  Tb  Tb3  1  0.928618  0.357124  0.357130  1
  Tb  Tb4  1  0.810620  0.189381  0.189383  1
  Tb  Tb5  1  0.189381  0.810620  0.810616  1
  Tb  Tb6  1  0.189381  0.810620  0.189383  1
  Tb  Tb7  1  0.810620  0.189381  0.810616  1
  Tb  Tb8  1  0.189382  0.189382  0.810618  1
  Tb  Tb9  1  0.810618  0.810618  0.189382  1
  Tb  Tb10  1  0.934157  0.565844  0.565845  1
  Tb  Tb11  1  0.565844  0.934157  0.934154  1
  Tb  Tb12  1  0.565844  0.934157  0.565845  1
  Tb  Tb13  1  0.934157  0.565844  0.934154  1
  Tb  Tb14  1  0.565846  0.565846  0.934154  1
  Tb  Tb15  1  0.934156  0.934156  0.565844  1
  Ag  Ag16  1  0.583857  0.583857  0.583857  1
  Ag  Ag17  1  0.583857  0.583857  0.248427  1
  Ag  Ag18  1  0.583858  0.248426  0.583857  1
  Ag  Ag19  1  0.248426  0.583858  0.583857  1
  Pd  Pd20  1  0.145579  0.145579  0.145579  1
  Pd  Pd21  1  0.145579  0.145579  0.563263  1
  Pd  Pd22  1  0.145579  0.563264  0.145579  1
  Pd  Pd23  1  0.563264  0.145579  0.145579  1
