# generated using pymatgen
data_YbSmNi6(BPd)2
_symmetry_space_group_name_H-M   'P 1'
_cell_length_a   5.07244700
_cell_length_b   5.07136912
_cell_length_c   7.12147500
_cell_angle_alpha   90.00000000
_cell_angle_beta   90.00000000
_cell_angle_gamma   120.00703761
_symmetry_Int_Tables_number   1
_chemical_formula_structural   YbSmNi6(BPd)2
_chemical_formula_sum   'Yb1 Sm1 Ni6 B2 Pd2'
_cell_volume   158.63993488
_cell_formula_units_Z   1
loop_
 _symmetry_equiv_pos_site_id
 _symmetry_equiv_pos_as_xyz
  1  'x, y, z'
loop_
 _atom_site_type_symbol
 _atom_site_label
 _atom_site_symmetry_multiplicity
 _atom_site_fract_x
 _atom_site_fract_y
 _atom_site_fract_z
 _atom_site_occupancy
  Yb  Yb0  1  0.999984  0.000000  0.500000  1
  Sm  Sm1  1  0.999981  0.000000  0.000000  1
  Ni  Ni2  1  0.499984  0.000000  0.308641  1
  Ni  Ni3  1  0.499985  0.500001  0.308657  1
  Ni  Ni4  1  0.999985  0.499999  0.308657  1
  Ni  Ni5  1  0.499984  0.000000  0.691359  1
  Ni  Ni6  1  0.499985  0.500001  0.691343  1
  Ni  Ni7  1  0.999985  0.499999  0.691343  1
  B  B8  1  0.333271  0.666577  0.500000  1
  B  B9  1  0.666695  0.333423  0.500000  1
  Pd  Pd10  1  0.333316  0.666672  0.000000  1
  Pd  Pd11  1  0.666645  0.333328  0.000000  1
