# generated using pymatgen
data_Zr2MnInCo8
_symmetry_space_group_name_H-M   'P 1'
_cell_length_a   4.85453980
_cell_length_b   4.85453900
_cell_length_c   8.43626085
_cell_angle_alpha   106.72144006
_cell_angle_beta   73.27856427
_cell_angle_gamma   119.99999970
_symmetry_Int_Tables_number   1
_chemical_formula_structural   Zr2MnInCo8
_chemical_formula_sum   'Zr2 Mn1 In1 Co8'
_cell_volume   162.39770516
_cell_formula_units_Z   1
loop_
 _symmetry_equiv_pos_site_id
 _symmetry_equiv_pos_as_xyz
  1  'x, y, z'
loop_
 _atom_site_type_symbol
 _atom_site_label
 _atom_site_symmetry_multiplicity
 _atom_site_fract_x
 _atom_site_fract_y
 _atom_site_fract_z
 _atom_site_occupancy
  Zr  Zr0  1  0.997095  0.002905  0.008714  1
  Zr  Zr1  1  0.502337  0.497663  0.492987  1
  Mn  Mn2  1  0.873800  0.126200  0.378600  1
  In  In3  1  0.375619  0.624381  0.873143  1
  Co  Co4  1  0.436139  0.563861  0.191571  1
  Co  Co5  1  0.937958  0.062042  0.682840  1
  Co  Co6  1  0.436139  0.063850  0.191571  1
  Co  Co7  1  0.937958  0.558756  0.682840  1
  Co  Co8  1  0.188053  0.811947  0.435839  1
  Co  Co9  1  0.687505  0.312495  0.937486  1
  Co  Co10  1  0.936150  0.563861  0.191571  1
  Co  Co11  1  0.441244  0.062042  0.682840  1
