# generated using pymatgen
data_YEr3Si6PtRh
_symmetry_space_group_name_H-M   'P 1'
_cell_length_a   8.15151100
_cell_length_b   8.15151109
_cell_length_c   7.89916400
_cell_angle_alpha   90.00000000
_cell_angle_beta   90.00000000
_cell_angle_gamma   119.99999557
_symmetry_Int_Tables_number   1
_chemical_formula_structural   YEr3Si6PtRh
_chemical_formula_sum   'Y2 Er6 Si12 Pt2 Rh2'
_cell_volume   454.55665916
_cell_formula_units_Z   2
loop_
 _symmetry_equiv_pos_site_id
 _symmetry_equiv_pos_as_xyz
  1  'x, y, z'
loop_
 _atom_site_type_symbol
 _atom_site_label
 _atom_site_symmetry_multiplicity
 _atom_site_fract_x
 _atom_site_fract_y
 _atom_site_fract_z
 _atom_site_occupancy
  Y  Y0  1  0.000000  0.000000  0.250000  1
  Y  Y1  1  0.000000  0.000000  0.750000  1
  Er  Er2  1  0.490293  0.509707  0.250000  1
  Er  Er3  1  0.490293  0.980584  0.250000  1
  Er  Er4  1  0.019416  0.509707  0.250000  1
  Er  Er5  1  0.507382  0.492618  0.750000  1
  Er  Er6  1  0.985236  0.492618  0.750000  1
  Er  Er7  1  0.507382  0.014764  0.750000  1
  Si  Si8  1  0.835406  0.164594  0.499986  1
  Si  Si9  1  0.835406  0.670814  0.499986  1
  Si  Si10  1  0.329186  0.164594  0.499986  1
  Si  Si11  1  0.835406  0.164594  0.000014  1
  Si  Si12  1  0.835406  0.670814  0.000014  1
  Si  Si13  1  0.329186  0.164594  0.000014  1
  Si  Si14  1  0.168269  0.831731  0.000970  1
  Si  Si15  1  0.663464  0.831731  0.000970  1
  Si  Si16  1  0.168269  0.336536  0.000970  1
  Si  Si17  1  0.168269  0.831731  0.499030  1
  Si  Si18  1  0.663464  0.831731  0.499030  1
  Si  Si19  1  0.168269  0.336536  0.499030  1
  Pt  Pt20  1  0.666667  0.333333  0.473321  1
  Pt  Pt21  1  0.666667  0.333333  0.026679  1
  Rh  Rh22  1  0.333333  0.666667  0.962464  1
  Rh  Rh23  1  0.333333  0.666667  0.537536  1
