# generated using pymatgen
data_PrY2CuRh8
_symmetry_space_group_name_H-M   'P 1'
_cell_length_a   5.33589300
_cell_length_b   5.33592330
_cell_length_c   17.23047900
_cell_angle_alpha   90.00000000
_cell_angle_beta   90.00000000
_cell_angle_gamma   119.99810217
_symmetry_Int_Tables_number   1
_chemical_formula_structural   PrY2CuRh8
_chemical_formula_sum   'Pr2 Y4 Cu2 Rh16'
_cell_volume   424.86697823
_cell_formula_units_Z   2
loop_
 _symmetry_equiv_pos_site_id
 _symmetry_equiv_pos_as_xyz
  1  'x, y, z'
loop_
 _atom_site_type_symbol
 _atom_site_label
 _atom_site_symmetry_multiplicity
 _atom_site_fract_x
 _atom_site_fract_y
 _atom_site_fract_z
 _atom_site_occupancy
  Pr  Pr0  1  0.333334  0.666664  0.750000  1
  Pr  Pr1  1  0.666666  0.333336  0.250000  1
  Y  Y2  1  0.333328  0.666680  0.958503  1
  Y  Y3  1  0.666672  0.333320  0.041497  1
  Y  Y4  1  0.666672  0.333320  0.458503  1
  Y  Y5  1  0.333328  0.666680  0.541497  1
  Cu  Cu6  1  0.333331  0.666666  0.250000  1
  Cu  Cu7  1  0.666669  0.333334  0.750000  1
  Rh  Rh8  1  0.168345  0.831652  0.375004  1
  Rh  Rh9  1  0.168337  0.336666  0.374996  1
  Rh  Rh10  1  0.663328  0.831659  0.374998  1
  Rh  Rh11  1  0.831655  0.168348  0.624996  1
  Rh  Rh12  1  0.831663  0.663334  0.625004  1
  Rh  Rh13  1  0.336672  0.168341  0.625002  1
  Rh  Rh14  1  0.831655  0.168348  0.875004  1
  Rh  Rh15  1  0.831663  0.663334  0.874996  1
  Rh  Rh16  1  0.336672  0.168341  0.874998  1
  Rh  Rh17  1  0.168345  0.831652  0.124996  1
  Rh  Rh18  1  0.168337  0.336666  0.125004  1
  Rh  Rh19  1  0.663328  0.831659  0.125002  1
  Rh  Rh20  1  0.999987  0.000040  0.250000  1
  Rh  Rh21  1  0.000013  0.999960  0.750000  1
  Rh  Rh22  1  0.000000  0.000000  0.500000  1
  Rh  Rh23  1  0.000000  0.000000  0.000000  1
