# generated using pymatgen
data_Tb12Co6Bi
_symmetry_space_group_name_H-M   'P 1'
_cell_length_a   8.44204688
_cell_length_b   8.44204874
_cell_length_c   8.44204800
_cell_angle_alpha   109.47121886
_cell_angle_beta   109.47122331
_cell_angle_gamma   109.47122029
_symmetry_Int_Tables_number   1
_chemical_formula_structural   Tb12Co6Bi
_chemical_formula_sum   'Tb12 Co6 Bi1'
_cell_volume   463.14986141
_cell_formula_units_Z   1
loop_
 _symmetry_equiv_pos_site_id
 _symmetry_equiv_pos_as_xyz
  1  'x, y, z'
loop_
 _atom_site_type_symbol
 _atom_site_label
 _atom_site_symmetry_multiplicity
 _atom_site_fract_x
 _atom_site_fract_y
 _atom_site_fract_z
 _atom_site_occupancy
  Tb  Tb0  1  0.805427  0.692734  0.498162  1
  Tb  Tb1  1  0.194573  0.307266  0.501838  1
  Tb  Tb2  1  0.194573  0.692734  0.887306  1
  Tb  Tb3  1  0.805427  0.307266  0.112694  1
  Tb  Tb4  1  0.692734  0.498162  0.805427  1
  Tb  Tb5  1  0.307266  0.501838  0.194573  1
  Tb  Tb6  1  0.692734  0.887306  0.194573  1
  Tb  Tb7  1  0.307266  0.112694  0.805427  1
  Tb  Tb8  1  0.498162  0.805427  0.692734  1
  Tb  Tb9  1  0.501838  0.194573  0.307266  1
  Tb  Tb10  1  0.112694  0.805427  0.307266  1
  Tb  Tb11  1  0.887306  0.194573  0.692734  1
  Co  Co12  1  0.887123  0.387123  0.500000  1
  Co  Co13  1  0.112877  0.612877  0.500000  1
  Co  Co14  1  0.387123  0.500000  0.887123  1
  Co  Co15  1  0.612877  0.500000  0.112877  1
  Co  Co16  1  0.500000  0.887123  0.387123  1
  Co  Co17  1  0.500000  0.112877  0.612877  1
  Bi  Bi18  1  0.000000  0.000000  0.000000  1
