# generated using pymatgen
data_Nd2MnOsI
_symmetry_space_group_name_H-M   'P 1'
_cell_length_a   4.11130700
_cell_length_b   4.11130835
_cell_length_c   18.07736300
_cell_angle_alpha   90.00000000
_cell_angle_beta   90.00000000
_cell_angle_gamma   120.00001326
_symmetry_Int_Tables_number   1
_chemical_formula_structural   Nd2MnOsI
_chemical_formula_sum   'Nd4 Mn2 Os2 I2'
_cell_volume   264.62179482
_cell_formula_units_Z   2
loop_
 _symmetry_equiv_pos_site_id
 _symmetry_equiv_pos_as_xyz
  1  'x, y, z'
loop_
 _atom_site_type_symbol
 _atom_site_label
 _atom_site_symmetry_multiplicity
 _atom_site_fract_x
 _atom_site_fract_y
 _atom_site_fract_z
 _atom_site_occupancy
  Nd  Nd0  1  0.000000  0.000000  0.109045  1
  Nd  Nd1  1  0.000000  0.000000  0.609045  1
  Nd  Nd2  1  0.000000  0.000000  0.890605  1
  Nd  Nd3  1  0.000000  0.000000  0.390605  1
  Mn  Mn4  1  0.333333  0.666667  0.010997  1
  Mn  Mn5  1  0.666667  0.333333  0.510997  1
  Os  Os6  1  0.666667  0.333333  0.989962  1
  Os  Os7  1  0.333333  0.666667  0.489962  1
  I  I8  1  0.666667  0.333333  0.249391  1
  I  I9  1  0.333333  0.666667  0.749391  1
