# generated using pymatgen
data_TbTl2Ag(Pt2O7)2
_symmetry_space_group_name_H-M   'P 1'
_cell_length_a   7.24438425
_cell_length_b   7.23275666
_cell_length_c   7.23275587
_cell_angle_alpha   60.70321202
_cell_angle_beta   60.90912720
_cell_angle_gamma   60.90912834
_symmetry_Int_Tables_number   1
_chemical_formula_structural   TbTl2Ag(Pt2O7)2
_chemical_formula_sum   'Tb1 Tl2 Ag1 Pt4 O14'
_cell_volume   273.05135156
_cell_formula_units_Z   1
loop_
 _symmetry_equiv_pos_site_id
 _symmetry_equiv_pos_as_xyz
  1  'x, y, z'
loop_
 _atom_site_type_symbol
 _atom_site_label
 _atom_site_symmetry_multiplicity
 _atom_site_fract_x
 _atom_site_fract_y
 _atom_site_fract_z
 _atom_site_occupancy
  Tb  Tb0  1  0.125000  0.625000  0.625000  1
  Tl  Tl1  1  0.625000  0.625000  0.125000  1
  Tl  Tl2  1  0.625000  0.125000  0.625000  1
  Ag  Ag3  1  0.625000  0.625000  0.625000  1
  Pt  Pt4  1  0.125000  0.125000  0.125000  1
  Pt  Pt5  1  0.625000  0.125000  0.125000  1
  Pt  Pt6  1  0.125000  0.625000  0.125000  1
  Pt  Pt7  1  0.125000  0.125000  0.625000  1
  O  O8  1  0.055768  0.457262  0.457262  1
  O  O9  1  0.794477  0.792716  0.201985  1
  O  O10  1  0.790688  0.211324  0.211324  1
  O  O11  1  0.455523  0.048015  0.457284  1
  O  O12  1  0.042026  0.462021  0.031103  1
  O  O13  1  0.743183  0.742013  0.742013  1
  O  O14  1  0.042026  0.031103  0.462021  1
  O  O15  1  0.207974  0.787979  0.218897  1
  O  O16  1  0.207974  0.218897  0.787979  1
  O  O17  1  0.506817  0.507987  0.507987  1
  O  O18  1  0.794477  0.201985  0.792716  1
  O  O19  1  0.459312  0.038676  0.038676  1
  O  O20  1  0.455523  0.457284  0.048015  1
  O  O21  1  0.194232  0.792738  0.792738  1
