# generated using pymatgen
data_Li4Eu3TmSi8
_symmetry_space_group_name_H-M   'P 1'
_cell_length_a   3.83949100
_cell_length_b   7.84897699
_cell_length_c   10.52177707
_cell_angle_alpha   89.83558257
_cell_angle_beta   90.00002582
_cell_angle_gamma   89.99997783
_symmetry_Int_Tables_number   1
_chemical_formula_structural   Li4Eu3TmSi8
_chemical_formula_sum   'Li4 Eu3 Tm1 Si8'
_cell_volume   317.08377326
_cell_formula_units_Z   1
loop_
 _symmetry_equiv_pos_site_id
 _symmetry_equiv_pos_as_xyz
  1  'x, y, z'
loop_
 _atom_site_type_symbol
 _atom_site_label
 _atom_site_symmetry_multiplicity
 _atom_site_fract_x
 _atom_site_fract_y
 _atom_site_fract_z
 _atom_site_occupancy
  Li  Li0  1  0.250000  0.996615  0.389204  1
  Li  Li1  1  0.750000  0.001562  0.610178  1
  Li  Li2  1  0.250000  0.496564  0.107761  1
  Li  Li3  1  0.750000  0.510124  0.889018  1
  Eu  Eu4  1  0.750000  0.866270  0.135240  1
  Eu  Eu5  1  0.250000  0.634560  0.637442  1
  Eu  Eu6  1  0.750000  0.361429  0.365888  1
  Tm  Tm7  1  0.250000  0.128377  0.865169  1
  Si  Si8  1  0.750000  0.266973  0.058667  1
  Si  Si9  1  0.250000  0.741684  0.931699  1
  Si  Si10  1  0.750000  0.766897  0.431927  1
  Si  Si11  1  0.250000  0.225268  0.576212  1
  Si  Si12  1  0.750000  0.845476  0.823082  1
  Si  Si13  1  0.250000  0.165321  0.169033  1
  Si  Si14  1  0.750000  0.329091  0.684853  1
  Si  Si15  1  0.250000  0.663788  0.324624  1
