# generated using pymatgen
data_Zr6Ga7Cu16
_symmetry_space_group_name_H-M   'P 1'
_cell_length_a   8.44549010
_cell_length_b   8.44548943
_cell_length_c   8.44549000
_cell_angle_alpha   59.99999777
_cell_angle_beta   60.00000038
_cell_angle_gamma   59.99999765
_symmetry_Int_Tables_number   1
_chemical_formula_structural   Zr6Ga7Cu16
_chemical_formula_sum   'Zr6 Ga7 Cu16'
_cell_volume   425.95088044
_cell_formula_units_Z   1
loop_
 _symmetry_equiv_pos_site_id
 _symmetry_equiv_pos_as_xyz
  1  'x, y, z'
loop_
 _atom_site_type_symbol
 _atom_site_label
 _atom_site_symmetry_multiplicity
 _atom_site_fract_x
 _atom_site_fract_y
 _atom_site_fract_z
 _atom_site_occupancy
  Zr  Zr0  1  0.705046  0.705046  0.294954  1
  Zr  Zr1  1  0.294954  0.705046  0.294954  1
  Zr  Zr2  1  0.705046  0.294954  0.294954  1
  Zr  Zr3  1  0.294954  0.294954  0.705046  1
  Zr  Zr4  1  0.705046  0.294954  0.705046  1
  Zr  Zr5  1  0.294954  0.705046  0.705046  1
  Ga  Ga6  1  0.000000  0.000000  0.000000  1
  Ga  Ga7  1  0.000000  0.000000  0.500000  1
  Ga  Ga8  1  0.500000  0.000000  0.500000  1
  Ga  Ga9  1  0.000000  0.500000  0.500000  1
  Ga  Ga10  1  0.500000  0.500000  0.000000  1
  Ga  Ga11  1  0.000000  0.500000  0.000000  1
  Ga  Ga12  1  0.500000  0.000000  0.000000  1
  Cu  Cu13  1  0.880699  0.880699  0.357903  1
  Cu  Cu14  1  0.880699  0.357903  0.880699  1
  Cu  Cu15  1  0.357903  0.880699  0.880699  1
  Cu  Cu16  1  0.880699  0.880699  0.880699  1
  Cu  Cu17  1  0.119301  0.119301  0.642097  1
  Cu  Cu18  1  0.119301  0.642097  0.119301  1
  Cu  Cu19  1  0.642097  0.119301  0.119301  1
  Cu  Cu20  1  0.119301  0.119301  0.119301  1
  Cu  Cu21  1  0.670815  0.670815  0.987556  1
  Cu  Cu22  1  0.670815  0.987556  0.670815  1
  Cu  Cu23  1  0.987556  0.670815  0.670815  1
  Cu  Cu24  1  0.670815  0.670815  0.670815  1
  Cu  Cu25  1  0.329185  0.329185  0.012444  1
  Cu  Cu26  1  0.329185  0.012444  0.329185  1
  Cu  Cu27  1  0.012444  0.329185  0.329185  1
  Cu  Cu28  1  0.329185  0.329185  0.329185  1
