# generated using pymatgen
data_LuHf(Np3Sb5)2
_symmetry_space_group_name_H-M   'P 1'
_cell_length_a   9.23632100
_cell_length_b   9.23632071
_cell_length_c   6.27319400
_cell_angle_alpha   90.00000000
_cell_angle_beta   90.00000000
_cell_angle_gamma   120.00000462
_symmetry_Int_Tables_number   1
_chemical_formula_structural   LuHf(Np3Sb5)2
_chemical_formula_sum   'Lu1 Hf1 Np6 Sb10'
_cell_volume   463.46543718
_cell_formula_units_Z   1
loop_
 _symmetry_equiv_pos_site_id
 _symmetry_equiv_pos_as_xyz
  1  'x, y, z'
loop_
 _atom_site_type_symbol
 _atom_site_label
 _atom_site_symmetry_multiplicity
 _atom_site_fract_x
 _atom_site_fract_y
 _atom_site_fract_z
 _atom_site_occupancy
  Lu  Lu0  1  0.000000  0.000000  0.000000  1
  Hf  Hf1  1  0.000000  0.000000  0.500000  1
  Np  Np2  1  0.616148  0.000000  0.251160  1
  Np  Np3  1  0.383852  0.000000  0.748840  1
  Np  Np4  1  0.000000  0.616148  0.251160  1
  Np  Np5  1  0.000000  0.383852  0.748840  1
  Np  Np6  1  0.383852  0.383852  0.251160  1
  Np  Np7  1  0.616148  0.616148  0.748840  1
  Sb  Sb8  1  0.270844  0.000000  0.253970  1
  Sb  Sb9  1  0.729156  0.000000  0.746030  1
  Sb  Sb10  1  0.000000  0.270844  0.253970  1
  Sb  Sb11  1  0.000000  0.729156  0.746030  1
  Sb  Sb12  1  0.729156  0.729156  0.253970  1
  Sb  Sb13  1  0.270844  0.270844  0.746030  1
  Sb  Sb14  1  0.333333  0.666667  0.000000  1
  Sb  Sb15  1  0.666667  0.333333  0.000000  1
  Sb  Sb16  1  0.666667  0.333333  0.500000  1
  Sb  Sb17  1  0.333333  0.666667  0.500000  1
