# generated using pymatgen
data_Ho2Er13Tm(Ga3Os)2
_symmetry_space_group_name_H-M   'P 1'
_cell_length_a   9.93888612
_cell_length_b   9.93888653
_cell_length_c   6.99880202
_cell_angle_alpha   90.00391098
_cell_angle_beta   89.99608677
_cell_angle_gamma   119.99054186
_symmetry_Int_Tables_number   1
_chemical_formula_structural   Ho2Er13Tm(Ga3Os)2
_chemical_formula_sum   'Ho2 Er13 Tm1 Ga6 Os2'
_cell_volume   598.78535318
_cell_formula_units_Z   1
loop_
 _symmetry_equiv_pos_site_id
 _symmetry_equiv_pos_as_xyz
  1  'x, y, z'
loop_
 _atom_site_type_symbol
 _atom_site_label
 _atom_site_symmetry_multiplicity
 _atom_site_fract_x
 _atom_site_fract_y
 _atom_site_fract_z
 _atom_site_occupancy
  Ho  Ho0  1  0.000111  0.999889  0.267514  1
  Ho  Ho1  1  0.000119  0.999881  0.767784  1
  Er  Er2  1  0.828406  0.171594  0.490505  1
  Er  Er3  1  0.171714  0.343395  0.990549  1
  Er  Er4  1  0.656605  0.828286  0.990549  1
  Er  Er5  1  0.343177  0.171638  0.490436  1
  Er  Er6  1  0.828362  0.656823  0.490436  1
  Er  Er7  1  0.333179  0.666821  0.662745  1
  Er  Er8  1  0.666635  0.333365  0.162596  1
  Er  Er9  1  0.465366  0.534634  0.295813  1
  Er  Er10  1  0.534521  0.465479  0.795854  1
  Er  Er11  1  0.465168  0.930806  0.295539  1
  Er  Er12  1  0.069194  0.534832  0.295539  1
  Er  Er13  1  0.931174  0.465729  0.795929  1
  Er  Er14  1  0.534271  0.068826  0.795929  1
  Tm  Tm15  1  0.171990  0.828010  0.990399  1
  Ga  Ga16  1  0.163967  0.836033  0.542816  1
  Ga  Ga17  1  0.836005  0.163995  0.042207  1
  Ga  Ga18  1  0.163932  0.327997  0.542439  1
  Ga  Ga19  1  0.672003  0.836068  0.542439  1
  Ga  Ga20  1  0.327573  0.163221  0.042126  1
  Ga  Ga21  1  0.836779  0.672427  0.042126  1
  Os  Os22  1  0.333107  0.666893  0.056818  1
  Os  Os23  1  0.666640  0.333360  0.557030  1
