# generated using pymatgen
data_Na3LiOsO5
_symmetry_space_group_name_H-M   'P 1'
_cell_length_a   5.69439941
_cell_length_b   6.09367664
_cell_length_c   7.58647890
_cell_angle_alpha   76.60759043
_cell_angle_beta   71.79118530
_cell_angle_gamma   73.42095054
_symmetry_Int_Tables_number   1
_chemical_formula_structural   Na3LiOsO5
_chemical_formula_sum   'Na6 Li2 Os2 O10'
_cell_volume   236.71885422
_cell_formula_units_Z   2
loop_
 _symmetry_equiv_pos_site_id
 _symmetry_equiv_pos_as_xyz
  1  'x, y, z'
loop_
 _atom_site_type_symbol
 _atom_site_label
 _atom_site_symmetry_multiplicity
 _atom_site_fract_x
 _atom_site_fract_y
 _atom_site_fract_z
 _atom_site_occupancy
  Na  Na0  1  0.700163  0.051141  0.594582  1
  Na  Na1  1  0.318818  0.445815  0.390534  1
  Na  Na2  1  0.516407  0.745461  0.991385  1
  Na  Na3  1  0.681182  0.554185  0.609466  1
  Na  Na4  1  0.299837  0.948859  0.405418  1
  Na  Na5  1  0.483593  0.254539  0.008615  1
  Li  Li6  1  0.885926  0.360763  0.154478  1
  Li  Li7  1  0.114074  0.639237  0.845522  1
  Os  Os8  1  0.102131  0.158209  0.801220  1
  Os  Os9  1  0.897869  0.841791  0.198780  1
  O  O10  1  0.013206  0.227607  0.573784  1
  O  O11  1  0.849633  0.947643  0.929853  1
  O  O12  1  0.847959  0.425889  0.891778  1
  O  O13  1  0.647255  0.661605  0.274188  1
  O  O14  1  0.986794  0.772393  0.426216  1
  O  O15  1  0.350096  0.879625  0.725508  1
  O  O16  1  0.649904  0.120375  0.274492  1
  O  O17  1  0.150367  0.052357  0.070147  1
  O  O18  1  0.152041  0.574111  0.108222  1
  O  O19  1  0.352745  0.338395  0.725812  1
