# generated using pymatgen
data_SmDyMn2Co10P7
_symmetry_space_group_name_H-M   'P 1'
_cell_length_a   9.09138121
_cell_length_b   9.07747683
_cell_length_c   3.62019400
_cell_angle_alpha   90.00000000
_cell_angle_beta   90.00000000
_cell_angle_gamma   120.11724860
_symmetry_Int_Tables_number   1
_chemical_formula_structural   SmDyMn2Co10P7
_chemical_formula_sum   'Sm1 Dy1 Mn2 Co10 P7'
_cell_volume   258.43014564
_cell_formula_units_Z   1
loop_
 _symmetry_equiv_pos_site_id
 _symmetry_equiv_pos_as_xyz
  1  'x, y, z'
loop_
 _atom_site_type_symbol
 _atom_site_label
 _atom_site_symmetry_multiplicity
 _atom_site_fract_x
 _atom_site_fract_y
 _atom_site_fract_z
 _atom_site_occupancy
  Sm  Sm0  1  0.334853  0.668665  0.500000  1
  Dy  Dy1  1  0.666299  0.333674  0.000000  1
  Mn  Mn2  1  0.900153  0.119728  0.000000  1
  Mn  Mn3  1  0.880930  0.779513  0.000000  1
  Co  Co4  1  0.428567  0.061320  0.500000  1
  Co  Co5  1  0.938585  0.369377  0.500000  1
  Co  Co6  1  0.630262  0.568913  0.500000  1
  Co  Co7  1  0.156875  0.273288  0.500000  1
  Co  Co8  1  0.726594  0.884266  0.500000  1
  Co  Co9  1  0.118335  0.844361  0.500000  1
  Co  Co10  1  0.385838  0.432336  0.000000  1
  Co  Co11  1  0.565141  0.952690  0.000000  1
  Co  Co12  1  0.049301  0.614928  0.000000  1
  Co  Co13  1  0.217829  0.093777  0.000000  1
  P  P14  1  0.113873  0.404270  0.000000  1
  P  P15  1  0.599791  0.710336  0.000000  1
  P  P16  1  0.288811  0.889849  0.000000  1
  P  P17  1  0.001115  0.999502  0.500000  1
  P  P18  1  0.409596  0.298465  0.500000  1
  P  P19  1  0.698644  0.111603  0.500000  1
  P  P20  1  0.888605  0.589138  0.500000  1
