# generated using pymatgen
data_Eu6PtO12
_symmetry_space_group_name_H-M   'P 1'
_cell_length_a   6.62649173
_cell_length_b   6.62649134
_cell_length_c   6.62649136
_cell_angle_alpha   98.81616653
_cell_angle_beta   98.81618091
_cell_angle_gamma   98.81617799
_symmetry_Int_Tables_number   1
_chemical_formula_structural   Eu6PtO12
_chemical_formula_sum   'Eu6 Pt1 O12'
_cell_volume   279.44344596
_cell_formula_units_Z   1
loop_
 _symmetry_equiv_pos_site_id
 _symmetry_equiv_pos_as_xyz
  1  'x, y, z'
loop_
 _atom_site_type_symbol
 _atom_site_label
 _atom_site_symmetry_multiplicity
 _atom_site_fract_x
 _atom_site_fract_y
 _atom_site_fract_z
 _atom_site_occupancy
  Eu  Eu0  1  0.138327  0.299039  0.603085  1
  Eu  Eu1  1  0.396915  0.861673  0.700961  1
  Eu  Eu2  1  0.700961  0.396915  0.861673  1
  Eu  Eu3  1  0.299039  0.603085  0.138327  1
  Eu  Eu4  1  0.603085  0.138327  0.299039  1
  Eu  Eu5  1  0.861673  0.700961  0.396915  1
  Pt  Pt6  1  0.000000  0.000000  0.000000  1
  O  O7  1  0.062782  0.298584  0.960532  1
  O  O8  1  0.039468  0.937218  0.701416  1
  O  O9  1  0.407652  0.563970  0.823675  1
  O  O10  1  0.176325  0.592348  0.436030  1
  O  O11  1  0.701416  0.039468  0.937218  1
  O  O12  1  0.436030  0.176325  0.592348  1
  O  O13  1  0.563970  0.823675  0.407652  1
  O  O14  1  0.298584  0.960532  0.062782  1
  O  O15  1  0.823675  0.407652  0.563970  1
  O  O16  1  0.592348  0.436030  0.176325  1
  O  O17  1  0.960532  0.062782  0.298584  1
  O  O18  1  0.937218  0.701416  0.039468  1
