# generated using pymatgen
data_Dy15HoMgAg3Rh4
_symmetry_space_group_name_H-M   'P 1'
_cell_length_a   9.53973173
_cell_length_b   9.56350858
_cell_length_c   9.56350915
_cell_angle_alpha   60.24413058
_cell_angle_beta   60.23344659
_cell_angle_gamma   60.23345448
_symmetry_Int_Tables_number   1
_chemical_formula_structural   Dy15HoMgAg3Rh4
_chemical_formula_sum   'Dy15 Ho1 Mg1 Ag3 Rh4'
_cell_volume   620.26842918
_cell_formula_units_Z   1
loop_
 _symmetry_equiv_pos_site_id
 _symmetry_equiv_pos_as_xyz
  1  'x, y, z'
loop_
 _atom_site_type_symbol
 _atom_site_label
 _atom_site_symmetry_multiplicity
 _atom_site_fract_x
 _atom_site_fract_y
 _atom_site_fract_z
 _atom_site_occupancy
  Dy  Dy0  1  0.649987  0.048018  0.650795  1
  Dy  Dy1  1  0.814326  0.812985  0.186934  1
  Dy  Dy2  1  0.435142  0.064658  0.064658  1
  Dy  Dy3  1  0.436180  0.434868  0.064486  1
  Dy  Dy4  1  0.190094  0.189461  0.811116  1
  Dy  Dy5  1  0.814420  0.186987  0.186987  1
  Dy  Dy6  1  0.066136  0.435543  0.063719  1
  Dy  Dy7  1  0.436180  0.064486  0.434868  1
  Dy  Dy8  1  0.061939  0.645963  0.645963  1
  Dy  Dy9  1  0.189321  0.811769  0.811769  1
  Dy  Dy10  1  0.649987  0.650795  0.048018  1
  Dy  Dy11  1  0.190094  0.811116  0.189461  1
  Dy  Dy12  1  0.066136  0.063719  0.435543  1
  Dy  Dy13  1  0.814326  0.186934  0.812985  1
  Dy  Dy14  1  0.648577  0.650570  0.650570  1
  Ho  Ho15  1  0.067005  0.435639  0.435639  1
  Mg  Mg16  1  0.713950  0.428307  0.428307  1
  Ag  Ag17  1  0.417125  0.414784  0.750908  1
  Ag  Ag18  1  0.416702  0.415627  0.415627  1
  Ag  Ag19  1  0.417125  0.750908  0.414784  1
  Rh  Rh20  1  0.858823  0.429128  0.854474  1
  Rh  Rh21  1  0.427584  0.857055  0.857055  1
  Rh  Rh22  1  0.858823  0.854474  0.429128  1
  Rh  Rh23  1  0.860021  0.856207  0.856207  1
