# generated using pymatgen
data_La12Os3PdI12
_symmetry_space_group_name_H-M   'P 1'
_cell_length_a   11.06332516
_cell_length_b   11.06332462
_cell_length_c   11.06332465
_cell_angle_alpha   109.63351891
_cell_angle_beta   109.63352081
_cell_angle_gamma   109.63351961
_symmetry_Int_Tables_number   1
_chemical_formula_structural   La12Os3PdI12
_chemical_formula_sum   'La12 Os3 Pd1 I12'
_cell_volume   1036.09058627
_cell_formula_units_Z   1
loop_
 _symmetry_equiv_pos_site_id
 _symmetry_equiv_pos_as_xyz
  1  'x, y, z'
loop_
 _atom_site_type_symbol
 _atom_site_label
 _atom_site_symmetry_multiplicity
 _atom_site_fract_x
 _atom_site_fract_y
 _atom_site_fract_z
 _atom_site_occupancy
  La  La0  1  0.457296  0.486312  0.222230  1
  La  La1  1  0.750000  0.228374  0.271626  1
  La  La2  1  0.750000  0.022211  0.477789  1
  La  La3  1  0.222230  0.457296  0.486312  1
  La  La4  1  0.271626  0.750000  0.228374  1
  La  La5  1  0.042704  0.277770  0.013688  1
  La  La6  1  0.013688  0.042704  0.277770  1
  La  La7  1  0.477789  0.750000  0.022211  1
  La  La8  1  0.486312  0.222230  0.457296  1
  La  La9  1  0.022211  0.477789  0.750000  1
  La  La10  1  0.277770  0.013688  0.042704  1
  La  La11  1  0.228374  0.271626  0.750000  1
  Os  Os12  1  0.498254  0.001746  0.250000  1
  Os  Os13  1  0.001746  0.250000  0.498254  1
  Os  Os14  1  0.250000  0.498254  0.001746  1
  Pd  Pd15  1  0.250000  0.250000  0.250000  1
  I  I16  1  0.250000  0.760042  0.739958  1
  I  I17  1  0.516514  0.508262  0.758217  1
  I  I18  1  0.983486  0.741783  0.991738  1
  I  I19  1  0.739958  0.250000  0.760042  1
  I  I20  1  0.991738  0.983486  0.741783  1
  I  I21  1  0.250000  0.991684  0.508316  1
  I  I22  1  0.758217  0.516514  0.508262  1
  I  I23  1  0.508316  0.250000  0.991684  1
  I  I24  1  0.760042  0.739958  0.250000  1
  I  I25  1  0.741783  0.991738  0.983486  1
  I  I26  1  0.991684  0.508316  0.250000  1
  I  I27  1  0.508262  0.758217  0.516514  1
