# generated using pymatgen
data_Tb9Y11(Bi2Os)4
_symmetry_space_group_name_H-M   'P 1'
_cell_length_a   8.00680818
_cell_length_b   9.05014000
_cell_length_c   12.55691028
_cell_angle_alpha   90.00000000
_cell_angle_beta   90.02410172
_cell_angle_gamma   90.00000000
_symmetry_Int_Tables_number   1
_chemical_formula_structural   Tb9Y11(Bi2Os)4
_chemical_formula_sum   'Tb9 Y11 Bi8 Os4'
_cell_volume   909.90798082
_cell_formula_units_Z   1
loop_
 _symmetry_equiv_pos_site_id
 _symmetry_equiv_pos_as_xyz
  1  'x, y, z'
loop_
 _atom_site_type_symbol
 _atom_site_label
 _atom_site_symmetry_multiplicity
 _atom_site_fract_x
 _atom_site_fract_y
 _atom_site_fract_z
 _atom_site_occupancy
  Tb  Tb0  1  0.557508  0.750000  0.004327  1
  Tb  Tb1  1  0.674777  0.042083  0.563665  1
  Tb  Tb2  1  0.325233  0.957977  0.436329  1
  Tb  Tb3  1  0.174913  0.957877  0.936365  1
  Tb  Tb4  1  0.325233  0.542023  0.436329  1
  Tb  Tb5  1  0.825230  0.042155  0.063678  1
  Tb  Tb6  1  0.674777  0.457917  0.563665  1
  Tb  Tb7  1  0.825230  0.457845  0.063678  1
  Tb  Tb8  1  0.174913  0.542123  0.936365  1
  Y  Y9  1  0.841776  0.750000  0.791647  1
  Y  Y10  1  0.158266  0.250000  0.208333  1
  Y  Y11  1  0.341794  0.250000  0.708275  1
  Y  Y12  1  0.658230  0.750000  0.291729  1
  Y  Y13  1  0.374604  0.750000  0.693800  1
  Y  Y14  1  0.625345  0.250000  0.306174  1
  Y  Y15  1  0.874586  0.250000  0.806133  1
  Y  Y16  1  0.125431  0.750000  0.193840  1
  Y  Y17  1  0.942943  0.750000  0.504380  1
  Y  Y18  1  0.057025  0.250000  0.495626  1
  Y  Y19  1  0.442934  0.250000  0.995637  1
  Bi  Bi20  1  0.569472  0.493021  0.827798  1
  Bi  Bi21  1  0.430477  0.506710  0.172158  1
  Bi  Bi22  1  0.069442  0.506854  0.672078  1
  Bi  Bi23  1  0.430477  0.993290  0.172158  1
  Bi  Bi24  1  0.930567  0.493131  0.327919  1
  Bi  Bi25  1  0.569472  0.006979  0.827798  1
  Bi  Bi26  1  0.930567  0.006869  0.327919  1
  Bi  Bi27  1  0.069442  0.993146  0.672078  1
  Os  Os28  1  0.575479  0.750000  0.511289  1
  Os  Os29  1  0.424538  0.250000  0.488718  1
  Os  Os30  1  0.075401  0.250000  0.988720  1
  Os  Os31  1  0.923919  0.750000  0.011394  1
