# generated using pymatgen
data_YU3(PbS5)2
_symmetry_space_group_name_H-M   'P 1'
_cell_length_a   7.49328300
_cell_length_b   8.18603730
_cell_length_c   11.78940478
_cell_angle_alpha   90.15586620
_cell_angle_beta   90.00000000
_cell_angle_gamma   90.00000000
_symmetry_Int_Tables_number   1
_chemical_formula_structural   YU3(PbS5)2
_chemical_formula_sum   'Y2 U6 Pb4 S20'
_cell_volume   723.16288101
_cell_formula_units_Z   2
loop_
 _symmetry_equiv_pos_site_id
 _symmetry_equiv_pos_as_xyz
  1  'x, y, z'
loop_
 _atom_site_type_symbol
 _atom_site_label
 _atom_site_symmetry_multiplicity
 _atom_site_fract_x
 _atom_site_fract_y
 _atom_site_fract_z
 _atom_site_occupancy
  Y  Y0  1  0.023506  0.500047  0.318331  1
  Y  Y1  1  0.523506  0.499953  0.181669  1
  U  U2  1  0.979728  0.503368  0.680056  1
  U  U3  1  0.479728  0.496632  0.819944  1
  U  U4  1  0.068659  0.744336  0.007105  1
  U  U5  1  0.568659  0.255664  0.492895  1
  U  U6  1  0.926433  0.257335  0.994037  1
  U  U7  1  0.426433  0.742665  0.505963  1
  Pb  Pb8  1  0.013849  0.992073  0.318444  1
  Pb  Pb9  1  0.513849  0.007927  0.181556  1
  Pb  Pb10  1  0.990919  0.014672  0.673174  1
  Pb  Pb11  1  0.490919  0.985328  0.826826  1
  S  S12  1  0.161689  0.456306  0.093764  1
  S  S13  1  0.661689  0.543694  0.406236  1
  S  S14  1  0.836650  0.547224  0.900157  1
  S  S15  1  0.336650  0.452776  0.599843  1
  S  S16  1  0.447146  0.717543  0.997919  1
  S  S17  1  0.947146  0.282457  0.502081  1
  S  S18  1  0.551330  0.281538  0.994246  1
  S  S19  1  0.051330  0.718462  0.505754  1
  S  S20  1  0.336897  0.272449  0.317171  1
  S  S21  1  0.836897  0.727551  0.182829  1
  S  S22  1  0.658440  0.720086  0.686593  1
  S  S23  1  0.158440  0.279914  0.813407  1
  S  S24  1  0.660406  0.962016  0.415856  1
  S  S25  1  0.160406  0.037984  0.084144  1
  S  S26  1  0.343667  0.037202  0.588021  1
  S  S27  1  0.843667  0.962798  0.911979  1
  S  S28  1  0.308700  0.733262  0.286010  1
  S  S29  1  0.808700  0.266738  0.213990  1
  S  S30  1  0.691979  0.273061  0.714163  1
  S  S31  1  0.191979  0.726939  0.785837  1
