# generated using pymatgen
data_Re6IrRh
_symmetry_space_group_name_H-M   'P 1'
_cell_length_a   5.58710500
_cell_length_b   5.58710487
_cell_length_c   4.40244300
_cell_angle_alpha   90.00000000
_cell_angle_beta   90.00000000
_cell_angle_gamma   119.99999486
_symmetry_Int_Tables_number   1
_chemical_formula_structural   Re6IrRh
_chemical_formula_sum   'Re6 Ir1 Rh1'
_cell_volume   119.01400008
_cell_formula_units_Z   1
loop_
 _symmetry_equiv_pos_site_id
 _symmetry_equiv_pos_as_xyz
  1  'x, y, z'
loop_
 _atom_site_type_symbol
 _atom_site_label
 _atom_site_symmetry_multiplicity
 _atom_site_fract_x
 _atom_site_fract_y
 _atom_site_fract_z
 _atom_site_occupancy
  Re  Re0  1  0.161139  0.322275  0.250000  1
  Re  Re1  1  0.677725  0.838861  0.250000  1
  Re  Re2  1  0.161139  0.838861  0.250000  1
  Re  Re3  1  0.837978  0.675957  0.750000  1
  Re  Re4  1  0.324043  0.162022  0.750000  1
  Re  Re5  1  0.837978  0.162022  0.750000  1
  Ir  Ir6  1  0.333333  0.666667  0.750000  1
  Rh  Rh7  1  0.666667  0.333333  0.250000  1
