# generated using pymatgen
data_Sc9GaMo3Se
_symmetry_space_group_name_H-M   'P 1'
_cell_length_a   8.81885931
_cell_length_b   8.76278079
_cell_length_c   8.71108300
_cell_angle_alpha   90.00000000
_cell_angle_beta   90.00000000
_cell_angle_gamma   119.78987185
_symmetry_Int_Tables_number   1
_chemical_formula_structural   Sc9GaMo3Se
_chemical_formula_sum   'Sc18 Ga2 Mo6 Se2'
_cell_volume   584.21516650
_cell_formula_units_Z   2
loop_
 _symmetry_equiv_pos_site_id
 _symmetry_equiv_pos_as_xyz
  1  'x, y, z'
loop_
 _atom_site_type_symbol
 _atom_site_label
 _atom_site_symmetry_multiplicity
 _atom_site_fract_x
 _atom_site_fract_y
 _atom_site_fract_z
 _atom_site_occupancy
  Sc  Sc0  1  0.201166  0.807975  0.457560  1
  Sc  Sc1  1  0.201166  0.393192  0.457560  1
  Sc  Sc2  1  0.606926  0.803463  0.460752  1
  Sc  Sc3  1  0.804268  0.196257  0.551776  1
  Sc  Sc4  1  0.804268  0.608011  0.551776  1
  Sc  Sc5  1  0.396518  0.198259  0.539156  1
  Sc  Sc6  1  0.804268  0.196257  0.948224  1
  Sc  Sc7  1  0.804268  0.608011  0.948224  1
  Sc  Sc8  1  0.396518  0.198259  0.960844  1
  Sc  Sc9  1  0.201166  0.807975  0.042440  1
  Sc  Sc10  1  0.201166  0.393192  0.042440  1
  Sc  Sc11  1  0.606926  0.803463  0.039248  1
  Sc  Sc12  1  0.532574  0.445897  0.250000  1
  Sc  Sc13  1  0.532574  0.086677  0.250000  1
  Sc  Sc14  1  0.910399  0.455200  0.250000  1
  Sc  Sc15  1  0.461600  0.540731  0.750000  1
  Sc  Sc16  1  0.461600  0.920869  0.750000  1
  Sc  Sc17  1  0.081040  0.540520  0.750000  1
  Ga  Ga18  1  0.891482  0.110309  0.250000  1
  Ga  Ga19  1  0.891482  0.781171  0.250000  1
  Mo  Mo20  1  0.209854  0.104926  0.250000  1
  Mo  Mo21  1  0.106418  0.885955  0.750000  1
  Mo  Mo22  1  0.106418  0.220464  0.750000  1
  Mo  Mo23  1  0.772691  0.886346  0.750000  1
  Mo  Mo24  1  0.006412  0.003206  0.513828  1
  Mo  Mo25  1  0.006412  0.003206  0.986172  1
  Se  Se26  1  0.338365  0.669183  0.250000  1
  Se  Se27  1  0.662056  0.331028  0.750000  1
