# generated using pymatgen
data_Ho3U(Al3Ir)6
_symmetry_space_group_name_H-M   'P 1'
_cell_length_a   7.56847405
_cell_length_b   7.56163814
_cell_length_c   9.42854500
_cell_angle_alpha   90.00000000
_cell_angle_beta   90.00000000
_cell_angle_gamma   119.51449817
_symmetry_Int_Tables_number   1
_chemical_formula_structural   Ho3U(Al3Ir)6
_chemical_formula_sum   'Ho3 U1 Al18 Ir6'
_cell_volume   469.57338886
_cell_formula_units_Z   1
loop_
 _symmetry_equiv_pos_site_id
 _symmetry_equiv_pos_as_xyz
  1  'x, y, z'
loop_
 _atom_site_type_symbol
 _atom_site_label
 _atom_site_symmetry_multiplicity
 _atom_site_fract_x
 _atom_site_fract_y
 _atom_site_fract_z
 _atom_site_occupancy
  Ho  Ho0  1  0.005443  0.330049  0.750000  1
  Ho  Ho1  1  0.671372  0.994873  0.250000  1
  Ho  Ho2  1  0.328809  0.003900  0.750000  1
  U  U3  1  0.996670  0.671293  0.250000  1
  Al  Al4  1  0.130280  0.129505  0.250000  1
  Al  Al5  1  0.873155  0.873787  0.750000  1
  Al  Al6  1  0.000382  0.333245  0.075278  1
  Al  Al7  1  0.998812  0.664675  0.924638  1
  Al  Al8  1  0.998812  0.664675  0.575362  1
  Al  Al9  1  0.337633  0.003078  0.424679  1
  Al  Al10  1  0.000382  0.333245  0.424722  1
  Al  Al11  1  0.665144  0.999650  0.575553  1
  Al  Al12  1  0.665144  0.999650  0.924447  1
  Al  Al13  1  0.337633  0.003078  0.075321  1
  Al  Al14  1  0.332706  0.332767  0.554629  1
  Al  Al15  1  0.664433  0.666209  0.447474  1
  Al  Al16  1  0.664433  0.666209  0.052526  1
  Al  Al17  1  0.332706  0.332767  0.945371  1
  Al  Al18  1  0.339070  0.547188  0.250000  1
  Al  Al19  1  0.660297  0.450093  0.750000  1
  Al  Al20  1  0.547816  0.341247  0.250000  1
  Al  Al21  1  0.451301  0.660959  0.750000  1
  Ir  Ir22  1  0.672267  0.328549  0.001137  1
  Ir  Ir23  1  0.327084  0.671919  0.001295  1
  Ir  Ir24  1  0.327084  0.671919  0.498705  1
  Ir  Ir25  1  0.672267  0.328549  0.498863  1
  Ir  Ir26  1  0.999432  0.998461  0.001928  1
  Ir  Ir27  1  0.999432  0.998461  0.498072  1
