# generated using pymatgen
data_CeGdPa2O8
_symmetry_space_group_name_H-M   'P 1'
_cell_length_a   6.66253956
_cell_length_b   6.66253885
_cell_length_c   6.66254000
_cell_angle_alpha   131.59640617
_cell_angle_beta   131.59639807
_cell_angle_gamma   70.86721229
_symmetry_Int_Tables_number   1
_chemical_formula_structural   CeGdPa2O8
_chemical_formula_sum   'Ce1 Gd1 Pa2 O8'
_cell_volume   161.99039429
_cell_formula_units_Z   1
loop_
 _symmetry_equiv_pos_site_id
 _symmetry_equiv_pos_as_xyz
  1  'x, y, z'
loop_
 _atom_site_type_symbol
 _atom_site_label
 _atom_site_symmetry_multiplicity
 _atom_site_fract_x
 _atom_site_fract_y
 _atom_site_fract_z
 _atom_site_occupancy
  Ce  Ce0  1  0.500000  0.500000  0.000000  1
  Gd  Gd1  1  0.250000  0.750000  0.500000  1
  Pa  Pa2  1  0.000000  0.000000  0.000000  1
  Pa  Pa3  1  0.750000  0.250000  0.500000  1
  O  O4  1  0.875537  0.361076  0.986608  1
  O  O5  1  0.638924  0.124463  0.013392  1
  O  O6  1  0.374468  0.361076  0.485539  1
  O  O7  1  0.111071  0.625532  0.986608  1
  O  O8  1  0.374468  0.888929  0.013392  1
  O  O9  1  0.875537  0.888929  0.514461  1
  O  O10  1  0.111071  0.124463  0.485539  1
  O  O11  1  0.638924  0.625532  0.514461  1
