# generated using pymatgen
data_Tb2DyPa3Cr2(Co4P3)4
_symmetry_space_group_name_H-M   'P 1'
_cell_length_a   3.73375200
_cell_length_b   10.47148199
_cell_length_c   12.20321500
_cell_angle_alpha   90.10620385
_cell_angle_beta   90.00000000
_cell_angle_gamma   90.00000000
_symmetry_Int_Tables_number   1
_chemical_formula_structural   Tb2DyPa3Cr2(Co4P3)4
_chemical_formula_sum   'Tb2 Dy1 Pa3 Cr2 Co16 P12'
_cell_volume   477.11946535
_cell_formula_units_Z   1
loop_
 _symmetry_equiv_pos_site_id
 _symmetry_equiv_pos_as_xyz
  1  'x, y, z'
loop_
 _atom_site_type_symbol
 _atom_site_label
 _atom_site_symmetry_multiplicity
 _atom_site_fract_x
 _atom_site_fract_y
 _atom_site_fract_z
 _atom_site_occupancy
  Tb  Tb0  1  0.500000  0.185801  0.204673  1
  Tb  Tb1  1  0.000000  0.315595  0.794100  1
  Dy  Dy2  1  0.000000  0.684635  0.795101  1
  Pa  Pa3  1  0.000000  0.499306  0.528464  1
  Pa  Pa4  1  0.500000  0.000378  0.474287  1
  Pa  Pa5  1  0.500000  0.819095  0.207832  1
  Cr  Cr6  1  0.500000  0.500334  0.155795  1
  Cr  Cr7  1  0.000000  0.999274  0.846208  1
  Co  Co8  1  0.500000  0.499604  0.694571  1
  Co  Co9  1  0.000000  0.993613  0.300803  1
  Co  Co10  1  0.000000  0.500090  0.983252  1
  Co  Co11  1  0.500000  0.999723  0.014780  1
  Co  Co12  1  0.500000  0.334582  0.991303  1
  Co  Co13  1  0.500000  0.667335  0.992840  1
  Co  Co14  1  0.000000  0.168037  0.007604  1
  Co  Co15  1  0.000000  0.834457  0.009663  1
  Co  Co16  1  0.500000  0.299743  0.432043  1
  Co  Co17  1  0.500000  0.697216  0.430582  1
  Co  Co18  1  0.000000  0.197104  0.566662  1
  Co  Co19  1  0.000000  0.802528  0.571009  1
  Co  Co20  1  0.500000  0.880845  0.711795  1
  Co  Co21  1  0.500000  0.118833  0.710354  1
  Co  Co22  1  0.000000  0.622390  0.286820  1
  Co  Co23  1  0.000000  0.381198  0.290332  1
  P  P24  1  0.500000  0.500589  0.877375  1
  P  P25  1  0.000000  0.003194  0.119019  1
  P  P26  1  0.500000  0.499119  0.343188  1
  P  P27  1  0.000000  0.999203  0.658941  1
  P  P28  1  0.500000  0.306221  0.616353  1
  P  P29  1  0.500000  0.692993  0.617290  1
  P  P30  1  0.000000  0.189905  0.381672  1
  P  P31  1  0.000000  0.805986  0.388518  1
  P  P32  1  0.500000  0.847630  0.893544  1
  P  P33  1  0.500000  0.153011  0.893693  1
  P  P34  1  0.000000  0.650707  0.103912  1
  P  P35  1  0.000000  0.349724  0.105620  1
