# generated using pymatgen
data_Yb3SiAg3As2
_symmetry_space_group_name_H-M   'P 1'
_cell_length_a   7.20889600
_cell_length_b   7.20889507
_cell_length_c   4.17651900
_cell_angle_alpha   90.00000000
_cell_angle_beta   90.00000000
_cell_angle_gamma   120.00000425
_symmetry_Int_Tables_number   1
_chemical_formula_structural   Yb3SiAg3As2
_chemical_formula_sum   'Yb3 Si1 Ag3 As2'
_cell_volume   187.96740211
_cell_formula_units_Z   1
loop_
 _symmetry_equiv_pos_site_id
 _symmetry_equiv_pos_as_xyz
  1  'x, y, z'
loop_
 _atom_site_type_symbol
 _atom_site_label
 _atom_site_symmetry_multiplicity
 _atom_site_fract_x
 _atom_site_fract_y
 _atom_site_fract_z
 _atom_site_occupancy
  Yb  Yb0  1  0.000000  0.576604  0.500000  1
  Yb  Yb1  1  0.576604  0.000000  0.500000  1
  Yb  Yb2  1  0.423396  0.423396  0.500000  1
  Si  Si3  1  0.000000  0.000000  0.500000  1
  Ag  Ag4  1  0.760251  0.760251  0.000000  1
  Ag  Ag5  1  0.239749  0.000000  0.000000  1
  Ag  Ag6  1  0.000000  0.239749  0.000000  1
  As  As7  1  0.666667  0.333333  0.000000  1
  As  As8  1  0.333333  0.666667  0.000000  1
