# generated using pymatgen
data_Tb5Y5(Bi3C)2
_symmetry_space_group_name_H-M   'P 1'
_cell_length_a   9.17049900
_cell_length_b   9.17049995
_cell_length_c   6.53170200
_cell_angle_alpha   90.00000000
_cell_angle_beta   90.00000000
_cell_angle_gamma   120.00081751
_symmetry_Int_Tables_number   1
_chemical_formula_structural   Tb5Y5(Bi3C)2
_chemical_formula_sum   'Tb5 Y5 Bi6 C2'
_cell_volume   475.70684132
_cell_formula_units_Z   1
loop_
 _symmetry_equiv_pos_site_id
 _symmetry_equiv_pos_as_xyz
  1  'x, y, z'
loop_
 _atom_site_type_symbol
 _atom_site_label
 _atom_site_symmetry_multiplicity
 _atom_site_fract_x
 _atom_site_fract_y
 _atom_site_fract_z
 _atom_site_occupancy
  Tb  Tb0  1  0.208756  0.999974  0.750000  1
  Tb  Tb1  1  0.999974  0.208756  0.750000  1
  Tb  Tb2  1  0.208739  0.208739  0.250000  1
  Tb  Tb3  1  0.791200  0.999992  0.250000  1
  Tb  Tb4  1  0.999992  0.791200  0.250000  1
  Y  Y5  1  0.666676  0.333325  0.000014  1
  Y  Y6  1  0.333325  0.666676  0.000014  1
  Y  Y7  1  0.333325  0.666676  0.499986  1
  Y  Y8  1  0.666676  0.333325  0.499986  1
  Y  Y9  1  0.791245  0.791245  0.750000  1
  Bi  Bi10  1  0.402446  0.402446  0.750000  1
  Bi  Bi11  1  0.597601  0.999955  0.750000  1
  Bi  Bi12  1  0.999955  0.597601  0.750000  1
  Bi  Bi13  1  0.597588  0.597588  0.250000  1
  Bi  Bi14  1  0.402410  0.000006  0.250000  1
  Bi  Bi15  1  0.000006  0.402410  0.250000  1
  C  C16  1  0.000044  0.000044  0.000031  1
  C  C17  1  0.000044  0.000044  0.499969  1
