# generated using pymatgen
data_La5Nd6Lu5(CdIr)4
_symmetry_space_group_name_H-M   'P 1'
_cell_length_a   9.85584389
_cell_length_b   9.82997198
_cell_length_c   9.82934186
_cell_angle_alpha   59.72237210
_cell_angle_beta   59.98179314
_cell_angle_gamma   59.98483482
_symmetry_Int_Tables_number   1
_chemical_formula_structural   La5Nd6Lu5(CdIr)4
_chemical_formula_sum   'La5 Nd6 Lu5 Cd4 Ir4'
_cell_volume   671.77973547
_cell_formula_units_Z   1
loop_
 _symmetry_equiv_pos_site_id
 _symmetry_equiv_pos_as_xyz
  1  'x, y, z'
loop_
 _atom_site_type_symbol
 _atom_site_label
 _atom_site_symmetry_multiplicity
 _atom_site_fract_x
 _atom_site_fract_y
 _atom_site_fract_z
 _atom_site_occupancy
  La  La0  1  0.344924  0.351946  0.351943  1
  La  La1  1  0.350114  0.349608  0.950147  1
  La  La2  1  0.350114  0.950162  0.349585  1
  La  La3  1  0.950422  0.352155  0.352201  1
  La  La4  1  0.815950  0.183730  0.183688  1
  Nd  Nd5  1  0.937425  0.562260  0.562279  1
  Nd  Nd6  1  0.560622  0.938617  0.938634  1
  Nd  Nd7  1  0.558945  0.936395  0.563653  1
  Nd  Nd8  1  0.941509  0.563093  0.936408  1
  Nd  Nd9  1  0.558961  0.563662  0.936348  1
  Nd  Nd10  1  0.941499  0.936419  0.563129  1
  Lu  Lu11  1  0.183740  0.816538  0.816524  1
  Lu  Lu12  1  0.188966  0.812097  0.182972  1
  Lu  Lu13  1  0.815850  0.182989  0.812326  1
  Lu  Lu14  1  0.188992  0.182979  0.812096  1
  Lu  Lu15  1  0.815845  0.812330  0.182961  1
  Cd  Cd16  1  0.580519  0.579934  0.579919  1
  Cd  Cd17  1  0.578742  0.583131  0.259260  1
  Cd  Cd18  1  0.578728  0.259248  0.583136  1
  Cd  Cd19  1  0.259227  0.580092  0.580135  1
  Ir  Ir20  1  0.140473  0.138284  0.138289  1
  Ir  Ir21  1  0.137840  0.139881  0.585866  1
  Ir  Ir22  1  0.137789  0.585850  0.139914  1
  Ir  Ir23  1  0.582802  0.138598  0.138584  1
