# generated using pymatgen
data_Ho3Er13(In3Ir)2
_symmetry_space_group_name_H-M   'P 1'
_cell_length_a   10.34640500
_cell_length_b   10.34640512
_cell_length_c   7.00907600
_cell_angle_alpha   90.00000000
_cell_angle_beta   90.00000000
_cell_angle_gamma   119.99999641
_symmetry_Int_Tables_number   1
_chemical_formula_structural   Ho3Er13(In3Ir)2
_chemical_formula_sum   'Ho3 Er13 In6 Ir2'
_cell_volume   649.78603087
_cell_formula_units_Z   1
loop_
 _symmetry_equiv_pos_site_id
 _symmetry_equiv_pos_as_xyz
  1  'x, y, z'
loop_
 _atom_site_type_symbol
 _atom_site_label
 _atom_site_symmetry_multiplicity
 _atom_site_fract_x
 _atom_site_fract_y
 _atom_site_fract_z
 _atom_site_occupancy
  Ho  Ho0  1  0.533031  0.066063  0.792974  1
  Ho  Ho1  1  0.933937  0.466969  0.792974  1
  Ho  Ho2  1  0.533031  0.466969  0.792974  1
  Er  Er3  1  0.466788  0.933575  0.292938  1
  Er  Er4  1  0.066425  0.533212  0.292938  1
  Er  Er5  1  0.466788  0.533212  0.292938  1
  Er  Er6  1  0.823413  0.646826  0.499538  1
  Er  Er7  1  0.353174  0.176587  0.499538  1
  Er  Er8  1  0.823413  0.176587  0.499538  1
  Er  Er9  1  0.176602  0.353204  0.999876  1
  Er  Er10  1  0.646796  0.823398  0.999876  1
  Er  Er11  1  0.176602  0.823398  0.999876  1
  Er  Er12  1  0.666667  0.333333  0.174185  1
  Er  Er13  1  0.333333  0.666667  0.674117  1
  Er  Er14  1  0.000000  0.000000  0.778597  1
  Er  Er15  1  0.000000  0.000000  0.278551  1
  In  In16  1  0.837263  0.674528  0.039327  1
  In  In17  1  0.325472  0.162737  0.039327  1
  In  In18  1  0.837263  0.162737  0.039327  1
  In  In19  1  0.162788  0.325574  0.539144  1
  In  In20  1  0.674426  0.837212  0.539144  1
  In  In21  1  0.162788  0.837212  0.539144  1
  Ir  Ir22  1  0.666667  0.333333  0.569343  1
  Ir  Ir23  1  0.333333  0.666667  0.069718  1
