# generated using pymatgen
data_Ho12InGaCo4
_symmetry_space_group_name_H-M   'P 1'
_cell_length_a   8.27669451
_cell_length_b   8.27679870
_cell_length_c   8.27669334
_cell_angle_alpha   112.07348058
_cell_angle_beta   109.64011863
_cell_angle_gamma   106.74334763
_symmetry_Int_Tables_number   1
_chemical_formula_structural   Ho12InGaCo4
_chemical_formula_sum   'Ho12 In1 Ga1 Co4'
_cell_volume   435.52833439
_cell_formula_units_Z   1
loop_
 _symmetry_equiv_pos_site_id
 _symmetry_equiv_pos_as_xyz
  1  'x, y, z'
loop_
 _atom_site_type_symbol
 _atom_site_label
 _atom_site_symmetry_multiplicity
 _atom_site_fract_x
 _atom_site_fract_y
 _atom_site_fract_z
 _atom_site_occupancy
  Ho  Ho0  1  0.965973  0.266219  0.699757  1
  Ho  Ho1  1  0.034027  0.733781  0.300243  1
  Ho  Ho2  1  0.675039  0.862223  0.187185  1
  Ho  Ho3  1  0.324954  0.512140  0.187185  1
  Ho  Ho4  1  0.324961  0.137777  0.812815  1
  Ho  Ho5  1  0.675046  0.487860  0.812815  1
  Ho  Ho6  1  0.566461  0.266219  0.300246  1
  Ho  Ho7  1  0.433539  0.733781  0.699754  1
  Ho  Ho8  1  0.181028  0.781814  0.962833  1
  Ho  Ho9  1  0.818981  0.781814  0.600788  1
  Ho  Ho10  1  0.181019  0.218186  0.399212  1
  Ho  Ho11  1  0.818972  0.218186  0.037167  1
  In  In12  1  0.500000  0.000000  0.500000  1
  Ga  Ga13  1  0.000000  0.500000  0.500000  1
  Co  Co14  1  0.114116  0.114112  0.999996  1
  Co  Co15  1  0.885884  0.885888  0.000004  1
  Co  Co16  1  0.661161  0.500000  0.161161  1
  Co  Co17  1  0.338839  0.500000  0.838839  1
