# generated using pymatgen
data_Tm5SnBi2Se
_symmetry_space_group_name_H-M   'P 1'
_cell_length_a   9.08827388
_cell_length_b   9.08827356
_cell_length_c   6.61114300
_cell_angle_alpha   90.00000000
_cell_angle_beta   90.00000000
_cell_angle_gamma   120.17731475
_symmetry_Int_Tables_number   1
_chemical_formula_structural   Tm5SnBi2Se
_chemical_formula_sum   'Tm10 Sn2 Bi4 Se2'
_cell_volume   472.05351072
_cell_formula_units_Z   2
loop_
 _symmetry_equiv_pos_site_id
 _symmetry_equiv_pos_as_xyz
  1  'x, y, z'
loop_
 _atom_site_type_symbol
 _atom_site_label
 _atom_site_symmetry_multiplicity
 _atom_site_fract_x
 _atom_site_fract_y
 _atom_site_fract_z
 _atom_site_occupancy
  Tm  Tm0  1  0.667859  0.330628  0.004123  1
  Tm  Tm1  1  0.330628  0.667859  0.004123  1
  Tm  Tm2  1  0.330628  0.667859  0.495877  1
  Tm  Tm3  1  0.667859  0.330628  0.495877  1
  Tm  Tm4  1  0.746277  0.746277  0.750000  1
  Tm  Tm5  1  0.254720  0.000307  0.750000  1
  Tm  Tm6  1  0.000307  0.254720  0.750000  1
  Tm  Tm7  1  0.252056  0.252056  0.250000  1
  Tm  Tm8  1  0.746347  0.005289  0.250000  1
  Tm  Tm9  1  0.005289  0.746347  0.250000  1
  Sn  Sn10  1  0.395502  0.000807  0.250000  1
  Sn  Sn11  1  0.000807  0.395502  0.250000  1
  Bi  Bi12  1  0.395676  0.395676  0.750000  1
  Bi  Bi13  1  0.603583  0.999221  0.750000  1
  Bi  Bi14  1  0.999221  0.603583  0.750000  1
  Bi  Bi15  1  0.605810  0.605810  0.250000  1
  Se  Se16  1  0.998716  0.998716  0.999550  1
  Se  Se17  1  0.998716  0.998716  0.500450  1
