# generated using pymatgen
data_LiHo6P12Rh17
_symmetry_space_group_name_H-M   'P 1'
_cell_length_a   3.92113100
_cell_length_b   11.21425500
_cell_length_c   12.75313900
_cell_angle_alpha   90.00000000
_cell_angle_beta   90.00000000
_cell_angle_gamma   90.00000000
_symmetry_Int_Tables_number   1
_chemical_formula_structural   LiHo6P12Rh17
_chemical_formula_sum   'Li1 Ho6 P12 Rh17'
_cell_volume   560.78820714
_cell_formula_units_Z   1
loop_
 _symmetry_equiv_pos_site_id
 _symmetry_equiv_pos_as_xyz
  1  'x, y, z'
loop_
 _atom_site_type_symbol
 _atom_site_label
 _atom_site_symmetry_multiplicity
 _atom_site_fract_x
 _atom_site_fract_y
 _atom_site_fract_z
 _atom_site_occupancy
  Li  Li0  1  0.500000  0.500000  0.156019  1
  Ho  Ho1  1  0.000000  0.500000  0.516718  1
  Ho  Ho2  1  0.500000  0.000000  0.478816  1
  Ho  Ho3  1  0.500000  0.816111  0.205908  1
  Ho  Ho4  1  0.500000  0.183889  0.205908  1
  Ho  Ho5  1  0.000000  0.682419  0.794878  1
  Ho  Ho6  1  0.000000  0.317581  0.794878  1
  P  P7  1  0.500000  0.315483  0.619154  1
  P  P8  1  0.500000  0.684517  0.619154  1
  P  P9  1  0.000000  0.186441  0.382085  1
  P  P10  1  0.000000  0.813559  0.382085  1
  P  P11  1  0.500000  0.500000  0.881350  1
  P  P12  1  0.000000  0.000000  0.119862  1
  P  P13  1  0.500000  0.844982  0.891593  1
  P  P14  1  0.500000  0.155018  0.891593  1
  P  P15  1  0.000000  0.657883  0.108473  1
  P  P16  1  0.000000  0.342117  0.108473  1
  P  P17  1  0.500000  0.500000  0.347939  1
  P  P18  1  0.000000  0.000000  0.648550  1
  Rh  Rh19  1  0.000000  0.500000  0.984001  1
  Rh  Rh20  1  0.500000  0.000000  0.017024  1
  Rh  Rh21  1  0.500000  0.291830  0.433703  1
  Rh  Rh22  1  0.500000  0.708170  0.433703  1
  Rh  Rh23  1  0.000000  0.203019  0.571204  1
  Rh  Rh24  1  0.000000  0.796981  0.571204  1
  Rh  Rh25  1  0.500000  0.873758  0.711241  1
  Rh  Rh26  1  0.500000  0.126242  0.711241  1
  Rh  Rh27  1  0.000000  0.626443  0.290433  1
  Rh  Rh28  1  0.000000  0.373557  0.290433  1
  Rh  Rh29  1  0.500000  0.331712  0.994556  1
  Rh  Rh30  1  0.500000  0.668288  0.994556  1
  Rh  Rh31  1  0.000000  0.165673  0.005862  1
  Rh  Rh32  1  0.000000  0.834327  0.005862  1
  Rh  Rh33  1  0.000000  0.000000  0.830665  1
  Rh  Rh34  1  0.500000  0.500000  0.702818  1
  Rh  Rh35  1  0.000000  0.000000  0.298058  1
