# generated using pymatgen
data_Hf5CuP3
_symmetry_space_group_name_H-M   'P 1'
_cell_length_a   3.58676100
_cell_length_b   10.17912100
_cell_length_c   17.17224300
_cell_angle_alpha   90.00000000
_cell_angle_beta   90.00000000
_cell_angle_gamma   90.00000000
_symmetry_Int_Tables_number   1
_chemical_formula_structural   Hf5CuP3
_chemical_formula_sum   'Hf20 Cu4 P12'
_cell_volume   626.95986640
_cell_formula_units_Z   4
loop_
 _symmetry_equiv_pos_site_id
 _symmetry_equiv_pos_as_xyz
  1  'x, y, z'
loop_
 _atom_site_type_symbol
 _atom_site_label
 _atom_site_symmetry_multiplicity
 _atom_site_fract_x
 _atom_site_fract_y
 _atom_site_fract_z
 _atom_site_occupancy
  Hf  Hf0  1  0.250000  0.119833  0.477181  1
  Hf  Hf1  1  0.750000  0.880167  0.522819  1
  Hf  Hf2  1  0.750000  0.619833  0.022819  1
  Hf  Hf3  1  0.250000  0.380167  0.977181  1
  Hf  Hf4  1  0.250000  0.068341  0.078969  1
  Hf  Hf5  1  0.750000  0.931659  0.921031  1
  Hf  Hf6  1  0.750000  0.568341  0.421031  1
  Hf  Hf7  1  0.250000  0.431659  0.578969  1
  Hf  Hf8  1  0.250000  0.488765  0.269837  1
  Hf  Hf9  1  0.750000  0.511235  0.730163  1
  Hf  Hf10  1  0.750000  0.988765  0.230163  1
  Hf  Hf11  1  0.250000  0.011235  0.769837  1
  Hf  Hf12  1  0.250000  0.815796  0.368644  1
  Hf  Hf13  1  0.750000  0.184204  0.631356  1
  Hf  Hf14  1  0.750000  0.315796  0.131356  1
  Hf  Hf15  1  0.250000  0.684204  0.868644  1
  Hf  Hf16  1  0.250000  0.748968  0.171569  1
  Hf  Hf17  1  0.750000  0.251032  0.828431  1
  Hf  Hf18  1  0.750000  0.248968  0.328431  1
  Hf  Hf19  1  0.250000  0.751032  0.671569  1
  Cu  Cu20  1  0.250000  0.371876  0.414611  1
  Cu  Cu21  1  0.750000  0.628124  0.585389  1
  Cu  Cu22  1  0.750000  0.871876  0.085389  1
  Cu  Cu23  1  0.250000  0.128124  0.914611  1
  P  P24  1  0.250000  0.810918  0.008479  1
  P  P25  1  0.750000  0.189082  0.991521  1
  P  P26  1  0.750000  0.310918  0.491521  1
  P  P27  1  0.250000  0.689082  0.508479  1
  P  P28  1  0.250000  0.507284  0.115776  1
  P  P29  1  0.750000  0.492716  0.884224  1
  P  P30  1  0.750000  0.007284  0.384224  1
  P  P31  1  0.250000  0.992716  0.615776  1
  P  P32  1  0.250000  0.188966  0.218979  1
  P  P33  1  0.750000  0.811034  0.781021  1
  P  P34  1  0.750000  0.688966  0.281021  1
  P  P35  1  0.250000  0.311034  0.718979  1
