# generated using pymatgen
data_Li15Pt4
_symmetry_space_group_name_H-M   'P 1'
_cell_length_a   9.03543717
_cell_length_b   9.03543744
_cell_length_c   9.03543700
_cell_angle_alpha   109.47121742
_cell_angle_beta   109.47121800
_cell_angle_gamma   109.47122268
_symmetry_Int_Tables_number   1
_chemical_formula_structural   Li15Pt4
_chemical_formula_sum   'Li30 Pt8'
_cell_volume   567.83955968
_cell_formula_units_Z   2
loop_
 _symmetry_equiv_pos_site_id
 _symmetry_equiv_pos_as_xyz
  1  'x, y, z'
loop_
 _atom_site_type_symbol
 _atom_site_label
 _atom_site_symmetry_multiplicity
 _atom_site_fract_x
 _atom_site_fract_y
 _atom_site_fract_z
 _atom_site_occupancy
  Li  Li0  1  0.380145  0.656253  0.961291  1
  Li  Li1  1  0.038709  0.918854  0.694962  1
  Li  Li2  1  0.694962  0.038709  0.918854  1
  Li  Li3  1  0.750000  0.875000  0.125000  1
  Li  Li4  1  0.461291  0.156253  0.880145  1
  Li  Li5  1  0.119855  0.081146  0.276108  1
  Li  Li6  1  0.418854  0.538709  0.194962  1
  Li  Li7  1  0.581146  0.619855  0.776108  1
  Li  Li8  1  0.776108  0.581146  0.619855  1
  Li  Li9  1  0.538709  0.194962  0.418854  1
  Li  Li10  1  0.723892  0.343747  0.805038  1
  Li  Li11  1  0.156253  0.880145  0.461291  1
  Li  Li12  1  0.843747  0.223892  0.305038  1
  Li  Li13  1  0.081146  0.276108  0.119855  1
  Li  Li14  1  0.194962  0.418854  0.538709  1
  Li  Li15  1  0.375000  0.250000  0.625000  1
  Li  Li16  1  0.961291  0.380145  0.656253  1
  Li  Li17  1  0.125000  0.750000  0.875000  1
  Li  Li18  1  0.619855  0.776108  0.581146  1
  Li  Li19  1  0.656253  0.961291  0.380145  1
  Li  Li20  1  0.343747  0.805038  0.723892  1
  Li  Li21  1  0.276108  0.119855  0.081146  1
  Li  Li22  1  0.805038  0.723892  0.343747  1
  Li  Li23  1  0.223892  0.305038  0.843747  1
  Li  Li24  1  0.918854  0.694962  0.038709  1
  Li  Li25  1  0.880145  0.461291  0.156253  1
  Li  Li26  1  0.875000  0.125000  0.750000  1
  Li  Li27  1  0.305038  0.843747  0.223892  1
  Li  Li28  1  0.250000  0.625000  0.375000  1
  Li  Li29  1  0.625000  0.375000  0.250000  1
  Pt  Pt30  1  0.000000  0.086864  0.500000  1
  Pt  Pt31  1  0.913136  0.913136  0.913136  1
  Pt  Pt32  1  0.413136  0.413136  0.413136  1
  Pt  Pt33  1  0.086864  0.500000  0.000000  1
  Pt  Pt34  1  0.500000  0.000000  0.086864  1
  Pt  Pt35  1  0.500000  0.000000  0.586864  1
  Pt  Pt36  1  0.000000  0.586864  0.500000  1
  Pt  Pt37  1  0.586864  0.500000  0.000000  1
