# generated using pymatgen
data_Tb2IrRhO7
_symmetry_space_group_name_H-M   'P 1'
_cell_length_a   7.25949677
_cell_length_b   7.25453121
_cell_length_c   7.25453046
_cell_angle_alpha   59.93830125
_cell_angle_beta   59.97734098
_cell_angle_gamma   59.97734824
_symmetry_Int_Tables_number   1
_chemical_formula_structural   Tb2IrRhO7
_chemical_formula_sum   'Tb4 Ir2 Rh2 O14'
_cell_volume   269.93462758
_cell_formula_units_Z   2
loop_
 _symmetry_equiv_pos_site_id
 _symmetry_equiv_pos_as_xyz
  1  'x, y, z'
loop_
 _atom_site_type_symbol
 _atom_site_label
 _atom_site_symmetry_multiplicity
 _atom_site_fract_x
 _atom_site_fract_y
 _atom_site_fract_z
 _atom_site_occupancy
  Tb  Tb0  1  0.625000  0.125000  0.125000  1
  Tb  Tb1  1  0.125000  0.625000  0.125000  1
  Tb  Tb2  1  0.125000  0.125000  0.625000  1
  Tb  Tb3  1  0.125000  0.125000  0.125000  1
  Ir  Ir4  1  0.125000  0.625000  0.625000  1
  Ir  Ir5  1  0.625000  0.625000  0.625000  1
  Rh  Rh6  1  0.625000  0.125000  0.625000  1
  Rh  Rh7  1  0.625000  0.625000  0.125000  1
  O  O8  1  0.714531  0.708220  0.291096  1
  O  O9  1  0.286154  0.291096  0.708220  1
  O  O10  1  0.714531  0.291096  0.708220  1
  O  O11  1  0.286154  0.708220  0.291096  1
  O  O12  1  0.291647  0.708353  0.708353  1
  O  O13  1  0.715136  0.284864  0.284864  1
  O  O14  1  0.535469  0.541780  0.958904  1
  O  O15  1  0.963846  0.958904  0.541780  1
  O  O16  1  0.535469  0.958904  0.541780  1
  O  O17  1  0.963846  0.541780  0.958904  1
  O  O18  1  0.958353  0.541647  0.541647  1
  O  O19  1  0.534864  0.965136  0.965136  1
  O  O20  1  0.248887  0.251113  0.251113  1
  O  O21  1  0.001113  0.998887  0.998887  1
