# generated using pymatgen
data_Hf18Re8OsRh
_symmetry_space_group_name_H-M   'P 1'
_cell_length_a   8.55974000
_cell_length_b   8.63881908
_cell_length_c   8.63871300
_cell_angle_alpha   120.00162862
_cell_angle_beta   90.00000000
_cell_angle_gamma   90.00000000
_symmetry_Int_Tables_number   1
_chemical_formula_structural   Hf18Re8OsRh
_chemical_formula_sum   'Hf18 Re8 Os1 Rh1'
_cell_volume   553.20679026
_cell_formula_units_Z   1
loop_
 _symmetry_equiv_pos_site_id
 _symmetry_equiv_pos_as_xyz
  1  'x, y, z'
loop_
 _atom_site_type_symbol
 _atom_site_label
 _atom_site_symmetry_multiplicity
 _atom_site_fract_x
 _atom_site_fract_y
 _atom_site_fract_z
 _atom_site_occupancy
  Hf  Hf0  1  0.554564  0.803891  0.607777  1
  Hf  Hf1  1  0.554554  0.803879  0.196117  1
  Hf  Hf2  1  0.554565  0.392225  0.196111  1
  Hf  Hf3  1  0.445459  0.195882  0.391769  1
  Hf  Hf4  1  0.445468  0.195891  0.804117  1
  Hf  Hf5  1  0.445457  0.608232  0.804115  1
  Hf  Hf6  1  0.054541  0.195882  0.391769  1
  Hf  Hf7  1  0.054532  0.195891  0.804117  1
  Hf  Hf8  1  0.054543  0.608232  0.804115  1
  Hf  Hf9  1  0.945436  0.803891  0.607777  1
  Hf  Hf10  1  0.945446  0.803879  0.196117  1
  Hf  Hf11  1  0.945435  0.392225  0.196111  1
  Hf  Hf12  1  0.750000  0.457784  0.915545  1
  Hf  Hf13  1  0.750000  0.457771  0.542231  1
  Hf  Hf14  1  0.750000  0.084457  0.542216  1
  Hf  Hf15  1  0.250000  0.542533  0.085086  1
  Hf  Hf16  1  0.250000  0.542535  0.457446  1
  Hf  Hf17  1  0.250000  0.914925  0.457479  1
  Re  Re18  1  0.750000  0.110318  0.220615  1
  Re  Re19  1  0.750000  0.110324  0.889683  1
  Re  Re20  1  0.750000  0.779383  0.889684  1
  Re  Re21  1  0.250000  0.889661  0.779339  1
  Re  Re22  1  0.250000  0.889655  0.110333  1
  Re  Re23  1  0.250000  0.220663  0.110340  1
  Re  Re24  1  0.500092  0.999996  0.999999  1
  Re  Re25  1  0.999908  0.999996  0.999999  1
  Os  Os26  1  0.750000  0.666680  0.333327  1
  Rh  Rh27  1  0.250000  0.333322  0.666666  1
