# generated using pymatgen
data_Sc12Ga(RuI8)2
_symmetry_space_group_name_H-M   'P 1'
_cell_length_a   9.20920312
_cell_length_b   12.10602562
_cell_length_c   12.87360356
_cell_angle_alpha   117.02860274
_cell_angle_beta   101.06932030
_cell_angle_gamma   100.56284771
_symmetry_Int_Tables_number   1
_chemical_formula_structural   Sc12Ga(RuI8)2
_chemical_formula_sum   'Sc12 Ga1 Ru2 I16'
_cell_volume   1193.09047368
_cell_formula_units_Z   1
loop_
 _symmetry_equiv_pos_site_id
 _symmetry_equiv_pos_as_xyz
  1  'x, y, z'
loop_
 _atom_site_type_symbol
 _atom_site_label
 _atom_site_symmetry_multiplicity
 _atom_site_fract_x
 _atom_site_fract_y
 _atom_site_fract_z
 _atom_site_occupancy
  Sc  Sc0  1  0.100908  0.272654  0.360482  1
  Sc  Sc1  1  0.899092  0.727346  0.639518  1
  Sc  Sc2  1  0.769721  0.535584  0.330175  1
  Sc  Sc3  1  0.230279  0.464416  0.669825  1
  Sc  Sc4  1  0.285940  0.727922  0.639513  1
  Sc  Sc5  1  0.714060  0.272078  0.360487  1
  Sc  Sc6  1  0.155494  0.535796  0.330423  1
  Sc  Sc7  1  0.844506  0.464204  0.669577  1
  Sc  Sc8  1  0.409930  0.366022  0.284078  1
  Sc  Sc9  1  0.590070  0.633978  0.715922  1
  Sc  Sc10  1  0.462411  0.322272  0.520570  1
  Sc  Sc11  1  0.537589  0.677728  0.479430  1
  Ga  Ga12  1  0.000000  0.500000  0.500000  1
  Ru  Ru13  1  0.337403  0.500129  0.499779  1
  Ru  Ru14  1  0.662598  0.499871  0.500221  1
  I  I15  1  0.389604  0.736329  0.877248  1
  I  I16  1  0.610396  0.263671  0.122752  1
  I  I17  1  0.182453  0.951741  0.774881  1
  I  I18  1  0.817547  0.048259  0.225119  1
  I  I19  1  0.340071  0.101850  0.256512  1
  I  I20  1  0.659929  0.898150  0.743488  1
  I  I21  1  0.560432  0.437179  0.794941  1
  I  I22  1  0.439568  0.562821  0.205059  1
  I  I23  1  0.302998  0.823011  0.463731  1
  I  I24  1  0.697002  0.176989  0.536269  1
  I  I25  1  0.165084  0.176771  0.534500  1
  I  I26  1  0.834916  0.823229  0.465500  1
  I  I27  1  0.927476  0.573179  0.167388  1
  I  I28  1  0.072524  0.426821  0.832612  1
  I  I29  1  0.925423  0.735079  0.877226  1
  I  I30  1  0.074577  0.264921  0.122774  1
