# generated using pymatgen
data_CuW3I7
_symmetry_space_group_name_H-M   'P 1'
_cell_length_a   11.42687200
_cell_length_b   16.60241600
_cell_length_c   17.28104000
_cell_angle_alpha   90.00000000
_cell_angle_beta   90.00000000
_cell_angle_gamma   90.00000000
_symmetry_Int_Tables_number   1
_chemical_formula_structural   CuW3I7
_chemical_formula_sum   'Cu8 W24 I56'
_cell_volume   3278.44973622
_cell_formula_units_Z   8
loop_
 _symmetry_equiv_pos_site_id
 _symmetry_equiv_pos_as_xyz
  1  'x, y, z'
loop_
 _atom_site_type_symbol
 _atom_site_label
 _atom_site_symmetry_multiplicity
 _atom_site_fract_x
 _atom_site_fract_y
 _atom_site_fract_z
 _atom_site_occupancy
  Cu  Cu0  1  0.360601  0.718051  0.791564  1
  Cu  Cu1  1  0.860601  0.281949  0.708436  1
  Cu  Cu2  1  0.139399  0.218051  0.208436  1
  Cu  Cu3  1  0.639399  0.781949  0.291564  1
  Cu  Cu4  1  0.639399  0.281949  0.208436  1
  Cu  Cu5  1  0.139399  0.718051  0.291564  1
  Cu  Cu6  1  0.860601  0.781949  0.791564  1
  Cu  Cu7  1  0.360601  0.218051  0.708436  1
  W  W8  1  0.637058  0.961644  0.949497  1
  W  W9  1  0.137058  0.038356  0.550503  1
  W  W10  1  0.862942  0.461644  0.050503  1
  W  W11  1  0.362942  0.538356  0.449497  1
  W  W12  1  0.362942  0.038356  0.050503  1
  W  W13  1  0.862942  0.961644  0.449497  1
  W  W14  1  0.137058  0.538356  0.949497  1
  W  W15  1  0.637058  0.461644  0.550503  1
  W  W16  1  0.405799  0.939253  0.931002  1
  W  W17  1  0.905799  0.060747  0.568998  1
  W  W18  1  0.094201  0.439253  0.068998  1
  W  W19  1  0.594201  0.560747  0.431002  1
  W  W20  1  0.594201  0.060747  0.068998  1
  W  W21  1  0.094201  0.939253  0.431002  1
  W  W22  1  0.905799  0.560747  0.931002  1
  W  W23  1  0.405799  0.439253  0.568998  1
  W  W24  1  0.494377  0.089000  0.931171  1
  W  W25  1  0.994377  0.911000  0.568829  1
  W  W26  1  0.005623  0.589000  0.068829  1
  W  W27  1  0.505623  0.411000  0.431171  1
  W  W28  1  0.505623  0.911000  0.068829  1
  W  W29  1  0.005623  0.089000  0.431171  1
  W  W30  1  0.994377  0.411000  0.931171  1
  W  W31  1  0.494377  0.589000  0.568829  1
  I  I32  1  0.550852  0.802860  0.945771  1
  I  I33  1  0.050852  0.197140  0.554229  1
  I  I34  1  0.949148  0.302860  0.054229  1
  I  I35  1  0.449148  0.697140  0.445771  1
  I  I36  1  0.449148  0.197140  0.054229  1
  I  I37  1  0.949148  0.802860  0.445771  1
  I  I38  1  0.050852  0.697140  0.945771  1
  I  I39  1  0.550852  0.302860  0.554229  1
  I  I40  1  0.539420  0.989510  0.802481  1
  I  I41  1  0.039420  0.010490  0.697519  1
  I  I42  1  0.960580  0.489510  0.197519  1
  I  I43  1  0.460580  0.510490  0.302481  1
  I  I44  1  0.460580  0.010490  0.197519  1
  I  I45  1  0.960580  0.989510  0.302481  1
  I  I46  1  0.039420  0.510490  0.802481  1
  I  I47  1  0.539420  0.489510  0.697519  1
  I  I48  1  0.251236  0.070015  0.907740  1
  I  I49  1  0.751236  0.929985  0.592260  1
  I  I50  1  0.248764  0.570015  0.092260  1
  I  I51  1  0.748764  0.429985  0.407740  1
  I  I52  1  0.748764  0.929985  0.092260  1
  I  I53  1  0.248764  0.070015  0.407740  1
  I  I54  1  0.751236  0.429985  0.907740  1
  I  I55  1  0.251236  0.570015  0.592260  1
  I  I56  1  0.263187  0.882874  0.053359  1
  I  I57  1  0.763187  0.117126  0.446641  1
  I  I58  1  0.236813  0.382874  0.946641  1
  I  I59  1  0.736813  0.617126  0.553359  1
  I  I60  1  0.736813  0.117126  0.946641  1
  I  I61  1  0.236813  0.882874  0.553359  1
  I  I62  1  0.763187  0.617126  0.053359  1
  I  I63  1  0.263187  0.382874  0.446641  1
  I  I64  1  0.486276  0.228989  0.830009  1
  I  I65  1  0.986276  0.771011  0.669991  1
  I  I66  1  0.013724  0.728989  0.169991  1
  I  I67  1  0.513724  0.271011  0.330009  1
  I  I68  1  0.513724  0.771011  0.169991  1
  I  I69  1  0.013724  0.228989  0.330009  1
  I  I70  1  0.986276  0.271011  0.830009  1
  I  I71  1  0.486276  0.728989  0.669991  1
  I  I72  1  0.852577  0.908451  0.873705  1
  I  I73  1  0.352577  0.091549  0.626295  1
  I  I74  1  0.647423  0.408451  0.126295  1
  I  I75  1  0.147423  0.591549  0.373705  1
  I  I76  1  0.147423  0.091549  0.126295  1
  I  I77  1  0.647423  0.908451  0.373705  1
  I  I78  1  0.352577  0.591549  0.873705  1
  I  I79  1  0.852577  0.408451  0.626295  1
  I  I80  1  0.258154  0.850539  0.824937  1
  I  I81  1  0.758154  0.149461  0.675063  1
  I  I82  1  0.241846  0.350539  0.175063  1
  I  I83  1  0.741846  0.649461  0.324937  1
  I  I84  1  0.741846  0.149461  0.175063  1
  I  I85  1  0.241846  0.850539  0.324937  1
  I  I86  1  0.758154  0.649461  0.824937  1
  I  I87  1  0.258154  0.350539  0.675063  1
