# generated using pymatgen
data_La2Ga2(SiPt)3
_symmetry_space_group_name_H-M   'P 1'
_cell_length_a   8.50407507
_cell_length_b   8.50407395
_cell_length_c   8.50407470
_cell_angle_alpha   138.13737016
_cell_angle_beta   106.32221084
_cell_angle_gamma   88.52242372
_symmetry_Int_Tables_number   1
_chemical_formula_structural   La2Ga2(SiPt)3
_chemical_formula_sum   'La4 Ga4 Si6 Pt6'
_cell_volume   377.36593461
_cell_formula_units_Z   2
loop_
 _symmetry_equiv_pos_site_id
 _symmetry_equiv_pos_as_xyz
  1  'x, y, z'
loop_
 _atom_site_type_symbol
 _atom_site_label
 _atom_site_symmetry_multiplicity
 _atom_site_fract_x
 _atom_site_fract_y
 _atom_site_fract_z
 _atom_site_occupancy
  La  La0  1  0.635174  0.368842  0.266332  1
  La  La1  1  0.364826  0.631158  0.733668  1
  La  La2  1  0.102508  0.868842  0.233668  1
  La  La3  1  0.897492  0.131158  0.766332  1
  Ga  Ga4  1  0.270177  0.520177  0.250000  1
  Ga  Ga5  1  0.729823  0.479823  0.750000  1
  Ga  Ga6  1  0.729823  0.979823  0.250000  1
  Ga  Ga7  1  0.270177  0.020177  0.750000  1
  Si  Si8  1  0.459369  0.107413  0.351954  1
  Si  Si9  1  0.540631  0.892587  0.648046  1
  Si  Si10  1  0.755459  0.607413  0.148046  1
  Si  Si11  1  0.244541  0.392587  0.851954  1
  Si  Si12  1  0.000000  0.250000  0.250000  1
  Si  Si13  1  0.000000  0.750000  0.750000  1
  Pt  Pt14  1  0.243706  0.127633  0.116073  1
  Pt  Pt15  1  0.756294  0.872367  0.883927  1
  Pt  Pt16  1  0.011560  0.627633  0.383927  1
  Pt  Pt17  1  0.988440  0.372367  0.616073  1
  Pt  Pt18  1  0.500000  0.250000  0.750000  1
  Pt  Pt19  1  0.500000  0.750000  0.250000  1
