# generated using pymatgen
data_Nd4Cd2Cu2RhAu
_symmetry_space_group_name_H-M   'P 1'
_cell_length_a   7.88301855
_cell_length_b   7.87634654
_cell_length_c   3.88155700
_cell_angle_alpha   90.00000000
_cell_angle_beta   90.00000000
_cell_angle_gamma   90.35258890
_symmetry_Int_Tables_number   1
_chemical_formula_structural   Nd4Cd2Cu2RhAu
_chemical_formula_sum   'Nd4 Cd2 Cu2 Rh1 Au1'
_cell_volume   240.99892708
_cell_formula_units_Z   1
loop_
 _symmetry_equiv_pos_site_id
 _symmetry_equiv_pos_as_xyz
  1  'x, y, z'
loop_
 _atom_site_type_symbol
 _atom_site_label
 _atom_site_symmetry_multiplicity
 _atom_site_fract_x
 _atom_site_fract_y
 _atom_site_fract_z
 _atom_site_occupancy
  Nd  Nd0  1  0.691606  0.186640  0.000000  1
  Nd  Nd1  1  0.325984  0.819676  0.000000  1
  Nd  Nd2  1  0.159363  0.323957  0.000000  1
  Nd  Nd3  1  0.818925  0.663489  0.000000  1
  Cd  Cd4  1  0.495825  0.505040  0.500000  1
  Cd  Cd5  1  0.995559  0.989846  0.500000  1
  Cu  Cu6  1  0.119973  0.623613  0.500000  1
  Cu  Cu7  1  0.625814  0.879455  0.500000  1
  Rh  Rh8  1  0.882673  0.386362  0.500000  1
  Au  Au9  1  0.384276  0.121923  0.500000  1
