# generated using pymatgen
data_Y2Pa(GaRh)3
_symmetry_space_group_name_H-M   'P 1'
_cell_length_a   7.42290400
_cell_length_b   7.28769315
_cell_length_c   3.75066300
_cell_angle_alpha   90.00000000
_cell_angle_beta   90.00000000
_cell_angle_gamma   120.61566931
_symmetry_Int_Tables_number   1
_chemical_formula_structural   Y2Pa(GaRh)3
_chemical_formula_sum   'Y2 Pa1 Ga3 Rh3'
_cell_volume   174.61225141
_cell_formula_units_Z   1
loop_
 _symmetry_equiv_pos_site_id
 _symmetry_equiv_pos_as_xyz
  1  'x, y, z'
loop_
 _atom_site_type_symbol
 _atom_site_label
 _atom_site_symmetry_multiplicity
 _atom_site_fract_x
 _atom_site_fract_y
 _atom_site_fract_z
 _atom_site_occupancy
  Y  Y0  1  0.995014  0.404546  0.500000  1
  Y  Y1  1  0.590468  0.595454  0.500000  1
  Pa  Pa2  1  0.414292  0.000000  0.500000  1
  Ga  Ga3  1  0.763137  0.000000  0.000000  1
  Ga  Ga4  1  0.987060  0.732894  0.000000  1
  Ga  Ga5  1  0.254166  0.267106  0.000000  1
  Rh  Rh6  1  0.337350  0.700386  0.000000  1
  Rh  Rh7  1  0.636965  0.299614  0.000000  1
  Rh  Rh8  1  0.021547  0.000000  0.500000  1
