# generated using pymatgen
data_La12Si3AsI12
_symmetry_space_group_name_H-M   'P 1'
_cell_length_a   11.01624025
_cell_length_b   11.01624068
_cell_length_c   11.01624104
_cell_angle_alpha   109.51378450
_cell_angle_beta   109.51378415
_cell_angle_gamma   109.51378310
_symmetry_Int_Tables_number   1
_chemical_formula_structural   La12Si3AsI12
_chemical_formula_sum   'La12 Si3 As1 I12'
_cell_volume   1027.52423223
_cell_formula_units_Z   1
loop_
 _symmetry_equiv_pos_site_id
 _symmetry_equiv_pos_as_xyz
  1  'x, y, z'
loop_
 _atom_site_type_symbol
 _atom_site_label
 _atom_site_symmetry_multiplicity
 _atom_site_fract_x
 _atom_site_fract_y
 _atom_site_fract_z
 _atom_site_occupancy
  La  La0  1  0.468533  0.485282  0.233022  1
  La  La1  1  0.750000  0.233979  0.266021  1
  La  La2  1  0.750000  0.016188  0.483812  1
  La  La3  1  0.233022  0.468533  0.485282  1
  La  La4  1  0.266021  0.750000  0.233979  1
  La  La5  1  0.031467  0.266978  0.014718  1
  La  La6  1  0.014718  0.031467  0.266978  1
  La  La7  1  0.483812  0.750000  0.016188  1
  La  La8  1  0.485282  0.233022  0.468533  1
  La  La9  1  0.016188  0.483812  0.750000  1
  La  La10  1  0.266978  0.014718  0.031467  1
  La  La11  1  0.233979  0.266021  0.750000  1
  Si  Si12  1  0.499400  0.000600  0.250000  1
  Si  Si13  1  0.000600  0.250000  0.499400  1
  Si  Si14  1  0.250000  0.499400  0.000600  1
  As  As15  1  0.250000  0.250000  0.250000  1
  I  I16  1  0.250000  0.758667  0.741333  1
  I  I17  1  0.516715  0.508261  0.757839  1
  I  I18  1  0.983285  0.742161  0.991739  1
  I  I19  1  0.741333  0.250000  0.758667  1
  I  I20  1  0.991739  0.983285  0.742161  1
  I  I21  1  0.250000  0.991821  0.508179  1
  I  I22  1  0.757839  0.516715  0.508261  1
  I  I23  1  0.508179  0.250000  0.991821  1
  I  I24  1  0.758667  0.741333  0.250000  1
  I  I25  1  0.742161  0.991739  0.983285  1
  I  I26  1  0.991821  0.508179  0.250000  1
  I  I27  1  0.508261  0.757839  0.516715  1
