# generated using pymatgen
data_Ga2H12N
_symmetry_space_group_name_H-M   'P 1'
_cell_length_a   3.45703524
_cell_length_b   8.00370351
_cell_length_c   7.61412751
_cell_angle_alpha   89.21065727
_cell_angle_beta   69.27323843
_cell_angle_gamma   89.41801711
_symmetry_Int_Tables_number   1
_chemical_formula_structural   Ga2H12N
_chemical_formula_sum   'Ga2 H12 N1'
_cell_volume   197.01890735
_cell_formula_units_Z   1
loop_
 _symmetry_equiv_pos_site_id
 _symmetry_equiv_pos_as_xyz
  1  'x, y, z'
loop_
 _atom_site_type_symbol
 _atom_site_label
 _atom_site_symmetry_multiplicity
 _atom_site_fract_x
 _atom_site_fract_y
 _atom_site_fract_z
 _atom_site_occupancy
  Ga  Ga0  1  0.088839  0.066093  0.595373  1
  Ga  Ga1  1  0.759165  0.942882  0.377672  1
  H  H2  1  0.831189  0.764869  0.289386  1
  H  H3  1  0.470790  0.556505  0.654839  1
  H  H4  1  0.588236  0.629617  0.670788  1
  H  H5  1  0.937118  0.961260  0.787218  1
  H  H6  1  0.310555  0.382451  0.310955  1
  H  H7  1  0.929072  0.035128  0.005768  1
  H  H8  1  0.503926  0.685265  0.067332  1
  H  H9  1  0.548276  0.665736  0.965851  1
  H  H10  1  0.278463  0.108216  0.080301  1
  H  H11  1  0.838638  0.207840  0.136675  1
  H  H12  1  0.384846  0.431493  0.219994  1
  H  H13  1  0.070531  0.260855  0.622171  1
  N  N14  1  0.966987  0.090579  0.121038  1
