# generated using pymatgen
data_Tb6Y10Hg4Ir3Pt
_symmetry_space_group_name_H-M   'P 1'
_cell_length_a   9.63355509
_cell_length_b   9.64607859
_cell_length_c   9.64642219
_cell_angle_alpha   60.16817505
_cell_angle_beta   60.16128739
_cell_angle_gamma   60.18496835
_symmetry_Int_Tables_number   1
_chemical_formula_structural   Tb6Y10Hg4Ir3Pt
_chemical_formula_sum   'Tb6 Y10 Hg4 Ir3 Pt1'
_cell_volume   636.31471022
_cell_formula_units_Z   1
loop_
 _symmetry_equiv_pos_site_id
 _symmetry_equiv_pos_as_xyz
  1  'x, y, z'
loop_
 _atom_site_type_symbol
 _atom_site_label
 _atom_site_symmetry_multiplicity
 _atom_site_fract_x
 _atom_site_fract_y
 _atom_site_fract_z
 _atom_site_occupancy
  Tb  Tb0  1  0.348578  0.349816  0.349901  1
  Tb  Tb1  1  0.354624  0.353372  0.943529  1
  Tb  Tb2  1  0.354649  0.943477  0.353380  1
  Tb  Tb3  1  0.944823  0.354401  0.354343  1
  Tb  Tb4  1  0.805231  0.191588  0.191457  1
  Tb  Tb5  1  0.187782  0.809608  0.809577  1
  Y  Y6  1  0.191256  0.805107  0.192208  1
  Y  Y7  1  0.809480  0.188023  0.809499  1
  Y  Y8  1  0.191207  0.192212  0.805118  1
  Y  Y9  1  0.809468  0.809537  0.187974  1
  Y  Y10  1  0.938295  0.562914  0.562992  1
  Y  Y11  1  0.563443  0.937533  0.937514  1
  Y  Y12  1  0.561681  0.939990  0.561513  1
  Y  Y13  1  0.938222  0.562287  0.938469  1
  Y  Y14  1  0.561733  0.561481  0.939965  1
  Y  Y15  1  0.938184  0.938450  0.562380  1
  Hg  Hg16  1  0.585171  0.584503  0.584525  1
  Hg  Hg17  1  0.585159  0.585892  0.243914  1
  Hg  Hg18  1  0.585160  0.243909  0.585889  1
  Hg  Hg19  1  0.243717  0.585185  0.585193  1
  Ir  Ir20  1  0.143399  0.140677  0.573414  1
  Ir  Ir21  1  0.143313  0.573464  0.140704  1
  Ir  Ir22  1  0.573186  0.142932  0.142991  1
  Pt  Pt23  1  0.142240  0.143641  0.143551  1
