# generated using pymatgen
data_Dy17Ho3(IrPt)6
_symmetry_space_group_name_H-M   'P 1'
_cell_length_a   11.03370164
_cell_length_b   11.03189400
_cell_length_c   6.32689900
_cell_angle_alpha   89.99922108
_cell_angle_beta   90.02107335
_cell_angle_gamma   89.99980279
_symmetry_Int_Tables_number   1
_chemical_formula_structural   Dy17Ho3(IrPt)6
_chemical_formula_sum   'Dy17 Ho3 Ir6 Pt6'
_cell_volume   770.12671458
_cell_formula_units_Z   1
loop_
 _symmetry_equiv_pos_site_id
 _symmetry_equiv_pos_as_xyz
  1  'x, y, z'
loop_
 _atom_site_type_symbol
 _atom_site_label
 _atom_site_symmetry_multiplicity
 _atom_site_fract_x
 _atom_site_fract_y
 _atom_site_fract_z
 _atom_site_occupancy
  Dy  Dy0  1  0.295347  0.090491  0.372662  1
  Dy  Dy1  1  0.295307  0.909527  0.872704  1
  Dy  Dy2  1  0.704573  0.087332  0.872097  1
  Dy  Dy3  1  0.704528  0.912653  0.372046  1
  Dy  Dy4  1  0.584188  0.792102  0.872746  1
  Dy  Dy5  1  0.584184  0.207900  0.372772  1
  Dy  Dy6  1  0.410821  0.792808  0.377638  1
  Dy  Dy7  1  0.410820  0.207189  0.877620  1
  Dy  Dy8  1  0.209558  0.413994  0.624062  1
  Dy  Dy9  1  0.209553  0.586005  0.124093  1
  Dy  Dy10  1  0.794739  0.412369  0.125629  1
  Dy  Dy11  1  0.794739  0.587625  0.625611  1
  Dy  Dy12  1  0.913573  0.704763  0.127293  1
  Dy  Dy13  1  0.913557  0.295276  0.627344  1
  Dy  Dy14  1  0.091291  0.704573  0.627925  1
  Dy  Dy15  1  0.091269  0.295388  0.127871  1
  Dy  Dy16  1  0.999817  0.999701  0.499944  1
  Ho  Ho17  1  0.999829  0.000307  0.999946  1
  Ho  Ho18  1  0.497182  0.499200  0.000054  1
  Ho  Ho19  1  0.497179  0.500793  0.500055  1
  Ir  Ir20  1  0.346322  0.345864  0.249954  1
  Ir  Ir21  1  0.346312  0.654131  0.749975  1
  Ir  Ir22  1  0.500272  0.999808  0.121367  1
  Ir  Ir23  1  0.500268  0.000193  0.621397  1
  Ir  Ir24  1  0.999397  0.500081  0.878659  1
  Ir  Ir25  1  0.999394  0.499917  0.378630  1
  Pt  Pt26  1  0.845649  0.153743  0.250156  1
  Pt  Pt27  1  0.845657  0.846250  0.750580  1
  Pt  Pt28  1  0.153209  0.153731  0.749784  1
  Pt  Pt29  1  0.153219  0.846278  0.249361  1
  Pt  Pt30  1  0.654124  0.346212  0.750022  1
  Pt  Pt31  1  0.654122  0.653796  0.250004  1
