# generated using pymatgen
data_HoHf7Ta6(Ti3Si8)2
_symmetry_space_group_name_H-M   'P 1'
_cell_length_a   6.84951233
_cell_length_b   6.85712094
_cell_length_c   12.60404501
_cell_angle_alpha   89.96770608
_cell_angle_beta   89.98348163
_cell_angle_gamma   89.95801527
_symmetry_Int_Tables_number   1
_chemical_formula_structural   HoHf7Ta6(Ti3Si8)2
_chemical_formula_sum   'Ho1 Hf7 Ta6 Ti6 Si16'
_cell_volume   591.98568197
_cell_formula_units_Z   1
loop_
 _symmetry_equiv_pos_site_id
 _symmetry_equiv_pos_as_xyz
  1  'x, y, z'
loop_
 _atom_site_type_symbol
 _atom_site_label
 _atom_site_symmetry_multiplicity
 _atom_site_fract_x
 _atom_site_fract_y
 _atom_site_fract_z
 _atom_site_occupancy
  Ho  Ho0  1  0.996008  0.660866  0.030698  1
  Hf  Hf1  1  0.342505  0.998806  0.470051  1
  Hf  Hf2  1  0.500180  0.843780  0.718484  1
  Hf  Hf3  1  0.498439  0.157695  0.221537  1
  Hf  Hf4  1  0.841565  0.501354  0.281848  1
  Hf  Hf5  1  0.158803  0.498760  0.780048  1
  Hf  Hf6  1  0.653547  0.001471  0.968244  1
  Hf  Hf7  1  0.999045  0.342959  0.530404  1
  Ta  Ta8  1  0.331400  0.326903  0.999392  1
  Ta  Ta9  1  0.171597  0.830558  0.251792  1
  Ta  Ta10  1  0.829421  0.170532  0.748163  1
  Ta  Ta11  1  0.671085  0.670561  0.500088  1
  Ta  Ta12  1  0.154986  0.003469  0.870960  1
  Ta  Ta13  1  0.497185  0.651473  0.124744  1
  Ti  Ti14  1  0.504276  0.347663  0.622456  1
  Ti  Ti15  1  0.652828  0.492216  0.874914  1
  Ti  Ti16  1  0.348487  0.503969  0.378138  1
  Ti  Ti17  1  0.847721  0.996757  0.374622  1
  Ti  Ti18  1  0.005970  0.152212  0.128237  1
  Ti  Ti19  1  0.995403  0.848055  0.626067  1
  Si  Si20  1  0.207549  0.136038  0.674002  1
  Si  Si21  1  0.369969  0.704859  0.924641  1
  Si  Si22  1  0.634760  0.293162  0.426585  1
  Si  Si23  1  0.705247  0.357236  0.072973  1
  Si  Si24  1  0.293506  0.635033  0.573616  1
  Si  Si25  1  0.792648  0.870824  0.181287  1
  Si  Si26  1  0.135265  0.206214  0.324870  1
  Si  Si27  1  0.859784  0.794103  0.819332  1
  Si  Si28  1  0.297556  0.957490  0.064620  1
  Si  Si29  1  0.545107  0.797801  0.316102  1
  Si  Si30  1  0.456291  0.206632  0.810725  1
  Si  Si31  1  0.796288  0.545276  0.685432  1
  Si  Si32  1  0.202845  0.451141  0.189247  1
  Si  Si33  1  0.703889  0.045597  0.562732  1
  Si  Si34  1  0.953104  0.294028  0.935910  1
  Si  Si35  1  0.045742  0.704507  0.437038  1
