# generated using pymatgen
data_Dy6Y2Re3TcB24
_symmetry_space_group_name_H-M   'P 1'
_cell_length_a   3.68770100
_cell_length_b   9.18102900
_cell_length_c   11.56663800
_cell_angle_alpha   90.02614338
_cell_angle_beta   90.00000000
_cell_angle_gamma   90.00000000
_symmetry_Int_Tables_number   1
_chemical_formula_structural   Dy6Y2Re3TcB24
_chemical_formula_sum   'Dy6 Y2 Re3 Tc1 B24'
_cell_volume   391.61034776
_cell_formula_units_Z   1
loop_
 _symmetry_equiv_pos_site_id
 _symmetry_equiv_pos_as_xyz
  1  'x, y, z'
loop_
 _atom_site_type_symbol
 _atom_site_label
 _atom_site_symmetry_multiplicity
 _atom_site_fract_x
 _atom_site_fract_y
 _atom_site_fract_z
 _atom_site_occupancy
  Dy  Dy0  1  0.000000  0.823731  0.085956  1
  Dy  Dy1  1  0.000000  0.176552  0.914004  1
  Dy  Dy2  1  0.000000  0.941767  0.369602  1
  Dy  Dy3  1  0.000000  0.057077  0.629845  1
  Dy  Dy4  1  0.000000  0.443420  0.130749  1
  Dy  Dy5  1  0.000000  0.557159  0.870215  1
  Y  Y6  1  0.000000  0.323785  0.413910  1
  Y  Y7  1  0.000000  0.676507  0.585832  1
  Re  Re8  1  0.000000  0.361574  0.679221  1
  Re  Re9  1  0.000000  0.138327  0.179123  1
  Re  Re10  1  0.000000  0.861763  0.820929  1
  Tc  Tc11  1  0.000000  0.638582  0.320632  1
  B  B12  1  0.500000  0.553411  0.432636  1
  B  B13  1  0.500000  0.446798  0.567078  1
  B  B14  1  0.500000  0.053334  0.067042  1
  B  B15  1  0.500000  0.946918  0.932876  1
  B  B16  1  0.500000  0.748403  0.418219  1
  B  B17  1  0.500000  0.251142  0.581562  1
  B  B18  1  0.500000  0.248948  0.081575  1
  B  B19  1  0.500000  0.751380  0.918530  1
  B  B20  1  0.500000  0.791383  0.265348  1
  B  B21  1  0.500000  0.208246  0.734450  1
  B  B22  1  0.500000  0.291658  0.234588  1
  B  B23  1  0.500000  0.708314  0.765642  1
  B  B24  1  0.500000  0.630995  0.185878  1
  B  B25  1  0.500000  0.369227  0.814283  1
  B  B26  1  0.500000  0.130422  0.314226  1
  B  B27  1  0.500000  0.869290  0.685752  1
  B  B28  1  0.500000  0.982178  0.211700  1
  B  B29  1  0.500000  0.017750  0.788105  1
  B  B30  1  0.500000  0.482694  0.288261  1
  B  B31  1  0.500000  0.517616  0.712002  1
  B  B32  1  0.500000  0.600516  0.028270  1
  B  B33  1  0.500000  0.399789  0.972202  1
  B  B34  1  0.500000  0.099782  0.471777  1
  B  B35  1  0.500000  0.899567  0.527978  1
