# generated using pymatgen
data_Tb4SiPPd28
_symmetry_space_group_name_H-M   'P 1'
_cell_length_a   8.93893900
_cell_length_b   8.93893900
_cell_length_c   7.08962700
_cell_angle_alpha   90.00000000
_cell_angle_beta   90.00000000
_cell_angle_gamma   90.00000000
_symmetry_Int_Tables_number   1
_chemical_formula_structural   Tb4SiPPd28
_chemical_formula_sum   'Tb4 Si1 P1 Pd28'
_cell_volume   566.49402543
_cell_formula_units_Z   1
loop_
 _symmetry_equiv_pos_site_id
 _symmetry_equiv_pos_as_xyz
  1  'x, y, z'
loop_
 _atom_site_type_symbol
 _atom_site_label
 _atom_site_symmetry_multiplicity
 _atom_site_fract_x
 _atom_site_fract_y
 _atom_site_fract_z
 _atom_site_occupancy
  Tb  Tb0  1  0.500000  0.000000  0.935107  1
  Tb  Tb1  1  0.000000  0.500000  0.065923  1
  Tb  Tb2  1  0.000000  0.000000  0.500010  1
  Tb  Tb3  1  0.500000  0.500000  0.500010  1
  Si  Si4  1  0.000000  0.500000  0.550845  1
  P  P5  1  0.500000  0.000000  0.448346  1
  Pd  Pd6  1  0.336214  0.836214  0.615003  1
  Pd  Pd7  1  0.336214  0.163786  0.615003  1
  Pd  Pd8  1  0.663786  0.836214  0.615003  1
  Pd  Pd9  1  0.663786  0.163786  0.615003  1
  Pd  Pd10  1  0.165565  0.665565  0.383839  1
  Pd  Pd11  1  0.165565  0.334435  0.383839  1
  Pd  Pd12  1  0.834435  0.665565  0.383839  1
  Pd  Pd13  1  0.834435  0.334435  0.383839  1
  Pd  Pd14  1  0.500000  0.771234  0.258122  1
  Pd  Pd15  1  0.500000  0.228766  0.258122  1
  Pd  Pd16  1  0.271234  0.000000  0.258122  1
  Pd  Pd17  1  0.728766  0.000000  0.258122  1
  Pd  Pd18  1  0.000000  0.729929  0.743217  1
  Pd  Pd19  1  0.000000  0.270071  0.743217  1
  Pd  Pd20  1  0.229929  0.500000  0.743217  1
  Pd  Pd21  1  0.770071  0.500000  0.743217  1
  Pd  Pd22  1  0.500000  0.348692  0.853272  1
  Pd  Pd23  1  0.500000  0.651308  0.853272  1
  Pd  Pd24  1  0.848692  0.000000  0.853272  1
  Pd  Pd25  1  0.151308  0.000000  0.853272  1
  Pd  Pd26  1  0.000000  0.150630  0.146945  1
  Pd  Pd27  1  0.000000  0.849370  0.146945  1
  Pd  Pd28  1  0.650630  0.500000  0.146945  1
  Pd  Pd29  1  0.349370  0.500000  0.146945  1
  Pd  Pd30  1  0.249376  0.749376  0.999542  1
  Pd  Pd31  1  0.249376  0.250624  0.999542  1
  Pd  Pd32  1  0.750624  0.749376  0.999542  1
  Pd  Pd33  1  0.750624  0.250624  0.999542  1
