# generated using pymatgen
data_ErTmPu2(NiP)4
_symmetry_space_group_name_H-M   'P 1'
_cell_length_a   3.91687600
_cell_length_b   3.91687676
_cell_length_c   15.31057100
_cell_angle_alpha   90.00000000
_cell_angle_beta   90.00000000
_cell_angle_gamma   119.99999356
_symmetry_Int_Tables_number   1
_chemical_formula_structural   ErTmPu2(NiP)4
_chemical_formula_sum   'Er1 Tm1 Pu2 Ni4 P4'
_cell_volume   203.42380717
_cell_formula_units_Z   1
loop_
 _symmetry_equiv_pos_site_id
 _symmetry_equiv_pos_as_xyz
  1  'x, y, z'
loop_
 _atom_site_type_symbol
 _atom_site_label
 _atom_site_symmetry_multiplicity
 _atom_site_fract_x
 _atom_site_fract_y
 _atom_site_fract_z
 _atom_site_occupancy
  Er  Er0  1  0.000000  0.000000  0.750000  1
  Tm  Tm1  1  0.000000  0.000000  0.250000  1
  Pu  Pu2  1  0.000000  0.000000  0.499335  1
  Pu  Pu3  1  0.000000  0.000000  0.000665  1
  Ni  Ni4  1  0.333333  0.666667  0.364276  1
  Ni  Ni5  1  0.666667  0.333333  0.632634  1
  Ni  Ni6  1  0.666667  0.333333  0.867366  1
  Ni  Ni7  1  0.333333  0.666667  0.135724  1
  P  P8  1  0.333333  0.666667  0.877097  1
  P  P9  1  0.666667  0.333333  0.123440  1
  P  P10  1  0.666667  0.333333  0.376560  1
  P  P11  1  0.333333  0.666667  0.622903  1
