# generated using pymatgen
data_Er3Tm5(C2Br3)2
_symmetry_space_group_name_H-M   'P 1'
_cell_length_a   3.64507500
_cell_length_b   10.58131101
_cell_length_c   20.23372703
_cell_angle_alpha   90.00597383
_cell_angle_beta   90.00000000
_cell_angle_gamma   90.00000000
_symmetry_Int_Tables_number   1
_chemical_formula_structural   Er3Tm5(C2Br3)2
_chemical_formula_sum   'Er6 Tm10 C8 Br12'
_cell_volume   780.40821552
_cell_formula_units_Z   2
loop_
 _symmetry_equiv_pos_site_id
 _symmetry_equiv_pos_as_xyz
  1  'x, y, z'
loop_
 _atom_site_type_symbol
 _atom_site_label
 _atom_site_symmetry_multiplicity
 _atom_site_fract_x
 _atom_site_fract_y
 _atom_site_fract_z
 _atom_site_occupancy
  Er  Er0  1  0.250000  0.866315  0.581091  1
  Er  Er1  1  0.750000  0.133685  0.418909  1
  Er  Er2  1  0.750000  0.633677  0.081310  1
  Er  Er3  1  0.250000  0.366323  0.918690  1
  Er  Er4  1  0.250000  0.865655  0.744294  1
  Er  Er5  1  0.750000  0.134345  0.255706  1
  Tm  Tm6  1  0.750000  0.634342  0.243874  1
  Tm  Tm7  1  0.250000  0.365658  0.756126  1
  Tm  Tm8  1  0.250000  0.866986  0.169976  1
  Tm  Tm9  1  0.750000  0.133014  0.830024  1
  Tm  Tm10  1  0.750000  0.632798  0.669858  1
  Tm  Tm11  1  0.250000  0.367202  0.330142  1
  Tm  Tm12  1  0.250000  0.900892  0.327229  1
  Tm  Tm13  1  0.750000  0.099108  0.672771  1
  Tm  Tm14  1  0.750000  0.598823  0.827111  1
  Tm  Tm15  1  0.250000  0.401177  0.172889  1
  C  C16  1  0.250000  0.614234  0.750267  1
  C  C17  1  0.750000  0.385766  0.249733  1
  C  C18  1  0.750000  0.884197  0.250228  1
  C  C19  1  0.250000  0.115803  0.749772  1
  C  C20  1  0.250000  0.632923  0.157270  1
  C  C21  1  0.750000  0.367077  0.842730  1
  C  C22  1  0.750000  0.867093  0.656838  1
  C  C23  1  0.250000  0.132907  0.343162  1
  Br  Br24  1  0.250000  0.611650  0.556189  1
  Br  Br25  1  0.750000  0.388350  0.443811  1
  Br  Br26  1  0.750000  0.888205  0.056193  1
  Br  Br27  1  0.250000  0.111795  0.943807  1
  Br  Br28  1  0.250000  0.628082  0.952995  1
  Br  Br29  1  0.750000  0.371918  0.047005  1
  Br  Br30  1  0.750000  0.871848  0.452969  1
  Br  Br31  1  0.250000  0.128152  0.547031  1
  Br  Br32  1  0.250000  0.636204  0.356177  1
  Br  Br33  1  0.750000  0.363796  0.643823  1
  Br  Br34  1  0.750000  0.863783  0.856793  1
  Br  Br35  1  0.250000  0.136217  0.143207  1
