# generated using pymatgen
data_Er15Lu(ZnIn3)2
_symmetry_space_group_name_H-M   'P 1'
_cell_length_a   10.53815200
_cell_length_b   10.54774356
_cell_length_c   6.71772415
_cell_angle_alpha   89.99947291
_cell_angle_beta   90.00000000
_cell_angle_gamma   119.96991107
_symmetry_Int_Tables_number   1
_chemical_formula_structural   Er15Lu(ZnIn3)2
_chemical_formula_sum   'Er15 Lu1 Zn2 In6'
_cell_volume   646.85719878
_cell_formula_units_Z   1
loop_
 _symmetry_equiv_pos_site_id
 _symmetry_equiv_pos_as_xyz
  1  'x, y, z'
loop_
 _atom_site_type_symbol
 _atom_site_label
 _atom_site_symmetry_multiplicity
 _atom_site_fract_x
 _atom_site_fract_y
 _atom_site_fract_z
 _atom_site_occupancy
  Er  Er0  1  0.957830  0.479122  0.796176  1
  Er  Er1  1  0.521293  0.479122  0.796176  1
  Er  Er2  1  0.478643  0.957286  0.296069  1
  Er  Er3  1  0.042776  0.521549  0.296432  1
  Er  Er4  1  0.478774  0.521549  0.296432  1
  Er  Er5  1  0.826813  0.653627  0.511436  1
  Er  Er6  1  0.346211  0.172880  0.511839  1
  Er  Er7  1  0.826670  0.172880  0.511839  1
  Er  Er8  1  0.172600  0.345199  0.012155  1
  Er  Er9  1  0.653901  0.827447  0.011083  1
  Er  Er10  1  0.173547  0.827447  0.011083  1
  Er  Er11  1  0.666254  0.332507  0.146018  1
  Er  Er12  1  0.333932  0.667865  0.648351  1
  Er  Er13  1  0.000195  0.000389  0.776445  1
  Er  Er14  1  0.999747  0.999493  0.276834  1
  Lu  Lu15  1  0.521542  0.043083  0.796168  1
  Zn  Zn16  1  0.666321  0.332640  0.579253  1
  Zn  Zn17  1  0.332920  0.665842  0.079515  1
  In  In18  1  0.835578  0.671156  0.030081  1
  In  In19  1  0.328754  0.163709  0.029978  1
  In  In20  1  0.834954  0.163709  0.029978  1
  In  In21  1  0.164630  0.329260  0.530867  1
  In  In22  1  0.671886  0.836117  0.530847  1
  In  In23  1  0.164232  0.836117  0.530847  1
