# generated using pymatgen
data_Y6Co17Si10P2Ru
_symmetry_space_group_name_H-M   'P 1'
_cell_length_a   3.77354900
_cell_length_b   10.69779000
_cell_length_c   12.37123800
_cell_angle_alpha   90.00000000
_cell_angle_beta   90.00000000
_cell_angle_gamma   90.00000000
_symmetry_Int_Tables_number   1
_chemical_formula_structural   Y6Co17Si10P2Ru
_chemical_formula_sum   'Y6 Co17 Si10 P2 Ru1'
_cell_volume   499.40998831
_cell_formula_units_Z   1
loop_
 _symmetry_equiv_pos_site_id
 _symmetry_equiv_pos_as_xyz
  1  'x, y, z'
loop_
 _atom_site_type_symbol
 _atom_site_label
 _atom_site_symmetry_multiplicity
 _atom_site_fract_x
 _atom_site_fract_y
 _atom_site_fract_z
 _atom_site_occupancy
  Y  Y0  1  0.000000  0.500000  0.526651  1
  Y  Y1  1  0.500000  0.000000  0.474902  1
  Y  Y2  1  0.500000  0.818283  0.205751  1
  Y  Y3  1  0.500000  0.181717  0.205751  1
  Y  Y4  1  0.000000  0.683879  0.797024  1
  Y  Y5  1  0.000000  0.316121  0.797024  1
  Co  Co6  1  0.000000  0.000000  0.840492  1
  Co  Co7  1  0.500000  0.500000  0.696908  1
  Co  Co8  1  0.000000  0.000000  0.297121  1
  Co  Co9  1  0.000000  0.500000  0.981343  1
  Co  Co10  1  0.500000  0.000000  0.023272  1
  Co  Co11  1  0.500000  0.327171  0.991329  1
  Co  Co12  1  0.500000  0.672829  0.991329  1
  Co  Co13  1  0.000000  0.163127  0.007478  1
  Co  Co14  1  0.000000  0.836873  0.007478  1
  Co  Co15  1  0.500000  0.299487  0.431356  1
  Co  Co16  1  0.500000  0.700513  0.431356  1
  Co  Co17  1  0.000000  0.193626  0.572556  1
  Co  Co18  1  0.000000  0.806374  0.572556  1
  Co  Co19  1  0.500000  0.885244  0.707388  1
  Co  Co20  1  0.500000  0.114756  0.707388  1
  Co  Co21  1  0.000000  0.618930  0.292166  1
  Co  Co22  1  0.000000  0.381070  0.292166  1
  Si  Si23  1  0.500000  0.500000  0.882990  1
  Si  Si24  1  0.500000  0.500000  0.341284  1
  Si  Si25  1  0.500000  0.303235  0.615927  1
  Si  Si26  1  0.500000  0.696765  0.615927  1
  Si  Si27  1  0.000000  0.194172  0.386646  1
  Si  Si28  1  0.000000  0.805828  0.386646  1
  Si  Si29  1  0.500000  0.857022  0.893278  1
  Si  Si30  1  0.500000  0.142978  0.893278  1
  Si  Si31  1  0.000000  0.650651  0.103664  1
  Si  Si32  1  0.000000  0.349349  0.103664  1
  P  P33  1  0.000000  0.000000  0.117099  1
  P  P34  1  0.000000  0.000000  0.659414  1
  Ru  Ru35  1  0.500000  0.500000  0.149402  1
