# generated using pymatgen
data_YTm2Th(Al3Ir)6
_symmetry_space_group_name_H-M   'P 1'
_cell_length_a   7.57308338
_cell_length_b   7.58267928
_cell_length_c   9.46747100
_cell_angle_alpha   90.00000000
_cell_angle_beta   90.00000000
_cell_angle_gamma   119.49239356
_symmetry_Int_Tables_number   1
_chemical_formula_structural   YTm2Th(Al3Ir)6
_chemical_formula_sum   'Y1 Tm2 Th1 Al18 Ir6'
_cell_volume   473.21532410
_cell_formula_units_Z   1
loop_
 _symmetry_equiv_pos_site_id
 _symmetry_equiv_pos_as_xyz
  1  'x, y, z'
loop_
 _atom_site_type_symbol
 _atom_site_label
 _atom_site_symmetry_multiplicity
 _atom_site_fract_x
 _atom_site_fract_y
 _atom_site_fract_z
 _atom_site_occupancy
  Y  Y0  1  0.672593  0.994792  0.250000  1
  Tm  Tm1  1  0.003942  0.328052  0.750000  1
  Tm  Tm2  1  0.327078  0.004676  0.750000  1
  Th  Th3  1  0.994988  0.671318  0.250000  1
  Al  Al4  1  0.132370  0.133624  0.250000  1
  Al  Al5  1  0.871637  0.873947  0.750000  1
  Al  Al6  1  0.001933  0.331476  0.071546  1
  Al  Al7  1  0.999496  0.664114  0.917711  1
  Al  Al8  1  0.999496  0.664114  0.582289  1
  Al  Al9  1  0.339931  0.005306  0.428424  1
  Al  Al10  1  0.001933  0.331476  0.428454  1
  Al  Al11  1  0.664385  0.000640  0.577039  1
  Al  Al12  1  0.664385  0.000640  0.922961  1
  Al  Al13  1  0.339931  0.005306  0.071576  1
  Al  Al14  1  0.332023  0.332103  0.556316  1
  Al  Al15  1  0.662910  0.666143  0.454899  1
  Al  Al16  1  0.662910  0.666143  0.045101  1
  Al  Al17  1  0.332023  0.332103  0.943684  1
  Al  Al18  1  0.344212  0.548378  0.250000  1
  Al  Al19  1  0.657792  0.448253  0.750000  1
  Al  Al20  1  0.544421  0.337422  0.250000  1
  Al  Al21  1  0.448931  0.660313  0.750000  1
  Ir  Ir22  1  0.673303  0.329418  0.999869  1
  Ir  Ir23  1  0.326169  0.671485  0.999929  1
  Ir  Ir24  1  0.326169  0.671485  0.500071  1
  Ir  Ir25  1  0.673303  0.329418  0.500131  1
  Ir  Ir26  1  0.000868  0.998927  0.999961  1
  Ir  Ir27  1  0.000868  0.998927  0.500039  1
