# generated using pymatgen
data_Cs2UTaSe6
_symmetry_space_group_name_H-M   'P 1'
_cell_length_a   7.75161700
_cell_length_b   7.75156680
_cell_length_c   6.53287400
_cell_angle_alpha   90.00000439
_cell_angle_beta   89.99998384
_cell_angle_gamma   119.99978962
_symmetry_Int_Tables_number   1
_chemical_formula_structural   Cs2UTaSe6
_chemical_formula_sum   'Cs2 U1 Ta1 Se6'
_cell_volume   339.95202687
_cell_formula_units_Z   1
loop_
 _symmetry_equiv_pos_site_id
 _symmetry_equiv_pos_as_xyz
  1  'x, y, z'
loop_
 _atom_site_type_symbol
 _atom_site_label
 _atom_site_symmetry_multiplicity
 _atom_site_fract_x
 _atom_site_fract_y
 _atom_site_fract_z
 _atom_site_occupancy
  Cs  Cs0  1  0.333333  0.666667  0.250734  1
  Cs  Cs1  1  0.666667  0.333333  0.745112  1
  U  U2  1  0.999999  0.000000  0.988427  1
  Ta  Ta3  1  0.000000  0.000000  0.487391  1
  Se  Se4  1  0.157343  0.842657  0.725777  1
  Se  Se5  1  0.157343  0.314686  0.725777  1
  Se  Se6  1  0.685314  0.842657  0.725777  1
  Se  Se7  1  0.842400  0.157600  0.253927  1
  Se  Se8  1  0.842400  0.684800  0.253927  1
  Se  Se9  1  0.315201  0.157601  0.253928  1
