# generated using pymatgen
data_La2InBiO7
_symmetry_space_group_name_H-M   'P 1'
_cell_length_a   7.79879209
_cell_length_b   7.79879213
_cell_length_c   7.89322700
_cell_angle_alpha   59.59862129
_cell_angle_beta   59.59862110
_cell_angle_gamma   59.35173893
_symmetry_Int_Tables_number   1
_chemical_formula_structural   La2InBiO7
_chemical_formula_sum   'La4 In2 Bi2 O14'
_cell_volume   335.72648101
_cell_formula_units_Z   2
loop_
 _symmetry_equiv_pos_site_id
 _symmetry_equiv_pos_as_xyz
  1  'x, y, z'
loop_
 _atom_site_type_symbol
 _atom_site_label
 _atom_site_symmetry_multiplicity
 _atom_site_fract_x
 _atom_site_fract_y
 _atom_site_fract_z
 _atom_site_occupancy
  La  La0  1  0.625000  0.125000  0.125000  1
  La  La1  1  0.125000  0.125000  0.125000  1
  La  La2  1  0.125000  0.625000  0.125000  1
  La  La3  1  0.125000  0.125000  0.625000  1
  In  In4  1  0.625000  0.125000  0.625000  1
  In  In5  1  0.125000  0.625000  0.625000  1
  Bi  Bi6  1  0.625000  0.625000  0.125000  1
  Bi  Bi7  1  0.625000  0.625000  0.625000  1
  O  O8  1  0.708055  0.291263  0.282773  1
  O  O9  1  0.708411  0.708411  0.291589  1
  O  O10  1  0.291263  0.708055  0.282773  1
  O  O11  1  0.998410  0.998410  0.001590  1
  O  O12  1  0.708055  0.291263  0.717909  1
  O  O13  1  0.958737  0.541945  0.532091  1
  O  O14  1  0.291263  0.708055  0.717909  1
  O  O15  1  0.541945  0.958737  0.532091  1
  O  O16  1  0.251590  0.251590  0.248410  1
  O  O17  1  0.958737  0.541945  0.967227  1
  O  O18  1  0.541589  0.541589  0.958411  1
  O  O19  1  0.968146  0.968146  0.531854  1
  O  O20  1  0.541945  0.958737  0.967227  1
  O  O21  1  0.281854  0.281854  0.718146  1
