# generated using pymatgen
data_Ti4NbCo16Si7W
_symmetry_space_group_name_H-M   'P 1'
_cell_length_a   7.84724545
_cell_length_b   7.84325387
_cell_length_c   7.84724628
_cell_angle_alpha   60.01682631
_cell_angle_beta   59.96635130
_cell_angle_gamma   60.01682800
_symmetry_Int_Tables_number   1
_chemical_formula_structural   Ti4NbCo16Si7W
_chemical_formula_sum   'Ti4 Nb1 Co16 Si7 W1'
_cell_volume   341.51956471
_cell_formula_units_Z   1
loop_
 _symmetry_equiv_pos_site_id
 _symmetry_equiv_pos_as_xyz
  1  'x, y, z'
loop_
 _atom_site_type_symbol
 _atom_site_label
 _atom_site_symmetry_multiplicity
 _atom_site_fract_x
 _atom_site_fract_y
 _atom_site_fract_z
 _atom_site_occupancy
  Ti  Ti0  1  0.201989  0.798011  0.799671  1
  Ti  Ti1  1  0.799671  0.200329  0.201989  1
  Ti  Ti2  1  0.799671  0.798011  0.201989  1
  Ti  Ti3  1  0.201989  0.200329  0.799671  1
  Nb  Nb4  1  0.797738  0.202262  0.797738  1
  Co  Co5  1  0.165266  0.164627  0.165266  1
  Co  Co6  1  0.495161  0.834734  0.835373  1
  Co  Co7  1  0.834198  0.498813  0.834198  1
  Co  Co8  1  0.835373  0.834734  0.495161  1
  Co  Co9  1  0.165266  0.504839  0.165266  1
  Co  Co10  1  0.167208  0.165802  0.501187  1
  Co  Co11  1  0.501187  0.165802  0.167208  1
  Co  Co12  1  0.834198  0.832792  0.834198  1
  Co  Co13  1  0.380284  0.383661  0.380284  1
  Co  Co14  1  0.144230  0.619716  0.616339  1
  Co  Co15  1  0.618777  0.141777  0.618777  1
  Co  Co16  1  0.616339  0.619716  0.144230  1
  Co  Co17  1  0.380284  0.855770  0.380284  1
  Co  Co18  1  0.379329  0.381223  0.858223  1
  Co  Co19  1  0.858223  0.381223  0.379329  1
  Co  Co20  1  0.618777  0.620671  0.618777  1
  Si  Si21  1  0.502087  0.497913  0.502087  1
  Si  Si22  1  0.000011  0.499989  0.000011  1
  Si  Si23  1  0.499923  0.998669  0.001331  1
  Si  Si24  1  0.001331  0.500077  0.499923  1
  Si  Si25  1  0.500011  0.999989  0.500011  1
  Si  Si26  1  0.001331  0.998669  0.499923  1
  Si  Si27  1  0.499923  0.500077  0.001331  1
  W  W28  1  0.200224  0.799776  0.200224  1
