# generated using pymatgen
data_Gd4Zn(SiIr2)2
_symmetry_space_group_name_H-M   'P 1'
_cell_length_a   10.76935325
_cell_length_b   10.76935222
_cell_length_c   7.72758300
_cell_angle_alpha   71.51463972
_cell_angle_beta   71.51463594
_cell_angle_gamma   29.86887358
_symmetry_Int_Tables_number   1
_chemical_formula_structural   Gd4Zn(SiIr2)2
_chemical_formula_sum   'Gd8 Zn2 Si4 Ir8'
_cell_volume   421.62567661
_cell_formula_units_Z   2
loop_
 _symmetry_equiv_pos_site_id
 _symmetry_equiv_pos_as_xyz
  1  'x, y, z'
loop_
 _atom_site_type_symbol
 _atom_site_label
 _atom_site_symmetry_multiplicity
 _atom_site_fract_x
 _atom_site_fract_y
 _atom_site_fract_z
 _atom_site_occupancy
  Gd  Gd0  1  0.209849  0.448507  0.400462  1
  Gd  Gd1  1  0.551493  0.790151  0.099538  1
  Gd  Gd2  1  0.448507  0.209849  0.900462  1
  Gd  Gd3  1  0.916619  0.220138  0.334525  1
  Gd  Gd4  1  0.779862  0.083381  0.165475  1
  Gd  Gd5  1  0.083381  0.779862  0.665475  1
  Gd  Gd6  1  0.220138  0.916619  0.834525  1
  Gd  Gd7  1  0.790151  0.551493  0.599538  1
  Zn  Zn8  1  0.639897  0.360103  0.750000  1
  Zn  Zn9  1  0.360103  0.639897  0.250000  1
  Si  Si10  1  0.298675  0.049765  0.442626  1
  Si  Si11  1  0.950235  0.701325  0.057374  1
  Si  Si12  1  0.701325  0.950235  0.557374  1
  Si  Si13  1  0.049765  0.298675  0.942626  1
  Ir  Ir14  1  0.277716  0.587990  0.023794  1
  Ir  Ir15  1  0.587990  0.277716  0.523794  1
  Ir  Ir16  1  0.722284  0.412010  0.976206  1
  Ir  Ir17  1  0.070207  0.370314  0.192527  1
  Ir  Ir18  1  0.629686  0.929793  0.307473  1
  Ir  Ir19  1  0.412010  0.722284  0.476206  1
  Ir  Ir20  1  0.929793  0.629686  0.807473  1
  Ir  Ir21  1  0.370314  0.070207  0.692527  1
