# generated using pymatgen
data_Er3TlF10
_symmetry_space_group_name_H-M   'P 1'
_cell_length_a   8.25982940
_cell_length_b   8.25976494
_cell_length_c   8.27591400
_cell_angle_alpha   59.93582410
_cell_angle_beta   59.93527343
_cell_angle_gamma   60.12913280
_symmetry_Int_Tables_number   1
_chemical_formula_structural   Er3TlF10
_chemical_formula_sum   'Er6 Tl2 F20'
_cell_volume   399.24288315
_cell_formula_units_Z   2
loop_
 _symmetry_equiv_pos_site_id
 _symmetry_equiv_pos_as_xyz
  1  'x, y, z'
loop_
 _atom_site_type_symbol
 _atom_site_label
 _atom_site_symmetry_multiplicity
 _atom_site_fract_x
 _atom_site_fract_y
 _atom_site_fract_z
 _atom_site_occupancy
  Er  Er0  1  0.241164  0.759123  0.240878  1
  Er  Er1  1  0.759123  0.241161  0.240880  1
  Er  Er2  1  0.241171  0.759116  0.758829  1
  Er  Er3  1  0.240895  0.240893  0.759108  1
  Er  Er4  1  0.759123  0.241163  0.758838  1
  Er  Er5  1  0.759511  0.759526  0.240485  1
  Tl  Tl6  1  0.750022  0.750086  0.749958  1
  Tl  Tl7  1  0.250032  0.250106  0.249970  1
  F  F8  1  0.828520  0.171434  0.500020  1
  F  F9  1  0.499884  0.171765  0.828224  1
  F  F10  1  0.827590  0.500596  0.172409  1
  F  F11  1  0.499882  0.171768  0.500120  1
  F  F12  1  0.827588  0.500597  0.499397  1
  F  F13  1  0.171785  0.499874  0.828214  1
  F  F14  1  0.500599  0.827586  0.499401  1
  F  F15  1  0.499979  0.499976  0.171478  1
  F  F16  1  0.890175  0.329965  0.889926  1
  F  F17  1  0.110072  0.110069  0.670037  1
  F  F18  1  0.670279  0.109232  0.110241  1
  F  F19  1  0.110073  0.110065  0.109828  1
  F  F20  1  0.329968  0.890175  0.889928  1
  F  F21  1  0.889763  0.889754  0.890765  1
  F  F22  1  0.889760  0.889751  0.329717  1
  F  F23  1  0.109240  0.670282  0.110236  1
  F  F24  1  0.171443  0.828515  0.500018  1
  F  F25  1  0.500605  0.827580  0.172413  1
  F  F26  1  0.171773  0.499870  0.500116  1
  F  F27  1  0.499983  0.499974  0.828563  1
