# generated using pymatgen
data_Er12IrOs3
_symmetry_space_group_name_H-M   'P 1'
_cell_length_a   6.31493339
_cell_length_b   7.31507162
_cell_length_c   8.95880600
_cell_angle_alpha   90.00000000
_cell_angle_beta   90.00000000
_cell_angle_gamma   90.09837512
_symmetry_Int_Tables_number   1
_chemical_formula_structural   Er12IrOs3
_chemical_formula_sum   'Er12 Ir1 Os3'
_cell_volume   413.84417695
_cell_formula_units_Z   1
loop_
 _symmetry_equiv_pos_site_id
 _symmetry_equiv_pos_as_xyz
  1  'x, y, z'
loop_
 _atom_site_type_symbol
 _atom_site_label
 _atom_site_symmetry_multiplicity
 _atom_site_fract_x
 _atom_site_fract_y
 _atom_site_fract_z
 _atom_site_occupancy
  Er  Er0  1  0.332177  0.673575  0.061687  1
  Er  Er1  1  0.170191  0.176546  0.438563  1
  Er  Er2  1  0.669624  0.325047  0.562530  1
  Er  Er3  1  0.827780  0.824474  0.935680  1
  Er  Er4  1  0.669624  0.325047  0.937470  1
  Er  Er5  1  0.827780  0.824474  0.564320  1
  Er  Er6  1  0.332177  0.673575  0.438313  1
  Er  Er7  1  0.170191  0.176546  0.061437  1
  Er  Er8  1  0.872717  0.537980  0.250000  1
  Er  Er9  1  0.628494  0.039062  0.250000  1
  Er  Er10  1  0.127852  0.461949  0.750000  1
  Er  Er11  1  0.370349  0.961775  0.750000  1
  Ir  Ir12  1  0.039319  0.883977  0.250000  1
  Os  Os13  1  0.462537  0.383738  0.250000  1
  Os  Os14  1  0.962878  0.115727  0.750000  1
  Os  Os15  1  0.536311  0.616510  0.750000  1
