# generated using pymatgen
data_Tb2Y4PtI10
_symmetry_space_group_name_H-M   'P 1'
_cell_length_a   7.75697441
_cell_length_b   9.76216389
_cell_length_c   9.81142478
_cell_angle_alpha   107.29558102
_cell_angle_beta   96.97200710
_cell_angle_gamma   104.76806701
_symmetry_Int_Tables_number   1
_chemical_formula_structural   Tb2Y4PtI10
_chemical_formula_sum   'Tb2 Y4 Pt1 I10'
_cell_volume   670.11588817
_cell_formula_units_Z   1
loop_
 _symmetry_equiv_pos_site_id
 _symmetry_equiv_pos_as_xyz
  1  'x, y, z'
loop_
 _atom_site_type_symbol
 _atom_site_label
 _atom_site_symmetry_multiplicity
 _atom_site_fract_x
 _atom_site_fract_y
 _atom_site_fract_z
 _atom_site_occupancy
  Tb  Tb0  1  0.885337  0.959830  0.241839  1
  Tb  Tb1  1  0.114663  0.040170  0.758161  1
  Y  Y2  1  0.350643  0.126873  0.167038  1
  Y  Y3  1  0.649357  0.873127  0.832962  1
  Y  Y4  1  0.971845  0.288041  0.087238  1
  Y  Y5  1  0.028155  0.711959  0.912762  1
  Pt  Pt6  1  0.000000  0.000000  0.000000  1
  I  I7  1  0.356621  0.454076  0.272982  1
  I  I8  1  0.643379  0.545924  0.727018  1
  I  I9  1  0.914329  0.626937  0.179457  1
  I  I10  1  0.085671  0.373063  0.820543  1
  I  I11  1  0.452860  0.816990  0.091937  1
  I  I12  1  0.547140  0.183010  0.908063  1
  I  I13  1  0.261283  0.088220  0.462908  1
  I  I14  1  0.738717  0.911780  0.537092  1
  I  I15  1  0.780882  0.260608  0.348463  1
  I  I16  1  0.219118  0.739392  0.651537  1
