# generated using pymatgen
data_La6Dy7Er3(CdIr)4
_symmetry_space_group_name_H-M   'P 1'
_cell_length_a   9.81354089
_cell_length_b   9.82156863
_cell_length_c   9.81322935
_cell_angle_alpha   59.93113050
_cell_angle_beta   59.90270569
_cell_angle_gamma   59.94607524
_symmetry_Int_Tables_number   1
_chemical_formula_structural   La6Dy7Er3(CdIr)4
_chemical_formula_sum   'La6 Dy7 Er3 Cd4 Ir4'
_cell_volume   667.69805279
_cell_formula_units_Z   1
loop_
 _symmetry_equiv_pos_site_id
 _symmetry_equiv_pos_as_xyz
  1  'x, y, z'
loop_
 _atom_site_type_symbol
 _atom_site_label
 _atom_site_symmetry_multiplicity
 _atom_site_fract_x
 _atom_site_fract_y
 _atom_site_fract_z
 _atom_site_occupancy
  La  La0  1  0.192066  0.807435  0.807682  1
  La  La1  1  0.807158  0.193009  0.192600  1
  La  La2  1  0.807632  0.192186  0.807691  1
  La  La3  1  0.192970  0.806835  0.192949  1
  La  La4  1  0.807557  0.807297  0.192236  1
  La  La5  1  0.192744  0.193039  0.807123  1
  Dy  Dy6  1  0.596345  0.596264  0.596809  1
  Dy  Dy7  1  0.597024  0.596512  0.210008  1
  Dy  Dy8  1  0.597081  0.210157  0.596692  1
  Dy  Dy9  1  0.210050  0.596897  0.597027  1
  Dy  Dy10  1  0.063072  0.436608  0.435984  1
  Dy  Dy11  1  0.435530  0.063926  0.063482  1
  Dy  Dy12  1  0.436425  0.063127  0.436453  1
  Er  Er13  1  0.063630  0.435912  0.063624  1
  Er  Er14  1  0.436170  0.436769  0.062858  1
  Er  Er15  1  0.063358  0.063730  0.435757  1
  Cd  Cd16  1  0.828615  0.828406  0.828422  1
  Cd  Cd17  1  0.828794  0.828708  0.514172  1
  Cd  Cd18  1  0.828646  0.514209  0.828791  1
  Cd  Cd19  1  0.514140  0.828576  0.828789  1
  Ir  Ir20  1  0.391290  0.391023  0.390684  1
  Ir  Ir21  1  0.390988  0.391398  0.827746  1
  Ir  Ir22  1  0.390902  0.827238  0.391489  1
  Ir  Ir23  1  0.827810  0.390738  0.390931  1
