# generated using pymatgen
data_CeTh2N4
_symmetry_space_group_name_H-M   'P 1'
_cell_length_a   9.32398905
_cell_length_b   9.32398863
_cell_length_c   9.32398832
_cell_angle_alpha   23.77918529
_cell_angle_beta   23.77919326
_cell_angle_gamma   23.77918866
_symmetry_Int_Tables_number   1
_chemical_formula_structural   CeTh2N4
_chemical_formula_sum   'Ce1 Th2 N4'
_cell_volume   115.76860071
_cell_formula_units_Z   1
loop_
 _symmetry_equiv_pos_site_id
 _symmetry_equiv_pos_as_xyz
  1  'x, y, z'
loop_
 _atom_site_type_symbol
 _atom_site_label
 _atom_site_symmetry_multiplicity
 _atom_site_fract_x
 _atom_site_fract_y
 _atom_site_fract_z
 _atom_site_occupancy
  Ce  Ce0  1  0.220103  0.220103  0.220103  1
  Th  Th1  1  0.996521  0.996521  0.996521  1
  Th  Th2  1  0.776816  0.776816  0.776816  1
  N  N3  1  0.134491  0.134491  0.134491  1
  N  N4  1  0.869675  0.869675  0.869675  1
  N  N5  1  0.378874  0.378874  0.378874  1
  N  N6  1  0.623520  0.623520  0.623520  1
