# generated using pymatgen
data_Y3Ho5(CdPt)2
_symmetry_space_group_name_H-M   'P 1'
_cell_length_a   9.68173212
_cell_length_b   9.68173267
_cell_length_c   9.68173200
_cell_angle_alpha   60.00000229
_cell_angle_beta   60.00000040
_cell_angle_gamma   60.00000413
_symmetry_Int_Tables_number   1
_chemical_formula_structural   Y3Ho5(CdPt)2
_chemical_formula_sum   'Y6 Ho10 Cd4 Pt4'
_cell_volume   641.71801327
_cell_formula_units_Z   2
loop_
 _symmetry_equiv_pos_site_id
 _symmetry_equiv_pos_as_xyz
  1  'x, y, z'
loop_
 _atom_site_type_symbol
 _atom_site_label
 _atom_site_symmetry_multiplicity
 _atom_site_fract_x
 _atom_site_fract_y
 _atom_site_fract_z
 _atom_site_occupancy
  Y  Y0  1  0.935846  0.564154  0.564154  1
  Y  Y1  1  0.564154  0.935846  0.935846  1
  Y  Y2  1  0.564154  0.935846  0.564154  1
  Y  Y3  1  0.935846  0.564154  0.935846  1
  Y  Y4  1  0.564154  0.564154  0.935846  1
  Y  Y5  1  0.935846  0.935846  0.564154  1
  Ho  Ho6  1  0.352455  0.352455  0.352455  1
  Ho  Ho7  1  0.352455  0.352455  0.942635  1
  Ho  Ho8  1  0.352455  0.942635  0.352455  1
  Ho  Ho9  1  0.942635  0.352455  0.352455  1
  Ho  Ho10  1  0.810573  0.189427  0.189427  1
  Ho  Ho11  1  0.189427  0.810573  0.810573  1
  Ho  Ho12  1  0.189427  0.810573  0.189427  1
  Ho  Ho13  1  0.810573  0.189427  0.810573  1
  Ho  Ho14  1  0.189427  0.189427  0.810573  1
  Ho  Ho15  1  0.810573  0.810573  0.189427  1
  Cd  Cd16  1  0.581751  0.581751  0.581751  1
  Cd  Cd17  1  0.581751  0.581751  0.254747  1
  Cd  Cd18  1  0.581751  0.254747  0.581751  1
  Cd  Cd19  1  0.254747  0.581751  0.581751  1
  Pt  Pt20  1  0.143231  0.143231  0.143231  1
  Pt  Pt21  1  0.143231  0.143231  0.570306  1
  Pt  Pt22  1  0.143231  0.570306  0.143231  1
  Pt  Pt23  1  0.570306  0.143231  0.143231  1
