# generated using pymatgen
data_Dy3Ga4S
_symmetry_space_group_name_H-M   'P 1'
_cell_length_a   7.73810528
_cell_length_b   7.73810486
_cell_length_c   7.73810525
_cell_angle_alpha   118.97002916
_cell_angle_beta   118.97002387
_cell_angle_gamma   91.79341545
_symmetry_Int_Tables_number   1
_chemical_formula_structural   Dy3Ga4S
_chemical_formula_sum   'Dy6 Ga8 S2'
_cell_volume   332.55828793
_cell_formula_units_Z   2
loop_
 _symmetry_equiv_pos_site_id
 _symmetry_equiv_pos_as_xyz
  1  'x, y, z'
loop_
 _atom_site_type_symbol
 _atom_site_label
 _atom_site_symmetry_multiplicity
 _atom_site_fract_x
 _atom_site_fract_y
 _atom_site_fract_z
 _atom_site_occupancy
  Dy  Dy0  1  0.835284  0.664716  0.500000  1
  Dy  Dy1  1  0.664716  0.164716  0.829432  1
  Dy  Dy2  1  0.335284  0.835284  0.170568  1
  Dy  Dy3  1  0.164716  0.335284  0.500000  1
  Dy  Dy4  1  0.250000  0.250000  0.000000  1
  Dy  Dy5  1  0.750000  0.750000  0.000000  1
  Ga  Ga6  1  0.162116  0.949469  0.500000  1
  Ga  Ga7  1  0.449469  0.662116  0.500000  1
  Ga  Ga8  1  0.550531  0.337884  0.500000  1
  Ga  Ga9  1  0.662116  0.162116  0.212647  1
  Ga  Ga10  1  0.837884  0.050531  0.500000  1
  Ga  Ga11  1  0.050531  0.550531  0.212647  1
  Ga  Ga12  1  0.337884  0.837884  0.787353  1
  Ga  Ga13  1  0.949469  0.449469  0.787353  1
  S  S14  1  0.000000  0.000000  0.000000  1
  S  S15  1  0.500000  0.500000  0.000000  1
