# generated using pymatgen
data_Yb3(GeP2)2
_symmetry_space_group_name_H-M   'P 1'
_cell_length_a   17.37983800
_cell_length_b   7.05598818
_cell_length_c   7.08700786
_cell_angle_alpha   68.39539734
_cell_angle_beta   90.00000000
_cell_angle_gamma   90.00000000
_symmetry_Int_Tables_number   1
_chemical_formula_structural   Yb3(GeP2)2
_chemical_formula_sum   'Yb12 Ge8 P16'
_cell_volume   808.03696265
_cell_formula_units_Z   4
loop_
 _symmetry_equiv_pos_site_id
 _symmetry_equiv_pos_as_xyz
  1  'x, y, z'
loop_
 _atom_site_type_symbol
 _atom_site_label
 _atom_site_symmetry_multiplicity
 _atom_site_fract_x
 _atom_site_fract_y
 _atom_site_fract_z
 _atom_site_occupancy
  Yb  Yb0  1  0.316574  0.488249  0.219962  1
  Yb  Yb1  1  0.816574  0.011751  0.780038  1
  Yb  Yb2  1  0.683426  0.511751  0.780038  1
  Yb  Yb3  1  0.183426  0.988249  0.219962  1
  Yb  Yb4  1  0.060911  0.488531  0.255515  1
  Yb  Yb5  1  0.560911  0.011469  0.744485  1
  Yb  Yb6  1  0.939089  0.511469  0.744485  1
  Yb  Yb7  1  0.439089  0.988531  0.255515  1
  Yb  Yb8  1  0.560380  0.498502  0.260926  1
  Yb  Yb9  1  0.060380  0.001498  0.739074  1
  Yb  Yb10  1  0.439620  0.501498  0.739074  1
  Yb  Yb11  1  0.939620  0.998502  0.260926  1
  Ge  Ge12  1  0.875623  0.469153  0.206767  1
  Ge  Ge13  1  0.375623  0.030847  0.793233  1
  Ge  Ge14  1  0.124377  0.530847  0.793233  1
  Ge  Ge15  1  0.624377  0.969153  0.206767  1
  Ge  Ge16  1  0.742427  0.085202  0.316924  1
  Ge  Ge17  1  0.242427  0.414798  0.683076  1
  Ge  Ge18  1  0.257573  0.914798  0.683076  1
  Ge  Ge19  1  0.757573  0.585202  0.316924  1
  P  P20  1  0.557768  0.253170  0.002496  1
  P  P21  1  0.057768  0.246830  0.997504  1
  P  P22  1  0.442232  0.746830  0.997504  1
  P  P23  1  0.942232  0.753170  0.002496  1
  P  P24  1  0.815443  0.276497  0.028868  1
  P  P25  1  0.315443  0.223503  0.971132  1
  P  P26  1  0.184557  0.723503  0.971132  1
  P  P27  1  0.684557  0.776497  0.028868  1
  P  P28  1  0.935100  0.254250  0.501523  1
  P  P29  1  0.435100  0.245750  0.498477  1
  P  P30  1  0.064900  0.745750  0.498477  1
  P  P31  1  0.564900  0.754250  0.501523  1
  P  P32  1  0.695358  0.274077  0.510737  1
  P  P33  1  0.195358  0.225923  0.489263  1
  P  P34  1  0.304642  0.725923  0.489263  1
  P  P35  1  0.804642  0.774077  0.510737  1
