# generated using pymatgen
data_CeEu3NpGe3O14
_symmetry_space_group_name_H-M   'P 1'
_cell_length_a   7.37932495
_cell_length_b   7.37932360
_cell_length_c   7.42489900
_cell_angle_alpha   60.20283347
_cell_angle_beta   60.20283947
_cell_angle_gamma   59.99999799
_symmetry_Int_Tables_number   1
_chemical_formula_structural   CeEu3NpGe3O14
_chemical_formula_sum   'Ce1 Eu3 Np1 Ge3 O14'
_cell_volume   286.76982183
_cell_formula_units_Z   1
loop_
 _symmetry_equiv_pos_site_id
 _symmetry_equiv_pos_as_xyz
  1  'x, y, z'
loop_
 _atom_site_type_symbol
 _atom_site_label
 _atom_site_symmetry_multiplicity
 _atom_site_fract_x
 _atom_site_fract_y
 _atom_site_fract_z
 _atom_site_occupancy
  Ce  Ce0  1  0.125000  0.125000  0.625000  1
  Eu  Eu1  1  0.125000  0.625000  0.125000  1
  Eu  Eu2  1  0.625000  0.125000  0.125000  1
  Eu  Eu3  1  0.125000  0.125000  0.125000  1
  Np  Np4  1  0.625000  0.625000  0.125000  1
  Ge  Ge5  1  0.125000  0.625000  0.625000  1
  Ge  Ge6  1  0.625000  0.625000  0.625000  1
  Ge  Ge7  1  0.625000  0.125000  0.625000  1
  O  O8  1  0.305991  0.707349  0.680670  1
  O  O9  1  0.542789  0.972951  0.941472  1
  O  O10  1  0.707349  0.305991  0.680670  1
  O  O11  1  0.707211  0.707211  0.308528  1
  O  O12  1  0.006893  0.006893  0.979320  1
  O  O13  1  0.305991  0.305991  0.680670  1
  O  O14  1  0.277049  0.707211  0.308528  1
  O  O15  1  0.972951  0.542789  0.941472  1
  O  O16  1  0.243107  0.243107  0.270680  1
  O  O17  1  0.944009  0.944009  0.569330  1
  O  O18  1  0.542789  0.542789  0.941472  1
  O  O19  1  0.542651  0.944009  0.569330  1
  O  O20  1  0.707211  0.277049  0.308528  1
  O  O21  1  0.944009  0.542651  0.569330  1
