# generated using pymatgen
data_BaMnNiP2
_symmetry_space_group_name_H-M   'P 1'
_cell_length_a   6.91386616
_cell_length_b   6.91386628
_cell_length_c   6.91386695
_cell_angle_alpha   147.97083067
_cell_angle_beta   147.97082591
_cell_angle_gamma   45.92842862
_symmetry_Int_Tables_number   1
_chemical_formula_structural   BaMnNiP2
_chemical_formula_sum   'Ba1 Mn1 Ni1 P2'
_cell_volume   92.64265327
_cell_formula_units_Z   1
loop_
 _symmetry_equiv_pos_site_id
 _symmetry_equiv_pos_as_xyz
  1  'x, y, z'
loop_
 _atom_site_type_symbol
 _atom_site_label
 _atom_site_symmetry_multiplicity
 _atom_site_fract_x
 _atom_site_fract_y
 _atom_site_fract_z
 _atom_site_occupancy
  Ba  Ba0  1  0.000000  0.000000  0.000000  1
  Mn  Mn1  1  0.750000  0.250000  0.500000  1
  Ni  Ni2  1  0.250000  0.750000  0.500000  1
  P  P3  1  0.656611  0.656611  0.000000  1
  P  P4  1  0.343389  0.343389  0.000000  1
