# generated using pymatgen
data_Th2MnV2Ni9P7
_symmetry_space_group_name_H-M   'P 1'
_cell_length_a   9.21589647
_cell_length_b   9.20156325
_cell_length_c   3.77262300
_cell_angle_alpha   90.00000000
_cell_angle_beta   90.00000000
_cell_angle_gamma   119.89326512
_symmetry_Int_Tables_number   1
_chemical_formula_structural   Th2MnV2Ni9P7
_chemical_formula_sum   'Th2 Mn1 V2 Ni9 P7'
_cell_volume   277.35713066
_cell_formula_units_Z   1
loop_
 _symmetry_equiv_pos_site_id
 _symmetry_equiv_pos_as_xyz
  1  'x, y, z'
loop_
 _atom_site_type_symbol
 _atom_site_label
 _atom_site_symmetry_multiplicity
 _atom_site_fract_x
 _atom_site_fract_y
 _atom_site_fract_z
 _atom_site_occupancy
  Th  Th0  1  0.334060  0.667431  0.000000  1
  Th  Th1  1  0.001840  0.001190  0.500000  1
  Mn  Mn2  1  0.450071  0.220235  0.500000  1
  V  V3  1  0.776408  0.231232  0.500000  1
  V  V4  1  0.771186  0.549194  0.500000  1
  Ni  Ni5  1  0.030964  0.268660  0.000000  1
  Ni  Ni6  1  0.731120  0.764892  0.000000  1
  Ni  Ni7  1  0.233756  0.964934  0.000000  1
  Ni  Ni8  1  0.538511  0.055406  0.000000  1
  Ni  Ni9  1  0.945688  0.483755  0.000000  1
  Ni  Ni10  1  0.518087  0.461698  0.000000  1
  Ni  Ni11  1  0.612939  0.897379  0.500000  1
  Ni  Ni12  1  0.101541  0.713157  0.500000  1
  Ni  Ni13  1  0.287467  0.387690  0.500000  1
  P  P14  1  0.770270  0.034750  0.000000  1
  P  P15  1  0.965170  0.735143  0.000000  1
  P  P16  1  0.263247  0.231439  0.000000  1
  P  P17  1  0.373809  0.935926  0.500000  1
  P  P18  1  0.062622  0.435307  0.500000  1
  P  P19  1  0.563805  0.626345  0.500000  1
  P  P20  1  0.667441  0.334233  0.000000  1
