# generated using pymatgen
data_Er8Ti7Si16Mo2W3
_symmetry_space_group_name_H-M   'P 1'
_cell_length_a   6.94242267
_cell_length_b   6.93673252
_cell_length_c   12.78653745
_cell_angle_alpha   89.90198058
_cell_angle_beta   89.99371732
_cell_angle_gamma   89.91365370
_symmetry_Int_Tables_number   1
_chemical_formula_structural   Er8Ti7Si16Mo2W3
_chemical_formula_sum   'Er8 Ti7 Si16 Mo2 W3'
_cell_volume   615.76900263
_cell_formula_units_Z   1
loop_
 _symmetry_equiv_pos_site_id
 _symmetry_equiv_pos_as_xyz
  1  'x, y, z'
loop_
 _atom_site_type_symbol
 _atom_site_label
 _atom_site_symmetry_multiplicity
 _atom_site_fract_x
 _atom_site_fract_y
 _atom_site_fract_z
 _atom_site_occupancy
  Er  Er0  1  0.341500  0.999827  0.468066  1
  Er  Er1  1  0.499549  0.840446  0.719238  1
  Er  Er2  1  0.499585  0.159715  0.217493  1
  Er  Er3  1  0.840661  0.500176  0.282125  1
  Er  Er4  1  0.159184  0.498340  0.781876  1
  Er  Er5  1  0.658530  0.999540  0.968274  1
  Er  Er6  1  0.999928  0.340656  0.532443  1
  Er  Er7  1  0.999937  0.658956  0.030268  1
  Ti  Ti8  1  0.491057  0.654853  0.124666  1
  Ti  Ti9  1  0.506609  0.347087  0.627095  1
  Ti  Ti10  1  0.653763  0.489464  0.873748  1
  Ti  Ti11  1  0.346807  0.508576  0.374432  1
  Ti  Ti12  1  0.846641  0.992995  0.374656  1
  Ti  Ti13  1  0.006046  0.153598  0.126041  1
  Ti  Ti14  1  0.992064  0.847451  0.625161  1
  Si  Si15  1  0.201848  0.130120  0.683584  1
  Si  Si16  1  0.370505  0.702584  0.931827  1
  Si  Si17  1  0.630564  0.298511  0.433857  1
  Si  Si18  1  0.701332  0.369361  0.066921  1
  Si  Si19  1  0.299172  0.631320  0.567080  1
  Si  Si20  1  0.798380  0.868720  0.182869  1
  Si  Si21  1  0.131265  0.202642  0.317336  1
  Si  Si22  1  0.870283  0.798369  0.818136  1
  Si  Si23  1  0.293006  0.955857  0.064213  1
  Si  Si24  1  0.545600  0.793142  0.314723  1
  Si  Si25  1  0.451913  0.207085  0.815803  1
  Si  Si26  1  0.792321  0.547077  0.684211  1
  Si  Si27  1  0.207083  0.454881  0.184904  1
  Si  Si28  1  0.708366  0.046344  0.565220  1
  Si  Si29  1  0.956491  0.289290  0.934914  1
  Si  Si30  1  0.046206  0.707952  0.434616  1
  Mo  Mo31  1  0.673682  0.672534  0.499768  1
  Mo  Mo32  1  0.153703  0.004386  0.874877  1
  W  W33  1  0.327053  0.328324  0.000251  1
  W  W34  1  0.171631  0.828458  0.249117  1
  W  W35  1  0.827734  0.171364  0.750193  1
