# generated using pymatgen
data_La2DyPa3(Ni3Bi4)2
_symmetry_space_group_name_H-M   'P 1'
_cell_length_a   8.40902398
_cell_length_b   8.42215007
_cell_length_c   8.40902407
_cell_angle_alpha   109.89471086
_cell_angle_beta   109.16692050
_cell_angle_gamma   109.28935448
_symmetry_Int_Tables_number   1
_chemical_formula_structural   La2DyPa3(Ni3Bi4)2
_chemical_formula_sum   'La2 Dy1 Pa3 Ni6 Bi8'
_cell_volume   458.78863479
_cell_formula_units_Z   1
loop_
 _symmetry_equiv_pos_site_id
 _symmetry_equiv_pos_as_xyz
  1  'x, y, z'
loop_
 _atom_site_type_symbol
 _atom_site_label
 _atom_site_symmetry_multiplicity
 _atom_site_fract_x
 _atom_site_fract_y
 _atom_site_fract_z
 _atom_site_occupancy
  La  La0  1  0.251304  0.126365  0.876335  1
  La  La1  1  0.749970  0.373635  0.624938  1
  Dy  Dy2  1  0.627540  0.750000  0.377540  1
  Pa  Pa3  1  0.126564  0.879129  0.249539  1
  Pa  Pa4  1  0.370410  0.620871  0.747435  1
  Pa  Pa5  1  0.871025  0.250000  0.121025  1
  Ni  Ni6  1  0.641684  0.364041  0.240266  1
  Ni  Ni7  1  0.876225  0.135959  0.777641  1
  Ni  Ni8  1  0.366899  0.250000  0.616899  1
  Ni  Ni9  1  0.131095  0.750000  0.881095  1
  Ni  Ni10  1  0.235997  0.616030  0.371450  1
  Ni  Ni11  1  0.755419  0.883970  0.119967  1
  Bi  Bi12  1  0.336773  0.338739  0.334102  1
  Bi  Bi13  1  0.169908  0.504941  0.004771  1
  Bi  Bi14  1  0.995363  0.161261  0.498033  1
  Bi  Bi15  1  0.832011  0.832083  0.832098  1
  Bi  Bi16  1  0.499831  0.995059  0.164968  1
  Bi  Bi17  1  0.665609  0.506259  0.002620  1
  Bi  Bi18  1  0.496361  0.993741  0.659349  1
  Bi  Bi19  1  0.000015  0.667917  0.499928  1
