# generated using pymatgen
data_Tm12TlCo2Ru3
_symmetry_space_group_name_H-M   'P 1'
_cell_length_a   8.24514643
_cell_length_b   8.24514561
_cell_length_c   8.24514500
_cell_angle_alpha   109.80033622
_cell_angle_beta   113.09163733
_cell_angle_gamma   105.60796458
_symmetry_Int_Tables_number   1
_chemical_formula_structural   Tm12TlCo2Ru3
_chemical_formula_sum   'Tm12 Tl1 Co2 Ru3'
_cell_volume   429.65221513
_cell_formula_units_Z   1
loop_
 _symmetry_equiv_pos_site_id
 _symmetry_equiv_pos_as_xyz
  1  'x, y, z'
loop_
 _atom_site_type_symbol
 _atom_site_label
 _atom_site_symmetry_multiplicity
 _atom_site_fract_x
 _atom_site_fract_y
 _atom_site_fract_z
 _atom_site_occupancy
  Tm  Tm0  1  0.276240  0.177972  0.454214  1
  Tm  Tm1  1  0.723760  0.822028  0.545786  1
  Tm  Tm2  1  0.276241  0.822028  0.098267  1
  Tm  Tm3  1  0.723759  0.177972  0.901733  1
  Tm  Tm4  1  0.636380  0.320388  0.315994  1
  Tm  Tm5  1  0.363620  0.679612  0.684006  1
  Tm  Tm6  1  0.004394  0.320388  0.684008  1
  Tm  Tm7  1  0.995606  0.679612  0.315992  1
  Tm  Tm8  1  0.230602  0.417948  0.187347  1
  Tm  Tm9  1  0.769398  0.582052  0.812653  1
  Tm  Tm10  1  0.230601  0.043254  0.812653  1
  Tm  Tm11  1  0.769399  0.956746  0.187347  1
  Tl  Tl12  1  0.500000  0.500000  0.000000  1
  Co  Co13  1  0.389307  0.889307  0.500000  1
  Co  Co14  1  0.610693  0.110693  0.500000  1
  Ru  Ru15  1  0.000011  0.338538  0.338527  1
  Ru  Ru16  1  0.999989  0.661462  0.661473  1
  Ru  Ru17  1  0.000000  0.000000  0.000000  1
