# generated using pymatgen
data_Dy8TiSi16W11
_symmetry_space_group_name_H-M   'P 1'
_cell_length_a   6.88187690
_cell_length_b   6.88187690
_cell_length_c   12.81574471
_cell_angle_alpha   90.02732496
_cell_angle_beta   89.97267504
_cell_angle_gamma   90.18225085
_symmetry_Int_Tables_number   1
_chemical_formula_structural   Dy8TiSi16W11
_chemical_formula_sum   'Dy8 Ti1 Si16 W11'
_cell_volume   606.95340526
_cell_formula_units_Z   1
loop_
 _symmetry_equiv_pos_site_id
 _symmetry_equiv_pos_as_xyz
  1  'x, y, z'
loop_
 _atom_site_type_symbol
 _atom_site_label
 _atom_site_symmetry_multiplicity
 _atom_site_fract_x
 _atom_site_fract_y
 _atom_site_fract_z
 _atom_site_occupancy
  Dy  Dy0  1  0.999217  0.663651  0.031194  1
  Dy  Dy1  1  0.998966  0.337564  0.531023  1
  Dy  Dy2  1  0.663651  0.999217  0.968806  1
  Dy  Dy3  1  0.161113  0.500850  0.780446  1
  Dy  Dy4  1  0.837945  0.502016  0.281300  1
  Dy  Dy5  1  0.500850  0.161113  0.219554  1
  Dy  Dy6  1  0.502016  0.837945  0.718700  1
  Dy  Dy7  1  0.337564  0.998966  0.468977  1
  Ti  Ti8  1  0.331498  0.331498  0.000000  1
  Si  Si9  1  0.035586  0.712735  0.436693  1
  Si  Si10  1  0.960125  0.290883  0.934252  1
  Si  Si11  1  0.712735  0.035586  0.563307  1
  Si  Si12  1  0.210830  0.464678  0.187222  1
  Si  Si13  1  0.788091  0.536385  0.686793  1
  Si  Si14  1  0.464678  0.210830  0.812778  1
  Si  Si15  1  0.536385  0.788091  0.313207  1
  Si  Si16  1  0.290883  0.960125  0.065748  1
  Si  Si17  1  0.800950  0.874013  0.183876  1
  Si  Si18  1  0.299857  0.625916  0.565979  1
  Si  Si19  1  0.702352  0.371238  0.065763  1
  Si  Si20  1  0.625916  0.299857  0.434021  1
  Si  Si21  1  0.371238  0.702352  0.934237  1
  Si  Si22  1  0.126360  0.201223  0.315409  1
  Si  Si23  1  0.201223  0.126360  0.684591  1
  Si  Si24  1  0.874013  0.800950  0.816124  1
  W  W25  1  0.334117  0.500401  0.376321  1
  W  W26  1  0.834646  0.002012  0.373225  1
  W  W27  1  0.002997  0.165864  0.124014  1
  W  W28  1  0.002012  0.834646  0.626775  1
  W  W29  1  0.500401  0.334117  0.623679  1
  W  W30  1  0.165864  0.002997  0.875986  1
  W  W31  1  0.668098  0.668098  0.500000  1
  W  W32  1  0.832940  0.165620  0.747857  1
  W  W33  1  0.165620  0.832940  0.252143  1
  W  W34  1  0.500131  0.659129  0.123111  1
  W  W35  1  0.659129  0.500131  0.876889  1
