# generated using pymatgen
data_Tm12Fe4SnPd
_symmetry_space_group_name_H-M   'P 1'
_cell_length_a   8.20575592
_cell_length_b   8.20575493
_cell_length_c   8.20575500
_cell_angle_alpha   110.87684241
_cell_angle_beta   111.10843536
_cell_angle_gamma   106.46953151
_symmetry_Int_Tables_number   1
_chemical_formula_structural   Tm12Fe4SnPd
_chemical_formula_sum   'Tm12 Fe4 Sn1 Pd1'
_cell_volume   424.46606876
_cell_formula_units_Z   1
loop_
 _symmetry_equiv_pos_site_id
 _symmetry_equiv_pos_as_xyz
  1  'x, y, z'
loop_
 _atom_site_type_symbol
 _atom_site_label
 _atom_site_symmetry_multiplicity
 _atom_site_fract_x
 _atom_site_fract_y
 _atom_site_fract_z
 _atom_site_occupancy
  Tm  Tm0  1  0.420583  0.218720  0.201863  1
  Tm  Tm1  1  0.579417  0.781280  0.798137  1
  Tm  Tm2  1  0.016856  0.218720  0.798137  1
  Tm  Tm3  1  0.983144  0.781280  0.201863  1
  Tm  Tm4  1  0.187378  0.287828  0.475205  1
  Tm  Tm5  1  0.812622  0.712172  0.524795  1
  Tm  Tm6  1  0.187378  0.712172  0.899550  1
  Tm  Tm7  1  0.812622  0.287828  0.100450  1
  Tm  Tm8  1  0.311871  0.613259  0.301385  1
  Tm  Tm9  1  0.688129  0.386741  0.698615  1
  Tm  Tm10  1  0.311871  0.010487  0.698615  1
  Tm  Tm11  1  0.688129  0.989513  0.301385  1
  Fe  Fe12  1  0.383421  0.000000  0.383421  1
  Fe  Fe13  1  0.616579  0.000000  0.616579  1
  Fe  Fe14  1  0.108567  0.608567  0.500000  1
  Fe  Fe15  1  0.891433  0.391433  0.500000  1
  Sn  Sn16  1  0.500000  0.500000  0.000000  1
  Pd  Pd17  1  0.000000  0.000000  0.000000  1
