# generated using pymatgen
data_Hf6Zr4Sn6Ge
_symmetry_space_group_name_H-M   'P 1'
_cell_length_a   5.86636226
_cell_length_b   8.57181817
_cell_length_c   8.57122541
_cell_angle_alpha   119.99743026
_cell_angle_beta   89.88155422
_cell_angle_gamma   90.05885106
_symmetry_Int_Tables_number   1
_chemical_formula_structural   Hf6Zr4Sn6Ge
_chemical_formula_sum   'Hf6 Zr4 Sn6 Ge1'
_cell_volume   373.27224025
_cell_formula_units_Z   1
loop_
 _symmetry_equiv_pos_site_id
 _symmetry_equiv_pos_as_xyz
  1  'x, y, z'
loop_
 _atom_site_type_symbol
 _atom_site_label
 _atom_site_symmetry_multiplicity
 _atom_site_fract_x
 _atom_site_fract_y
 _atom_site_fract_z
 _atom_site_occupancy
  Hf  Hf0  1  0.499917  0.333450  0.666782  1
  Hf  Hf1  1  0.499916  0.666547  0.333332  1
  Hf  Hf2  1  0.999561  0.666485  0.333485  1
  Hf  Hf3  1  0.999560  0.333513  0.667026  1
  Hf  Hf4  1  0.760049  0.257773  0.000197  1
  Hf  Hf5  1  0.760023  0.742234  0.742423  1
  Zr  Zr6  1  0.760672  0.000006  0.257217  1
  Zr  Zr7  1  0.240050  0.742525  0.999429  1
  Zr  Zr8  1  0.240074  0.257473  0.256906  1
  Zr  Zr9  1  0.238835  0.999993  0.743256  1
  Sn  Sn10  1  0.746775  0.608106  0.999659  1
  Sn  Sn11  1  0.746816  0.391908  0.391563  1
  Sn  Sn12  1  0.746602  0.999993  0.609535  1
  Sn  Sn13  1  0.253140  0.391449  0.000036  1
  Sn  Sn14  1  0.253112  0.608544  0.608573  1
  Sn  Sn15  1  0.253226  0.999997  0.391257  1
  Ge  Ge16  1  0.501674  0.000001  0.999324  1
