# generated using pymatgen
data_LiZr2Pt3Rh2
_symmetry_space_group_name_H-M   'P 1'
_cell_length_a   5.71713400
_cell_length_b   5.65815805
_cell_length_c   9.23565800
_cell_angle_alpha   90.00000000
_cell_angle_beta   90.00000000
_cell_angle_gamma   120.34539891
_symmetry_Int_Tables_number   1
_chemical_formula_structural   LiZr2Pt3Rh2
_chemical_formula_sum   'Li2 Zr4 Pt6 Rh4'
_cell_volume   257.82784893
_cell_formula_units_Z   2
loop_
 _symmetry_equiv_pos_site_id
 _symmetry_equiv_pos_as_xyz
  1  'x, y, z'
loop_
 _atom_site_type_symbol
 _atom_site_label
 _atom_site_symmetry_multiplicity
 _atom_site_fract_x
 _atom_site_fract_y
 _atom_site_fract_z
 _atom_site_occupancy
  Li  Li0  1  0.806173  0.612345  0.250000  1
  Li  Li1  1  0.189850  0.379701  0.750000  1
  Zr  Zr2  1  0.000008  0.000015  0.493121  1
  Zr  Zr3  1  0.000008  0.000015  0.006879  1
  Zr  Zr4  1  0.331643  0.663286  0.250000  1
  Zr  Zr5  1  0.670383  0.340764  0.750000  1
  Pt  Pt6  1  0.499251  0.498619  0.499351  1
  Pt  Pt7  1  0.999366  0.498619  0.499351  1
  Pt  Pt8  1  0.499251  0.498619  0.000649  1
  Pt  Pt9  1  0.999366  0.498619  0.000649  1
  Pt  Pt10  1  0.663250  0.839127  0.750000  1
  Pt  Pt11  1  0.175876  0.839127  0.750000  1
  Rh  Rh12  1  0.500778  0.001558  0.499605  1
  Rh  Rh13  1  0.500778  0.001558  0.000395  1
  Rh  Rh14  1  0.341152  0.164016  0.250000  1
  Rh  Rh15  1  0.822865  0.164016  0.250000  1
