# generated using pymatgen
data_Sr4Li2(ZnAs2)3
_symmetry_space_group_name_H-M   'P 1'
_cell_length_a   9.95000190
_cell_length_b   9.95000183
_cell_length_c   15.89743600
_cell_angle_alpha   90.00000000
_cell_angle_beta   90.00000000
_cell_angle_gamma   154.29490751
_symmetry_Int_Tables_number   1
_chemical_formula_structural   Sr4Li2(ZnAs2)3
_chemical_formula_sum   'Sr8 Li4 Zn6 As12'
_cell_volume   682.65622526
_cell_formula_units_Z   2
loop_
 _symmetry_equiv_pos_site_id
 _symmetry_equiv_pos_as_xyz
  1  'x, y, z'
loop_
 _atom_site_type_symbol
 _atom_site_label
 _atom_site_symmetry_multiplicity
 _atom_site_fract_x
 _atom_site_fract_y
 _atom_site_fract_z
 _atom_site_occupancy
  Sr  Sr0  1  0.981296  0.018704  0.378446  1
  Sr  Sr1  1  0.018704  0.981296  0.621554  1
  Sr  Sr2  1  0.981296  0.018704  0.121554  1
  Sr  Sr3  1  0.018704  0.981296  0.878446  1
  Sr  Sr4  1  0.824848  0.175152  0.930327  1
  Sr  Sr5  1  0.175152  0.824848  0.069673  1
  Sr  Sr6  1  0.824848  0.175152  0.569673  1
  Sr  Sr7  1  0.175152  0.824848  0.430327  1
  Li  Li8  1  0.849767  0.150233  0.250000  1
  Li  Li9  1  0.150233  0.849767  0.750000  1
  Li  Li10  1  0.564827  0.435173  0.250000  1
  Li  Li11  1  0.435173  0.564827  0.750000  1
  Zn  Zn12  1  0.351619  0.648381  0.379786  1
  Zn  Zn13  1  0.648381  0.351619  0.620214  1
  Zn  Zn14  1  0.351619  0.648381  0.120214  1
  Zn  Zn15  1  0.648381  0.351619  0.879786  1
  Zn  Zn16  1  0.704172  0.295828  0.250000  1
  Zn  Zn17  1  0.295828  0.704172  0.750000  1
  As  As18  1  0.780411  0.219589  0.383087  1
  As  As19  1  0.219589  0.780411  0.616913  1
  As  As20  1  0.780411  0.219589  0.116913  1
  As  As21  1  0.219589  0.780411  0.883087  1
  As  As22  1  0.564084  0.435916  0.483406  1
  As  As23  1  0.435916  0.564084  0.516594  1
  As  As24  1  0.564084  0.435916  0.016594  1
  As  As25  1  0.435916  0.564084  0.983406  1
  As  As26  1  0.429279  0.570721  0.250000  1
  As  As27  1  0.570721  0.429279  0.750000  1
  As  As28  1  0.121832  0.878168  0.250000  1
  As  As29  1  0.878168  0.121832  0.750000  1
