# generated using pymatgen
data_Ta3CrSi3Ru2
_symmetry_space_group_name_H-M   'P 1'
_cell_length_a   7.42774586
_cell_length_b   7.42774622
_cell_length_c   7.42774583
_cell_angle_alpha   127.61509226
_cell_angle_beta   123.25822170
_cell_angle_gamma   80.86465739
_symmetry_Int_Tables_number   1
_chemical_formula_structural   Ta3CrSi3Ru2
_chemical_formula_sum   'Ta6 Cr2 Si6 Ru4'
_cell_volume   261.69173926
_cell_formula_units_Z   2
loop_
 _symmetry_equiv_pos_site_id
 _symmetry_equiv_pos_as_xyz
  1  'x, y, z'
loop_
 _atom_site_type_symbol
 _atom_site_label
 _atom_site_symmetry_multiplicity
 _atom_site_fract_x
 _atom_site_fract_y
 _atom_site_fract_z
 _atom_site_occupancy
  Ta  Ta0  1  0.940491  0.901737  0.461247  1
  Ta  Ta1  1  0.059509  0.520756  0.961247  1
  Ta  Ta2  1  0.537403  0.509207  0.471803  1
  Ta  Ta3  1  0.462597  0.934399  0.971803  1
  Ta  Ta4  1  0.747598  0.074289  0.826691  1
  Ta  Ta5  1  0.252402  0.079093  0.326691  1
  Cr  Cr6  1  0.500000  0.752850  0.252850  1
  Cr  Cr7  1  0.000000  0.752850  0.752850  1
  Si  Si8  1  0.722691  0.463720  0.241029  1
  Si  Si9  1  0.277309  0.518338  0.741029  1
  Si  Si10  1  0.671942  0.174165  0.511547  1
  Si  Si11  1  0.328058  0.839604  0.502223  1
  Si  Si12  1  0.162618  0.174165  0.002223  1
  Si  Si13  1  0.837382  0.839604  0.011547  1
  Ru  Ru14  1  0.907336  0.255233  0.413614  1
  Ru  Ru15  1  0.092664  0.506278  0.347897  1
  Ru  Ru16  1  0.341619  0.255233  0.847897  1
  Ru  Ru17  1  0.658381  0.506278  0.913614  1
