# generated using pymatgen
data_Ho4Co17(Si4Mo)3
_symmetry_space_group_name_H-M   'P 1'
_cell_length_a   3.70343100
_cell_length_b   10.58307163
_cell_length_c   12.13062368
_cell_angle_alpha   90.18880959
_cell_angle_beta   90.00000000
_cell_angle_gamma   90.00000000
_symmetry_Int_Tables_number   1
_chemical_formula_structural   Ho4Co17(Si4Mo)3
_chemical_formula_sum   'Ho4 Co17 Si12 Mo3'
_cell_volume   475.44114706
_cell_formula_units_Z   1
loop_
 _symmetry_equiv_pos_site_id
 _symmetry_equiv_pos_as_xyz
  1  'x, y, z'
loop_
 _atom_site_type_symbol
 _atom_site_label
 _atom_site_symmetry_multiplicity
 _atom_site_fract_x
 _atom_site_fract_y
 _atom_site_fract_z
 _atom_site_occupancy
  Ho  Ho0  1  0.250000  0.579517  0.702848  1
  Ho  Ho1  1  0.250000  0.920612  0.202975  1
  Ho  Ho2  1  0.750000  0.418605  0.296626  1
  Ho  Ho3  1  0.750000  0.076906  0.794174  1
  Co  Co4  1  0.750000  0.202511  0.509383  1
  Co  Co5  1  0.250000  0.403748  0.489076  1
  Co  Co6  1  0.250000  0.094904  0.990596  1
  Co  Co7  1  0.750000  0.592781  0.511353  1
  Co  Co8  1  0.750000  0.906770  0.013792  1
  Co  Co9  1  0.250000  0.216679  0.177720  1
  Co  Co10  1  0.250000  0.283645  0.669065  1
  Co  Co11  1  0.750000  0.785247  0.828409  1
  Co  Co12  1  0.750000  0.715718  0.327880  1
  Co  Co13  1  0.250000  0.886066  0.699211  1
  Co  Co14  1  0.250000  0.617714  0.199015  1
  Co  Co15  1  0.750000  0.118185  0.303072  1
  Co  Co16  1  0.750000  0.379802  0.797768  1
  Co  Co17  1  0.250000  0.463776  0.932302  1
  Co  Co18  1  0.250000  0.034700  0.432480  1
  Co  Co19  1  0.750000  0.533679  0.065108  1
  Co  Co20  1  0.750000  0.969700  0.565207  1
  Si  Si21  1  0.250000  0.420845  0.116321  1
  Si  Si22  1  0.250000  0.084156  0.610120  1
  Si  Si23  1  0.750000  0.577919  0.881852  1
  Si  Si24  1  0.750000  0.921188  0.384018  1
  Si  Si25  1  0.250000  0.266186  0.859519  1
  Si  Si26  1  0.250000  0.230601  0.369863  1
  Si  Si27  1  0.750000  0.730948  0.139348  1
  Si  Si28  1  0.750000  0.772887  0.640512  1
  Si  Si29  1  0.250000  0.595772  0.391263  1
  Si  Si30  1  0.250000  0.903967  0.893426  1
  Si  Si31  1  0.750000  0.396081  0.603377  1
  Si  Si32  1  0.750000  0.099348  0.110898  1
  Mo  Mo33  1  0.250000  0.697401  0.991943  1
  Mo  Mo34  1  0.250000  0.800289  0.492946  1
  Mo  Mo35  1  0.750000  0.301150  0.006535  1
