# generated using pymatgen
data_Nd4Ga2SiSn
_symmetry_space_group_name_H-M   'P 1'
_cell_length_a   4.18602800
_cell_length_b   4.58843700
_cell_length_c   11.51372700
_cell_angle_alpha   90.00000000
_cell_angle_beta   90.00000000
_cell_angle_gamma   90.00000000
_symmetry_Int_Tables_number   1
_chemical_formula_structural   Nd4Ga2SiSn
_chemical_formula_sum   'Nd4 Ga2 Si1 Sn1'
_cell_volume   221.14790518
_cell_formula_units_Z   1
loop_
 _symmetry_equiv_pos_site_id
 _symmetry_equiv_pos_as_xyz
  1  'x, y, z'
loop_
 _atom_site_type_symbol
 _atom_site_label
 _atom_site_symmetry_multiplicity
 _atom_site_fract_x
 _atom_site_fract_y
 _atom_site_fract_z
 _atom_site_occupancy
  Nd  Nd0  1  0.000000  0.000000  0.130305  1
  Nd  Nd1  1  0.000000  0.500000  0.645726  1
  Nd  Nd2  1  0.500000  0.500000  0.354473  1
  Nd  Nd3  1  0.500000  0.000000  0.862151  1
  Ga  Ga4  1  0.500000  0.500000  0.069721  1
  Ga  Ga5  1  0.500000  0.000000  0.584720  1
  Si  Si6  1  0.000000  0.500000  0.928526  1
  Sn  Sn7  1  0.000000  0.000000  0.424382  1
