# generated using pymatgen
data_Nd6Al24Ru7Au
_symmetry_space_group_name_H-M   'P 1'
_cell_length_a   8.93026164
_cell_length_b   8.93026243
_cell_length_c   9.64033621
_cell_angle_alpha   89.91928616
_cell_angle_beta   90.08071338
_cell_angle_gamma   119.93510624
_symmetry_Int_Tables_number   1
_chemical_formula_structural   Nd6Al24Ru7Au
_chemical_formula_sum   'Nd6 Al24 Ru7 Au1'
_cell_volume   666.24545704
_cell_formula_units_Z   1
loop_
 _symmetry_equiv_pos_site_id
 _symmetry_equiv_pos_as_xyz
  1  'x, y, z'
loop_
 _atom_site_type_symbol
 _atom_site_label
 _atom_site_symmetry_multiplicity
 _atom_site_fract_x
 _atom_site_fract_y
 _atom_site_fract_z
 _atom_site_occupancy
  Nd  Nd0  1  0.191555  0.383635  0.249186  1
  Nd  Nd1  1  0.808445  0.616365  0.750814  1
  Nd  Nd2  1  0.616365  0.808445  0.249186  1
  Nd  Nd3  1  0.383635  0.191555  0.750814  1
  Nd  Nd4  1  0.192573  0.807427  0.252566  1
  Nd  Nd5  1  0.807427  0.192573  0.747434  1
  Al  Al6  1  0.327938  0.672062  0.014178  1
  Al  Al7  1  0.672062  0.327938  0.985822  1
  Al  Al8  1  0.666888  0.333112  0.510677  1
  Al  Al9  1  0.333112  0.666888  0.489323  1
  Al  Al10  1  0.161570  0.324903  0.576306  1
  Al  Al11  1  0.838430  0.675097  0.423694  1
  Al  Al12  1  0.675097  0.838430  0.576306  1
  Al  Al13  1  0.849189  0.678151  0.078540  1
  Al  Al14  1  0.324903  0.161570  0.423694  1
  Al  Al15  1  0.150811  0.321849  0.921460  1
  Al  Al16  1  0.162662  0.837338  0.576927  1
  Al  Al17  1  0.321849  0.150811  0.078540  1
  Al  Al18  1  0.837338  0.162662  0.423073  1
  Al  Al19  1  0.678151  0.849189  0.921460  1
  Al  Al20  1  0.837237  0.162763  0.076552  1
  Al  Al21  1  0.162763  0.837237  0.923448  1
  Al  Al22  1  0.561888  0.123633  0.248582  1
  Al  Al23  1  0.438112  0.876367  0.751418  1
  Al  Al24  1  0.876367  0.438112  0.248582  1
  Al  Al25  1  0.123633  0.561888  0.751418  1
  Al  Al26  1  0.564619  0.435381  0.256681  1
  Al  Al27  1  0.435381  0.564619  0.743319  1
  Al  Al28  1  0.999290  0.000710  0.250218  1
  Al  Al29  1  0.000710  0.999290  0.749782  1
  Ru  Ru30  1  0.500000  0.000000  0.000000  1
  Ru  Ru31  1  0.000000  0.500000  0.000000  1
  Ru  Ru32  1  0.500000  0.000000  0.500000  1
  Ru  Ru33  1  0.000000  0.500000  0.500000  1
  Ru  Ru34  1  0.500000  0.500000  0.500000  1
  Ru  Ru35  1  0.000000  0.000000  0.000000  1
  Ru  Ru36  1  0.000000  0.000000  0.500000  1
  Au  Au37  1  0.500000  0.500000  0.000000  1
