# generated using pymatgen
data_Lu10Tl5GaS2
_symmetry_space_group_name_H-M   'P 1'
_cell_length_a   8.86033300
_cell_length_b   8.86033339
_cell_length_c   6.57189700
_cell_angle_alpha   90.00000000
_cell_angle_beta   90.00000000
_cell_angle_gamma   120.09405551
_symmetry_Int_Tables_number   1
_chemical_formula_structural   Lu10Tl5GaS2
_chemical_formula_sum   'Lu10 Tl5 Ga1 S2'
_cell_volume   446.38449141
_cell_formula_units_Z   1
loop_
 _symmetry_equiv_pos_site_id
 _symmetry_equiv_pos_as_xyz
  1  'x, y, z'
loop_
 _atom_site_type_symbol
 _atom_site_label
 _atom_site_symmetry_multiplicity
 _atom_site_fract_x
 _atom_site_fract_y
 _atom_site_fract_z
 _atom_site_occupancy
  Lu  Lu0  1  0.750431  0.750431  0.750000  1
  Lu  Lu1  1  0.248982  0.013839  0.750000  1
  Lu  Lu2  1  0.013839  0.248982  0.750000  1
  Lu  Lu3  1  0.243135  0.243135  0.250000  1
  Lu  Lu4  1  0.756580  0.999865  0.250000  1
  Lu  Lu5  1  0.999865  0.756580  0.250000  1
  Lu  Lu6  1  0.657982  0.335493  0.997308  1
  Lu  Lu7  1  0.335493  0.657982  0.997308  1
  Lu  Lu8  1  0.335493  0.657982  0.502692  1
  Lu  Lu9  1  0.657982  0.335493  0.502692  1
  Tl  Tl10  1  0.602650  0.002876  0.750000  1
  Tl  Tl11  1  0.002876  0.602650  0.750000  1
  Tl  Tl12  1  0.601789  0.601789  0.250000  1
  Tl  Tl13  1  0.400080  0.996724  0.250000  1
  Tl  Tl14  1  0.996724  0.400080  0.250000  1
  Ga  Ga15  1  0.399489  0.399489  0.750000  1
  S  S16  1  0.998306  0.998306  0.999593  1
  S  S17  1  0.998306  0.998306  0.500407  1
