# generated using pymatgen
data_HoTm2Lu5Zn2(Si6Rh)2
_symmetry_space_group_name_H-M   'P 1'
_cell_length_a   8.11183428
_cell_length_b   8.10632737
_cell_length_c   7.77984422
_cell_angle_alpha   89.99999903
_cell_angle_beta   90.07064546
_cell_angle_gamma   119.97755892
_symmetry_Int_Tables_number   1
_chemical_formula_structural   HoTm2Lu5Zn2(Si6Rh)2
_chemical_formula_sum   'Ho1 Tm2 Lu5 Zn2 Si12 Rh2'
_cell_volume   443.14154140
_cell_formula_units_Z   1
loop_
 _symmetry_equiv_pos_site_id
 _symmetry_equiv_pos_as_xyz
  1  'x, y, z'
loop_
 _atom_site_type_symbol
 _atom_site_label
 _atom_site_symmetry_multiplicity
 _atom_site_fract_x
 _atom_site_fract_y
 _atom_site_fract_z
 _atom_site_occupancy
  Ho  Ho0  1  0.022751  0.511376  0.754973  1
  Tm  Tm1  1  0.999666  0.999832  0.251367  1
  Tm  Tm2  1  0.000075  0.000038  0.749392  1
  Lu  Lu3  1  0.513168  0.487395  0.242814  1
  Lu  Lu4  1  0.513168  0.025774  0.242814  1
  Lu  Lu5  1  0.974269  0.487135  0.243151  1
  Lu  Lu6  1  0.488768  0.511697  0.758023  1
  Lu  Lu7  1  0.488768  0.977071  0.758023  1
  Zn  Zn8  1  0.333945  0.666973  0.427918  1
  Zn  Zn9  1  0.665059  0.332529  0.559661  1
  Si  Si10  1  0.168501  0.833174  0.509708  1
  Si  Si11  1  0.168501  0.335326  0.509708  1
  Si  Si12  1  0.664331  0.832166  0.511763  1
  Si  Si13  1  0.832972  0.166929  0.489685  1
  Si  Si14  1  0.832972  0.666044  0.489685  1
  Si  Si15  1  0.333948  0.166975  0.488820  1
  Si  Si16  1  0.833754  0.166137  0.988342  1
  Si  Si17  1  0.833754  0.667617  0.988342  1
  Si  Si18  1  0.331685  0.165842  0.988387  1
  Si  Si19  1  0.166609  0.833514  0.013448  1
  Si  Si20  1  0.166609  0.333095  0.013448  1
  Si  Si21  1  0.667269  0.833634  0.013257  1
  Rh  Rh22  1  0.665208  0.332603  0.973967  1
  Rh  Rh23  1  0.334246  0.667124  0.033308  1
