# generated using pymatgen
data_AlZn2(Ni10B3)2
_symmetry_space_group_name_H-M   'P 1'
_cell_length_a   7.41797629
_cell_length_b   7.41797619
_cell_length_c   7.41797600
_cell_angle_alpha   60.00000085
_cell_angle_beta   60.00000131
_cell_angle_gamma   59.99999527
_symmetry_Int_Tables_number   1
_chemical_formula_structural   AlZn2(Ni10B3)2
_chemical_formula_sum   'Al1 Zn2 Ni20 B6'
_cell_volume   288.62988332
_cell_formula_units_Z   1
loop_
 _symmetry_equiv_pos_site_id
 _symmetry_equiv_pos_as_xyz
  1  'x, y, z'
loop_
 _atom_site_type_symbol
 _atom_site_label
 _atom_site_symmetry_multiplicity
 _atom_site_fract_x
 _atom_site_fract_y
 _atom_site_fract_z
 _atom_site_occupancy
  Al  Al0  1  0.000000  0.000000  0.000000  1
  Zn  Zn1  1  0.750000  0.750000  0.750000  1
  Zn  Zn2  1  0.250000  0.250000  0.250000  1
  Ni  Ni3  1  0.000000  0.337141  0.662859  1
  Ni  Ni4  1  0.000000  0.000000  0.662859  1
  Ni  Ni5  1  0.662859  0.337141  0.000000  1
  Ni  Ni6  1  0.000000  0.337141  0.000000  1
  Ni  Ni7  1  0.337141  0.000000  0.662859  1
  Ni  Ni8  1  0.337141  0.000000  0.000000  1
  Ni  Ni9  1  0.662859  0.000000  0.000000  1
  Ni  Ni10  1  0.337141  0.662859  0.000000  1
  Ni  Ni11  1  0.662859  0.000000  0.337141  1
  Ni  Ni12  1  0.000000  0.000000  0.337141  1
  Ni  Ni13  1  0.000000  0.662859  0.000000  1
  Ni  Ni14  1  0.000000  0.662859  0.337141  1
  Ni  Ni15  1  0.616690  0.149930  0.616690  1
  Ni  Ni16  1  0.383310  0.383310  0.850070  1
  Ni  Ni17  1  0.850070  0.383310  0.383310  1
  Ni  Ni18  1  0.383310  0.383310  0.383310  1
  Ni  Ni19  1  0.149930  0.616690  0.616690  1
  Ni  Ni20  1  0.616690  0.616690  0.616690  1
  Ni  Ni21  1  0.616690  0.616690  0.149930  1
  Ni  Ni22  1  0.383310  0.850070  0.383310  1
  B  B23  1  0.725471  0.274529  0.725471  1
  B  B24  1  0.725471  0.274529  0.274529  1
  B  B25  1  0.274529  0.725471  0.725471  1
  B  B26  1  0.274529  0.274529  0.725471  1
  B  B27  1  0.725471  0.725471  0.274529  1
  B  B28  1  0.274529  0.725471  0.274529  1
