# generated using pymatgen
data_Tb5Dy(RuBr3)2
_symmetry_space_group_name_H-M   'P 1'
_cell_length_a   4.10943700
_cell_length_b   8.59526615
_cell_length_c   11.93578629
_cell_angle_alpha   87.10271091
_cell_angle_beta   90.00000000
_cell_angle_gamma   90.00000000
_symmetry_Int_Tables_number   1
_chemical_formula_structural   Tb5Dy(RuBr3)2
_chemical_formula_sum   'Tb5 Dy1 Ru2 Br6'
_cell_volume   421.05341882
_cell_formula_units_Z   1
loop_
 _symmetry_equiv_pos_site_id
 _symmetry_equiv_pos_as_xyz
  1  'x, y, z'
loop_
 _atom_site_type_symbol
 _atom_site_label
 _atom_site_symmetry_multiplicity
 _atom_site_fract_x
 _atom_site_fract_y
 _atom_site_fract_z
 _atom_site_occupancy
  Tb  Tb0  1  0.250000  0.279553  0.395046  1
  Tb  Tb1  1  0.750000  0.719412  0.605085  1
  Tb  Tb2  1  0.250000  0.866173  0.365412  1
  Tb  Tb3  1  0.750000  0.133020  0.633579  1
  Tb  Tb4  1  0.250000  0.887753  0.827077  1
  Dy  Dy5  1  0.750000  0.113964  0.173532  1
  Ru  Ru6  1  0.250000  0.936065  0.596735  1
  Ru  Ru7  1  0.750000  0.062873  0.402395  1
  Br  Br8  1  0.250000  0.424810  0.630956  1
  Br  Br9  1  0.750000  0.572238  0.370629  1
  Br  Br10  1  0.250000  0.883152  0.104216  1
  Br  Br11  1  0.750000  0.120687  0.895179  1
  Br  Br12  1  0.250000  0.350758  0.139344  1
  Br  Br13  1  0.750000  0.649541  0.860814  1
