# generated using pymatgen
data_TaF18
_symmetry_space_group_name_H-M   'P 1'
_cell_length_a   12.40872800
_cell_length_b   6.20120071
_cell_length_c   9.55681801
_cell_angle_alpha   80.38867181
_cell_angle_beta   90.00000000
_cell_angle_gamma   90.00000000
_symmetry_Int_Tables_number   1
_chemical_formula_structural   TaF18
_chemical_formula_sum   'Ta2 F36'
_cell_volume   725.06510798
_cell_formula_units_Z   2
loop_
 _symmetry_equiv_pos_site_id
 _symmetry_equiv_pos_as_xyz
  1  'x, y, z'
loop_
 _atom_site_type_symbol
 _atom_site_label
 _atom_site_symmetry_multiplicity
 _atom_site_fract_x
 _atom_site_fract_y
 _atom_site_fract_z
 _atom_site_occupancy
  Ta  Ta0  1  0.500000  0.500000  0.500000  1
  Ta  Ta1  1  0.000000  0.500000  0.000000  1
  F  F2  1  0.358305  0.802356  0.894839  1
  F  F3  1  0.641695  0.197644  0.105161  1
  F  F4  1  0.858305  0.197644  0.605161  1
  F  F5  1  0.141695  0.802356  0.394839  1
  F  F6  1  0.711686  0.697620  0.916523  1
  F  F7  1  0.288314  0.302380  0.083477  1
  F  F8  1  0.211686  0.302380  0.583477  1
  F  F9  1  0.788314  0.697620  0.416523  1
  F  F10  1  0.421140  0.844666  0.768943  1
  F  F11  1  0.578860  0.155334  0.231057  1
  F  F12  1  0.921140  0.155334  0.731057  1
  F  F13  1  0.078860  0.844666  0.268943  1
  F  F14  1  0.435533  0.782372  0.508269  1
  F  F15  1  0.564467  0.217628  0.491731  1
  F  F16  1  0.935533  0.217628  0.991731  1
  F  F17  1  0.064467  0.782372  0.008269  1
  F  F18  1  0.414110  0.373395  0.660621  1
  F  F19  1  0.585890  0.626605  0.339379  1
  F  F20  1  0.914110  0.626605  0.839379  1
  F  F21  1  0.085890  0.373395  0.160621  1
  F  F22  1  0.097241  0.845230  0.654736  1
  F  F23  1  0.902759  0.154770  0.345264  1
  F  F24  1  0.597241  0.154770  0.845264  1
  F  F25  1  0.402759  0.845230  0.154736  1
  F  F26  1  0.357237  0.276755  0.968773  1
  F  F27  1  0.642763  0.723245  0.031227  1
  F  F28  1  0.857237  0.723245  0.531227  1
  F  F29  1  0.142763  0.276755  0.468773  1
  F  F30  1  0.110969  0.437311  0.872641  1
  F  F31  1  0.889031  0.562689  0.127359  1
  F  F32  1  0.610969  0.562689  0.627359  1
  F  F33  1  0.389031  0.437311  0.372641  1
  F  F34  1  0.132711  0.955679  0.764500  1
  F  F35  1  0.867289  0.044321  0.235500  1
  F  F36  1  0.632711  0.044321  0.735500  1
  F  F37  1  0.367289  0.955679  0.264500  1
