# generated using pymatgen
data_CaNd(Sn2Ir)4
_symmetry_space_group_name_H-M   'P 1'
_cell_length_a   4.50742000
_cell_length_b   7.26369284
_cell_length_c   18.60882414
_cell_angle_alpha   89.79343528
_cell_angle_beta   90.00000000
_cell_angle_gamma   90.00000000
_symmetry_Int_Tables_number   1
_chemical_formula_structural   CaNd(Sn2Ir)4
_chemical_formula_sum   'Ca2 Nd2 Sn16 Ir8'
_cell_volume   609.25851471
_cell_formula_units_Z   2
loop_
 _symmetry_equiv_pos_site_id
 _symmetry_equiv_pos_as_xyz
  1  'x, y, z'
loop_
 _atom_site_type_symbol
 _atom_site_label
 _atom_site_symmetry_multiplicity
 _atom_site_fract_x
 _atom_site_fract_y
 _atom_site_fract_z
 _atom_site_occupancy
  Ca  Ca0  1  0.250000  0.004624  0.857910  1
  Ca  Ca1  1  0.750000  0.995376  0.142090  1
  Nd  Nd2  1  0.750000  0.502083  0.643676  1
  Nd  Nd3  1  0.250000  0.497917  0.356324  1
  Sn  Sn4  1  0.250000  0.272812  0.191990  1
  Sn  Sn5  1  0.750000  0.979406  0.567348  1
  Sn  Sn6  1  0.750000  0.299739  0.818462  1
  Sn  Sn7  1  0.250000  0.130761  0.033217  1
  Sn  Sn8  1  0.750000  0.197086  0.317004  1
  Sn  Sn9  1  0.250000  0.480327  0.931952  1
  Sn  Sn10  1  0.750000  0.869239  0.966783  1
  Sn  Sn11  1  0.250000  0.367217  0.532562  1
  Sn  Sn12  1  0.250000  0.700261  0.181538  1
  Sn  Sn13  1  0.750000  0.519673  0.068048  1
  Sn  Sn14  1  0.750000  0.727188  0.808010  1
  Sn  Sn15  1  0.250000  0.020594  0.432652  1
  Sn  Sn16  1  0.750000  0.778486  0.305609  1
  Sn  Sn17  1  0.750000  0.632783  0.467438  1
  Sn  Sn18  1  0.250000  0.221514  0.694391  1
  Sn  Sn19  1  0.250000  0.802914  0.682996  1
  Ir  Ir20  1  0.250000  0.516248  0.784330  1
  Ir  Ir21  1  0.250000  0.747041  0.036233  1
  Ir  Ir22  1  0.750000  0.248925  0.463903  1
  Ir  Ir23  1  0.250000  0.982719  0.286440  1
  Ir  Ir24  1  0.250000  0.751075  0.536097  1
  Ir  Ir25  1  0.750000  0.252959  0.963767  1
  Ir  Ir26  1  0.750000  0.017281  0.713560  1
  Ir  Ir27  1  0.750000  0.483752  0.215670  1
