# generated using pymatgen
data_Yb5As11PRu6Rh13
_symmetry_space_group_name_H-M   'P 1'
_cell_length_a   13.04785700
_cell_length_b   13.04325322
_cell_length_c   4.00435000
_cell_angle_alpha   90.00000000
_cell_angle_beta   90.00000000
_cell_angle_gamma   119.99152650
_symmetry_Int_Tables_number   1
_chemical_formula_structural   Yb5As11PRu6Rh13
_chemical_formula_sum   'Yb5 As11 P1 Ru6 Rh13'
_cell_volume   590.23485395
_cell_formula_units_Z   1
loop_
 _symmetry_equiv_pos_site_id
 _symmetry_equiv_pos_as_xyz
  1  'x, y, z'
loop_
 _atom_site_type_symbol
 _atom_site_label
 _atom_site_symmetry_multiplicity
 _atom_site_fract_x
 _atom_site_fract_y
 _atom_site_fract_z
 _atom_site_occupancy
  Yb  Yb0  1  0.669258  0.332471  0.000000  1
  Yb  Yb1  1  0.329368  0.663891  0.000000  1
  Yb  Yb2  1  0.822048  0.004523  0.500000  1
  Yb  Yb3  1  0.176259  0.182373  0.500000  1
  Yb  Yb4  1  0.999830  0.817125  0.500000  1
  As  As5  1  0.636965  0.998794  0.000000  1
  As  As6  1  0.362780  0.362702  0.000000  1
  As  As7  1  0.000640  0.632938  0.000000  1
  As  As8  1  0.685504  0.517469  0.500000  1
  As  As9  1  0.836080  0.313585  0.500000  1
  As  As10  1  0.319346  0.836377  0.500000  1
  As  As11  1  0.516095  0.685535  0.500000  1
  As  As12  1  0.177677  0.001728  0.000000  1
  As  As13  1  0.820639  0.821558  0.000000  1
  As  As14  1  0.482366  0.166164  0.500000  1
  As  As15  1  0.162039  0.479998  0.500000  1
  P  P16  1  0.995394  0.183262  0.000000  1
  Ru  Ru17  1  0.519081  0.875821  0.500000  1
  Ru  Ru18  1  0.714131  0.713918  0.500000  1
  Ru  Ru19  1  0.001552  0.279683  0.500000  1
  Ru  Ru20  1  0.005329  0.449097  0.000000  1
  Ru  Ru21  1  0.822041  0.195074  0.000000  1
  Ru  Ru22  1  0.284230  0.000632  0.500000  1
  Rh  Rh23  1  0.623071  0.802931  0.000000  1
  Rh  Rh24  1  0.178220  0.369535  0.000000  1
  Rh  Rh25  1  0.376248  0.181258  0.000000  1
  Rh  Rh26  1  0.193938  0.820106  0.000000  1
  Rh  Rh27  1  0.806377  0.624369  0.000000  1
  Rh  Rh28  1  0.874986  0.514712  0.500000  1
  Rh  Rh29  1  0.484124  0.357347  0.500000  1
  Rh  Rh30  1  0.643114  0.127601  0.500000  1
  Rh  Rh31  1  0.128271  0.644969  0.500000  1
  Rh  Rh32  1  0.354194  0.483302  0.500000  1
  Rh  Rh33  1  0.998585  0.009709  0.000000  1
  Rh  Rh34  1  0.450745  0.001623  0.000000  1
  Rh  Rh35  1  0.549472  0.547821  0.000000  1
