# generated using pymatgen
data_Zr4Sc3Co8Si14Mo
_symmetry_space_group_name_H-M   'P 1'
_cell_length_a   9.45406088
_cell_length_b   9.45446723
_cell_length_c   9.43955905
_cell_angle_alpha   94.10961761
_cell_angle_beta   94.10902126
_cell_angle_gamma   148.96894236
_symmetry_Int_Tables_number   1
_chemical_formula_structural   Zr4Sc3Co8Si14Mo
_chemical_formula_sum   'Zr4 Sc3 Co8 Si14 Mo1'
_cell_volume   419.05147114
_cell_formula_units_Z   1
loop_
 _symmetry_equiv_pos_site_id
 _symmetry_equiv_pos_as_xyz
  1  'x, y, z'
loop_
 _atom_site_type_symbol
 _atom_site_label
 _atom_site_symmetry_multiplicity
 _atom_site_fract_x
 _atom_site_fract_y
 _atom_site_fract_z
 _atom_site_occupancy
  Zr  Zr0  1  0.304545  0.500947  0.805492  1
  Zr  Zr1  1  0.695573  0.502411  0.197984  1
  Zr  Zr2  1  0.502413  0.695637  0.198006  1
  Zr  Zr3  1  0.500901  0.304492  0.805487  1
  Sc  Sc4  1  0.862576  0.862615  0.725302  1
  Sc  Sc5  1  0.138254  0.860432  0.998730  1
  Sc  Sc6  1  0.860468  0.138252  0.998736  1
  Co  Co7  1  0.103360  0.603372  0.206826  1
  Co  Co8  1  0.397906  0.897875  0.795617  1
  Co  Co9  1  0.898067  0.102563  0.497767  1
  Co  Co10  1  0.599561  0.395060  0.497763  1
  Co  Co11  1  0.603420  0.103413  0.206806  1
  Co  Co12  1  0.897753  0.397787  0.795590  1
  Co  Co13  1  0.102783  0.898344  0.497808  1
  Co  Co14  1  0.395217  0.599659  0.497777  1
  Si  Si15  1  0.285473  0.285455  0.570983  1
  Si  Si16  1  0.711039  0.711021  0.421944  1
  Si  Si17  1  0.290046  0.710787  0.000937  1
  Si  Si18  1  0.710838  0.290085  0.000896  1
  Si  Si19  1  0.092154  0.500647  0.592711  1
  Si  Si20  1  0.908847  0.500077  0.408798  1
  Si  Si21  1  0.499914  0.908711  0.408773  1
  Si  Si22  1  0.500541  0.092082  0.592704  1
  Si  Si23  1  0.250615  0.250622  0.007050  1
  Si  Si24  1  0.756418  0.756414  0.007067  1
  Si  Si25  1  0.297444  0.002160  0.299676  1
  Si  Si26  1  0.697452  0.999476  0.696836  1
  Si  Si27  1  0.999489  0.697465  0.696782  1
  Si  Si28  1  0.002239  0.297527  0.299650  1
  Mo  Mo29  1  0.134694  0.134609  0.269499  1
