# generated using pymatgen
data_Er7Lu(Si4Mo3)4
_symmetry_space_group_name_H-M   'P 1'
_cell_length_a   6.73433102
_cell_length_b   6.92867643
_cell_length_c   12.89236709
_cell_angle_alpha   89.97465739
_cell_angle_beta   89.99458607
_cell_angle_gamma   89.99368119
_symmetry_Int_Tables_number   1
_chemical_formula_structural   Er7Lu(Si4Mo3)4
_chemical_formula_sum   'Er7 Lu1 Si16 Mo12'
_cell_volume   601.55779037
_cell_formula_units_Z   1
loop_
 _symmetry_equiv_pos_site_id
 _symmetry_equiv_pos_as_xyz
  1  'x, y, z'
loop_
 _atom_site_type_symbol
 _atom_site_label
 _atom_site_symmetry_multiplicity
 _atom_site_fract_x
 _atom_site_fract_y
 _atom_site_fract_z
 _atom_site_occupancy
  Er  Er0  1  0.497099  0.332003  0.093774  1
  Er  Er1  1  0.997059  0.167786  0.406302  1
  Er  Er2  1  0.502968  0.667836  0.593664  1
  Er  Er3  1  0.002877  0.832224  0.906478  1
  Er  Er4  1  0.502912  0.667927  0.906381  1
  Er  Er5  1  0.002956  0.832175  0.593681  1
  Er  Er6  1  0.497030  0.332154  0.406148  1
  Lu  Lu7  1  0.996658  0.168274  0.093993  1
  Si  Si8  1  0.660043  0.040739  0.546993  1
  Si  Si9  1  0.159873  0.458824  0.953226  1
  Si  Si10  1  0.339034  0.959824  0.047166  1
  Si  Si11  1  0.839999  0.540839  0.452963  1
  Si  Si12  1  0.339998  0.959251  0.452879  1
  Si  Si13  1  0.840380  0.539959  0.047117  1
  Si  Si14  1  0.660320  0.040802  0.953205  1
  Si  Si15  1  0.159995  0.459194  0.546952  1
  Si  Si16  1  0.534392  0.367954  0.750084  1
  Si  Si17  1  0.034374  0.131901  0.750013  1
  Si  Si18  1  0.465705  0.632083  0.249965  1
  Si  Si19  1  0.965821  0.868590  0.249750  1
  Si  Si20  1  0.801886  0.631167  0.750065  1
  Si  Si21  1  0.301813  0.868805  0.750017  1
  Si  Si22  1  0.197663  0.368191  0.249582  1
  Si  Si23  1  0.698801  0.131272  0.249670  1
  Mo  Mo24  1  0.830077  0.334466  0.625033  1
  Mo  Mo25  1  0.330112  0.165492  0.875146  1
  Mo  Mo26  1  0.169837  0.665617  0.124971  1
  Mo  Mo27  1  0.669855  0.834514  0.374860  1
  Mo  Mo28  1  0.169815  0.665383  0.374913  1
  Mo  Mo29  1  0.670245  0.834688  0.124797  1
  Mo  Mo30  1  0.830416  0.334317  0.875307  1
  Mo  Mo31  1  0.330255  0.165686  0.625048  1
  Mo  Mo32  1  0.665962  0.997913  0.750074  1
  Mo  Mo33  1  0.165995  0.501979  0.750080  1
  Mo  Mo34  1  0.333667  0.002526  0.249831  1
  Mo  Mo35  1  0.834109  0.497647  0.249872  1
