# generated using pymatgen
data_HoTm5(ScAu5)2
_symmetry_space_group_name_H-M   'P 1'
_cell_length_a   7.83310050
_cell_length_b   7.82802879
_cell_length_c   7.83306264
_cell_angle_alpha   66.61677300
_cell_angle_beta   66.55979507
_cell_angle_gamma   66.51096157
_symmetry_Int_Tables_number   1
_chemical_formula_structural   HoTm5(ScAu5)2
_chemical_formula_sum   'Ho1 Tm5 Sc2 Au10'
_cell_volume   387.60325625
_cell_formula_units_Z   1
loop_
 _symmetry_equiv_pos_site_id
 _symmetry_equiv_pos_as_xyz
  1  'x, y, z'
loop_
 _atom_site_type_symbol
 _atom_site_label
 _atom_site_symmetry_multiplicity
 _atom_site_fract_x
 _atom_site_fract_y
 _atom_site_fract_z
 _atom_site_occupancy
  Ho  Ho0  1  0.808966  0.383439  0.107732  1
  Tm  Tm1  1  0.892452  0.191434  0.616688  1
  Tm  Tm2  1  0.616617  0.892307  0.190998  1
  Tm  Tm3  1  0.190952  0.615972  0.892289  1
  Tm  Tm4  1  0.107379  0.809373  0.384361  1
  Tm  Tm5  1  0.383368  0.108043  0.808848  1
  Sc  Sc6  1  0.660672  0.660560  0.660124  1
  Sc  Sc7  1  0.339688  0.339499  0.339417  1
  Au  Au8  1  0.001684  0.997357  0.999551  1
  Au  Au9  1  0.498655  0.501124  0.500500  1
  Au  Au10  1  0.810332  0.811566  0.810408  1
  Au  Au11  1  0.191370  0.187986  0.189832  1
  Au  Au12  1  0.937187  0.551909  0.316768  1
  Au  Au13  1  0.316558  0.936099  0.551902  1
  Au  Au14  1  0.551012  0.316435  0.935673  1
  Au  Au15  1  0.064044  0.448792  0.682341  1
  Au  Au16  1  0.682858  0.062620  0.449653  1
  Au  Au17  1  0.446206  0.685486  0.062913  1
