# generated using pymatgen
data_Yb2H6PtRh
_symmetry_space_group_name_H-M   'P 1'
_cell_length_a   5.18941369
_cell_length_b   5.18941424
_cell_length_c   5.18941500
_cell_angle_alpha   60.00000150
_cell_angle_beta   59.99999804
_cell_angle_gamma   59.99999847
_symmetry_Int_Tables_number   1
_chemical_formula_structural   Yb2H6PtRh
_chemical_formula_sum   'Yb2 H6 Pt1 Rh1'
_cell_volume   98.81890352
_cell_formula_units_Z   1
loop_
 _symmetry_equiv_pos_site_id
 _symmetry_equiv_pos_as_xyz
  1  'x, y, z'
loop_
 _atom_site_type_symbol
 _atom_site_label
 _atom_site_symmetry_multiplicity
 _atom_site_fract_x
 _atom_site_fract_y
 _atom_site_fract_z
 _atom_site_occupancy
  Yb  Yb0  1  0.249999  0.249999  0.249999  1
  Yb  Yb1  1  0.750000  0.750000  0.750000  1
  H  H2  1  0.743754  0.256246  0.256246  1
  H  H3  1  0.256246  0.743754  0.256246  1
  H  H4  1  0.743754  0.743754  0.256247  1
  H  H5  1  0.743754  0.256247  0.743754  1
  H  H6  1  0.256247  0.743754  0.743754  1
  H  H7  1  0.256246  0.256246  0.743753  1
  Pt  Pt8  1  0.000000  0.000000  0.000000  1
  Rh  Rh9  1  0.500000  0.500000  0.500000  1
