# generated using pymatgen
data_Ho4Ga18RePd5
_symmetry_space_group_name_H-M   'P 1'
_cell_length_a   7.64263287
_cell_length_b   7.64263267
_cell_length_c   9.58897614
_cell_angle_alpha   90.21345940
_cell_angle_beta   90.21346424
_cell_angle_gamma   119.70888163
_symmetry_Int_Tables_number   1
_chemical_formula_structural   Ho4Ga18RePd5
_chemical_formula_sum   'Ho4 Ga18 Re1 Pd5'
_cell_volume   486.45586807
_cell_formula_units_Z   1
loop_
 _symmetry_equiv_pos_site_id
 _symmetry_equiv_pos_as_xyz
  1  'x, y, z'
loop_
 _atom_site_type_symbol
 _atom_site_label
 _atom_site_symmetry_multiplicity
 _atom_site_fract_x
 _atom_site_fract_y
 _atom_site_fract_z
 _atom_site_occupancy
  Ho  Ho0  1  0.997360  0.670125  0.250222  1
  Ho  Ho1  1  0.002640  0.329875  0.749778  1
  Ho  Ho2  1  0.670125  0.997360  0.250222  1
  Ho  Ho3  1  0.329875  0.002640  0.749778  1
  Ga  Ga4  1  0.128312  0.128312  0.252047  1
  Ga  Ga5  1  0.871688  0.871688  0.747953  1
  Ga  Ga6  1  0.000254  0.335237  0.081898  1
  Ga  Ga7  1  0.999746  0.664763  0.918102  1
  Ga  Ga8  1  0.000561  0.668175  0.578368  1
  Ga  Ga9  1  0.331825  0.999439  0.421632  1
  Ga  Ga10  1  0.999439  0.331825  0.421632  1
  Ga  Ga11  1  0.668175  0.000561  0.578368  1
  Ga  Ga12  1  0.664763  0.999746  0.918102  1
  Ga  Ga13  1  0.335237  0.000254  0.081898  1
  Ga  Ga14  1  0.328752  0.328752  0.565623  1
  Ga  Ga15  1  0.671248  0.671248  0.434377  1
  Ga  Ga16  1  0.666503  0.666503  0.069155  1
  Ga  Ga17  1  0.333497  0.333497  0.930845  1
  Ga  Ga18  1  0.339892  0.546450  0.250723  1
  Ga  Ga19  1  0.660108  0.453550  0.749277  1
  Ga  Ga20  1  0.546450  0.339892  0.250723  1
  Ga  Ga21  1  0.453550  0.660108  0.749277  1
  Re  Re22  1  0.000000  0.000000  0.500000  1
  Pd  Pd23  1  0.671116  0.328884  0.000000  1
  Pd  Pd24  1  0.328884  0.671116  0.000000  1
  Pd  Pd25  1  0.328845  0.671155  0.500000  1
  Pd  Pd26  1  0.671155  0.328845  0.500000  1
  Pd  Pd27  1  0.000000  0.000000  0.000000  1
