# generated using pymatgen
data_Tm4ZrSc5Ga8
_symmetry_space_group_name_H-M   'P 1'
_cell_length_a   7.20293556
_cell_length_b   7.50414983
_cell_length_c   14.45619336
_cell_angle_alpha   89.95765348
_cell_angle_beta   90.21131038
_cell_angle_gamma   90.08998505
_symmetry_Int_Tables_number   1
_chemical_formula_structural   Tm4ZrSc5Ga8
_chemical_formula_sum   'Tm8 Zr2 Sc10 Ga16'
_cell_volume   781.37834019
_cell_formula_units_Z   2
loop_
 _symmetry_equiv_pos_site_id
 _symmetry_equiv_pos_as_xyz
  1  'x, y, z'
loop_
 _atom_site_type_symbol
 _atom_site_label
 _atom_site_symmetry_multiplicity
 _atom_site_fract_x
 _atom_site_fract_y
 _atom_site_fract_z
 _atom_site_occupancy
  Tm  Tm0  1  0.010609  0.179524  0.094364  1
  Tm  Tm1  1  0.989391  0.820476  0.905636  1
  Tm  Tm2  1  0.490192  0.678587  0.906045  1
  Tm  Tm3  1  0.989261  0.821201  0.594210  1
  Tm  Tm4  1  0.509808  0.321413  0.093955  1
  Tm  Tm5  1  0.010739  0.178799  0.405790  1
  Tm  Tm6  1  0.509572  0.322477  0.405259  1
  Tm  Tm7  1  0.490428  0.677523  0.594741  1
  Zr  Zr8  1  0.329828  0.175512  0.624475  1
  Zr  Zr9  1  0.670172  0.824488  0.375525  1
  Sc  Sc10  1  0.162395  0.504318  0.750494  1
  Sc  Sc11  1  0.837605  0.495682  0.249506  1
  Sc  Sc12  1  0.337148  0.004646  0.249842  1
  Sc  Sc13  1  0.662852  0.995354  0.750158  1
  Sc  Sc14  1  0.171086  0.673175  0.376814  1
  Sc  Sc15  1  0.669991  0.826642  0.123563  1
  Sc  Sc16  1  0.828914  0.326825  0.623186  1
  Sc  Sc17  1  0.330009  0.173358  0.876437  1
  Sc  Sc18  1  0.829669  0.327676  0.876816  1
  Sc  Sc19  1  0.170331  0.672324  0.123184  1
  Ga  Ga20  1  0.032248  0.116469  0.749215  1
  Ga  Ga21  1  0.967752  0.883531  0.250785  1
  Ga  Ga22  1  0.469066  0.616881  0.250576  1
  Ga  Ga23  1  0.530934  0.383119  0.749424  1
  Ga  Ga24  1  0.284290  0.870903  0.749138  1
  Ga  Ga25  1  0.715710  0.129097  0.250862  1
  Ga  Ga26  1  0.216267  0.369037  0.250501  1
  Ga  Ga27  1  0.783733  0.630963  0.749499  1
  Ga  Ga28  1  0.162163  0.464002  0.540657  1
  Ga  Ga29  1  0.837837  0.535998  0.459343  1
  Ga  Ga30  1  0.339180  0.965096  0.459968  1
  Ga  Ga31  1  0.837708  0.534638  0.040477  1
  Ga  Ga32  1  0.660820  0.034904  0.540032  1
  Ga  Ga33  1  0.162292  0.465362  0.959523  1
  Ga  Ga34  1  0.661575  0.034911  0.959263  1
  Ga  Ga35  1  0.338425  0.965089  0.040737  1
