# generated using pymatgen
data_Er16Al4FePd3
_symmetry_space_group_name_H-M   'P 1'
_cell_length_a   9.47284366
_cell_length_b   9.47284409
_cell_length_c   9.47284299
_cell_angle_alpha   59.81260173
_cell_angle_beta   59.81260208
_cell_angle_gamma   59.81260096
_symmetry_Int_Tables_number   1
_chemical_formula_structural   Er16Al4FePd3
_chemical_formula_sum   'Er16 Al4 Fe1 Pd3'
_cell_volume   598.51463000
_cell_formula_units_Z   1
loop_
 _symmetry_equiv_pos_site_id
 _symmetry_equiv_pos_as_xyz
  1  'x, y, z'
loop_
 _atom_site_type_symbol
 _atom_site_label
 _atom_site_symmetry_multiplicity
 _atom_site_fract_x
 _atom_site_fract_y
 _atom_site_fract_z
 _atom_site_occupancy
  Er  Er0  1  0.356105  0.356105  0.356105  1
  Er  Er1  1  0.350911  0.350911  0.936913  1
  Er  Er2  1  0.350911  0.936913  0.350911  1
  Er  Er3  1  0.936913  0.350911  0.350911  1
  Er  Er4  1  0.818562  0.190538  0.190538  1
  Er  Er5  1  0.192913  0.807490  0.807490  1
  Er  Er6  1  0.190538  0.818562  0.190538  1
  Er  Er7  1  0.807490  0.192913  0.807490  1
  Er  Er8  1  0.190538  0.190538  0.818562  1
  Er  Er9  1  0.807490  0.807490  0.192913  1
  Er  Er10  1  0.933946  0.564711  0.564711  1
  Er  Er11  1  0.559436  0.936948  0.936948  1
  Er  Er12  1  0.564711  0.933946  0.564711  1
  Er  Er13  1  0.936948  0.559436  0.936948  1
  Er  Er14  1  0.564711  0.564711  0.933946  1
  Er  Er15  1  0.936948  0.936948  0.559436  1
  Al  Al16  1  0.578290  0.578290  0.578290  1
  Al  Al17  1  0.578446  0.578446  0.265466  1
  Al  Al18  1  0.578446  0.265466  0.578446  1
  Al  Al19  1  0.265466  0.578446  0.578446  1
  Fe  Fe20  1  0.144031  0.144031  0.144031  1
  Pd  Pd21  1  0.144762  0.144762  0.566721  1
  Pd  Pd22  1  0.144762  0.566721  0.144762  1
  Pd  Pd23  1  0.566721  0.144762  0.144762  1
