# generated using pymatgen
data_Tb11Y(IrPt)2
_symmetry_space_group_name_H-M   'P 1'
_cell_length_a   6.44133481
_cell_length_b   7.15144793
_cell_length_c   9.53551603
_cell_angle_alpha   89.99042386
_cell_angle_beta   90.00035265
_cell_angle_gamma   90.03842198
_symmetry_Int_Tables_number   1
_chemical_formula_structural   Tb11Y(IrPt)2
_chemical_formula_sum   'Tb11 Y1 Ir2 Pt2'
_cell_volume   439.25220587
_cell_formula_units_Z   1
loop_
 _symmetry_equiv_pos_site_id
 _symmetry_equiv_pos_as_xyz
  1  'x, y, z'
loop_
 _atom_site_type_symbol
 _atom_site_label
 _atom_site_symmetry_multiplicity
 _atom_site_fract_x
 _atom_site_fract_y
 _atom_site_fract_z
 _atom_site_occupancy
  Tb  Tb0  1  0.634443  0.028306  0.249866  1
  Tb  Tb1  1  0.365726  0.971546  0.750087  1
  Tb  Tb2  1  0.129642  0.463405  0.749723  1
  Tb  Tb3  1  0.870800  0.535938  0.249918  1
  Tb  Tb4  1  0.172035  0.177810  0.061480  1
  Tb  Tb5  1  0.828081  0.822471  0.938617  1
  Tb  Tb6  1  0.676293  0.318475  0.936783  1
  Tb  Tb7  1  0.827604  0.822501  0.561501  1
  Tb  Tb8  1  0.323856  0.681501  0.062661  1
  Tb  Tb9  1  0.172534  0.177696  0.438700  1
  Tb  Tb10  1  0.323558  0.681452  0.437456  1
  Y  Y11  1  0.675813  0.318660  0.562418  1
  Ir  Ir12  1  0.949187  0.113791  0.750355  1
  Ir  Ir13  1  0.050974  0.885951  0.250065  1
  Pt  Pt14  1  0.450382  0.385943  0.250233  1
  Pt  Pt15  1  0.549071  0.614555  0.750137  1
