# generated using pymatgen
data_Yb3Ag5Pt
_symmetry_space_group_name_H-M   'P 1'
_cell_length_a   7.64354100
_cell_length_b   7.64354066
_cell_length_c   3.93014900
_cell_angle_alpha   90.00000000
_cell_angle_beta   90.00000000
_cell_angle_gamma   120.00000580
_symmetry_Int_Tables_number   1
_chemical_formula_structural   Yb3Ag5Pt
_chemical_formula_sum   'Yb3 Ag5 Pt1'
_cell_volume   198.85146809
_cell_formula_units_Z   1
loop_
 _symmetry_equiv_pos_site_id
 _symmetry_equiv_pos_as_xyz
  1  'x, y, z'
loop_
 _atom_site_type_symbol
 _atom_site_label
 _atom_site_symmetry_multiplicity
 _atom_site_fract_x
 _atom_site_fract_y
 _atom_site_fract_z
 _atom_site_occupancy
  Yb  Yb0  1  0.607026  0.022896  0.000000  1
  Yb  Yb1  1  0.977104  0.584131  0.000000  1
  Yb  Yb2  1  0.415869  0.392974  0.000000  1
  Ag  Ag3  1  0.262446  0.998035  0.500000  1
  Ag  Ag4  1  0.001965  0.264412  0.500000  1
  Ag  Ag5  1  0.735588  0.737554  0.500000  1
  Ag  Ag6  1  0.333333  0.666667  0.500000  1
  Ag  Ag7  1  0.000000  0.000000  0.000000  1
  Pt  Pt8  1  0.666667  0.333333  0.500000  1
