# generated using pymatgen
data_Y3Er5(Si3Pt)4
_symmetry_space_group_name_H-M   'P 1'
_cell_length_a   8.13053056
_cell_length_b   8.13053030
_cell_length_c   8.11744100
_cell_angle_alpha   90.00000000
_cell_angle_beta   90.00000000
_cell_angle_gamma   120.09089316
_symmetry_Int_Tables_number   1
_chemical_formula_structural   Y3Er5(Si3Pt)4
_chemical_formula_sum   'Y3 Er5 Si12 Pt4'
_cell_volume   464.28968204
_cell_formula_units_Z   1
loop_
 _symmetry_equiv_pos_site_id
 _symmetry_equiv_pos_as_xyz
  1  'x, y, z'
loop_
 _atom_site_type_symbol
 _atom_site_label
 _atom_site_symmetry_multiplicity
 _atom_site_fract_x
 _atom_site_fract_y
 _atom_site_fract_z
 _atom_site_occupancy
  Y  Y0  1  0.999997  0.000003  0.250000  1
  Y  Y1  1  0.999994  0.000006  0.750000  1
  Y  Y2  1  0.497956  0.502044  0.250000  1
  Er  Er3  1  0.497959  0.995919  0.250000  1
  Er  Er4  1  0.004081  0.502041  0.250000  1
  Er  Er5  1  0.502079  0.497921  0.750000  1
  Er  Er6  1  0.995674  0.497790  0.750000  1
  Er  Er7  1  0.502210  0.004326  0.750000  1
  Si  Si8  1  0.834405  0.165595  0.498707  1
  Si  Si9  1  0.834440  0.668736  0.499247  1
  Si  Si10  1  0.331264  0.165560  0.499247  1
  Si  Si11  1  0.834405  0.165595  0.001293  1
  Si  Si12  1  0.834440  0.668736  0.000753  1
  Si  Si13  1  0.331264  0.165560  0.000753  1
  Si  Si14  1  0.165604  0.834396  0.998799  1
  Si  Si15  1  0.668769  0.834467  0.998240  1
  Si  Si16  1  0.165533  0.331231  0.998240  1
  Si  Si17  1  0.165604  0.834396  0.501201  1
  Si  Si18  1  0.668769  0.834467  0.501760  1
  Si  Si19  1  0.165533  0.331231  0.501760  1
  Pt  Pt20  1  0.667122  0.332878  0.496995  1
  Pt  Pt21  1  0.667122  0.332878  0.003005  1
  Pt  Pt22  1  0.332890  0.667110  0.994657  1
  Pt  Pt23  1  0.332890  0.667110  0.505343  1
