# generated using pymatgen
data_PaNiH5
_symmetry_space_group_name_H-M   'P 1'
_cell_length_a   4.21681600
_cell_length_b   4.31233900
_cell_length_c   11.05979200
_cell_angle_alpha   90.00000000
_cell_angle_beta   90.00000000
_cell_angle_gamma   90.00000000
_symmetry_Int_Tables_number   1
_chemical_formula_structural   PaNiH5
_chemical_formula_sum   'Pa4 Ni4 H20'
_cell_volume   201.11501908
_cell_formula_units_Z   4
loop_
 _symmetry_equiv_pos_site_id
 _symmetry_equiv_pos_as_xyz
  1  'x, y, z'
loop_
 _atom_site_type_symbol
 _atom_site_label
 _atom_site_symmetry_multiplicity
 _atom_site_fract_x
 _atom_site_fract_y
 _atom_site_fract_z
 _atom_site_occupancy
  Pa  Pa0  1  0.313885  0.250406  0.651791  1
  Pa  Pa1  1  0.813885  0.249594  0.348209  1
  Pa  Pa2  1  0.186115  0.749594  0.151791  1
  Pa  Pa3  1  0.686115  0.750406  0.848209  1
  Ni  Ni4  1  0.176289  0.249530  0.936761  1
  Ni  Ni5  1  0.676289  0.250470  0.063239  1
  Ni  Ni6  1  0.323711  0.750470  0.436761  1
  Ni  Ni7  1  0.823711  0.749530  0.563239  1
  H  H8  1  0.566057  0.492103  0.501905  1
  H  H9  1  0.066057  0.007897  0.498095  1
  H  H10  1  0.933943  0.507897  0.001905  1
  H  H11  1  0.433943  0.992103  0.998095  1
  H  H12  1  0.180971  0.992649  0.822326  1
  H  H13  1  0.680971  0.507351  0.177674  1
  H  H14  1  0.319029  0.007351  0.322326  1
  H  H15  1  0.819029  0.492649  0.677674  1
  H  H16  1  0.180807  0.507707  0.822421  1
  H  H17  1  0.680807  0.992293  0.177579  1
  H  H18  1  0.319193  0.492293  0.322421  1
  H  H19  1  0.819193  0.007707  0.677579  1
  H  H20  1  0.626619  0.250555  0.810391  1
  H  H21  1  0.126619  0.249445  0.189609  1
  H  H22  1  0.873381  0.749445  0.310391  1
  H  H23  1  0.373381  0.750555  0.689609  1
  H  H24  1  0.933799  0.992037  0.002173  1
  H  H25  1  0.433799  0.507963  0.997827  1
  H  H26  1  0.566201  0.007963  0.502173  1
  H  H27  1  0.066201  0.492037  0.497827  1
