# generated using pymatgen
data_Ba7Fe5RhO19
_symmetry_space_group_name_H-M   'P 1'
_cell_length_a   7.98189368
_cell_length_b   7.98189440
_cell_length_c   11.04634000
_cell_angle_alpha   81.07824560
_cell_angle_beta   81.07823753
_cell_angle_gamma   42.76892425
_symmetry_Int_Tables_number   1
_chemical_formula_structural   Ba7Fe5RhO19
_chemical_formula_sum   'Ba7 Fe5 Rh1 O19'
_cell_volume   471.21496427
_cell_formula_units_Z   1
loop_
 _symmetry_equiv_pos_site_id
 _symmetry_equiv_pos_as_xyz
  1  'x, y, z'
loop_
 _atom_site_type_symbol
 _atom_site_label
 _atom_site_symmetry_multiplicity
 _atom_site_fract_x
 _atom_site_fract_y
 _atom_site_fract_z
 _atom_site_occupancy
  Ba  Ba0  1  0.500597  0.500597  0.502807  1
  Ba  Ba1  1  0.850932  0.850932  0.947480  1
  Ba  Ba2  1  0.156741  0.156741  0.049910  1
  Ba  Ba3  1  0.573002  0.573002  0.834820  1
  Ba  Ba4  1  0.426870  0.426870  0.165256  1
  Ba  Ba5  1  0.801047  0.801047  0.596296  1
  Ba  Ba6  1  0.200011  0.200011  0.405011  1
  Fe  Fe7  1  0.815689  0.815689  0.268685  1
  Fe  Fe8  1  0.352866  0.352866  0.785153  1
  Fe  Fe9  1  0.647849  0.647849  0.218660  1
  Fe  Fe10  1  0.017474  0.017474  0.671627  1
  Fe  Fe11  1  0.981018  0.981018  0.328593  1
  Rh  Rh12  1  0.184620  0.184620  0.728776  1
  O  O13  1  0.997661  0.997661  0.499532  1
  O  O14  1  0.701139  0.701139  0.375590  1
  O  O15  1  0.302642  0.302642  0.616646  1
  O  O16  1  0.062624  0.062624  0.843930  1
  O  O17  1  0.930019  0.930019  0.161010  1
  O  O18  1  0.387640  0.387640  0.940991  1
  O  O19  1  0.615749  0.615749  0.064773  1
  O  O20  1  0.820001  0.313016  0.280071  1
  O  O21  1  0.686130  0.179421  0.719052  1
  O  O22  1  0.179421  0.686130  0.719052  1
  O  O23  1  0.313016  0.820001  0.280071  1
  O  O24  1  0.539751  0.984332  0.176881  1
  O  O25  1  0.012704  0.470922  0.826887  1
  O  O26  1  0.647735  0.088191  0.363312  1
  O  O27  1  0.896537  0.355070  0.631025  1
  O  O28  1  0.355070  0.896537  0.631025  1
  O  O29  1  0.088191  0.647735  0.363312  1
  O  O30  1  0.984332  0.539751  0.176881  1
  O  O31  1  0.470922  0.012704  0.826887  1
