# generated using pymatgen
data_Nd7ZrGaPd24
_symmetry_space_group_name_H-M   'P 1'
_cell_length_a   8.45937456
_cell_length_b   8.45937456
_cell_length_c   8.45937456
_cell_angle_alpha   90.40551151
_cell_angle_beta   90.40551151
_cell_angle_gamma   89.59448849
_symmetry_Int_Tables_number   1
_chemical_formula_structural   Nd7ZrGaPd24
_chemical_formula_sum   'Nd7 Zr1 Ga1 Pd24'
_cell_volume   605.31618419
_cell_formula_units_Z   1
loop_
 _symmetry_equiv_pos_site_id
 _symmetry_equiv_pos_as_xyz
  1  'x, y, z'
loop_
 _atom_site_type_symbol
 _atom_site_label
 _atom_site_symmetry_multiplicity
 _atom_site_fract_x
 _atom_site_fract_y
 _atom_site_fract_z
 _atom_site_occupancy
  Nd  Nd0  1  0.251026  0.748361  0.251639  1
  Nd  Nd1  1  0.748361  0.251026  0.251639  1
  Nd  Nd2  1  0.748361  0.748361  0.748974  1
  Nd  Nd3  1  0.746750  0.746750  0.253250  1
  Nd  Nd4  1  0.750142  0.252642  0.747358  1
  Nd  Nd5  1  0.252642  0.750142  0.747358  1
  Nd  Nd6  1  0.252642  0.252642  0.249858  1
  Zr  Zr7  1  0.256170  0.256170  0.743830  1
  Ga  Ga8  1  0.995023  0.995023  0.004977  1
  Pd  Pd9  1  0.494525  0.494525  0.746330  1
  Pd  Pd10  1  0.494525  0.253670  0.505475  1
  Pd  Pd11  1  0.253670  0.494525  0.505475  1
  Pd  Pd12  1  0.498855  0.498855  0.252156  1
  Pd  Pd13  1  0.498855  0.747844  0.501145  1
  Pd  Pd14  1  0.747844  0.498855  0.501145  1
  Pd  Pd15  1  0.007839  0.007839  0.713479  1
  Pd  Pd16  1  0.007839  0.286521  0.992161  1
  Pd  Pd17  1  0.286521  0.007839  0.992161  1
  Pd  Pd18  1  0.999981  0.999981  0.296329  1
  Pd  Pd19  1  0.999981  0.703671  0.000019  1
  Pd  Pd20  1  0.703671  0.999981  0.000019  1
  Pd  Pd21  1  0.009418  0.494913  0.739691  1
  Pd  Pd22  1  0.494913  0.260309  0.990582  1
  Pd  Pd23  1  0.260309  0.009418  0.505087  1
  Pd  Pd24  1  0.009418  0.260309  0.505087  1
  Pd  Pd25  1  0.494913  0.009418  0.739691  1
  Pd  Pd26  1  0.260309  0.494913  0.990582  1
  Pd  Pd27  1  0.000170  0.497377  0.259798  1
  Pd  Pd28  1  0.497377  0.740202  0.999830  1
  Pd  Pd29  1  0.000170  0.740202  0.502623  1
  Pd  Pd30  1  0.497377  0.000170  0.259798  1
  Pd  Pd31  1  0.740202  0.000170  0.502623  1
  Pd  Pd32  1  0.740202  0.497377  0.999830  1
