# generated using pymatgen
data_Np2(NbN2)3
_symmetry_space_group_name_H-M   'P 1'
_cell_length_a   5.39613000
_cell_length_b   5.39612993
_cell_length_c   11.12572400
_cell_angle_alpha   90.00000000
_cell_angle_beta   90.00000000
_cell_angle_gamma   120.00001271
_symmetry_Int_Tables_number   1
_chemical_formula_structural   Np2(NbN2)3
_chemical_formula_sum   'Np4 Nb6 N12'
_cell_volume   280.55864793
_cell_formula_units_Z   2
loop_
 _symmetry_equiv_pos_site_id
 _symmetry_equiv_pos_as_xyz
  1  'x, y, z'
loop_
 _atom_site_type_symbol
 _atom_site_label
 _atom_site_symmetry_multiplicity
 _atom_site_fract_x
 _atom_site_fract_y
 _atom_site_fract_z
 _atom_site_occupancy
  Np  Np0  1  0.333333  0.666667  0.500000  1
  Np  Np1  1  0.666667  0.333333  0.000000  1
  Np  Np2  1  0.666667  0.333333  0.500000  1
  Np  Np3  1  0.333333  0.666667  0.000000  1
  Nb  Nb4  1  0.676561  0.000000  0.750000  1
  Nb  Nb5  1  0.676561  0.676561  0.250000  1
  Nb  Nb6  1  0.000000  0.323439  0.250000  1
  Nb  Nb7  1  0.000000  0.676561  0.750000  1
  Nb  Nb8  1  0.323439  0.323439  0.750000  1
  Nb  Nb9  1  0.323439  0.000000  0.250000  1
  N  N10  1  0.342390  0.342390  0.366779  1
  N  N11  1  0.657610  0.000000  0.366779  1
  N  N12  1  0.000000  0.657610  0.366779  1
  N  N13  1  0.000000  0.342390  0.866779  1
  N  N14  1  0.657610  0.000000  0.133221  1
  N  N15  1  0.657610  0.657610  0.866779  1
  N  N16  1  0.342390  0.000000  0.866779  1
  N  N17  1  0.657610  0.657610  0.633221  1
  N  N18  1  0.000000  0.342390  0.633221  1
  N  N19  1  0.000000  0.657610  0.133221  1
  N  N20  1  0.342390  0.000000  0.633221  1
  N  N21  1  0.342390  0.342390  0.133221  1
