# generated using pymatgen
data_Er4Ga6CuRu
_symmetry_space_group_name_H-M   'P 1'
_cell_length_a   6.98568100
_cell_length_b   8.81133256
_cell_length_c   8.81133300
_cell_angle_alpha   119.99999790
_cell_angle_beta   90.00000000
_cell_angle_gamma   90.00000000
_symmetry_Int_Tables_number   1
_chemical_formula_structural   Er4Ga6CuRu
_chemical_formula_sum   'Er8 Ga12 Cu2 Ru2'
_cell_volume   469.70220397
_cell_formula_units_Z   2
loop_
 _symmetry_equiv_pos_site_id
 _symmetry_equiv_pos_as_xyz
  1  'x, y, z'
loop_
 _atom_site_type_symbol
 _atom_site_label
 _atom_site_symmetry_multiplicity
 _atom_site_fract_x
 _atom_site_fract_y
 _atom_site_fract_z
 _atom_site_occupancy
  Er  Er0  1  0.746918  0.000000  0.000000  1
  Er  Er1  1  0.253082  0.000000  0.000000  1
  Er  Er2  1  0.743379  0.476463  0.523537  1
  Er  Er3  1  0.256621  0.523537  0.476463  1
  Er  Er4  1  0.743379  0.047074  0.523537  1
  Er  Er5  1  0.256621  0.952926  0.476463  1
  Er  Er6  1  0.743379  0.476463  0.952926  1
  Er  Er7  1  0.256621  0.523537  0.047074  1
  Ga  Ga8  1  0.953894  0.831155  0.168845  1
  Ga  Ga9  1  0.046106  0.168845  0.831155  1
  Ga  Ga10  1  0.953894  0.337689  0.168845  1
  Ga  Ga11  1  0.453603  0.170223  0.829777  1
  Ga  Ga12  1  0.046106  0.662311  0.831155  1
  Ga  Ga13  1  0.546397  0.829777  0.170223  1
  Ga  Ga14  1  0.953894  0.831155  0.662311  1
  Ga  Ga15  1  0.453603  0.659554  0.829777  1
  Ga  Ga16  1  0.046106  0.168845  0.337689  1
  Ga  Ga17  1  0.546397  0.340446  0.170223  1
  Ga  Ga18  1  0.453603  0.170223  0.340446  1
  Ga  Ga19  1  0.546397  0.829777  0.659554  1
  Cu  Cu20  1  0.947716  0.666667  0.333333  1
  Cu  Cu21  1  0.052284  0.333333  0.666667  1
  Ru  Ru22  1  0.485587  0.333333  0.666667  1
  Ru  Ru23  1  0.514413  0.666667  0.333333  1
