# generated using pymatgen
data_Lu7Sc3(In2Sb)2
_symmetry_space_group_name_H-M   'P 1'
_cell_length_a   6.25575905
_cell_length_b   8.74294153
_cell_length_c   8.71119505
_cell_angle_alpha   119.85030589
_cell_angle_beta   90.09202942
_cell_angle_gamma   89.95068617
_symmetry_Int_Tables_number   1
_chemical_formula_structural   Lu7Sc3(In2Sb)2
_chemical_formula_sum   'Lu7 Sc3 In4 Sb2'
_cell_volume   413.23635087
_cell_formula_units_Z   1
loop_
 _symmetry_equiv_pos_site_id
 _symmetry_equiv_pos_as_xyz
  1  'x, y, z'
loop_
 _atom_site_type_symbol
 _atom_site_label
 _atom_site_symmetry_multiplicity
 _atom_site_fract_x
 _atom_site_fract_y
 _atom_site_fract_z
 _atom_site_occupancy
  Lu  Lu0  1  0.004222  0.333239  0.668529  1
  Lu  Lu1  1  0.748495  0.232795  0.994781  1
  Lu  Lu2  1  0.749422  0.766420  0.762039  1
  Lu  Lu3  1  0.749600  0.000370  0.234856  1
  Lu  Lu4  1  0.250626  0.763742  0.000214  1
  Lu  Lu5  1  0.250753  0.236106  0.236925  1
  Lu  Lu6  1  0.250418  0.000719  0.766739  1
  Sc  Sc7  1  0.495277  0.335796  0.668148  1
  Sc  Sc8  1  0.495446  0.664208  0.332706  1
  Sc  Sc9  1  0.005583  0.665440  0.333801  1
  In  In10  1  0.742029  0.997081  0.591447  1
  In  In11  1  0.253989  0.401999  0.005704  1
  In  In12  1  0.254385  0.602208  0.600835  1
  In  In13  1  0.256652  0.996968  0.403162  1
  Sb  Sb14  1  0.746162  0.604267  0.003886  1
  Sb  Sb15  1  0.746940  0.398644  0.396227  1
