# generated using pymatgen
data_Li2Dy3MgIr2Pt
_symmetry_space_group_name_H-M   'P 1'
_cell_length_a   7.13888300
_cell_length_b   7.14655671
_cell_length_c   4.01513700
_cell_angle_alpha   90.00000000
_cell_angle_beta   90.00000000
_cell_angle_gamma   119.96449116
_symmetry_Int_Tables_number   1
_chemical_formula_structural   Li2Dy3MgIr2Pt
_chemical_formula_sum   'Li2 Dy3 Mg1 Ir2 Pt1'
_cell_volume   177.46527765
_cell_formula_units_Z   1
loop_
 _symmetry_equiv_pos_site_id
 _symmetry_equiv_pos_as_xyz
  1  'x, y, z'
loop_
 _atom_site_type_symbol
 _atom_site_label
 _atom_site_symmetry_multiplicity
 _atom_site_fract_x
 _atom_site_fract_y
 _atom_site_fract_z
 _atom_site_occupancy
  Li  Li0  1  0.000375  0.238365  0.500000  1
  Li  Li1  1  0.762010  0.761635  0.500000  1
  Dy  Dy2  1  0.418546  0.421214  0.000000  1
  Dy  Dy3  1  0.592538  0.000000  0.000000  1
  Dy  Dy4  1  0.997332  0.578786  0.000000  1
  Mg  Mg5  1  0.238309  0.000000  0.500000  1
  Ir  Ir6  1  0.659980  0.329008  0.500000  1
  Ir  Ir7  1  0.330972  0.670992  0.500000  1
  Pt  Pt8  1  0.999937  0.000000  0.000000  1
