# generated using pymatgen
data_Y6Zn7Pd16S
_symmetry_space_group_name_H-M   'P 1'
_cell_length_a   9.02846471
_cell_length_b   9.02846399
_cell_length_c   9.02846400
_cell_angle_alpha   59.99999997
_cell_angle_beta   60.00000260
_cell_angle_gamma   60.00000122
_symmetry_Int_Tables_number   1
_chemical_formula_structural   Y6Zn7Pd16S
_chemical_formula_sum   'Y6 Zn7 Pd16 S1'
_cell_volume   520.38726568
_cell_formula_units_Z   1
loop_
 _symmetry_equiv_pos_site_id
 _symmetry_equiv_pos_as_xyz
  1  'x, y, z'
loop_
 _atom_site_type_symbol
 _atom_site_label
 _atom_site_symmetry_multiplicity
 _atom_site_fract_x
 _atom_site_fract_y
 _atom_site_fract_z
 _atom_site_occupancy
  Y  Y0  1  0.714841  0.285159  0.285159  1
  Y  Y1  1  0.285159  0.714841  0.714841  1
  Y  Y2  1  0.285159  0.714841  0.285159  1
  Y  Y3  1  0.714841  0.285159  0.714841  1
  Y  Y4  1  0.285159  0.285159  0.714841  1
  Y  Y5  1  0.714841  0.714841  0.285159  1
  Zn  Zn6  1  0.000000  0.000000  0.000000  1
  Zn  Zn7  1  0.500000  0.000000  0.000000  1
  Zn  Zn8  1  0.000000  0.500000  0.500000  1
  Zn  Zn9  1  0.000000  0.500000  0.000000  1
  Zn  Zn10  1  0.500000  0.000000  0.500000  1
  Zn  Zn11  1  0.000000  0.000000  0.500000  1
  Zn  Zn12  1  0.500000  0.500000  0.000000  1
  Pd  Pd13  1  0.119557  0.119557  0.119557  1
  Pd  Pd14  1  0.880443  0.880443  0.880443  1
  Pd  Pd15  1  0.119557  0.119557  0.641330  1
  Pd  Pd16  1  0.119557  0.641330  0.119557  1
  Pd  Pd17  1  0.880443  0.880443  0.358670  1
  Pd  Pd18  1  0.880443  0.358670  0.880443  1
  Pd  Pd19  1  0.641330  0.119557  0.119557  1
  Pd  Pd20  1  0.358670  0.880443  0.880443  1
  Pd  Pd21  1  0.332447  0.332447  0.332447  1
  Pd  Pd22  1  0.667553  0.667553  0.667553  1
  Pd  Pd23  1  0.332447  0.332447  0.002658  1
  Pd  Pd24  1  0.332447  0.002658  0.332447  1
  Pd  Pd25  1  0.667553  0.667553  0.997342  1
  Pd  Pd26  1  0.667553  0.997342  0.667553  1
  Pd  Pd27  1  0.002658  0.332447  0.332447  1
  Pd  Pd28  1  0.997342  0.667553  0.667553  1
  S  S29  1  0.500000  0.500000  0.500000  1
