# generated using pymatgen
data_Nb8CdSnSe16
_symmetry_space_group_name_H-M   'P 1'
_cell_length_a   7.02869300
_cell_length_b   7.02869265
_cell_length_c   14.74346200
_cell_angle_alpha   90.00000000
_cell_angle_beta   90.00000000
_cell_angle_gamma   120.00000636
_symmetry_Int_Tables_number   1
_chemical_formula_structural   Nb8CdSnSe16
_chemical_formula_sum   'Nb8 Cd1 Sn1 Se16'
_cell_volume   630.78187557
_cell_formula_units_Z   1
loop_
 _symmetry_equiv_pos_site_id
 _symmetry_equiv_pos_as_xyz
  1  'x, y, z'
loop_
 _atom_site_type_symbol
 _atom_site_label
 _atom_site_symmetry_multiplicity
 _atom_site_fract_x
 _atom_site_fract_y
 _atom_site_fract_z
 _atom_site_occupancy
  Nb  Nb0  1  0.000000  0.000000  0.252211  1
  Nb  Nb1  1  0.000000  0.000000  0.747789  1
  Nb  Nb2  1  0.508431  0.491569  0.253887  1
  Nb  Nb3  1  0.508431  0.016863  0.253887  1
  Nb  Nb4  1  0.983137  0.491569  0.253887  1
  Nb  Nb5  1  0.491569  0.508431  0.746113  1
  Nb  Nb6  1  0.491569  0.983137  0.746113  1
  Nb  Nb7  1  0.016863  0.508431  0.746113  1
  Cd  Cd8  1  0.000000  0.000000  0.500000  1
  Sn  Sn9  1  0.000000  0.000000  0.000000  1
  Se  Se10  1  0.333333  0.666667  0.864791  1
  Se  Se11  1  0.666667  0.333333  0.135209  1
  Se  Se12  1  0.666667  0.333333  0.371504  1
  Se  Se13  1  0.333333  0.666667  0.628496  1
  Se  Se14  1  0.167738  0.832262  0.365148  1
  Se  Se15  1  0.167738  0.335476  0.365148  1
  Se  Se16  1  0.664524  0.832262  0.365148  1
  Se  Se17  1  0.832262  0.167738  0.634852  1
  Se  Se18  1  0.832262  0.664524  0.634852  1
  Se  Se19  1  0.335476  0.167738  0.634852  1
  Se  Se20  1  0.830266  0.169734  0.858154  1
  Se  Se21  1  0.830266  0.660534  0.858154  1
  Se  Se22  1  0.339466  0.169734  0.858154  1
  Se  Se23  1  0.169734  0.830266  0.141846  1
  Se  Se24  1  0.169734  0.339466  0.141846  1
  Se  Se25  1  0.660534  0.830266  0.141846  1
