# generated using pymatgen
data_Pr12PIrI17
_symmetry_space_group_name_H-M   'P 1'
_cell_length_a   10.07478870
_cell_length_b   12.07434547
_cell_length_c   12.01053475
_cell_angle_alpha   93.38615218
_cell_angle_beta   104.48528480
_cell_angle_gamma   115.13911460
_symmetry_Int_Tables_number   1
_chemical_formula_structural   Pr12PIrI17
_chemical_formula_sum   'Pr12 P1 Ir1 I17'
_cell_volume   1257.61720084
_cell_formula_units_Z   1
loop_
 _symmetry_equiv_pos_site_id
 _symmetry_equiv_pos_as_xyz
  1  'x, y, z'
loop_
 _atom_site_type_symbol
 _atom_site_label
 _atom_site_symmetry_multiplicity
 _atom_site_fract_x
 _atom_site_fract_y
 _atom_site_fract_z
 _atom_site_occupancy
  Pr  Pr0  1  0.061016  0.516383  0.326607  1
  Pr  Pr1  1  0.988205  0.808682  0.580980  1
  Pr  Pr2  1  0.639749  0.238387  0.284383  1
  Pr  Pr3  1  0.011376  0.188243  0.422170  1
  Pr  Pr4  1  0.215874  0.665078  0.989793  1
  Pr  Pr5  1  0.266390  0.987278  0.897087  1
  Pr  Pr6  1  0.356607  0.760155  0.717558  1
  Pr  Pr7  1  0.943477  0.487682  0.675867  1
  Pr  Pr8  1  0.732929  0.010026  0.103241  1
  Pr  Pr9  1  0.155153  0.289471  0.147728  1
  Pr  Pr10  1  0.781694  0.335430  0.005764  1
  Pr  Pr11  1  0.849566  0.712134  0.852123  1
  P  P12  1  0.103581  0.738044  0.784840  1
  Ir  Ir13  1  0.896790  0.262555  0.215352  1
  I  I14  1  0.782043  0.530595  0.421256  1
  I  I15  1  0.639413  0.420418  0.754878  1
  I  I16  1  0.842758  0.892816  0.325499  1
  I  I17  1  0.326290  0.212234  0.369332  1
  I  I18  1  0.157988  0.101962  0.677731  1
  I  I19  1  0.584040  0.050603  0.835704  1
  I  I20  1  0.752401  0.181603  0.541397  1
  I  I21  1  0.542560  0.703657  0.952271  1
  I  I22  1  0.364776  0.585222  0.241994  1
  I  I23  1  0.220802  0.475050  0.586504  1
  I  I24  1  0.058144  0.365544  0.888633  1
  I  I25  1  0.450857  0.293761  0.044190  1
  I  I26  1  0.000043  0.997037  0.996951  1
  I  I27  1  0.248726  0.821686  0.464441  1
  I  I28  1  0.404830  0.940545  0.157376  1
  I  I29  1  0.677596  0.787282  0.632540  1
  I  I30  1  0.944324  0.640438  0.105811  1
