# generated using pymatgen
data_Tb2CoIrCl2
_symmetry_space_group_name_H-M   'P 1'
_cell_length_a   4.06342100
_cell_length_b   4.06342105
_cell_length_c   10.45903400
_cell_angle_alpha   90.00000000
_cell_angle_beta   90.00000000
_cell_angle_gamma   120.00002404
_symmetry_Int_Tables_number   1
_chemical_formula_structural   Tb2CoIrCl2
_chemical_formula_sum   'Tb2 Co1 Ir1 Cl2'
_cell_volume   149.55665658
_cell_formula_units_Z   1
loop_
 _symmetry_equiv_pos_site_id
 _symmetry_equiv_pos_as_xyz
  1  'x, y, z'
loop_
 _atom_site_type_symbol
 _atom_site_label
 _atom_site_symmetry_multiplicity
 _atom_site_fract_x
 _atom_site_fract_y
 _atom_site_fract_z
 _atom_site_occupancy
  Tb  Tb0  1  0.000000  0.000000  0.179754  1
  Tb  Tb1  1  0.000000  0.000000  0.821301  1
  Co  Co2  1  0.666667  0.333333  0.992348  1
  Ir  Ir3  1  0.333333  0.666667  0.006755  1
  Cl  Cl4  1  0.333333  0.666667  0.660986  1
  Cl  Cl5  1  0.666667  0.333333  0.338856  1
