# generated using pymatgen
data_NiHg3(BrO3)8
_symmetry_space_group_name_H-M   'P 1'
_cell_length_a   5.82874916
_cell_length_b   10.98247875
_cell_length_c   11.17464657
_cell_angle_alpha   119.68883695
_cell_angle_beta   89.85129368
_cell_angle_gamma   90.88554015
_symmetry_Int_Tables_number   1
_chemical_formula_structural   NiHg3(BrO3)8
_chemical_formula_sum   'Ni1 Hg3 Br8 O24'
_cell_volume   621.34688933
_cell_formula_units_Z   1
loop_
 _symmetry_equiv_pos_site_id
 _symmetry_equiv_pos_as_xyz
  1  'x, y, z'
loop_
 _atom_site_type_symbol
 _atom_site_label
 _atom_site_symmetry_multiplicity
 _atom_site_fract_x
 _atom_site_fract_y
 _atom_site_fract_z
 _atom_site_occupancy
  Ni  Ni0  1  0.144410  0.762483  0.508995  1
  Hg  Hg1  1  0.649251  0.235404  0.493187  1
  Hg  Hg2  1  0.149954  0.269033  0.010970  1
  Hg  Hg3  1  0.637604  0.726398  0.993989  1
  Br  Br4  1  0.265437  0.431104  0.360417  1
  Br  Br5  1  0.779435  0.593743  0.647348  1
  Br  Br6  1  0.260959  0.915079  0.836747  1
  Br  Br7  1  0.756798  0.080095  0.145022  1
  Br  Br8  1  0.791401  0.066303  0.673973  1
  Br  Br9  1  0.274363  0.901541  0.318928  1
  Br  Br10  1  0.278190  0.413169  0.805093  1
  Br  Br11  1  0.790447  0.592471  0.210388  1
  O  O12  1  0.416179  0.885597  0.946307  1
  O  O13  1  0.904067  0.100049  0.025742  1
  O  O14  1  0.361444  0.802175  0.676244  1
  O  O15  1  0.871831  0.201172  0.298710  1
  O  O16  1  0.386770  0.320374  0.206005  1
  O  O17  1  0.887189  0.707526  0.805105  1
  O  O18  1  0.908625  0.211232  0.807798  1
  O  O19  1  0.411367  0.763412  0.190331  1
  O  O20  1  0.940193  0.926868  0.656338  1
  O  O21  1  0.408873  0.046685  0.334634  1
  O  O22  1  0.370023  0.072801  0.865468  1
  O  O23  1  0.858452  0.927287  0.127963  1
  O  O24  1  0.402045  0.268735  0.678955  1
  O  O25  1  0.931639  0.730018  0.341387  1
  O  O26  1  0.358131  0.418700  0.953820  1
  O  O27  1  0.871390  0.600422  0.068220  1
  O  O28  1  0.423234  0.553130  0.813359  1
  O  O29  1  0.915627  0.444073  0.187334  1
  O  O30  1  0.350617  0.591812  0.386621  1
  O  O31  1  0.881432  0.437383  0.621032  1
  O  O32  1  0.424503  0.410840  0.475120  1
  O  O33  1  0.931373  0.620142  0.532804  1
  O  O34  1  0.868038  0.079627  0.533538  1
  O  O35  1  0.348308  0.893118  0.462105  1
