# generated using pymatgen
data_ZnIn3PSe4
_symmetry_space_group_name_H-M   'P 1'
_cell_length_a   5.90145009
_cell_length_b   7.17677077
_cell_length_c   7.21975459
_cell_angle_alpha   80.17032526
_cell_angle_beta   65.86586022
_cell_angle_gamma   65.82558171
_symmetry_Int_Tables_number   1
_chemical_formula_structural   ZnIn3PSe4
_chemical_formula_sum   'Zn1 In3 P1 Se4'
_cell_volume   254.57869211
_cell_formula_units_Z   1
loop_
 _symmetry_equiv_pos_site_id
 _symmetry_equiv_pos_as_xyz
  1  'x, y, z'
loop_
 _atom_site_type_symbol
 _atom_site_label
 _atom_site_symmetry_multiplicity
 _atom_site_fract_x
 _atom_site_fract_y
 _atom_site_fract_z
 _atom_site_occupancy
  Zn  Zn0  1  0.001557  0.995351  0.995933  1
  In  In1  1  0.399463  0.400734  0.809858  1
  In  In2  1  0.605727  0.604916  0.189446  1
  In  In3  1  0.794309  0.800611  0.605476  1
  P  P4  1  0.426026  0.716256  0.904045  1
  Se  Se5  1  0.636498  0.925077  0.295558  1
  Se  Se6  1  0.879955  0.104310  0.689170  1
  Se  Se7  1  0.054262  0.278757  0.118452  1
  Se  Se8  1  0.252204  0.473988  0.492064  1
