# generated using pymatgen
data_Tb7Ho(Ga3Pd)4
_symmetry_space_group_name_H-M   'P 1'
_cell_length_a   8.96094800
_cell_length_b   8.93852037
_cell_length_c   7.05511700
_cell_angle_alpha   90.00000000
_cell_angle_beta   90.00000000
_cell_angle_gamma   120.08304248
_symmetry_Int_Tables_number   1
_chemical_formula_structural   Tb7Ho(Ga3Pd)4
_chemical_formula_sum   'Tb7 Ho1 Ga12 Pd4'
_cell_volume   488.97924011
_cell_formula_units_Z   1
loop_
 _symmetry_equiv_pos_site_id
 _symmetry_equiv_pos_as_xyz
  1  'x, y, z'
loop_
 _atom_site_type_symbol
 _atom_site_label
 _atom_site_symmetry_multiplicity
 _atom_site_fract_x
 _atom_site_fract_y
 _atom_site_fract_z
 _atom_site_occupancy
  Tb  Tb0  1  0.483110  0.966220  0.750000  1
  Tb  Tb1  1  0.965364  0.482904  0.250000  1
  Tb  Tb2  1  0.034624  0.517304  0.750000  1
  Tb  Tb3  1  0.517540  0.482904  0.250000  1
  Tb  Tb4  1  0.482680  0.517304  0.750000  1
  Tb  Tb5  1  0.999691  0.999384  0.250000  1
  Tb  Tb6  1  0.000409  0.000818  0.750000  1
  Ho  Ho7  1  0.516423  0.032844  0.250000  1
  Ga  Ga8  1  0.167539  0.335078  0.043787  1
  Ga  Ga9  1  0.832545  0.665090  0.956357  1
  Ga  Ga10  1  0.665367  0.833176  0.045067  1
  Ga  Ga11  1  0.832545  0.665090  0.543643  1
  Ga  Ga12  1  0.334611  0.166973  0.955756  1
  Ga  Ga13  1  0.167539  0.335078  0.456213  1
  Ga  Ga14  1  0.167808  0.833176  0.045067  1
  Ga  Ga15  1  0.334611  0.166973  0.544244  1
  Ga  Ga16  1  0.832362  0.166973  0.955756  1
  Ga  Ga17  1  0.665367  0.833176  0.454933  1
  Ga  Ga18  1  0.832362  0.166973  0.544244  1
  Ga  Ga19  1  0.167808  0.833176  0.454933  1
  Pd  Pd20  1  0.334173  0.668347  0.030089  1
  Pd  Pd21  1  0.665674  0.331346  0.972394  1
  Pd  Pd22  1  0.665674  0.331346  0.527606  1
  Pd  Pd23  1  0.334173  0.668347  0.469911  1
