# generated using pymatgen
data_NdEr5Ir7Rh11
_symmetry_space_group_name_H-M   'P 1'
_cell_length_a   5.28749800
_cell_length_b   5.28902865
_cell_length_c   17.46319967
_cell_angle_alpha   90.08649462
_cell_angle_beta   90.00024971
_cell_angle_gamma   119.99266394
_symmetry_Int_Tables_number   1
_chemical_formula_structural   NdEr5Ir7Rh11
_chemical_formula_sum   'Nd1 Er5 Ir7 Rh11'
_cell_volume   422.97239596
_cell_formula_units_Z   1
loop_
 _symmetry_equiv_pos_site_id
 _symmetry_equiv_pos_as_xyz
  1  'x, y, z'
loop_
 _atom_site_type_symbol
 _atom_site_label
 _atom_site_symmetry_multiplicity
 _atom_site_fract_x
 _atom_site_fract_y
 _atom_site_fract_z
 _atom_site_occupancy
  Nd  Nd0  1  0.666763  0.333541  0.249472  1
  Er  Er1  1  0.333406  0.666807  0.542173  1
  Er  Er2  1  0.666428  0.332851  0.040743  1
  Er  Er3  1  0.666789  0.333576  0.459750  1
  Er  Er4  1  0.332701  0.665398  0.958016  1
  Er  Er5  1  0.333196  0.666386  0.748802  1
  Ir  Ir6  1  0.167462  0.334906  0.125029  1
  Ir  Ir7  1  0.831951  0.663904  0.625148  1
  Ir  Ir8  1  0.664539  0.832289  0.124850  1
  Ir  Ir9  1  0.167756  0.832289  0.124847  1
  Ir  Ir10  1  0.832782  0.167728  0.625924  1
  Ir  Ir11  1  0.334945  0.167724  0.625919  1
  Ir  Ir12  1  0.833495  0.666972  0.873943  1
  Rh  Rh13  1  0.834030  0.170224  0.874639  1
  Rh  Rh14  1  0.336204  0.170227  0.874644  1
  Rh  Rh15  1  0.665403  0.832769  0.375658  1
  Rh  Rh16  1  0.167351  0.832752  0.375670  1
  Rh  Rh17  1  0.167512  0.335035  0.375677  1
  Rh  Rh18  1  0.000250  0.000451  0.250052  1
  Rh  Rh19  1  0.998769  0.997513  0.750042  1
  Rh  Rh20  1  0.333141  0.666344  0.250105  1
  Rh  Rh21  1  0.666973  0.333955  0.749932  1
  Rh  Rh22  1  0.997856  0.995719  0.999041  1
  Rh  Rh23  1  0.000295  0.000636  0.499925  1
