# generated using pymatgen
data_Te2PdBr12
_symmetry_space_group_name_H-M   'P 1'
_cell_length_a   9.81195945
_cell_length_b   9.81196051
_cell_length_c   7.18209867
_cell_angle_alpha   72.93284834
_cell_angle_beta   72.93285024
_cell_angle_gamma   79.52700739
_symmetry_Int_Tables_number   1
_chemical_formula_structural   Te2PdBr12
_chemical_formula_sum   'Te2 Pd1 Br12'
_cell_volume   628.42360469
_cell_formula_units_Z   1
loop_
 _symmetry_equiv_pos_site_id
 _symmetry_equiv_pos_as_xyz
  1  'x, y, z'
loop_
 _atom_site_type_symbol
 _atom_site_label
 _atom_site_symmetry_multiplicity
 _atom_site_fract_x
 _atom_site_fract_y
 _atom_site_fract_z
 _atom_site_occupancy
  Te  Te0  1  0.266926  0.266926  0.738290  1
  Te  Te1  1  0.733074  0.733074  0.261710  1
  Pd  Pd2  1  0.000000  0.000000  0.000000  1
  Br  Br3  1  0.956374  0.237917  0.761009  1
  Br  Br4  1  0.237917  0.956374  0.761009  1
  Br  Br5  1  0.043626  0.762083  0.238991  1
  Br  Br6  1  0.762083  0.043626  0.238991  1
  Br  Br7  1  0.214031  0.518467  0.793513  1
  Br  Br8  1  0.518467  0.214031  0.793513  1
  Br  Br9  1  0.785969  0.481533  0.206487  1
  Br  Br10  1  0.481533  0.785969  0.206487  1
  Br  Br11  1  0.118071  0.118071  0.169337  1
  Br  Br12  1  0.881929  0.881929  0.830663  1
  Br  Br13  1  0.656234  0.656234  0.647598  1
  Br  Br14  1  0.343766  0.343766  0.352402  1
