# generated using pymatgen
data_RbVPbO4
_symmetry_space_group_name_H-M   'P 1'
_cell_length_a   6.00279200
_cell_length_b   8.08910300
_cell_length_c   10.46434300
_cell_angle_alpha   90.00000000
_cell_angle_beta   90.00000000
_cell_angle_gamma   90.00000000
_symmetry_Int_Tables_number   1
_chemical_formula_structural   RbVPbO4
_chemical_formula_sum   'Rb4 V4 Pb4 O16'
_cell_volume   508.11922496
_cell_formula_units_Z   4
loop_
 _symmetry_equiv_pos_site_id
 _symmetry_equiv_pos_as_xyz
  1  'x, y, z'
loop_
 _atom_site_type_symbol
 _atom_site_label
 _atom_site_symmetry_multiplicity
 _atom_site_fract_x
 _atom_site_fract_y
 _atom_site_fract_z
 _atom_site_occupancy
  Rb  Rb0  1  0.250000  0.179379  0.905725  1
  Rb  Rb1  1  0.750000  0.820621  0.094275  1
  Rb  Rb2  1  0.250000  0.679379  0.594275  1
  Rb  Rb3  1  0.750000  0.320621  0.405725  1
  V  V4  1  0.750000  0.257121  0.080040  1
  V  V5  1  0.250000  0.742879  0.919960  1
  V  V6  1  0.750000  0.757121  0.419960  1
  V  V7  1  0.250000  0.242879  0.580040  1
  Pb  Pb8  1  0.750000  0.461973  0.779123  1
  Pb  Pb9  1  0.250000  0.538027  0.220877  1
  Pb  Pb10  1  0.750000  0.961973  0.720877  1
  Pb  Pb11  1  0.250000  0.038027  0.279123  1
  O  O12  1  0.250000  0.536331  0.890521  1
  O  O13  1  0.750000  0.463669  0.109479  1
  O  O14  1  0.250000  0.036331  0.609479  1
  O  O15  1  0.750000  0.963669  0.390521  1
  O  O16  1  0.750000  0.224154  0.911641  1
  O  O17  1  0.250000  0.775846  0.088359  1
  O  O18  1  0.750000  0.724154  0.588359  1
  O  O19  1  0.250000  0.275846  0.411641  1
  O  O20  1  0.989815  0.166853  0.146545  1
  O  O21  1  0.489815  0.833147  0.853455  1
  O  O22  1  0.510185  0.666853  0.353455  1
  O  O23  1  0.010185  0.333147  0.646545  1
  O  O24  1  0.010185  0.833147  0.853455  1
  O  O25  1  0.510185  0.166853  0.146545  1
  O  O26  1  0.489815  0.333147  0.646545  1
  O  O27  1  0.989815  0.666853  0.353455  1
