# generated using pymatgen
data_CeTm5TaO12
_symmetry_space_group_name_H-M   'P 1'
_cell_length_a   6.43249116
_cell_length_b   6.41057232
_cell_length_c   6.43899039
_cell_angle_alpha   98.79758227
_cell_angle_beta   98.99463551
_cell_angle_gamma   98.73101634
_symmetry_Int_Tables_number   1
_chemical_formula_structural   CeTm5TaO12
_chemical_formula_sum   'Ce1 Tm5 Ta1 O12'
_cell_volume   254.93366314
_cell_formula_units_Z   1
loop_
 _symmetry_equiv_pos_site_id
 _symmetry_equiv_pos_as_xyz
  1  'x, y, z'
loop_
 _atom_site_type_symbol
 _atom_site_label
 _atom_site_symmetry_multiplicity
 _atom_site_fract_x
 _atom_site_fract_y
 _atom_site_fract_z
 _atom_site_occupancy
  Ce  Ce0  1  0.690007  0.859834  0.394094  1
  Tm  Tm1  1  0.387027  0.685865  0.856815  1
  Tm  Tm2  1  0.862338  0.391293  0.697236  1
  Tm  Tm3  1  0.308237  0.144314  0.614601  1
  Tm  Tm4  1  0.609706  0.307638  0.133664  1
  Tm  Tm5  1  0.141413  0.605256  0.311026  1
  Ta  Ta6  1  0.004789  0.000182  0.004865  1
  O  O7  1  0.429574  0.585835  0.176576  1
  O  O8  1  0.175476  0.432192  0.586149  1
  O  O9  1  0.587884  0.175806  0.429530  1
  O  O10  1  0.567861  0.411531  0.820006  1
  O  O11  1  0.819062  0.568603  0.411658  1
  O  O12  1  0.409605  0.822802  0.568852  1
  O  O13  1  0.928434  0.049658  0.696278  1
  O  O14  1  0.956312  0.305650  0.078286  1
  O  O15  1  0.305796  0.079364  0.958487  1
  O  O16  1  0.079222  0.955924  0.305158  1
  O  O17  1  0.042113  0.695679  0.920221  1
  O  O18  1  0.695145  0.922573  0.036496  1
