# generated using pymatgen
data_Nd2DyIn3(TeO6)3
_symmetry_space_group_name_H-M   'P 1'
_cell_length_a   9.10577821
_cell_length_b   9.10577906
_cell_length_c   5.24677895
_cell_angle_alpha   89.76149365
_cell_angle_beta   90.23850034
_cell_angle_gamma   120.02506864
_symmetry_Int_Tables_number   1
_chemical_formula_structural   Nd2DyIn3(TeO6)3
_chemical_formula_sum   'Nd2 Dy1 In3 Te3 O18'
_cell_volume   376.65418519
_cell_formula_units_Z   1
loop_
 _symmetry_equiv_pos_site_id
 _symmetry_equiv_pos_as_xyz
  1  'x, y, z'
loop_
 _atom_site_type_symbol
 _atom_site_label
 _atom_site_symmetry_multiplicity
 _atom_site_fract_x
 _atom_site_fract_y
 _atom_site_fract_z
 _atom_site_occupancy
  Nd  Nd0  1  0.614554  0.001820  0.001234  1
  Nd  Nd1  1  0.001820  0.614554  0.998766  1
  Dy  Dy2  1  0.379549  0.379549  0.000000  1
  In  In3  1  0.285312  0.999640  0.501637  1
  In  In4  1  0.999640  0.285312  0.498363  1
  In  In5  1  0.714441  0.714441  0.500000  1
  Te  Te6  1  0.002350  0.002350  0.000000  1
  Te  Te7  1  0.334280  0.663375  0.497578  1
  Te  Te8  1  0.663375  0.334280  0.502422  1
  O  O9  1  0.091226  0.888539  0.788670  1
  O  O10  1  0.117662  0.208248  0.791244  1
  O  O11  1  0.799430  0.913537  0.786301  1
  O  O12  1  0.208248  0.117662  0.208756  1
  O  O13  1  0.913537  0.799430  0.213699  1
  O  O14  1  0.888539  0.091226  0.211330  1
  O  O15  1  0.460480  0.591378  0.716396  1
  O  O16  1  0.397148  0.859320  0.713492  1
  O  O17  1  0.132040  0.532477  0.700442  1
  O  O18  1  0.859320  0.397148  0.286508  1
  O  O19  1  0.532477  0.132040  0.299558  1
  O  O20  1  0.591378  0.460480  0.283604  1
  O  O21  1  0.235596  0.769494  0.283411  1
  O  O22  1  0.234309  0.461436  0.277918  1
  O  O23  1  0.541505  0.770854  0.293438  1
  O  O24  1  0.461436  0.234309  0.722082  1
  O  O25  1  0.770854  0.541505  0.706562  1
  O  O26  1  0.769494  0.235596  0.716589  1
