# generated using pymatgen
data_Li4Ni9P7Rh
_symmetry_space_group_name_H-M   'P 1'
_cell_length_a   9.06492513
_cell_length_b   9.02630258
_cell_length_c   3.61121500
_cell_angle_alpha   90.00000000
_cell_angle_beta   90.00000000
_cell_angle_gamma   120.06260333
_symmetry_Int_Tables_number   1
_chemical_formula_structural   Li4Ni9P7Rh
_chemical_formula_sum   'Li4 Ni9 P7 Rh1'
_cell_volume   255.73123379
_cell_formula_units_Z   1
loop_
 _symmetry_equiv_pos_site_id
 _symmetry_equiv_pos_as_xyz
  1  'x, y, z'
loop_
 _atom_site_type_symbol
 _atom_site_label
 _atom_site_symmetry_multiplicity
 _atom_site_fract_x
 _atom_site_fract_y
 _atom_site_fract_z
 _atom_site_occupancy
  Li  Li0  1  0.893329  0.119815  0.500000  1
  Li  Li1  1  0.223837  0.102734  0.500000  1
  Li  Li2  1  0.331154  0.662438  0.000000  1
  Li  Li3  1  0.662069  0.328344  0.500000  1
  Ni  Ni4  1  0.713430  0.884132  0.000000  1
  Ni  Ni5  1  0.160653  0.276370  0.000000  1
  Ni  Ni6  1  0.123500  0.834832  0.000000  1
  Ni  Ni7  1  0.631948  0.569454  0.000000  1
  Ni  Ni8  1  0.943606  0.373369  0.000000  1
  Ni  Ni9  1  0.428976  0.057757  0.000000  1
  Ni  Ni10  1  0.563290  0.953347  0.500000  1
  Ni  Ni11  1  0.389305  0.438900  0.500000  1
  Ni  Ni12  1  0.053750  0.611155  0.500000  1
  P  P13  1  0.585870  0.711280  0.500000  1
  P  P14  1  0.126236  0.412939  0.500000  1
  P  P15  1  0.291469  0.873004  0.500000  1
  P  P16  1  0.995203  0.992807  0.000000  1
  P  P17  1  0.879438  0.578331  0.000000  1
  P  P18  1  0.698474  0.125170  0.000000  1
  P  P19  1  0.422823  0.301943  0.000000  1
  Rh  Rh20  1  0.881639  0.791877  0.500000  1
