# generated using pymatgen
data_Y5ThCoNi
_symmetry_space_group_name_H-M   'P 1'
_cell_length_a   6.33879300
_cell_length_b   6.91927700
_cell_length_c   9.62180600
_cell_angle_alpha   90.00000000
_cell_angle_beta   90.00000000
_cell_angle_gamma   90.00000000
_symmetry_Int_Tables_number   1
_chemical_formula_structural   Y5ThCoNi
_chemical_formula_sum   'Y10 Th2 Co2 Ni2'
_cell_volume   422.01110849
_cell_formula_units_Z   2
loop_
 _symmetry_equiv_pos_site_id
 _symmetry_equiv_pos_as_xyz
  1  'x, y, z'
loop_
 _atom_site_type_symbol
 _atom_site_label
 _atom_site_symmetry_multiplicity
 _atom_site_fract_x
 _atom_site_fract_y
 _atom_site_fract_z
 _atom_site_occupancy
  Y  Y0  1  0.327891  0.675480  0.069492  1
  Y  Y1  1  0.172109  0.175480  0.430508  1
  Y  Y2  1  0.675629  0.323563  0.567398  1
  Y  Y3  1  0.824371  0.823563  0.932602  1
  Y  Y4  1  0.675629  0.323563  0.932602  1
  Y  Y5  1  0.824371  0.823563  0.567398  1
  Y  Y6  1  0.327891  0.675480  0.430508  1
  Y  Y7  1  0.172109  0.175480  0.069492  1
  Y  Y8  1  0.143753  0.465317  0.750000  1
  Y  Y9  1  0.356247  0.965317  0.750000  1
  Th  Th10  1  0.847351  0.552117  0.250000  1
  Th  Th11  1  0.652649  0.052117  0.250000  1
  Co  Co12  1  0.028437  0.872112  0.250000  1
  Co  Co13  1  0.471563  0.372112  0.250000  1
  Ni  Ni14  1  0.945378  0.112369  0.750000  1
  Ni  Ni15  1  0.554622  0.612369  0.750000  1
