# generated using pymatgen
data_Ca21Al8Sn6Te
_symmetry_space_group_name_H-M   'P 1'
_cell_length_a   11.54540249
_cell_length_b   11.54540357
_cell_length_c   11.54540200
_cell_angle_alpha   60.00000451
_cell_angle_beta   60.00000142
_cell_angle_gamma   60.00000238
_symmetry_Int_Tables_number   1
_chemical_formula_structural   Ca21Al8Sn6Te
_chemical_formula_sum   'Ca21 Al8 Sn6 Te1'
_cell_volume   1088.20892865
_cell_formula_units_Z   1
loop_
 _symmetry_equiv_pos_site_id
 _symmetry_equiv_pos_as_xyz
  1  'x, y, z'
loop_
 _atom_site_type_symbol
 _atom_site_label
 _atom_site_symmetry_multiplicity
 _atom_site_fract_x
 _atom_site_fract_y
 _atom_site_fract_z
 _atom_site_occupancy
  Ca  Ca0  1  0.871567  0.871567  0.385296  1
  Ca  Ca1  1  0.614704  0.128433  0.128433  1
  Ca  Ca2  1  0.871567  0.385296  0.871567  1
  Ca  Ca3  1  0.128433  0.128433  0.128433  1
  Ca  Ca4  1  0.385296  0.871567  0.871567  1
  Ca  Ca5  1  0.871567  0.871567  0.871567  1
  Ca  Ca6  1  0.177354  0.822646  0.500000  1
  Ca  Ca7  1  0.822646  0.500000  0.500000  1
  Ca  Ca8  1  0.128433  0.128433  0.614704  1
  Ca  Ca9  1  0.822646  0.177354  0.500000  1
  Ca  Ca10  1  0.177354  0.500000  0.500000  1
  Ca  Ca11  1  0.128433  0.614704  0.128433  1
  Ca  Ca12  1  0.500000  0.500000  0.177354  1
  Ca  Ca13  1  0.500000  0.177354  0.822646  1
  Ca  Ca14  1  0.500000  0.822646  0.177354  1
  Ca  Ca15  1  0.500000  0.500000  0.822646  1
  Ca  Ca16  1  0.500000  0.177354  0.500000  1
  Ca  Ca17  1  0.177354  0.500000  0.822646  1
  Ca  Ca18  1  0.000000  0.000000  0.000000  1
  Ca  Ca19  1  0.500000  0.822646  0.500000  1
  Ca  Ca20  1  0.822646  0.500000  0.177354  1
  Al  Al21  1  0.691431  0.925708  0.691431  1
  Al  Al22  1  0.691431  0.691431  0.925708  1
  Al  Al23  1  0.691431  0.691431  0.691431  1
  Al  Al24  1  0.308569  0.074292  0.308569  1
  Al  Al25  1  0.925708  0.691431  0.691431  1
  Al  Al26  1  0.308569  0.308569  0.074292  1
  Al  Al27  1  0.074292  0.308569  0.308569  1
  Al  Al28  1  0.308569  0.308569  0.308569  1
  Sn  Sn29  1  0.785960  0.214040  0.785960  1
  Sn  Sn30  1  0.785960  0.214040  0.214040  1
  Sn  Sn31  1  0.214040  0.785960  0.214040  1
  Sn  Sn32  1  0.214040  0.785960  0.785960  1
  Sn  Sn33  1  0.785960  0.785960  0.214040  1
  Sn  Sn34  1  0.214040  0.214040  0.785960  1
  Te  Te35  1  0.500000  0.500000  0.500000  1
