# generated using pymatgen
data_Ca3LuAl18IrPd5
_symmetry_space_group_name_H-M   'P 1'
_cell_length_a   7.63981387
_cell_length_b   7.64258038
_cell_length_c   9.50139259
_cell_angle_alpha   89.95670002
_cell_angle_beta   90.01643607
_cell_angle_gamma   119.54001166
_symmetry_Int_Tables_number   1
_chemical_formula_structural   Ca3LuAl18IrPd5
_chemical_formula_sum   'Ca3 Lu1 Al18 Ir1 Pd5'
_cell_volume   482.65296338
_cell_formula_units_Z   1
loop_
 _symmetry_equiv_pos_site_id
 _symmetry_equiv_pos_as_xyz
  1  'x, y, z'
loop_
 _atom_site_type_symbol
 _atom_site_label
 _atom_site_symmetry_multiplicity
 _atom_site_fract_x
 _atom_site_fract_y
 _atom_site_fract_z
 _atom_site_occupancy
  Ca  Ca0  1  0.995010  0.670145  0.250992  1
  Ca  Ca1  1  0.004233  0.329326  0.749201  1
  Ca  Ca2  1  0.671377  0.995380  0.250750  1
  Lu  Lu3  1  0.328600  0.003287  0.748937  1
  Al  Al4  1  0.129394  0.129337  0.252273  1
  Al  Al5  1  0.873204  0.870807  0.748108  1
  Al  Al6  1  0.000819  0.335044  0.077222  1
  Al  Al7  1  0.000568  0.666272  0.920650  1
  Al  Al8  1  0.001393  0.669336  0.576538  1
  Al  Al9  1  0.331072  0.999218  0.425495  1
  Al  Al10  1  0.999145  0.330670  0.425466  1
  Al  Al11  1  0.668299  0.000925  0.576342  1
  Al  Al12  1  0.663674  0.999454  0.920997  1
  Al  Al13  1  0.334966  0.000534  0.076547  1
  Al  Al14  1  0.329465  0.328730  0.553343  1
  Al  Al15  1  0.671405  0.671635  0.448973  1
  Al  Al16  1  0.666604  0.666594  0.053124  1
  Al  Al17  1  0.333149  0.332028  0.944280  1
  Al  Al18  1  0.340741  0.546028  0.250735  1
  Al  Al19  1  0.655410  0.451244  0.749279  1
  Al  Al20  1  0.544724  0.340493  0.250635  1
  Al  Al21  1  0.454974  0.662372  0.749410  1
  Ir  Ir22  1  0.002447  0.000638  0.502064  1
  Pd  Pd23  1  0.670823  0.327774  0.998994  1
  Pd  Pd24  1  0.328306  0.672307  0.998589  1
  Pd  Pd25  1  0.328732  0.672240  0.501506  1
  Pd  Pd26  1  0.670092  0.327831  0.501085  1
  Pd  Pd27  1  0.001374  0.000351  0.998463  1
