# generated using pymatgen
data_Pr3LuO6
_symmetry_space_group_name_H-M   'P 1'
_cell_length_a   6.96834301
_cell_length_b   6.96834260
_cell_length_c   6.96834297
_cell_angle_alpha   92.11785710
_cell_angle_beta   92.11785426
_cell_angle_gamma   92.11783789
_symmetry_Int_Tables_number   1
_chemical_formula_structural   Pr3LuO6
_chemical_formula_sum   'Pr6 Lu2 O12'
_cell_volume   337.65644088
_cell_formula_units_Z   2
loop_
 _symmetry_equiv_pos_site_id
 _symmetry_equiv_pos_as_xyz
  1  'x, y, z'
loop_
 _atom_site_type_symbol
 _atom_site_label
 _atom_site_symmetry_multiplicity
 _atom_site_fract_x
 _atom_site_fract_y
 _atom_site_fract_z
 _atom_site_occupancy
  Pr  Pr0  1  0.559256  0.065616  0.253292  1
  Pr  Pr1  1  0.065616  0.253292  0.559256  1
  Pr  Pr2  1  0.746708  0.440744  0.934384  1
  Pr  Pr3  1  0.253292  0.559256  0.065616  1
  Pr  Pr4  1  0.934384  0.746708  0.440744  1
  Pr  Pr5  1  0.440744  0.934384  0.746708  1
  Lu  Lu6  1  0.000000  0.000000  0.000000  1
  Lu  Lu7  1  0.500000  0.500000  0.500000  1
  O  O8  1  0.695746  0.085502  0.934548  1
  O  O9  1  0.914498  0.065452  0.304254  1
  O  O10  1  0.407289  0.195628  0.536368  1
  O  O11  1  0.065452  0.304254  0.914498  1
  O  O12  1  0.536368  0.407289  0.195628  1
  O  O13  1  0.804372  0.463632  0.592711  1
  O  O14  1  0.195628  0.536368  0.407289  1
  O  O15  1  0.463632  0.592711  0.804372  1
  O  O16  1  0.934548  0.695746  0.085502  1
  O  O17  1  0.592711  0.804372  0.463632  1
  O  O18  1  0.085502  0.934548  0.695746  1
  O  O19  1  0.304254  0.914498  0.065452  1
