# generated using pymatgen
data_Th4Ga10PtAu5
_symmetry_space_group_name_H-M   'P 1'
_cell_length_a   8.74112845
_cell_length_b   8.72386756
_cell_length_c   8.72386500
_cell_angle_alpha   137.90587843
_cell_angle_beta   105.24935027
_cell_angle_gamma   89.68061854
_symmetry_Int_Tables_number   1
_chemical_formula_structural   Th4Ga10PtAu5
_chemical_formula_sum   'Th4 Ga10 Pt1 Au5'
_cell_volume   411.34619505
_cell_formula_units_Z   1
loop_
 _symmetry_equiv_pos_site_id
 _symmetry_equiv_pos_as_xyz
  1  'x, y, z'
loop_
 _atom_site_type_symbol
 _atom_site_label
 _atom_site_symmetry_multiplicity
 _atom_site_fract_x
 _atom_site_fract_y
 _atom_site_fract_z
 _atom_site_occupancy
  Th  Th0  1  0.861932  0.629597  0.232335  1
  Th  Th1  1  0.134884  0.370861  0.764024  1
  Th  Th2  1  0.396419  0.129149  0.267270  1
  Th  Th3  1  0.603277  0.869750  0.733526  1
  Ga  Ga4  1  0.500391  0.747437  0.241866  1
  Ga  Ga5  1  0.500391  0.258525  0.752954  1
  Ga  Ga6  1  0.228984  0.977712  0.749588  1
  Ga  Ga7  1  0.765919  0.522708  0.752391  1
  Ga  Ga8  1  0.765919  0.013528  0.243212  1
  Ga  Ga9  1  0.228984  0.479396  0.251273  1
  Ga  Ga10  1  0.033958  0.884743  0.149215  1
  Ga  Ga11  1  0.966182  0.114591  0.851591  1
  Ga  Ga12  1  0.736674  0.384715  0.351960  1
  Ga  Ga13  1  0.268823  0.615084  0.653739  1
  Pt  Pt14  1  0.520782  0.636573  0.884209  1
  Au  Au15  1  0.001277  0.747775  0.749262  1
  Au  Au16  1  0.001277  0.252015  0.253502  1
  Au  Au17  1  0.251006  0.866073  0.384936  1
  Au  Au18  1  0.751649  0.134917  0.616730  1
  Au  Au19  1  0.481270  0.364855  0.116414  1
