# generated using pymatgen
data_Tb5Er(CI5)2
_symmetry_space_group_name_H-M   'P 1'
_cell_length_a   7.67498619
_cell_length_b   9.53725500
_cell_length_c   9.63338014
_cell_angle_alpha   106.88973523
_cell_angle_beta   96.29724717
_cell_angle_gamma   104.10552575
_symmetry_Int_Tables_number   1
_chemical_formula_structural   Tb5Er(CI5)2
_chemical_formula_sum   'Tb5 Er1 C2 I10'
_cell_volume   641.89075654
_cell_formula_units_Z   1
loop_
 _symmetry_equiv_pos_site_id
 _symmetry_equiv_pos_as_xyz
  1  'x, y, z'
loop_
 _atom_site_type_symbol
 _atom_site_label
 _atom_site_symmetry_multiplicity
 _atom_site_fract_x
 _atom_site_fract_y
 _atom_site_fract_z
 _atom_site_occupancy
  Tb  Tb0  1  0.030600  0.743545  0.926308  1
  Tb  Tb1  1  0.104491  0.038572  0.782223  1
  Tb  Tb2  1  0.969303  0.256818  0.073721  1
  Tb  Tb3  1  0.895110  0.961309  0.217555  1
  Tb  Tb4  1  0.372152  0.130821  0.176343  1
  Er  Er5  1  0.628856  0.870141  0.824971  1
  C  C6  1  0.089717  0.029637  0.040576  1
  C  C7  1  0.907457  0.969907  0.958393  1
  I  I8  1  0.199080  0.738381  0.651804  1
  I  I9  1  0.911456  0.635293  0.177361  1
  I  I10  1  0.086587  0.364262  0.821883  1
  I  I11  1  0.745688  0.915657  0.547019  1
  I  I12  1  0.252607  0.082746  0.455884  1
  I  I13  1  0.657290  0.552767  0.729230  1
  I  I14  1  0.458016  0.809932  0.091008  1
  I  I15  1  0.805347  0.262509  0.349838  1
  I  I16  1  0.342289  0.450979  0.270659  1
  I  I17  1  0.543954  0.186722  0.905226  1
