# generated using pymatgen
data_HoEr8Th3Ru4
_symmetry_space_group_name_H-M   'P 1'
_cell_length_a   6.32034730
_cell_length_b   7.20628043
_cell_length_c   9.46139840
_cell_angle_alpha   90.00960312
_cell_angle_beta   90.03171458
_cell_angle_gamma   90.53816514
_symmetry_Int_Tables_number   1
_chemical_formula_structural   HoEr8Th3Ru4
_chemical_formula_sum   'Ho1 Er8 Th3 Ru4'
_cell_volume   430.91161560
_cell_formula_units_Z   1
loop_
 _symmetry_equiv_pos_site_id
 _symmetry_equiv_pos_as_xyz
  1  'x, y, z'
loop_
 _atom_site_type_symbol
 _atom_site_label
 _atom_site_symmetry_multiplicity
 _atom_site_fract_x
 _atom_site_fract_y
 _atom_site_fract_z
 _atom_site_occupancy
  Ho  Ho0  1  0.334537  0.677436  0.063605  1
  Er  Er1  1  0.165194  0.175180  0.435459  1
  Er  Er2  1  0.667924  0.323710  0.567444  1
  Er  Er3  1  0.829140  0.824225  0.930628  1
  Er  Er4  1  0.668033  0.323610  0.932447  1
  Er  Er5  1  0.829279  0.824147  0.569286  1
  Er  Er6  1  0.334640  0.677173  0.436453  1
  Er  Er7  1  0.165018  0.175241  0.064512  1
  Er  Er8  1  0.361388  0.963279  0.749727  1
  Th  Th9  1  0.850990  0.547002  0.250152  1
  Th  Th10  1  0.646420  0.045199  0.250147  1
  Th  Th11  1  0.150685  0.453167  0.749774  1
  Ru  Ru12  1  0.035246  0.871647  0.250449  1
  Ru  Ru13  1  0.466442  0.369618  0.250406  1
  Ru  Ru14  1  0.962034  0.131469  0.750055  1
  Ru  Ru15  1  0.533030  0.617895  0.749456  1
