# generated using pymatgen
data_Sm4TmP12Ir11Ru8
_symmetry_space_group_name_H-M   'P 1'
_cell_length_a   12.66491301
_cell_length_b   12.64049219
_cell_length_c   3.99369500
_cell_angle_alpha   90.00000000
_cell_angle_beta   90.00000000
_cell_angle_gamma   120.02963219
_symmetry_Int_Tables_number   1
_chemical_formula_structural   Sm4TmP12Ir11Ru8
_chemical_formula_sum   'Sm4 Tm1 P12 Ir11 Ru8'
_cell_volume   553.53102401
_cell_formula_units_Z   1
loop_
 _symmetry_equiv_pos_site_id
 _symmetry_equiv_pos_as_xyz
  1  'x, y, z'
loop_
 _atom_site_type_symbol
 _atom_site_label
 _atom_site_symmetry_multiplicity
 _atom_site_fract_x
 _atom_site_fract_y
 _atom_site_fract_z
 _atom_site_occupancy
  Sm  Sm0  1  0.667190  0.331668  0.000000  1
  Sm  Sm1  1  0.812988  0.001244  0.500000  1
  Sm  Sm2  1  0.185159  0.186149  0.500000  1
  Sm  Sm3  1  0.998526  0.813207  0.500000  1
  Tm  Tm4  1  0.334628  0.669271  0.000000  1
  P  P5  1  0.632806  0.999633  0.000000  1
  P  P6  1  0.365182  0.364159  0.000000  1
  P  P7  1  0.999219  0.634067  0.000000  1
  P  P8  1  0.688805  0.518298  0.500000  1
  P  P9  1  0.830820  0.307464  0.500000  1
  P  P10  1  0.316089  0.832188  0.500000  1
  P  P11  1  0.517911  0.692646  0.500000  1
  P  P12  1  0.179524  0.998962  0.000000  1
  P  P13  1  0.817004  0.818276  0.000000  1
  P  P14  1  0.998302  0.183197  0.000000  1
  P  P15  1  0.479143  0.166605  0.500000  1
  P  P16  1  0.172871  0.483358  0.500000  1
  Ir  Ir17  1  0.621391  0.801988  0.000000  1
  Ir  Ir18  1  0.184606  0.379505  0.000000  1
  Ir  Ir19  1  0.375713  0.179930  0.000000  1
  Ir  Ir20  1  0.193126  0.817503  0.000000  1
  Ir  Ir21  1  0.802911  0.621471  0.000000  1
  Ir  Ir22  1  0.872814  0.508715  0.500000  1
  Ir  Ir23  1  0.490266  0.360766  0.500000  1
  Ir  Ir24  1  0.636848  0.128003  0.500000  1
  Ir  Ir25  1  0.134725  0.640414  0.500000  1
  Ir  Ir26  1  0.363842  0.494642  0.500000  1
  Ir  Ir27  1  0.998647  0.000157  0.000000  1
  Ru  Ru28  1  0.509568  0.870889  0.500000  1
  Ru  Ru29  1  0.709540  0.709508  0.500000  1
  Ru  Ru30  1  0.003930  0.291533  0.500000  1
  Ru  Ru31  1  0.449478  0.997741  0.000000  1
  Ru  Ru32  1  0.546522  0.545351  0.000000  1
  Ru  Ru33  1  0.003454  0.455216  0.000000  1
  Ru  Ru34  1  0.819739  0.197927  0.000000  1
  Ru  Ru35  1  0.286712  0.998345  0.500000  1
