# generated using pymatgen
data_Li8PrNd7Sn7Bi
_symmetry_space_group_name_H-M   'P 1'
_cell_length_a   9.58839200
_cell_length_b   9.58699764
_cell_length_c   7.64547941
_cell_angle_alpha   90.04328642
_cell_angle_beta   90.00000000
_cell_angle_gamma   120.00480443
_symmetry_Int_Tables_number   1
_chemical_formula_structural   Li8PrNd7Sn7Bi
_chemical_formula_sum   'Li8 Pr1 Nd7 Sn7 Bi1'
_cell_volume   608.61487575
_cell_formula_units_Z   1
loop_
 _symmetry_equiv_pos_site_id
 _symmetry_equiv_pos_as_xyz
  1  'x, y, z'
loop_
 _atom_site_type_symbol
 _atom_site_label
 _atom_site_symmetry_multiplicity
 _atom_site_fract_x
 _atom_site_fract_y
 _atom_site_fract_z
 _atom_site_occupancy
  Li  Li0  1  0.166754  0.333509  0.284783  1
  Li  Li1  1  0.167526  0.833396  0.287761  1
  Li  Li2  1  0.665870  0.833396  0.287761  1
  Li  Li3  1  0.833159  0.666318  0.786921  1
  Li  Li4  1  0.829905  0.165113  0.790101  1
  Li  Li5  1  0.335208  0.165113  0.790101  1
  Li  Li6  1  0.334789  0.669580  0.666120  1
  Li  Li7  1  0.666386  0.332770  0.167847  1
  Pr  Pr8  1  0.512287  0.024574  0.494655  1
  Nd  Nd9  1  0.516881  0.490791  0.492070  1
  Nd  Nd10  1  0.973909  0.490791  0.492070  1
  Nd  Nd11  1  0.487681  0.975362  0.995693  1
  Nd  Nd12  1  0.492764  0.514177  0.997185  1
  Nd  Nd13  1  0.021414  0.514177  0.997185  1
  Nd  Nd14  1  0.997554  0.995107  0.496873  1
  Nd  Nd15  1  0.998003  0.996005  0.001437  1
  Sn  Sn16  1  0.165924  0.832681  0.729923  1
  Sn  Sn17  1  0.666756  0.832681  0.729923  1
  Sn  Sn18  1  0.833312  0.666623  0.230487  1
  Sn  Sn19  1  0.834275  0.167382  0.229348  1
  Sn  Sn20  1  0.333108  0.167382  0.229348  1
  Sn  Sn21  1  0.332665  0.665332  0.266031  1
  Sn  Sn22  1  0.667074  0.334147  0.766898  1
  Bi  Bi23  1  0.166795  0.333591  0.731450  1
