# generated using pymatgen
data_CuSb12IrRu2
_symmetry_space_group_name_H-M   'P 1'
_cell_length_a   8.12009333
_cell_length_b   8.12435885
_cell_length_c   9.38918412
_cell_angle_alpha   54.75236053
_cell_angle_beta   54.90200522
_cell_angle_gamma   70.68285993
_symmetry_Int_Tables_number   1
_chemical_formula_structural   CuSb12IrRu2
_chemical_formula_sum   'Cu1 Sb12 Ir1 Ru2'
_cell_volume   413.87104733
_cell_formula_units_Z   1
loop_
 _symmetry_equiv_pos_site_id
 _symmetry_equiv_pos_as_xyz
  1  'x, y, z'
loop_
 _atom_site_type_symbol
 _atom_site_label
 _atom_site_symmetry_multiplicity
 _atom_site_fract_x
 _atom_site_fract_y
 _atom_site_fract_z
 _atom_site_occupancy
  Cu  Cu0  1  0.500000  0.000000  0.500000  1
  Sb  Sb1  1  0.156597  0.155732  0.177135  1
  Sb  Sb2  1  0.843403  0.844268  0.822865  1
  Sb  Sb3  1  0.846794  0.844475  0.499878  1
  Sb  Sb4  1  0.153206  0.155525  0.500122  1
  Sb  Sb5  1  0.818631  0.507194  0.334305  1
  Sb  Sb6  1  0.181369  0.492806  0.665695  1
  Sb  Sb7  1  0.502577  0.811871  0.338834  1
  Sb  Sb8  1  0.497423  0.188129  0.661166  1
  Sb  Sb9  1  0.661191  0.336147  0.845276  1
  Sb  Sb10  1  0.338809  0.663853  0.154724  1
  Sb  Sb11  1  0.660645  0.345952  0.151063  1
  Sb  Sb12  1  0.339355  0.654048  0.848937  1
  Ir  Ir13  1  0.000000  0.500000  0.500000  1
  Ru  Ru14  1  0.000000  0.500000  0.000000  1
  Ru  Ru15  1  0.500000  0.000000  0.000000  1
