# generated using pymatgen
data_U6SiGe
_symmetry_space_group_name_H-M   'P 1'
_cell_length_a   6.04182120
_cell_length_b   6.04182123
_cell_length_c   6.04182092
_cell_angle_alpha   120.30825266
_cell_angle_beta   120.30825526
_cell_angle_gamma   89.46691585
_symmetry_Int_Tables_number   1
_chemical_formula_structural   U6SiGe
_chemical_formula_sum   'U6 Si1 Ge1'
_cell_volume   155.21725011
_cell_formula_units_Z   1
loop_
 _symmetry_equiv_pos_site_id
 _symmetry_equiv_pos_as_xyz
  1  'x, y, z'
loop_
 _atom_site_type_symbol
 _atom_site_label
 _atom_site_symmetry_multiplicity
 _atom_site_fract_x
 _atom_site_fract_y
 _atom_site_fract_z
 _atom_site_occupancy
  U  U0  1  0.750000  0.250000  0.500000  1
  U  U1  1  0.250000  0.750000  0.500000  1
  U  U2  1  0.220141  0.720141  0.940281  1
  U  U3  1  0.779859  0.279859  0.059719  1
  U  U4  1  0.720141  0.779859  0.500000  1
  U  U5  1  0.279859  0.220141  0.500000  1
  Si  Si6  1  0.250000  0.250000  0.000000  1
  Ge  Ge7  1  0.750000  0.750000  0.000000  1
