# generated using pymatgen
data_Pr2In(SiAg)2
_symmetry_space_group_name_H-M   'P 1'
_cell_length_a   9.88522700
_cell_length_b   9.88522736
_cell_length_c   7.08583700
_cell_angle_alpha   90.00000000
_cell_angle_beta   90.00000000
_cell_angle_gamma   153.00985684
_symmetry_Int_Tables_number   1
_chemical_formula_structural   Pr2In(SiAg)2
_chemical_formula_sum   'Pr4 In2 Si4 Ag4'
_cell_volume   314.24224384
_cell_formula_units_Z   2
loop_
 _symmetry_equiv_pos_site_id
 _symmetry_equiv_pos_as_xyz
  1  'x, y, z'
loop_
 _atom_site_type_symbol
 _atom_site_label
 _atom_site_symmetry_multiplicity
 _atom_site_fract_x
 _atom_site_fract_y
 _atom_site_fract_z
 _atom_site_occupancy
  Pr  Pr0  1  0.546197  0.453803  0.250000  1
  Pr  Pr1  1  0.453803  0.546197  0.750000  1
  Pr  Pr2  1  0.349320  0.650680  0.250000  1
  Pr  Pr3  1  0.650680  0.349320  0.750000  1
  In  In4  1  0.721754  0.278246  0.250000  1
  In  In5  1  0.278246  0.721754  0.750000  1
  Si  Si6  1  0.945479  0.054521  0.079618  1
  Si  Si7  1  0.054521  0.945479  0.920382  1
  Si  Si8  1  0.054521  0.945479  0.579618  1
  Si  Si9  1  0.945479  0.054521  0.420382  1
  Ag  Ag10  1  0.823387  0.176613  0.553937  1
  Ag  Ag11  1  0.176613  0.823387  0.446063  1
  Ag  Ag12  1  0.176613  0.823387  0.053937  1
  Ag  Ag13  1  0.823387  0.176613  0.946063  1
