# generated using pymatgen
data_Ti2Be9Mo
_symmetry_space_group_name_H-M   'P 1'
_cell_length_a   7.44162067
_cell_length_b   7.44162040
_cell_length_c   7.44162007
_cell_angle_alpha   34.87929857
_cell_angle_beta   34.87929739
_cell_angle_gamma   34.87929248
_symmetry_Int_Tables_number   1
_chemical_formula_structural   Ti2Be9Mo
_chemical_formula_sum   'Ti2 Be9 Mo1'
_cell_volume   120.30120743
_cell_formula_units_Z   1
loop_
 _symmetry_equiv_pos_site_id
 _symmetry_equiv_pos_as_xyz
  1  'x, y, z'
loop_
 _atom_site_type_symbol
 _atom_site_label
 _atom_site_symmetry_multiplicity
 _atom_site_fract_x
 _atom_site_fract_y
 _atom_site_fract_z
 _atom_site_occupancy
  Ti  Ti0  1  0.143268  0.143268  0.143268  1
  Ti  Ti1  1  0.995870  0.995870  0.995870  1
  Be  Be2  1  0.415224  0.921520  0.415224  1
  Be  Be3  1  0.415224  0.415224  0.921520  1
  Be  Be4  1  0.921520  0.415224  0.415224  1
  Be  Be5  1  0.586703  0.075584  0.586703  1
  Be  Be6  1  0.586703  0.586703  0.075584  1
  Be  Be7  1  0.075584  0.586703  0.586703  1
  Be  Be8  1  0.666685  0.666685  0.666685  1
  Be  Be9  1  0.336173  0.336173  0.336173  1
  Be  Be10  1  0.499634  0.499634  0.499634  1
  Mo  Mo11  1  0.857414  0.857414  0.857414  1
