# generated using pymatgen
data_Zr16TcNi4Os3
_symmetry_space_group_name_H-M   'P 1'
_cell_length_a   8.70996956
_cell_length_b   8.70996952
_cell_length_c   8.72210442
_cell_angle_alpha   60.04601210
_cell_angle_beta   60.04601493
_cell_angle_gamma   60.00000722
_symmetry_Int_Tables_number   1
_chemical_formula_structural   Zr16TcNi4Os3
_chemical_formula_sum   'Zr16 Tc1 Ni4 Os3'
_cell_volume   468.21064103
_cell_formula_units_Z   1
loop_
 _symmetry_equiv_pos_site_id
 _symmetry_equiv_pos_as_xyz
  1  'x, y, z'
loop_
 _atom_site_type_symbol
 _atom_site_label
 _atom_site_symmetry_multiplicity
 _atom_site_fract_x
 _atom_site_fract_y
 _atom_site_fract_z
 _atom_site_occupancy
  Zr  Zr0  1  0.188227  0.603825  0.604126  1
  Zr  Zr1  1  0.603825  0.188227  0.604126  1
  Zr  Zr2  1  0.603825  0.603825  0.604126  1
  Zr  Zr3  1  0.604648  0.604648  0.186058  1
  Zr  Zr4  1  0.454270  0.454270  0.045559  1
  Zr  Zr5  1  0.046744  0.046744  0.453615  1
  Zr  Zr6  1  0.454270  0.045900  0.045559  1
  Zr  Zr7  1  0.046744  0.452899  0.453615  1
  Zr  Zr8  1  0.045900  0.454270  0.045559  1
  Zr  Zr9  1  0.452899  0.046744  0.453615  1
  Zr  Zr10  1  0.815360  0.815360  0.185845  1
  Zr  Zr11  1  0.184278  0.184278  0.816072  1
  Zr  Zr12  1  0.815360  0.183437  0.185845  1
  Zr  Zr13  1  0.184278  0.815371  0.816072  1
  Zr  Zr14  1  0.183437  0.815360  0.185845  1
  Zr  Zr15  1  0.815371  0.184278  0.816072  1
  Tc  Tc16  1  0.831849  0.831849  0.504452  1
  Ni  Ni17  1  0.825638  0.391931  0.390500  1
  Ni  Ni18  1  0.391931  0.825638  0.390500  1
  Ni  Ni19  1  0.391931  0.391931  0.390500  1
  Ni  Ni20  1  0.391194  0.391194  0.826418  1
  Os  Os21  1  0.503146  0.832440  0.831975  1
  Os  Os22  1  0.832440  0.503146  0.831975  1
  Os  Os23  1  0.832440  0.832440  0.831975  1
