# generated using pymatgen
data_Co4Si4Mo3W
_symmetry_space_group_name_H-M   'P 1'
_cell_length_a   3.61939100
_cell_length_b   6.03634200
_cell_length_c   6.92013377
_cell_angle_alpha   90.03227849
_cell_angle_beta   90.00000000
_cell_angle_gamma   90.00000000
_symmetry_Int_Tables_number   1
_chemical_formula_structural   Co4Si4Mo3W
_chemical_formula_sum   'Co4 Si4 Mo3 W1'
_cell_volume   151.19024137
_cell_formula_units_Z   1
loop_
 _symmetry_equiv_pos_site_id
 _symmetry_equiv_pos_as_xyz
  1  'x, y, z'
loop_
 _atom_site_type_symbol
 _atom_site_label
 _atom_site_symmetry_multiplicity
 _atom_site_fract_x
 _atom_site_fract_y
 _atom_site_fract_z
 _atom_site_occupancy
  Co  Co0  1  0.250000  0.648017  0.060922  1
  Co  Co1  1  0.750000  0.354480  0.940435  1
  Co  Co2  1  0.250000  0.142854  0.437850  1
  Co  Co3  1  0.750000  0.855894  0.558651  1
  Si  Si4  1  0.750000  0.726387  0.875046  1
  Si  Si5  1  0.250000  0.770100  0.379195  1
  Si  Si6  1  0.750000  0.227311  0.622415  1
  Si  Si7  1  0.250000  0.275910  0.122892  1
  Mo  Mo8  1  0.250000  0.026159  0.828489  1
  Mo  Mo9  1  0.750000  0.473391  0.326536  1
  Mo  Mo10  1  0.250000  0.524962  0.674217  1
  W  W11  1  0.750000  0.974535  0.173351  1
