# generated using pymatgen
data_Dy2Y3Ho(Si3Ru)8
_symmetry_space_group_name_H-M   'P 1'
_cell_length_a   10.13383145
_cell_length_b   10.13383140
_cell_length_c   8.15323200
_cell_angle_alpha   89.99199867
_cell_angle_beta   89.99200515
_cell_angle_gamma   132.56561949
_symmetry_Int_Tables_number   1
_chemical_formula_structural   Dy2Y3Ho(Si3Ru)8
_chemical_formula_sum   'Dy2 Y3 Ho1 Si24 Ru8'
_cell_volume   616.66842780
_cell_formula_units_Z   1
loop_
 _symmetry_equiv_pos_site_id
 _symmetry_equiv_pos_as_xyz
  1  'x, y, z'
loop_
 _atom_site_type_symbol
 _atom_site_label
 _atom_site_symmetry_multiplicity
 _atom_site_fract_x
 _atom_site_fract_y
 _atom_site_fract_z
 _atom_site_occupancy
  Dy  Dy0  1  0.502525  0.002619  0.750165  1
  Dy  Dy1  1  0.997381  0.497475  0.249835  1
  Y  Y2  1  0.500019  0.499981  0.500000  1
  Y  Y3  1  0.497563  0.997474  0.249837  1
  Y  Y4  1  0.002526  0.502437  0.750163  1
  Ho  Ho5  1  0.999939  0.000061  0.000000  1
  Si  Si6  1  0.794551  0.205449  0.500000  1
  Si  Si7  1  0.294317  0.705683  0.000000  1
  Si  Si8  1  0.205450  0.794550  0.500000  1
  Si  Si9  1  0.705683  0.294317  0.000000  1
  Si  Si10  1  0.332684  0.332731  0.832923  1
  Si  Si11  1  0.667269  0.667316  0.167077  1
  Si  Si12  1  0.167673  0.167604  0.333074  1
  Si  Si13  1  0.832396  0.832327  0.666926  1
  Si  Si14  1  0.122511  0.888326  0.728326  1
  Si  Si15  1  0.111674  0.877489  0.271674  1
  Si  Si16  1  0.613213  0.378604  0.227966  1
  Si  Si17  1  0.621396  0.386787  0.772034  1
  Si  Si18  1  0.878009  0.112305  0.271739  1
  Si  Si19  1  0.887695  0.121991  0.728261  1
  Si  Si20  1  0.387432  0.621916  0.771980  1
  Si  Si21  1  0.378084  0.612568  0.228020  1
  Si  Si22  1  0.345481  0.111682  0.505180  1
  Si  Si23  1  0.888318  0.654519  0.494820  1
  Si  Si24  1  0.388699  0.154818  0.004523  1
  Si  Si25  1  0.845182  0.611301  0.995477  1
  Si  Si26  1  0.654565  0.888368  0.495397  1
  Si  Si27  1  0.111632  0.345435  0.504603  1
  Si  Si28  1  0.611338  0.845210  0.994888  1
  Si  Si29  1  0.154790  0.388662  0.005112  1
  Ru  Ru30  1  0.669164  0.330836  0.500000  1
  Ru  Ru31  1  0.168742  0.831258  0.000000  1
  Ru  Ru32  1  0.330824  0.669176  0.500000  1
  Ru  Ru33  1  0.831271  0.168729  0.000000  1
  Ru  Ru34  1  0.125976  0.126215  0.627450  1
  Ru  Ru35  1  0.873785  0.874024  0.372550  1
  Ru  Ru36  1  0.373473  0.373227  0.126372  1
  Ru  Ru37  1  0.626773  0.626527  0.873628  1
