# generated using pymatgen
data_Pr8Zr12Si15As
_symmetry_space_group_name_H-M   'P 1'
_cell_length_a   7.27238414
_cell_length_b   7.47629943
_cell_length_c   14.18745200
_cell_angle_alpha   90.00000000
_cell_angle_beta   90.00000000
_cell_angle_gamma   90.12603598
_symmetry_Int_Tables_number   1
_chemical_formula_structural   Pr8Zr12Si15As
_chemical_formula_sum   'Pr8 Zr12 Si15 As1'
_cell_volume   771.37729636
_cell_formula_units_Z   1
loop_
 _symmetry_equiv_pos_site_id
 _symmetry_equiv_pos_as_xyz
  1  'x, y, z'
loop_
 _atom_site_type_symbol
 _atom_site_label
 _atom_site_symmetry_multiplicity
 _atom_site_fract_x
 _atom_site_fract_y
 _atom_site_fract_z
 _atom_site_occupancy
  Pr  Pr0  1  0.013490  0.173129  0.402839  1
  Pr  Pr1  1  0.513048  0.326908  0.402776  1
  Pr  Pr2  1  0.489152  0.670738  0.904042  1
  Pr  Pr3  1  0.489152  0.670738  0.595958  1
  Pr  Pr4  1  0.986831  0.828195  0.598434  1
  Pr  Pr5  1  0.986831  0.828195  0.901566  1
  Pr  Pr6  1  0.513048  0.326908  0.097224  1
  Pr  Pr7  1  0.013490  0.173129  0.097161  1
  Zr  Zr8  1  0.327638  0.176051  0.625247  1
  Zr  Zr9  1  0.670493  0.824132  0.374755  1
  Zr  Zr10  1  0.660276  0.004425  0.750000  1
  Zr  Zr11  1  0.170522  0.676998  0.375044  1
  Zr  Zr12  1  0.827391  0.324665  0.876357  1
  Zr  Zr13  1  0.827391  0.324665  0.623643  1
  Zr  Zr14  1  0.842362  0.506298  0.250000  1
  Zr  Zr15  1  0.342120  0.994504  0.250000  1
  Zr  Zr16  1  0.327638  0.176051  0.874753  1
  Zr  Zr17  1  0.170522  0.676998  0.124956  1
  Zr  Zr18  1  0.670493  0.824132  0.125245  1
  Zr  Zr19  1  0.158014  0.491199  0.750000  1
  Si  Si20  1  0.466136  0.625754  0.250000  1
  Si  Si21  1  0.025487  0.135184  0.750000  1
  Si  Si22  1  0.534236  0.372573  0.750000  1
  Si  Si23  1  0.151711  0.465445  0.541636  1
  Si  Si24  1  0.966636  0.874383  0.250000  1
  Si  Si25  1  0.714827  0.117121  0.250000  1
  Si  Si26  1  0.848802  0.536221  0.041224  1
  Si  Si27  1  0.349151  0.964700  0.040901  1
  Si  Si28  1  0.151711  0.465445  0.958364  1
  Si  Si29  1  0.650075  0.034883  0.541645  1
  Si  Si30  1  0.349151  0.964700  0.459099  1
  Si  Si31  1  0.848802  0.536221  0.458776  1
  Si  Si32  1  0.786461  0.616403  0.750000  1
  Si  Si33  1  0.214686  0.383676  0.250000  1
  Si  Si34  1  0.650075  0.034883  0.958355  1
  As  As35  1  0.292152  0.874351  0.750000  1
