# generated using pymatgen
data_K7Ag8F24
_symmetry_space_group_name_H-M   'P 1'
_cell_length_a   10.58657260
_cell_length_b   10.58657345
_cell_length_c   8.58750700
_cell_angle_alpha   66.04092062
_cell_angle_beta   66.04091858
_cell_angle_gamma   109.50386462
_symmetry_Int_Tables_number   1
_chemical_formula_structural   K7Ag8F24
_chemical_formula_sum   'K7 Ag8 F24'
_cell_volume   644.63175218
_cell_formula_units_Z   1
loop_
 _symmetry_equiv_pos_site_id
 _symmetry_equiv_pos_as_xyz
  1  'x, y, z'
loop_
 _atom_site_type_symbol
 _atom_site_label
 _atom_site_symmetry_multiplicity
 _atom_site_fract_x
 _atom_site_fract_y
 _atom_site_fract_z
 _atom_site_occupancy
  K  K0  1  0.379385  0.889136  0.985076  1
  K  K1  1  0.118103  0.118103  0.519256  1
  K  K2  1  0.382400  0.883554  0.485312  1
  K  K3  1  0.889136  0.379385  0.985076  1
  K  K4  1  0.621268  0.621268  0.511442  1
  K  K5  1  0.883554  0.382400  0.485312  1
  K  K6  1  0.615886  0.615886  0.006998  1
  Ag  Ag7  1  0.751275  0.000435  0.999559  1
  Ag  Ag8  1  0.500700  0.251611  0.498254  1
  Ag  Ag9  1  0.752957  0.001297  0.497397  1
  Ag  Ag10  1  0.250938  0.499765  0.998143  1
  Ag  Ag11  1  0.000435  0.751275  0.999559  1
  Ag  Ag12  1  0.001297  0.752957  0.497397  1
  Ag  Ag13  1  0.251611  0.500700  0.498254  1
  Ag  Ag14  1  0.499765  0.250938  0.998143  1
  F  F15  1  0.754107  0.034683  0.732722  1
  F  F16  1  0.599703  0.099169  0.498054  1
  F  F17  1  0.245628  0.009450  0.752799  1
  F  F18  1  0.009450  0.245628  0.752799  1
  F  F19  1  0.467304  0.247164  0.264854  1
  F  F20  1  0.646662  0.148352  0.009998  1
  F  F21  1  0.845293  0.845293  0.988743  1
  F  F22  1  0.257275  0.542111  0.726346  1
  F  F23  1  0.034683  0.754107  0.732722  1
  F  F24  1  0.485015  0.764285  0.228929  1
  F  F25  1  0.266572  0.980704  0.243365  1
  F  F26  1  0.888066  0.888066  0.531301  1
  F  F27  1  0.099169  0.599703  0.498054  1
  F  F28  1  0.742990  0.514433  0.763391  1
  F  F29  1  0.514433  0.742990  0.763391  1
  F  F30  1  0.961100  0.730492  0.277017  1
  F  F31  1  0.730492  0.961100  0.277017  1
  F  F32  1  0.148352  0.646662  0.009998  1
  F  F33  1  0.374228  0.374228  0.980499  1
  F  F34  1  0.542111  0.257275  0.726346  1
  F  F35  1  0.980704  0.266572  0.243365  1
  F  F36  1  0.764285  0.485015  0.228929  1
  F  F37  1  0.420869  0.420869  0.468034  1
  F  F38  1  0.247164  0.467304  0.264854  1
