# generated using pymatgen
data_YbY2Np7O20
_symmetry_space_group_name_H-M   'P 1'
_cell_length_a   6.58009639
_cell_length_b   7.55441748
_cell_length_c   8.45618681
_cell_angle_alpha   102.35174437
_cell_angle_beta   97.32148380
_cell_angle_gamma   106.91202599
_symmetry_Int_Tables_number   1
_chemical_formula_structural   YbY2Np7O20
_chemical_formula_sum   'Yb1 Y2 Np7 O20'
_cell_volume   384.68433380
_cell_formula_units_Z   1
loop_
 _symmetry_equiv_pos_site_id
 _symmetry_equiv_pos_as_xyz
  1  'x, y, z'
loop_
 _atom_site_type_symbol
 _atom_site_label
 _atom_site_symmetry_multiplicity
 _atom_site_fract_x
 _atom_site_fract_y
 _atom_site_fract_z
 _atom_site_occupancy
  Yb  Yb0  1  0.999746  0.999916  0.999955  1
  Y  Y1  1  0.800381  0.601458  0.601787  1
  Y  Y2  1  0.600384  0.198950  0.198747  1
  Np  Np3  1  0.000475  0.500295  0.000564  1
  Np  Np4  1  0.799461  0.099799  0.601899  1
  Np  Np5  1  0.603228  0.701083  0.198997  1
  Np  Np6  1  0.199351  0.398099  0.396752  1
  Np  Np7  1  0.396725  0.296757  0.801190  1
  Np  Np8  1  0.199708  0.902232  0.397375  1
  Np  Np9  1  0.400279  0.801660  0.802935  1
  O  O10  1  0.859156  0.319711  0.456171  1
  O  O11  1  0.638450  0.910963  0.052207  1
  O  O12  1  0.857686  0.834629  0.448352  1
  O  O13  1  0.950970  0.764629  0.155630  1
  O  O14  1  0.438020  0.518737  0.654604  1
  O  O15  1  0.648799  0.431909  0.045920  1
  O  O16  1  0.739922  0.365818  0.753494  1
  O  O17  1  0.249670  0.126875  0.262167  1
  O  O18  1  0.958487  0.292595  0.152120  1
  O  O19  1  0.550301  0.968944  0.356906  1
  O  O20  1  0.059342  0.713028  0.849701  1
  O  O21  1  0.443802  0.027098  0.645319  1
  O  O22  1  0.734280  0.878853  0.742906  1
  O  O23  1  0.351186  0.570083  0.953777  1
  O  O24  1  0.255280  0.630309  0.245181  1
  O  O25  1  0.051127  0.234636  0.842424  1
  O  O26  1  0.545712  0.483961  0.348265  1
  O  O27  1  0.150884  0.171910  0.552955  1
  O  O28  1  0.358093  0.076376  0.939765  1
  O  O29  1  0.159095  0.678689  0.541936  1
