# generated using pymatgen
data_Sr2PbWCl2O5
_symmetry_space_group_name_H-M   'P 1'
_cell_length_a   5.70940200
_cell_length_b   7.11583550
_cell_length_c   11.33302300
_cell_angle_alpha   90.00000000
_cell_angle_beta   90.00000000
_cell_angle_gamma   113.65170402
_symmetry_Int_Tables_number   1
_chemical_formula_structural   Sr2PbWCl2O5
_chemical_formula_sum   'Sr4 Pb2 W2 Cl4 O10'
_cell_volume   421.75309494
_cell_formula_units_Z   2
loop_
 _symmetry_equiv_pos_site_id
 _symmetry_equiv_pos_as_xyz
  1  'x, y, z'
loop_
 _atom_site_type_symbol
 _atom_site_label
 _atom_site_symmetry_multiplicity
 _atom_site_fract_x
 _atom_site_fract_y
 _atom_site_fract_z
 _atom_site_occupancy
  Sr  Sr0  1  0.353243  0.706487  0.034124  1
  Sr  Sr1  1  0.098480  0.196959  0.250000  1
  Sr  Sr2  1  0.353243  0.706487  0.465877  1
  Sr  Sr3  1  0.903635  0.807270  0.750000  1
  Pb  Pb4  1  0.660514  0.321028  0.534274  1
  Pb  Pb5  1  0.660514  0.321028  0.965726  1
  W  W6  1  0.764063  0.528126  0.250000  1
  W  W7  1  0.238877  0.477755  0.750000  1
  Cl  Cl8  1  0.990276  0.980551  0.000973  1
  Cl  Cl9  1  0.505702  0.011403  0.250000  1
  Cl  Cl10  1  0.990276  0.980551  0.499027  1
  Cl  Cl11  1  0.474794  0.949587  0.750000  1
  O  O12  1  0.494594  0.453457  0.132618  1
  O  O13  1  0.958863  0.453457  0.132618  1
  O  O14  1  0.899514  0.799027  0.250000  1
  O  O15  1  0.494594  0.453457  0.367382  1
  O  O16  1  0.958863  0.453457  0.367382  1
  O  O17  1  0.040179  0.548164  0.631540  1
  O  O18  1  0.507985  0.548164  0.631540  1
  O  O19  1  0.103627  0.207255  0.750000  1
  O  O20  1  0.040179  0.548164  0.868460  1
  O  O21  1  0.507985  0.548164  0.868460  1
