# generated using pymatgen
data_Ho20Bi8Os3Ru
_symmetry_space_group_name_H-M   'P 1'
_cell_length_a   7.94570968
_cell_length_b   9.02334800
_cell_length_c   12.44648200
_cell_angle_alpha   90.00000000
_cell_angle_beta   89.92599552
_cell_angle_gamma   90.00000000
_symmetry_Int_Tables_number   1
_chemical_formula_structural   Ho20Bi8Os3Ru
_chemical_formula_sum   'Ho20 Bi8 Os3 Ru1'
_cell_volume   892.37347486
_cell_formula_units_Z   1
loop_
 _symmetry_equiv_pos_site_id
 _symmetry_equiv_pos_as_xyz
  1  'x, y, z'
loop_
 _atom_site_type_symbol
 _atom_site_label
 _atom_site_symmetry_multiplicity
 _atom_site_fract_x
 _atom_site_fract_y
 _atom_site_fract_z
 _atom_site_occupancy
  Ho  Ho0  1  0.342162  0.750000  0.707453  1
  Ho  Ho1  1  0.658755  0.250000  0.291734  1
  Ho  Ho2  1  0.841609  0.250000  0.791378  1
  Ho  Ho3  1  0.157864  0.750000  0.207743  1
  Ho  Ho4  1  0.878565  0.750000  0.806660  1
  Ho  Ho5  1  0.120866  0.250000  0.193008  1
  Ho  Ho6  1  0.378256  0.250000  0.692720  1
  Ho  Ho7  1  0.620541  0.750000  0.308898  1
  Ho  Ho8  1  0.675769  0.541390  0.564144  1
  Ho  Ho9  1  0.325831  0.456807  0.436346  1
  Ho  Ho10  1  0.173936  0.457243  0.936363  1
  Ho  Ho11  1  0.325831  0.043193  0.436346  1
  Ho  Ho12  1  0.825004  0.542965  0.063815  1
  Ho  Ho13  1  0.675769  0.958610  0.564144  1
  Ho  Ho14  1  0.825004  0.957035  0.063815  1
  Ho  Ho15  1  0.173936  0.042757  0.936363  1
  Ho  Ho16  1  0.055248  0.750000  0.496024  1
  Ho  Ho17  1  0.942659  0.250000  0.503383  1
  Ho  Ho18  1  0.558502  0.250000  0.003716  1
  Ho  Ho19  1  0.441668  0.750000  0.995769  1
  Bi  Bi20  1  0.569805  0.508035  0.827816  1
  Bi  Bi21  1  0.430448  0.492400  0.172360  1
  Bi  Bi22  1  0.070642  0.491980  0.671639  1
  Bi  Bi23  1  0.430448  0.007600  0.172360  1
  Bi  Bi24  1  0.929674  0.508385  0.328233  1
  Bi  Bi25  1  0.569805  0.991965  0.827816  1
  Bi  Bi26  1  0.929674  0.991615  0.328233  1
  Bi  Bi27  1  0.070642  0.008020  0.671639  1
  Os  Os28  1  0.075311  0.750000  0.989345  1
  Os  Os29  1  0.923865  0.250000  0.010214  1
  Os  Os30  1  0.575285  0.250000  0.510325  1
  Ru  Ru31  1  0.426626  0.750000  0.490203  1
