# generated using pymatgen
data_DyY7(TmBi)12
_symmetry_space_group_name_H-M   'P 1'
_cell_length_a   8.21113849
_cell_length_b   9.43528800
_cell_length_c   12.01612972
_cell_angle_alpha   90.00000000
_cell_angle_beta   89.96036621
_cell_angle_gamma   90.00000000
_symmetry_Int_Tables_number   1
_chemical_formula_structural   DyY7(TmBi)12
_chemical_formula_sum   'Dy1 Y7 Tm12 Bi12'
_cell_volume   930.94289612
_cell_formula_units_Z   1
loop_
 _symmetry_equiv_pos_site_id
 _symmetry_equiv_pos_as_xyz
  1  'x, y, z'
loop_
 _atom_site_type_symbol
 _atom_site_label
 _atom_site_symmetry_multiplicity
 _atom_site_fract_x
 _atom_site_fract_y
 _atom_site_fract_z
 _atom_site_occupancy
  Dy  Dy0  1  0.186347  0.750000  0.718360  1
  Y  Y1  1  0.686219  0.750000  0.781486  1
  Y  Y2  1  0.813780  0.250000  0.281462  1
  Y  Y3  1  0.313987  0.250000  0.218536  1
  Y  Y4  1  0.353720  0.750000  0.215922  1
  Y  Y5  1  0.853591  0.750000  0.284060  1
  Y  Y6  1  0.646278  0.250000  0.784031  1
  Y  Y7  1  0.146249  0.250000  0.716087  1
  Tm  Tm8  1  0.025447  0.750000  0.988587  1
  Tm  Tm9  1  0.524972  0.750000  0.511159  1
  Tm  Tm10  1  0.974801  0.250000  0.010982  1
  Tm  Tm11  1  0.474835  0.250000  0.488978  1
  Tm  Tm12  1  0.307412  0.434501  0.940539  1
  Tm  Tm13  1  0.807439  0.065528  0.559445  1
  Tm  Tm14  1  0.692517  0.934462  0.059446  1
  Tm  Tm15  1  0.192590  0.565617  0.440734  1
  Tm  Tm16  1  0.692517  0.565538  0.059446  1
  Tm  Tm17  1  0.192590  0.934383  0.440734  1
  Tm  Tm18  1  0.307412  0.065499  0.940539  1
  Tm  Tm19  1  0.807439  0.434472  0.559445  1
  Bi  Bi20  1  0.433605  0.003771  0.672599  1
  Bi  Bi21  1  0.933984  0.496154  0.827338  1
  Bi  Bi22  1  0.566159  0.503966  0.327481  1
  Bi  Bi23  1  0.066154  0.996044  0.172525  1
  Bi  Bi24  1  0.566159  0.996034  0.327481  1
  Bi  Bi25  1  0.066154  0.503956  0.172525  1
  Bi  Bi26  1  0.433605  0.496229  0.672599  1
  Bi  Bi27  1  0.933984  0.003846  0.827338  1
  Bi  Bi28  1  0.406341  0.750000  0.957588  1
  Bi  Bi29  1  0.906449  0.750000  0.542554  1
  Bi  Bi30  1  0.593657  0.250000  0.042335  1
  Bi  Bi31  1  0.093609  0.250000  0.457656  1
