# generated using pymatgen
data_SrLi8Pr7Bi8
_symmetry_space_group_name_H-M   'P 1'
_cell_length_a   9.85426300
_cell_length_b   9.85426840
_cell_length_c   7.65164900
_cell_angle_alpha   89.99995629
_cell_angle_beta   90.00003242
_cell_angle_gamma   120.00008455
_symmetry_Int_Tables_number   1
_chemical_formula_structural   SrLi8Pr7Bi8
_chemical_formula_sum   'Sr1 Li8 Pr7 Bi8'
_cell_volume   643.47819850
_cell_formula_units_Z   1
loop_
 _symmetry_equiv_pos_site_id
 _symmetry_equiv_pos_as_xyz
  1  'x, y, z'
loop_
 _atom_site_type_symbol
 _atom_site_label
 _atom_site_symmetry_multiplicity
 _atom_site_fract_x
 _atom_site_fract_y
 _atom_site_fract_z
 _atom_site_occupancy
  Sr  Sr0  1  0.000000  0.000000  0.015457  1
  Li  Li1  1  0.167029  0.832971  0.291871  1
  Li  Li2  1  0.665941  0.832971  0.291871  1
  Li  Li3  1  0.167029  0.334059  0.291871  1
  Li  Li4  1  0.833765  0.166235  0.798265  1
  Li  Li5  1  0.332471  0.166235  0.798265  1
  Li  Li6  1  0.833765  0.667529  0.798265  1
  Li  Li7  1  0.333333  0.666667  0.690244  1
  Li  Li8  1  0.666667  0.333333  0.201618  1
  Pr  Pr9  1  0.512662  0.487338  0.509669  1
  Pr  Pr10  1  0.974676  0.487338  0.509669  1
  Pr  Pr11  1  0.512663  0.025324  0.509669  1
  Pr  Pr12  1  0.488869  0.511131  0.008375  1
  Pr  Pr13  1  0.022262  0.511131  0.008375  1
  Pr  Pr14  1  0.488869  0.977738  0.008375  1
  Pr  Pr15  1  0.000000  0.000000  0.516360  1
  Bi  Bi16  1  0.168203  0.831797  0.748242  1
  Bi  Bi17  1  0.663594  0.831797  0.748242  1
  Bi  Bi18  1  0.168203  0.336406  0.748242  1
  Bi  Bi19  1  0.831899  0.168101  0.252302  1
  Bi  Bi20  1  0.336202  0.168101  0.252302  1
  Bi  Bi21  1  0.831899  0.663798  0.252302  1
  Bi  Bi22  1  0.333333  0.666667  0.277875  1
  Bi  Bi23  1  0.666667  0.333333  0.782263  1
