# generated using pymatgen
data_Tm12Co2Si2AgPb
_symmetry_space_group_name_H-M   'P 1'
_cell_length_a   8.32706333
_cell_length_b   8.32706395
_cell_length_c   8.32706376
_cell_angle_alpha   113.66435778
_cell_angle_beta   110.90889849
_cell_angle_gamma   103.98919196
_symmetry_Int_Tables_number   1
_chemical_formula_structural   Tm12Co2Si2AgPb
_chemical_formula_sum   'Tm12 Co2 Si2 Ag1 Pb1'
_cell_volume   441.18559769
_cell_formula_units_Z   1
loop_
 _symmetry_equiv_pos_site_id
 _symmetry_equiv_pos_as_xyz
  1  'x, y, z'
loop_
 _atom_site_type_symbol
 _atom_site_label
 _atom_site_symmetry_multiplicity
 _atom_site_fract_x
 _atom_site_fract_y
 _atom_site_fract_z
 _atom_site_occupancy
  Tm  Tm0  1  0.435254  0.236004  0.199249  1
  Tm  Tm1  1  0.564746  0.763996  0.800751  1
  Tm  Tm2  1  0.036753  0.236004  0.800751  1
  Tm  Tm3  1  0.963247  0.763996  0.199249  1
  Tm  Tm4  1  0.183318  0.285375  0.468693  1
  Tm  Tm5  1  0.816682  0.714625  0.531307  1
  Tm  Tm6  1  0.183318  0.714625  0.897944  1
  Tm  Tm7  1  0.816682  0.285375  0.102056  1
  Tm  Tm8  1  0.303819  0.616470  0.312650  1
  Tm  Tm9  1  0.696181  0.383530  0.687350  1
  Tm  Tm10  1  0.303819  0.991169  0.687350  1
  Tm  Tm11  1  0.696181  0.008831  0.312650  1
  Co  Co12  1  0.108876  0.608876  0.500000  1
  Co  Co13  1  0.891124  0.391124  0.500000  1
  Si  Si14  1  0.361466  0.000000  0.361466  1
  Si  Si15  1  0.638534  0.000000  0.638534  1
  Ag  Ag16  1  0.000000  0.000000  0.000000  1
  Pb  Pb17  1  0.500000  0.500000  0.000000  1
