# generated using pymatgen
data_Y4Tc4OsRu3
_symmetry_space_group_name_H-M   'P 1'
_cell_length_a   5.29333255
_cell_length_b   5.30327050
_cell_length_c   9.20482800
_cell_angle_alpha   90.00000000
_cell_angle_beta   90.00000000
_cell_angle_gamma   121.27777363
_symmetry_Int_Tables_number   1
_chemical_formula_structural   Y4Tc4OsRu3
_chemical_formula_sum   'Y4 Tc4 Os1 Ru3'
_cell_volume   220.84225176
_cell_formula_units_Z   1
loop_
 _symmetry_equiv_pos_site_id
 _symmetry_equiv_pos_as_xyz
  1  'x, y, z'
loop_
 _atom_site_type_symbol
 _atom_site_label
 _atom_site_symmetry_multiplicity
 _atom_site_fract_x
 _atom_site_fract_y
 _atom_site_fract_z
 _atom_site_occupancy
  Y  Y0  1  0.335399  0.665316  0.435595  1
  Y  Y1  1  0.664908  0.332272  0.564474  1
  Y  Y2  1  0.664908  0.332272  0.935526  1
  Y  Y3  1  0.335399  0.665316  0.064405  1
  Tc  Tc4  1  0.167973  0.829933  0.750000  1
  Tc  Tc5  1  0.338719  0.174813  0.250000  1
  Tc  Tc6  1  0.828204  0.665074  0.250000  1
  Tc  Tc7  1  0.659640  0.831453  0.750000  1
  Os  Os8  1  0.171710  0.343708  0.750000  1
  Ru  Ru9  1  0.003831  0.991953  0.000950  1
  Ru  Ru10  1  0.825477  0.175939  0.250000  1
  Ru  Ru11  1  0.003831  0.991953  0.499050  1
