# generated using pymatgen
data_Li12SmDy9Lu2(TeO6)8
_symmetry_space_group_name_H-M   'P 1'
_cell_length_a   10.76416032
_cell_length_b   10.73160566
_cell_length_c   10.73472284
_cell_angle_alpha   109.34708120
_cell_angle_beta   109.47018327
_cell_angle_gamma   109.64620959
_symmetry_Int_Tables_number   1
_chemical_formula_structural   Li12SmDy9Lu2(TeO6)8
_chemical_formula_sum   'Li12 Sm1 Dy9 Lu2 Te8 O48'
_cell_volume   953.99104104
_cell_formula_units_Z   1
loop_
 _symmetry_equiv_pos_site_id
 _symmetry_equiv_pos_as_xyz
  1  'x, y, z'
loop_
 _atom_site_type_symbol
 _atom_site_label
 _atom_site_symmetry_multiplicity
 _atom_site_fract_x
 _atom_site_fract_y
 _atom_site_fract_z
 _atom_site_occupancy
  Li  Li0  1  0.249572  0.374698  0.125197  1
  Li  Li1  1  0.375625  0.750498  0.125197  1
  Li  Li2  1  0.124856  0.875586  0.249761  1
  Li  Li3  1  0.624904  0.374174  0.249761  1
  Li  Li4  1  0.123375  0.248973  0.373140  1
  Li  Li5  1  0.749768  0.124168  0.373142  1
  Li  Li6  1  0.250276  0.875017  0.624987  1
  Li  Li7  1  0.874712  0.749970  0.624989  1
  Li  Li8  1  0.874879  0.124874  0.750748  1
  Li  Li9  1  0.375869  0.625874  0.750750  1
  Li  Li10  1  0.750254  0.626483  0.876167  1
  Li  Li11  1  0.625916  0.249684  0.876171  1
  Sm  Sm12  1  0.874465  0.624464  0.248930  1
  Dy  Dy13  1  0.375080  0.125082  0.250160  1
  Dy  Dy14  1  0.624674  0.751109  0.374730  1
  Dy  Dy15  1  0.250055  0.623625  0.374731  1
  Dy  Dy16  1  0.750003  0.374876  0.625077  1
  Dy  Dy17  1  0.375076  0.250206  0.625076  1
  Dy  Dy18  1  0.124963  0.374963  0.749925  1
  Dy  Dy19  1  0.625707  0.875709  0.751413  1
  Dy  Dy20  1  0.249909  0.125096  0.874872  1
  Dy  Dy21  1  0.124965  0.749776  0.874873  1
  Lu  Lu22  1  0.750043  0.876570  0.125089  1
  Lu  Lu23  1  0.875048  0.248520  0.125090  1
  Te  Te24  1  0.999201  0.001414  0.002009  1
  Te  Te25  1  0.502807  0.000595  0.002009  1
  Te  Te26  1  0.499227  0.502314  0.999758  1
  Te  Te27  1  0.000532  0.497443  0.999758  1
  Te  Te28  1  0.998991  0.001654  0.498035  1
  Te  Te29  1  0.500230  0.000069  0.500205  1
  Te  Te30  1  0.999044  0.496381  0.498036  1
  Te  Te31  1  0.499977  0.500130  0.500209  1
  O  O32  1  0.698129  0.625966  0.027692  1
  O  O33  1  0.829563  0.401725  0.027692  1
  O  O34  1  0.199195  0.172346  0.079122  1
  O  O35  1  0.379928  0.906777  0.079121  1
  O  O36  1  0.474570  0.172014  0.094359  1
  O  O37  1  0.119789  0.922345  0.094359  1
  O  O38  1  0.528608  0.702824  0.120273  1
  O  O39  1  0.091666  0.417449  0.120273  1
  O  O40  1  0.702780  0.076946  0.171967  1
  O  O41  1  0.969188  0.095022  0.171968  1
  O  O42  1  0.616144  0.526541  0.198410  1
  O  O43  1  0.082266  0.671867  0.198411  1
  O  O44  1  0.825601  0.413438  0.298150  1
  O  O45  1  0.972548  0.884711  0.298150  1
  O  O46  1  0.421284  0.800573  0.328174  1
  O  O47  1  0.406888  0.527602  0.328170  1
  O  O48  1  0.799231  0.971263  0.373976  1
  O  O49  1  0.074746  0.402714  0.373976  1
  O  O50  1  0.578471  0.379766  0.406783  1
  O  O51  1  0.328311  0.027019  0.406782  1
  O  O52  1  0.327472  0.300381  0.420971  1
  O  O53  1  0.593500  0.120592  0.420969  1
  O  O54  1  0.878985  0.803110  0.473213  1
  O  O55  1  0.094230  0.670104  0.473214  1
  O  O56  1  0.121170  0.201825  0.527894  1
  O  O57  1  0.906725  0.326067  0.527893  1
  O  O58  1  0.407510  0.879823  0.579875  1
  O  O59  1  0.672368  0.700058  0.579876  1
  O  O60  1  0.672264  0.972999  0.593248  1
  O  O61  1  0.420983  0.620252  0.593247  1
  O  O62  1  0.921641  0.592165  0.619114  1
  O  O63  1  0.197472  0.026948  0.619113  1
  O  O64  1  0.593414  0.472852  0.672333  1
  O  O65  1  0.578922  0.199488  0.672335  1
  O  O66  1  0.025534  0.120153  0.697353  1
  O  O67  1  0.171819  0.577199  0.697353  1
  O  O68  1  0.920911  0.326903  0.799860  1
  O  O69  1  0.378950  0.472959  0.799861  1
  O  O70  1  0.025287  0.906315  0.829115  1
  O  O71  1  0.303829  0.922800  0.829116  1
  O  O72  1  0.906303  0.577380  0.880702  1
  O  O73  1  0.474400  0.303320  0.880701  1
  O  O74  1  0.879593  0.081075  0.909030  1
  O  O75  1  0.529436  0.827955  0.909029  1
  O  O76  1  0.800000  0.830082  0.926207  1
  O  O77  1  0.626208  0.096126  0.926209  1
  O  O78  1  0.300135  0.379821  0.972178  1
  O  O79  1  0.172043  0.592357  0.972179  1
