# generated using pymatgen
data_LaGd3Sb10
_symmetry_space_group_name_H-M   'P 1'
_cell_length_a   4.28698500
_cell_length_b   13.32065798
_cell_length_c   14.68378000
_cell_angle_alpha   78.20911751
_cell_angle_beta   90.00000000
_cell_angle_gamma   90.00000000
_symmetry_Int_Tables_number   1
_chemical_formula_structural   LaGd3Sb10
_chemical_formula_sum   'La2 Gd6 Sb20'
_cell_volume   820.83109943
_cell_formula_units_Z   2
loop_
 _symmetry_equiv_pos_site_id
 _symmetry_equiv_pos_as_xyz
  1  'x, y, z'
loop_
 _atom_site_type_symbol
 _atom_site_label
 _atom_site_symmetry_multiplicity
 _atom_site_fract_x
 _atom_site_fract_y
 _atom_site_fract_z
 _atom_site_occupancy
  La  La0  1  0.250000  0.951833  0.362087  1
  La  La1  1  0.750000  0.048167  0.637913  1
  Gd  Gd2  1  0.250000  0.397912  0.772360  1
  Gd  Gd3  1  0.750000  0.602088  0.227640  1
  Gd  Gd4  1  0.250000  0.662363  0.856500  1
  Gd  Gd5  1  0.750000  0.337637  0.143500  1
  Gd  Gd6  1  0.250000  0.665028  0.577797  1
  Gd  Gd7  1  0.750000  0.334972  0.422203  1
  Sb  Sb8  1  0.250000  0.146748  0.783890  1
  Sb  Sb9  1  0.750000  0.853252  0.216110  1
  Sb  Sb10  1  0.250000  0.152653  0.475657  1
  Sb  Sb11  1  0.750000  0.847347  0.524343  1
  Sb  Sb12  1  0.250000  0.154035  0.171932  1
  Sb  Sb13  1  0.750000  0.845965  0.828068  1
  Sb  Sb14  1  0.250000  0.420202  0.977247  1
  Sb  Sb15  1  0.750000  0.579798  0.022753  1
  Sb  Sb16  1  0.750000  0.032968  0.897197  1
  Sb  Sb17  1  0.250000  0.967032  0.102803  1
  Sb  Sb18  1  0.750000  0.144405  0.320475  1
  Sb  Sb19  1  0.250000  0.855595  0.679525  1
  Sb  Sb20  1  0.750000  0.283782  0.937320  1
  Sb  Sb21  1  0.250000  0.716218  0.062680  1
  Sb  Sb22  1  0.750000  0.295103  0.648315  1
  Sb  Sb23  1  0.250000  0.704897  0.351685  1
  Sb  Sb24  1  0.750000  0.576181  0.735164  1
  Sb  Sb25  1  0.250000  0.423819  0.264836  1
  Sb  Sb26  1  0.750000  0.574494  0.444639  1
  Sb  Sb27  1  0.250000  0.425506  0.555361  1
