# generated using pymatgen
data_Tb4Tm(SiB4)2
_symmetry_space_group_name_H-M   'P 1'
_cell_length_a   7.23786700
_cell_length_b   7.23786700
_cell_length_c   8.08828300
_cell_angle_alpha   90.00000000
_cell_angle_beta   90.00000000
_cell_angle_gamma   90.00000000
_symmetry_Int_Tables_number   1
_chemical_formula_structural   Tb4Tm(SiB4)2
_chemical_formula_sum   'Tb8 Tm2 Si4 B16'
_cell_volume   423.71860637
_cell_formula_units_Z   2
loop_
 _symmetry_equiv_pos_site_id
 _symmetry_equiv_pos_as_xyz
  1  'x, y, z'
loop_
 _atom_site_type_symbol
 _atom_site_label
 _atom_site_symmetry_multiplicity
 _atom_site_fract_x
 _atom_site_fract_y
 _atom_site_fract_z
 _atom_site_occupancy
  Tb  Tb0  1  0.680401  0.180401  0.225470  1
  Tb  Tb1  1  0.319599  0.819599  0.774530  1
  Tb  Tb2  1  0.319599  0.819599  0.225470  1
  Tb  Tb3  1  0.819599  0.680401  0.225470  1
  Tb  Tb4  1  0.819599  0.680401  0.774530  1
  Tb  Tb5  1  0.680401  0.180401  0.774530  1
  Tb  Tb6  1  0.180401  0.319599  0.774530  1
  Tb  Tb7  1  0.180401  0.319599  0.225470  1
  Tm  Tm8  1  0.000000  0.000000  0.500000  1
  Tm  Tm9  1  0.500000  0.500000  0.500000  1
  Si  Si10  1  0.115347  0.615347  0.500000  1
  Si  Si11  1  0.884653  0.384653  0.500000  1
  Si  Si12  1  0.384653  0.115347  0.500000  1
  Si  Si13  1  0.615347  0.884653  0.500000  1
  B  B14  1  0.172304  0.039214  0.000000  1
  B  B15  1  0.827696  0.960786  0.000000  1
  B  B16  1  0.960786  0.172304  0.000000  1
  B  B17  1  0.327696  0.539214  0.000000  1
  B  B18  1  0.039214  0.827696  0.000000  1
  B  B19  1  0.672304  0.460786  0.000000  1
  B  B20  1  0.539214  0.672304  0.000000  1
  B  B21  1  0.460786  0.327696  0.000000  1
  B  B22  1  0.089791  0.589791  0.000000  1
  B  B23  1  0.910209  0.410209  0.000000  1
  B  B24  1  0.410209  0.089791  0.000000  1
  B  B25  1  0.589791  0.910209  0.000000  1
  B  B26  1  0.000000  0.000000  0.162445  1
  B  B27  1  0.000000  0.000000  0.837555  1
  B  B28  1  0.500000  0.500000  0.837555  1
  B  B29  1  0.500000  0.500000  0.162445  1
