# generated using pymatgen
data_Sc18URe7S2
_symmetry_space_group_name_H-M   'P 1'
_cell_length_a   8.57322400
_cell_length_b   8.72320414
_cell_length_c   8.72310400
_cell_angle_alpha   120.00381444
_cell_angle_beta   89.99979282
_cell_angle_gamma   89.99884907
_symmetry_Int_Tables_number   1
_chemical_formula_structural   Sc18URe7S2
_chemical_formula_sum   'Sc18 U1 Re7 S2'
_cell_volume   564.94373242
_cell_formula_units_Z   1
loop_
 _symmetry_equiv_pos_site_id
 _symmetry_equiv_pos_as_xyz
  1  'x, y, z'
loop_
 _atom_site_type_symbol
 _atom_site_label
 _atom_site_symmetry_multiplicity
 _atom_site_fract_x
 _atom_site_fract_y
 _atom_site_fract_z
 _atom_site_occupancy
  Sc  Sc0  1  0.547468  0.798579  0.597198  1
  Sc  Sc1  1  0.547633  0.798590  0.201371  1
  Sc  Sc2  1  0.547610  0.402902  0.201462  1
  Sc  Sc3  1  0.452532  0.201421  0.402802  1
  Sc  Sc4  1  0.452367  0.201410  0.798629  1
  Sc  Sc5  1  0.452390  0.597098  0.798538  1
  Sc  Sc6  1  0.046262  0.196296  0.392544  1
  Sc  Sc7  1  0.046244  0.196409  0.803717  1
  Sc  Sc8  1  0.046200  0.606898  0.803441  1
  Sc  Sc9  1  0.953738  0.803704  0.607456  1
  Sc  Sc10  1  0.953756  0.803591  0.196283  1
  Sc  Sc11  1  0.953800  0.393102  0.196559  1
  Sc  Sc12  1  0.749685  0.457338  0.914744  1
  Sc  Sc13  1  0.749691  0.457303  0.542728  1
  Sc  Sc14  1  0.749708  0.085104  0.542617  1
  Sc  Sc15  1  0.250315  0.542662  0.085256  1
  Sc  Sc16  1  0.250309  0.542697  0.457272  1
  Sc  Sc17  1  0.250292  0.914896  0.457383  1
  U  U18  1  0.500000  0.000000  0.000000  1
  Re  Re19  1  0.751869  0.109530  0.219299  1
  Re  Re20  1  0.751867  0.109558  0.890526  1
  Re  Re21  1  0.751848  0.780441  0.890095  1
  Re  Re22  1  0.248131  0.890470  0.780701  1
  Re  Re23  1  0.248133  0.890442  0.109474  1
  Re  Re24  1  0.248152  0.219559  0.109905  1
  Re  Re25  1  0.000000  0.000000  0.000000  1
  S  S26  1  0.753938  0.666897  0.333462  1
  S  S27  1  0.246062  0.333103  0.666538  1
