# generated using pymatgen
data_Pr3In3Ni2Ag
_symmetry_space_group_name_H-M   'P 1'
_cell_length_a   7.74312600
_cell_length_b   7.74312666
_cell_length_c   4.06571100
_cell_angle_alpha   90.00000000
_cell_angle_beta   90.00000000
_cell_angle_gamma   120.00000574
_symmetry_Int_Tables_number   1
_chemical_formula_structural   Pr3In3Ni2Ag
_chemical_formula_sum   'Pr3 In3 Ni2 Ag1'
_cell_volume   211.10562276
_cell_formula_units_Z   1
loop_
 _symmetry_equiv_pos_site_id
 _symmetry_equiv_pos_as_xyz
  1  'x, y, z'
loop_
 _atom_site_type_symbol
 _atom_site_label
 _atom_site_symmetry_multiplicity
 _atom_site_fract_x
 _atom_site_fract_y
 _atom_site_fract_z
 _atom_site_occupancy
  Pr  Pr0  1  0.417937  0.019664  0.500000  1
  Pr  Pr1  1  0.980336  0.398273  0.500000  1
  Pr  Pr2  1  0.601727  0.582063  0.500000  1
  In  In3  1  0.758820  0.002009  0.000000  1
  In  In4  1  0.997991  0.756810  0.000000  1
  In  In5  1  0.243190  0.241180  0.000000  1
  Ni  Ni6  1  0.000000  0.000000  0.500000  1
  Ni  Ni7  1  0.666667  0.333333  0.000000  1
  Ag  Ag8  1  0.333333  0.666667  0.000000  1
