# generated using pymatgen
data_La4Ga14CoRh
_symmetry_space_group_name_H-M   'P 1'
_cell_length_a   6.19752209
_cell_length_b   6.19277335
_cell_length_c   11.48177900
_cell_angle_alpha   74.35487131
_cell_angle_beta   74.34257861
_cell_angle_gamma   90.00000007
_symmetry_Int_Tables_number   1
_chemical_formula_structural   La4Ga14CoRh
_chemical_formula_sum   'La4 Ga14 Co1 Rh1'
_cell_volume   407.33538795
_cell_formula_units_Z   1
loop_
 _symmetry_equiv_pos_site_id
 _symmetry_equiv_pos_as_xyz
  1  'x, y, z'
loop_
 _atom_site_type_symbol
 _atom_site_label
 _atom_site_symmetry_multiplicity
 _atom_site_fract_x
 _atom_site_fract_y
 _atom_site_fract_z
 _atom_site_occupancy
  La  La0  1  0.997156  0.997156  0.005689  1
  La  La1  1  0.497532  0.497532  0.004936  1
  La  La2  1  0.747835  0.247835  0.504331  1
  La  La3  1  0.244880  0.744880  0.510242  1
  Ga  Ga4  1  0.200233  0.200233  0.599535  1
  Ga  Ga5  1  0.811187  0.811187  0.377629  1
  Ga  Ga6  1  0.612795  0.123828  0.251914  1
  Ga  Ga7  1  0.135289  0.624257  0.251914  1
  Ga  Ga8  1  0.612795  0.624257  0.251914  1
  Ga  Ga9  1  0.135289  0.123828  0.251914  1
  Ga  Ga10  1  0.860189  0.353515  0.757526  1
  Ga  Ga11  1  0.382285  0.888957  0.757526  1
  Ga  Ga12  1  0.860189  0.888957  0.757526  1
  Ga  Ga13  1  0.382285  0.353515  0.757526  1
  Ga  Ga14  1  0.692147  0.692147  0.615706  1
  Ga  Ga15  1  0.062980  0.562980  0.874041  1
  Ga  Ga16  1  0.455457  0.955457  0.089086  1
  Ga  Ga17  1  0.943599  0.443599  0.112801  1
  Co  Co18  1  0.565379  0.065379  0.869242  1
  Rh  Rh19  1  0.315331  0.315331  0.369338  1
