# generated using pymatgen
data_LaNd7(Sc3Sn4)4
_symmetry_space_group_name_H-M   'P 1'
_cell_length_a   7.85935217
_cell_length_b   7.99160957
_cell_length_c   15.04374700
_cell_angle_alpha   90.01074707
_cell_angle_beta   90.07739944
_cell_angle_gamma   90.09257226
_symmetry_Int_Tables_number   1
_chemical_formula_structural   LaNd7(Sc3Sn4)4
_chemical_formula_sum   'La1 Nd7 Sc12 Sn16'
_cell_volume   944.87869831
_cell_formula_units_Z   1
loop_
 _symmetry_equiv_pos_site_id
 _symmetry_equiv_pos_as_xyz
  1  'x, y, z'
loop_
 _atom_site_type_symbol
 _atom_site_label
 _atom_site_symmetry_multiplicity
 _atom_site_fract_x
 _atom_site_fract_y
 _atom_site_fract_z
 _atom_site_occupancy
  La  La0  1  0.012079  0.173370  0.905543  1
  Nd  Nd1  1  0.512852  0.326085  0.904748  1
  Nd  Nd2  1  0.012407  0.174057  0.595223  1
  Nd  Nd3  1  0.487471  0.674228  0.404772  1
  Nd  Nd4  1  0.987383  0.825536  0.095728  1
  Nd  Nd5  1  0.487049  0.674520  0.095416  1
  Nd  Nd6  1  0.987611  0.825792  0.404706  1
  Nd  Nd7  1  0.512355  0.326077  0.594721  1
  Sc  Sc8  1  0.353070  0.837160  0.873816  1
  Sc  Sc9  1  0.852285  0.662913  0.625929  1
  Sc  Sc10  1  0.647816  0.163061  0.373873  1
  Sc  Sc11  1  0.147564  0.337329  0.126381  1
  Sc  Sc12  1  0.647388  0.162698  0.126163  1
  Sc  Sc13  1  0.147687  0.336850  0.373758  1
  Sc  Sc14  1  0.352131  0.837025  0.626052  1
  Sc  Sc15  1  0.852310  0.662889  0.873731  1
  Sc  Sc16  1  0.184687  0.506206  0.749854  1
  Sc  Sc17  1  0.684533  0.993801  0.749803  1
  Sc  Sc18  1  0.815347  0.494176  0.249904  1
  Sc  Sc19  1  0.315485  0.006015  0.249868  1
  Sn  Sn20  1  0.317917  0.044466  0.044104  1
  Sn  Sn21  1  0.816335  0.455263  0.456800  1
  Sn  Sn22  1  0.683670  0.954748  0.543260  1
  Sn  Sn23  1  0.184753  0.546490  0.956827  1
  Sn  Sn24  1  0.682739  0.953479  0.957123  1
  Sn  Sn25  1  0.183655  0.544631  0.543264  1
  Sn  Sn26  1  0.316438  0.045139  0.456777  1
  Sn  Sn27  1  0.815291  0.456114  0.043707  1
  Sn  Sn28  1  0.548421  0.631607  0.750036  1
  Sn  Sn29  1  0.049000  0.867606  0.749532  1
  Sn  Sn30  1  0.451328  0.368689  0.249920  1
  Sn  Sn31  1  0.950930  0.131210  0.250045  1
  Sn  Sn32  1  0.322678  0.141650  0.749419  1
  Sn  Sn33  1  0.820430  0.359170  0.749054  1
  Sn  Sn34  1  0.678427  0.858278  0.250125  1
  Sn  Sn35  1  0.178477  0.641667  0.250018  1
