# generated using pymatgen
data_LiZrReH6
_symmetry_space_group_name_H-M   'P 1'
_cell_length_a   4.69820609
_cell_length_b   4.69822436
_cell_length_c   4.69821500
_cell_angle_alpha   60.00013815
_cell_angle_beta   59.99939440
_cell_angle_gamma   59.99952915
_symmetry_Int_Tables_number   1
_chemical_formula_structural   LiZrReH6
_chemical_formula_sum   'Li1 Zr1 Re1 H6'
_cell_volume   73.32982114
_cell_formula_units_Z   1
loop_
 _symmetry_equiv_pos_site_id
 _symmetry_equiv_pos_as_xyz
  1  'x, y, z'
loop_
 _atom_site_type_symbol
 _atom_site_label
 _atom_site_symmetry_multiplicity
 _atom_site_fract_x
 _atom_site_fract_y
 _atom_site_fract_z
 _atom_site_occupancy
  Li  Li0  1  0.750000  0.750001  0.750000  1
  Zr  Zr1  1  0.249999  0.250002  0.250000  1
  Re  Re2  1  0.999997  0.999996  0.000003  1
  H  H3  1  0.736107  0.736106  0.263894  1
  H  H4  1  0.736104  0.263896  0.263895  1
  H  H5  1  0.263894  0.736106  0.263895  1
  H  H6  1  0.263894  0.736105  0.736105  1
  H  H7  1  0.736105  0.263896  0.736107  1
  H  H8  1  0.263894  0.263895  0.736106  1
