# generated using pymatgen
data_Na2GePt2
_symmetry_space_group_name_H-M   'P 1'
_cell_length_a   5.61711530
_cell_length_b   5.61711529
_cell_length_c   7.60200936
_cell_angle_alpha   81.04546348
_cell_angle_beta   81.04546220
_cell_angle_gamma   63.63462215
_symmetry_Int_Tables_number   1
_chemical_formula_structural   Na2GePt2
_chemical_formula_sum   'Na4 Ge2 Pt4'
_cell_volume   211.27224784
_cell_formula_units_Z   2
loop_
 _symmetry_equiv_pos_site_id
 _symmetry_equiv_pos_as_xyz
  1  'x, y, z'
loop_
 _atom_site_type_symbol
 _atom_site_label
 _atom_site_symmetry_multiplicity
 _atom_site_fract_x
 _atom_site_fract_y
 _atom_site_fract_z
 _atom_site_occupancy
  Na  Na0  1  0.772421  0.522040  0.854470  1
  Na  Na1  1  0.477960  0.227579  0.645530  1
  Na  Na2  1  0.227579  0.477960  0.145530  1
  Na  Na3  1  0.522040  0.772421  0.354470  1
  Ge  Ge4  1  0.071555  0.928445  0.750000  1
  Ge  Ge5  1  0.928445  0.071555  0.250000  1
  Pt  Pt6  1  0.005560  0.726729  0.507352  1
  Pt  Pt7  1  0.273271  0.994440  0.992648  1
  Pt  Pt8  1  0.994440  0.273271  0.492648  1
  Pt  Pt9  1  0.726729  0.005560  0.007352  1
