# generated using pymatgen
data_DyU5(Co7B2)2
_symmetry_space_group_name_H-M   'P 1'
_cell_length_a   4.95524200
_cell_length_b   4.95524247
_cell_length_c   13.86176900
_cell_angle_alpha   90.00000000
_cell_angle_beta   90.00000000
_cell_angle_gamma   119.99999684
_symmetry_Int_Tables_number   1
_chemical_formula_structural   DyU5(Co7B2)2
_chemical_formula_sum   'Dy1 U5 Co14 B4'
_cell_volume   294.76714994
_cell_formula_units_Z   1
loop_
 _symmetry_equiv_pos_site_id
 _symmetry_equiv_pos_as_xyz
  1  'x, y, z'
loop_
 _atom_site_type_symbol
 _atom_site_label
 _atom_site_symmetry_multiplicity
 _atom_site_fract_x
 _atom_site_fract_y
 _atom_site_fract_z
 _atom_site_occupancy
  Dy  Dy0  1  0.333333  0.666667  0.250000  1
  U  U1  1  0.666667  0.333333  0.750000  1
  U  U2  1  0.333333  0.666667  0.026872  1
  U  U3  1  0.666667  0.333333  0.527428  1
  U  U4  1  0.666667  0.333333  0.972572  1
  U  U5  1  0.333333  0.666667  0.473128  1
  Co  Co6  1  0.000000  0.000000  0.998806  1
  Co  Co7  1  0.000000  0.000000  0.501194  1
  Co  Co8  1  0.834462  0.668924  0.144469  1
  Co  Co9  1  0.165415  0.834585  0.647298  1
  Co  Co10  1  0.669170  0.834585  0.647298  1
  Co  Co11  1  0.331076  0.165538  0.144469  1
  Co  Co12  1  0.834462  0.165538  0.144469  1
  Co  Co13  1  0.165415  0.330830  0.852702  1
  Co  Co14  1  0.165415  0.834585  0.852702  1
  Co  Co15  1  0.165415  0.330830  0.647298  1
  Co  Co16  1  0.669170  0.834585  0.852702  1
  Co  Co17  1  0.331076  0.165538  0.355531  1
  Co  Co18  1  0.834462  0.668924  0.355531  1
  Co  Co19  1  0.834462  0.165538  0.355531  1
  B  B20  1  0.000000  0.000000  0.250000  1
  B  B21  1  0.000000  0.000000  0.750000  1
  B  B22  1  0.333333  0.666667  0.750000  1
  B  B23  1  0.666667  0.333333  0.250000  1
