# generated using pymatgen
data_Y16Tm4Ir11Ru
_symmetry_space_group_name_H-M   'P 1'
_cell_length_a   10.88567400
_cell_length_b   10.88567400
_cell_length_c   6.38571600
_cell_angle_alpha   90.00000000
_cell_angle_beta   90.00000000
_cell_angle_gamma   90.00000000
_symmetry_Int_Tables_number   1
_chemical_formula_structural   Y16Tm4Ir11Ru
_chemical_formula_sum   'Y16 Tm4 Ir11 Ru1'
_cell_volume   756.69392600
_cell_formula_units_Z   1
loop_
 _symmetry_equiv_pos_site_id
 _symmetry_equiv_pos_as_xyz
  1  'x, y, z'
loop_
 _atom_site_type_symbol
 _atom_site_label
 _atom_site_symmetry_multiplicity
 _atom_site_fract_x
 _atom_site_fract_y
 _atom_site_fract_z
 _atom_site_occupancy
  Y  Y0  1  0.291570  0.087012  0.376332  1
  Y  Y1  1  0.291759  0.913006  0.878440  1
  Y  Y2  1  0.708241  0.086994  0.878440  1
  Y  Y3  1  0.708430  0.912988  0.376332  1
  Y  Y4  1  0.586994  0.791759  0.878440  1
  Y  Y5  1  0.587012  0.208430  0.376332  1
  Y  Y6  1  0.412988  0.791570  0.376332  1
  Y  Y7  1  0.413006  0.208241  0.878440  1
  Y  Y8  1  0.209736  0.412306  0.622478  1
  Y  Y9  1  0.209739  0.587681  0.122380  1
  Y  Y10  1  0.790261  0.412319  0.122380  1
  Y  Y11  1  0.790264  0.587694  0.622478  1
  Y  Y12  1  0.912319  0.709739  0.122380  1
  Y  Y13  1  0.912306  0.290264  0.622478  1
  Y  Y14  1  0.087694  0.709736  0.622478  1
  Y  Y15  1  0.087681  0.290261  0.122380  1
  Tm  Tm16  1  0.000000  0.000000  0.499820  1
  Tm  Tm17  1  0.000000  0.000000  0.999865  1
  Tm  Tm18  1  0.500000  0.500000  0.999865  1
  Tm  Tm19  1  0.500000  0.500000  0.499820  1
  Ir  Ir20  1  0.849045  0.151539  0.250124  1
  Ir  Ir21  1  0.849139  0.848652  0.749990  1
  Ir  Ir22  1  0.150861  0.151348  0.749990  1
  Ir  Ir23  1  0.150955  0.848461  0.250124  1
  Ir  Ir24  1  0.651348  0.349139  0.749990  1
  Ir  Ir25  1  0.651539  0.650955  0.250124  1
  Ir  Ir26  1  0.348461  0.349045  0.250124  1
  Ir  Ir27  1  0.348652  0.650861  0.749990  1
  Ir  Ir28  1  0.500000  0.000000  0.623025  1
  Ir  Ir29  1  0.000000  0.500000  0.877570  1
  Ir  Ir30  1  0.000000  0.500000  0.377613  1
  Ru  Ru31  1  0.500000  0.000000  0.123448  1
