# generated using pymatgen
data_Rb8HfPa2VTe12
_symmetry_space_group_name_H-M   'P 1'
_cell_length_a   14.72814868
_cell_length_b   7.08901960
_cell_length_c   9.86171214
_cell_angle_alpha   71.99540724
_cell_angle_beta   90.05535541
_cell_angle_gamma   90.09038655
_symmetry_Int_Tables_number   1
_chemical_formula_structural   Rb8HfPa2VTe12
_chemical_formula_sum   'Rb8 Hf1 Pa2 V1 Te12'
_cell_volume   979.22180556
_cell_formula_units_Z   1
loop_
 _symmetry_equiv_pos_site_id
 _symmetry_equiv_pos_as_xyz
  1  'x, y, z'
loop_
 _atom_site_type_symbol
 _atom_site_label
 _atom_site_symmetry_multiplicity
 _atom_site_fract_x
 _atom_site_fract_y
 _atom_site_fract_z
 _atom_site_occupancy
  Rb  Rb0  1  0.958422  0.672888  0.656269  1
  Rb  Rb1  1  0.454429  0.828892  0.345149  1
  Rb  Rb2  1  0.044947  0.327892  0.345859  1
  Rb  Rb3  1  0.542877  0.172346  0.655907  1
  Rb  Rb4  1  0.870127  0.082694  0.903463  1
  Rb  Rb5  1  0.365925  0.416743  0.096431  1
  Rb  Rb6  1  0.133930  0.922721  0.099107  1
  Rb  Rb7  1  0.629644  0.574797  0.901728  1
  Hf  Hf8  1  0.749937  0.156805  0.294232  1
  Pa  Pa9  1  0.749748  0.655809  0.296053  1
  Pa  Pa10  1  0.249893  0.845315  0.702247  1
  V  V11  1  0.250808  0.341336  0.709341  1
  Te  Te12  1  0.912792  0.923099  0.281151  1
  Te  Te13  1  0.408824  0.573402  0.718561  1
  Te  Te14  1  0.091394  0.104743  0.720585  1
  Te  Te15  1  0.586968  0.399314  0.279630  1
  Te  Te16  1  0.817531  0.294845  0.525129  1
  Te  Te17  1  0.313430  0.213582  0.479159  1
  Te  Te18  1  0.186617  0.670920  0.479366  1
  Te  Te19  1  0.681685  0.818027  0.525009  1
  Te  Te20  1  0.844677  0.489788  0.082140  1
  Te  Te21  1  0.344317  0.019205  0.911384  1
  Te  Te22  1  0.155903  0.486467  0.909412  1
  Te  Te23  1  0.655173  0.008368  0.082686  1
