# generated using pymatgen
data_Lu4VTc3B16
_symmetry_space_group_name_H-M   'P 1'
_cell_length_a   3.53199000
_cell_length_b   5.92477788
_cell_length_c   11.43833730
_cell_angle_alpha   89.83848231
_cell_angle_beta   90.00000000
_cell_angle_gamma   90.00000000
_symmetry_Int_Tables_number   1
_chemical_formula_structural   Lu4VTc3B16
_chemical_formula_sum   'Lu4 V1 Tc3 B16'
_cell_volume   239.36062589
_cell_formula_units_Z   1
loop_
 _symmetry_equiv_pos_site_id
 _symmetry_equiv_pos_as_xyz
  1  'x, y, z'
loop_
 _atom_site_type_symbol
 _atom_site_label
 _atom_site_symmetry_multiplicity
 _atom_site_fract_x
 _atom_site_fract_y
 _atom_site_fract_z
 _atom_site_occupancy
  Lu  Lu0  1  0.000000  0.373250  0.649557  1
  Lu  Lu1  1  0.000000  0.626753  0.350284  1
  Lu  Lu2  1  0.000000  0.870821  0.850104  1
  Lu  Lu3  1  0.000000  0.128619  0.150896  1
  V  V4  1  0.000000  0.129466  0.417416  1
  Tc  Tc5  1  0.000000  0.363738  0.911655  1
  Tc  Tc6  1  0.000000  0.635571  0.087134  1
  Tc  Tc7  1  0.000000  0.871760  0.583757  1
  B  B8  1  0.500000  0.021510  0.693610  1
  B  B9  1  0.500000  0.978790  0.306393  1
  B  B10  1  0.500000  0.522956  0.806207  1
  B  B11  1  0.500000  0.477209  0.193922  1
  B  B12  1  0.500000  0.114703  0.547968  1
  B  B13  1  0.500000  0.885419  0.451878  1
  B  B14  1  0.500000  0.613740  0.951894  1
  B  B15  1  0.500000  0.385406  0.048257  1
  B  B16  1  0.500000  0.288710  0.314802  1
  B  B17  1  0.500000  0.711488  0.684901  1
  B  B18  1  0.500000  0.788528  0.185968  1
  B  B19  1  0.500000  0.211348  0.813569  1
  B  B20  1  0.500000  0.366705  0.468131  1
  B  B21  1  0.500000  0.633977  0.531717  1
  B  B22  1  0.500000  0.865461  0.030848  1
  B  B23  1  0.500000  0.134072  0.969133  1
