# generated using pymatgen
data_NdEuFe7Ni5P7
_symmetry_space_group_name_H-M   'P 1'
_cell_length_a   9.10622512
_cell_length_b   9.14376830
_cell_length_c   3.68012400
_cell_angle_alpha   90.00000000
_cell_angle_beta   90.00000000
_cell_angle_gamma   120.00469083
_symmetry_Int_Tables_number   1
_chemical_formula_structural   NdEuFe7Ni5P7
_chemical_formula_sum   'Nd1 Eu1 Fe7 Ni5 P7'
_cell_volume   265.36042194
_cell_formula_units_Z   1
loop_
 _symmetry_equiv_pos_site_id
 _symmetry_equiv_pos_as_xyz
  1  'x, y, z'
loop_
 _atom_site_type_symbol
 _atom_site_label
 _atom_site_symmetry_multiplicity
 _atom_site_fract_x
 _atom_site_fract_y
 _atom_site_fract_z
 _atom_site_occupancy
  Nd  Nd0  1  0.668504  0.334357  0.000000  1
  Eu  Eu1  1  0.332772  0.667025  0.500000  1
  Fe  Fe2  1  0.271549  0.117377  0.000000  1
  Fe  Fe3  1  0.844015  0.727376  0.000000  1
  Fe  Fe4  1  0.883708  0.152288  0.000000  1
  Fe  Fe5  1  0.952273  0.383983  0.500000  1
  Fe  Fe6  1  0.095875  0.878997  0.500000  1
  Fe  Fe7  1  0.786573  0.904125  0.500000  1
  Fe  Fe8  1  0.115590  0.210988  0.500000  1
  Ni  Ni9  1  0.058342  0.629691  0.000000  1
  Ni  Ni10  1  0.569576  0.943972  0.000000  1
  Ni  Ni11  1  0.370661  0.430910  0.000000  1
  Ni  Ni12  1  0.434443  0.049665  0.500000  1
  Ni  Ni13  1  0.614527  0.566774  0.500000  1
  P  P14  1  0.294099  0.891205  0.000000  1
  P  P15  1  0.595434  0.706657  0.000000  1
  P  P16  1  0.104343  0.405340  0.000000  1
  P  P17  1  0.391721  0.283042  0.500000  1
  P  P18  1  0.892114  0.602756  0.500000  1
  P  P19  1  0.723904  0.115770  0.500000  1
  P  P20  1  0.999978  0.997703  0.000000  1
