# generated using pymatgen
data_LaNd5(InHg2)6
_symmetry_space_group_name_H-M   'P 1'
_cell_length_a   5.21337535
_cell_length_b   7.48815200
_cell_length_c   15.99829800
_cell_angle_alpha   90.00000000
_cell_angle_beta   89.91791454
_cell_angle_gamma   90.00000000
_symmetry_Int_Tables_number   1
_chemical_formula_structural   LaNd5(InHg2)6
_chemical_formula_sum   'La1 Nd5 In6 Hg12'
_cell_volume   624.54966834
_cell_formula_units_Z   1
loop_
 _symmetry_equiv_pos_site_id
 _symmetry_equiv_pos_as_xyz
  1  'x, y, z'
loop_
 _atom_site_type_symbol
 _atom_site_label
 _atom_site_symmetry_multiplicity
 _atom_site_fract_x
 _atom_site_fract_y
 _atom_site_fract_z
 _atom_site_occupancy
  La  La0  1  0.498870  0.500000  0.833645  1
  Nd  Nd1  1  0.000173  0.000000  0.001116  1
  Nd  Nd2  1  0.498931  0.500000  0.167892  1
  Nd  Nd3  1  0.000335  0.000000  0.333293  1
  Nd  Nd4  1  0.501368  0.500000  0.498927  1
  Nd  Nd5  1  0.999646  0.000000  0.665385  1
  In  In6  1  0.999830  0.500000  0.000420  1
  In  In7  1  0.499788  0.000000  0.169245  1
  In  In8  1  0.999164  0.500000  0.333352  1
  In  In9  1  0.501373  0.000000  0.497067  1
  In  In10  1  0.999850  0.500000  0.666348  1
  In  In11  1  0.500884  0.000000  0.833289  1
  Hg  Hg12  1  0.500022  0.248711  0.003252  1
  Hg  Hg13  1  0.500022  0.751288  0.003252  1
  Hg  Hg14  1  0.999252  0.248812  0.167264  1
  Hg  Hg15  1  0.999252  0.751189  0.167264  1
  Hg  Hg16  1  0.499927  0.251807  0.333339  1
  Hg  Hg17  1  0.499927  0.748192  0.333339  1
  Hg  Hg18  1  0.001234  0.248716  0.499412  1
  Hg  Hg19  1  0.001234  0.751284  0.499412  1
  Hg  Hg20  1  0.499737  0.249042  0.663514  1
  Hg  Hg21  1  0.499737  0.750957  0.663514  1
  Hg  Hg22  1  0.999716  0.241928  0.833227  1
  Hg  Hg23  1  0.999716  0.758073  0.833227  1
