# generated using pymatgen
data_Ti6VTc12W5
_symmetry_space_group_name_H-M   'P 1'
_cell_length_a   4.38435200
_cell_length_b   6.22600600
_cell_length_c   13.25163300
_cell_angle_alpha   89.99994645
_cell_angle_beta   90.00028211
_cell_angle_gamma   90.00000000
_symmetry_Int_Tables_number   1
_chemical_formula_structural   Ti6VTc12W5
_chemical_formula_sum   'Ti6 V1 Tc12 W5'
_cell_volume   361.72985062
_cell_formula_units_Z   1
loop_
 _symmetry_equiv_pos_site_id
 _symmetry_equiv_pos_as_xyz
  1  'x, y, z'
loop_
 _atom_site_type_symbol
 _atom_site_label
 _atom_site_symmetry_multiplicity
 _atom_site_fract_x
 _atom_site_fract_y
 _atom_site_fract_z
 _atom_site_occupancy
  Ti  Ti0  1  0.000000  0.000000  0.000000  1
  Ti  Ti1  1  0.499925  0.500000  0.164337  1
  Ti  Ti2  1  0.999931  0.000000  0.331977  1
  Ti  Ti3  1  0.499999  0.500000  0.500000  1
  Ti  Ti4  1  0.000070  0.000000  0.668024  1
  Ti  Ti5  1  0.500074  0.500000  0.835663  1
  V  V6  1  0.000000  0.500000  0.000000  1
  Tc  Tc7  1  0.499999  0.252241  0.000000  1
  Tc  Tc8  1  0.499999  0.747759  0.000000  1
  Tc  Tc9  1  0.999931  0.251054  0.165620  1
  Tc  Tc10  1  0.999931  0.748946  0.165620  1
  Tc  Tc11  1  0.499932  0.250138  0.332880  1
  Tc  Tc12  1  0.499931  0.749862  0.332880  1
  Tc  Tc13  1  0.000000  0.249874  0.500000  1
  Tc  Tc14  1  0.000000  0.750126  0.500000  1
  Tc  Tc15  1  0.500068  0.250138  0.667120  1
  Tc  Tc16  1  0.500067  0.749862  0.667120  1
  Tc  Tc17  1  0.000070  0.251054  0.834380  1
  Tc  Tc18  1  0.000070  0.748946  0.834380  1
  W  W19  1  0.499927  0.000000  0.164903  1
  W  W20  1  0.999932  0.500000  0.332247  1
  W  W21  1  0.499999  0.000000  0.500000  1
  W  W22  1  0.000069  0.500000  0.667752  1
  W  W23  1  0.500072  0.000000  0.835097  1
