# generated using pymatgen
data_Pr12Nd4Cd4IrOs3
_symmetry_space_group_name_H-M   'P 1'
_cell_length_a   9.98452443
_cell_length_b   10.00890933
_cell_length_c   10.00890800
_cell_angle_alpha   59.99999780
_cell_angle_beta   59.91917520
_cell_angle_gamma   59.91917915
_symmetry_Int_Tables_number   1
_chemical_formula_structural   Pr12Nd4Cd4IrOs3
_chemical_formula_sum   'Pr12 Nd4 Cd4 Ir1 Os3'
_cell_volume   706.40570763
_cell_formula_units_Z   1
loop_
 _symmetry_equiv_pos_site_id
 _symmetry_equiv_pos_as_xyz
  1  'x, y, z'
loop_
 _atom_site_type_symbol
 _atom_site_label
 _atom_site_symmetry_multiplicity
 _atom_site_fract_x
 _atom_site_fract_y
 _atom_site_fract_z
 _atom_site_occupancy
  Pr  Pr0  1  0.810364  0.191160  0.191160  1
  Pr  Pr1  1  0.190329  0.809455  0.809455  1
  Pr  Pr2  1  0.190329  0.809455  0.190762  1
  Pr  Pr3  1  0.810364  0.191160  0.807316  1
  Pr  Pr4  1  0.190329  0.190762  0.809455  1
  Pr  Pr5  1  0.810364  0.807316  0.191160  1
  Pr  Pr6  1  0.939022  0.560752  0.560752  1
  Pr  Pr7  1  0.557303  0.940378  0.940378  1
  Pr  Pr8  1  0.557303  0.940378  0.561940  1
  Pr  Pr9  1  0.939022  0.560752  0.939473  1
  Pr  Pr10  1  0.557303  0.561940  0.940378  1
  Pr  Pr11  1  0.939022  0.939473  0.560752  1
  Nd  Nd12  1  0.345696  0.347094  0.347094  1
  Nd  Nd13  1  0.345696  0.347094  0.960117  1
  Nd  Nd14  1  0.345696  0.960117  0.347094  1
  Nd  Nd15  1  0.963346  0.345551  0.345551  1
  Cd  Cd16  1  0.579215  0.579572  0.579572  1
  Cd  Cd17  1  0.579215  0.579572  0.261641  1
  Cd  Cd18  1  0.579215  0.261641  0.579572  1
  Cd  Cd19  1  0.261145  0.579618  0.579618  1
  Ir  Ir20  1  0.580888  0.139704  0.139704  1
  Os  Os21  1  0.142945  0.137158  0.137158  1
  Os  Os22  1  0.142945  0.137158  0.582740  1
  Os  Os23  1  0.142945  0.582740  0.137158  1
