# generated using pymatgen
data_Sr3Ca2Np5O18
_symmetry_space_group_name_H-M   'P 1'
_cell_length_a   6.92723108
_cell_length_b   7.64071255
_cell_length_c   8.61879670
_cell_angle_alpha   99.86132170
_cell_angle_beta   97.84531718
_cell_angle_gamma   107.57495020
_symmetry_Int_Tables_number   1
_chemical_formula_structural   Sr3Ca2Np5O18
_chemical_formula_sum   'Sr3 Ca2 Np5 O18'
_cell_volume   419.77447024
_cell_formula_units_Z   1
loop_
 _symmetry_equiv_pos_site_id
 _symmetry_equiv_pos_as_xyz
  1  'x, y, z'
loop_
 _atom_site_type_symbol
 _atom_site_label
 _atom_site_symmetry_multiplicity
 _atom_site_fract_x
 _atom_site_fract_y
 _atom_site_fract_z
 _atom_site_occupancy
  Sr  Sr0  1  0.597597  0.694158  0.195502  1
  Sr  Sr1  1  0.403619  0.306244  0.806261  1
  Sr  Sr2  1  0.198358  0.899299  0.416290  1
  Ca  Ca3  1  0.806979  0.113540  0.582521  1
  Ca  Ca4  1  0.998904  0.499024  0.997580  1
  Np  Np5  1  0.997926  0.998796  0.996994  1
  Np  Np6  1  0.788565  0.578792  0.586932  1
  Np  Np7  1  0.626224  0.198382  0.195867  1
  Np  Np8  1  0.377646  0.801467  0.805047  1
  Np  Np9  1  0.208759  0.421620  0.413344  1
  O  O10  1  0.822860  0.792821  0.475422  1
  O  O11  1  0.015816  0.225590  0.176079  1
  O  O12  1  0.681836  0.399361  0.069533  1
  O  O13  1  0.463744  0.998307  0.682068  1
  O  O14  1  0.863750  0.348122  0.416289  1
  O  O15  1  0.498856  0.391900  0.347455  1
  O  O16  1  0.240599  0.605600  0.274553  1
  O  O17  1  0.978614  0.820323  0.143106  1
  O  O18  1  0.665208  0.940049  0.994255  1
  O  O19  1  0.332815  0.059296  0.007062  1
  O  O20  1  0.012286  0.173165  0.846967  1
  O  O21  1  0.759016  0.387121  0.719579  1
  O  O22  1  0.500356  0.603754  0.655641  1
  O  O23  1  0.137658  0.652446  0.583862  1
  O  O24  1  0.553709  0.004859  0.324205  1
  O  O25  1  0.318859  0.600413  0.931472  1
  O  O26  1  0.982499  0.769947  0.821973  1
  O  O27  1  0.166942  0.215604  0.534141  1
