# generated using pymatgen
data_Dy16Cd4NiOs3
_symmetry_space_group_name_H-M   'P 1'
_cell_length_a   9.51512327
_cell_length_b   9.72018043
_cell_length_c   9.72018000
_cell_angle_alpha   60.00000145
_cell_angle_beta   59.28451371
_cell_angle_gamma   59.28451108
_symmetry_Int_Tables_number   1
_chemical_formula_structural   Dy16Cd4NiOs3
_chemical_formula_sum   'Dy16 Cd4 Ni1 Os3'
_cell_volume   628.73218442
_cell_formula_units_Z   1
loop_
 _symmetry_equiv_pos_site_id
 _symmetry_equiv_pos_as_xyz
  1  'x, y, z'
loop_
 _atom_site_type_symbol
 _atom_site_label
 _atom_site_symmetry_multiplicity
 _atom_site_fract_x
 _atom_site_fract_y
 _atom_site_fract_z
 _atom_site_occupancy
  Dy  Dy0  1  0.601949  0.595505  0.595505  1
  Dy  Dy1  1  0.601949  0.595505  0.207041  1
  Dy  Dy2  1  0.601949  0.207041  0.595505  1
  Dy  Dy3  1  0.218061  0.593980  0.593980  1
  Dy  Dy4  1  0.060549  0.439065  0.439065  1
  Dy  Dy5  1  0.435710  0.060936  0.060936  1
  Dy  Dy6  1  0.435710  0.060936  0.442418  1
  Dy  Dy7  1  0.060549  0.439065  0.061321  1
  Dy  Dy8  1  0.435710  0.442418  0.060936  1
  Dy  Dy9  1  0.060549  0.061321  0.439065  1
  Dy  Dy10  1  0.186305  0.811682  0.811682  1
  Dy  Dy11  1  0.804972  0.188245  0.188245  1
  Dy  Dy12  1  0.804972  0.188245  0.818539  1
  Dy  Dy13  1  0.186305  0.811682  0.190332  1
  Dy  Dy14  1  0.804972  0.818539  0.188245  1
  Dy  Dy15  1  0.186305  0.190332  0.811682  1
  Cd  Cd16  1  0.828386  0.830145  0.830145  1
  Cd  Cd17  1  0.828386  0.830145  0.511324  1
  Cd  Cd18  1  0.828386  0.511324  0.830145  1
  Cd  Cd19  1  0.506289  0.831237  0.831237  1
  Ni  Ni20  1  0.828215  0.390595  0.390595  1
  Os  Os21  1  0.397940  0.386761  0.386761  1
  Os  Os22  1  0.397940  0.386761  0.828538  1
  Os  Os23  1  0.397940  0.828538  0.386761  1
