# generated using pymatgen
data_Tb11DyCo6Sn
_symmetry_space_group_name_H-M   'P 1'
_cell_length_a   8.39354762
_cell_length_b   8.39354802
_cell_length_c   8.39505407
_cell_angle_alpha   109.48694757
_cell_angle_beta   109.47550883
_cell_angle_gamma   109.44393884
_symmetry_Int_Tables_number   1
_chemical_formula_structural   Tb11DyCo6Sn
_chemical_formula_sum   'Tb11 Dy1 Co6 Sn1'
_cell_volume   455.33563210
_cell_formula_units_Z   1
loop_
 _symmetry_equiv_pos_site_id
 _symmetry_equiv_pos_as_xyz
  1  'x, y, z'
loop_
 _atom_site_type_symbol
 _atom_site_label
 _atom_site_symmetry_multiplicity
 _atom_site_fract_x
 _atom_site_fract_y
 _atom_site_fract_z
 _atom_site_occupancy
  Tb  Tb0  1  0.194253  0.303192  0.497444  1
  Tb  Tb1  1  0.194064  0.696826  0.890892  1
  Tb  Tb2  1  0.805671  0.303350  0.109020  1
  Tb  Tb3  1  0.696751  0.502504  0.805566  1
  Tb  Tb4  1  0.303543  0.497627  0.194452  1
  Tb  Tb5  1  0.696825  0.890910  0.194452  1
  Tb  Tb6  1  0.303063  0.108814  0.805566  1
  Tb  Tb7  1  0.502662  0.805722  0.696720  1
  Tb  Tb8  1  0.497619  0.194491  0.303342  1
  Tb  Tb9  1  0.108850  0.805723  0.303342  1
  Tb  Tb10  1  0.890999  0.194059  0.696720  1
  Dy  Dy11  1  0.805760  0.696429  0.502190  1
  Co  Co12  1  0.886922  0.387322  0.499994  1
  Co  Co13  1  0.112672  0.613072  0.499994  1
  Co  Co14  1  0.387206  0.499952  0.887158  1
  Co  Co15  1  0.613088  0.500094  0.113182  1
  Co  Co16  1  0.500148  0.887083  0.387231  1
  Co  Co17  1  0.499975  0.112931  0.612906  1
  Sn  Sn18  1  0.999930  0.999900  0.999830  1
