# generated using pymatgen
data_Rb12Na8Ti3GeP12
_symmetry_space_group_name_H-M   'P 1'
_cell_length_a   10.53758106
_cell_length_b   10.53758055
_cell_length_c   15.47051865
_cell_angle_alpha   90.04362009
_cell_angle_beta   90.04362133
_cell_angle_gamma   142.48753129
_symmetry_Int_Tables_number   1
_chemical_formula_structural   Rb12Na8Ti3GeP12
_chemical_formula_sum   'Rb12 Na8 Ti3 Ge1 P12'
_cell_volume   1046.05799195
_cell_formula_units_Z   1
loop_
 _symmetry_equiv_pos_site_id
 _symmetry_equiv_pos_as_xyz
  1  'x, y, z'
loop_
 _atom_site_type_symbol
 _atom_site_label
 _atom_site_symmetry_multiplicity
 _atom_site_fract_x
 _atom_site_fract_y
 _atom_site_fract_z
 _atom_site_occupancy
  Rb  Rb0  1  0.936188  0.603839  0.826770  1
  Rb  Rb1  1  0.556963  0.893257  0.324405  1
  Rb  Rb2  1  0.396161  0.063812  0.173230  1
  Rb  Rb3  1  0.056664  0.392677  0.175041  1
  Rb  Rb4  1  0.892088  0.556333  0.325039  1
  Rb  Rb5  1  0.443667  0.107912  0.674961  1
  Rb  Rb6  1  0.607323  0.943336  0.824959  1
  Rb  Rb7  1  0.274060  0.273810  0.316512  1
  Rb  Rb8  1  0.772430  0.770593  0.183603  1
  Rb  Rb9  1  0.229407  0.227570  0.816397  1
  Rb  Rb10  1  0.726190  0.725940  0.683488  1
  Rb  Rb11  1  0.106743  0.443037  0.675595  1
  Na  Na12  1  0.920610  0.079390  0.000000  1
  Na  Na13  1  0.579311  0.420689  0.500000  1
  Na  Na14  1  0.079882  0.920118  0.000000  1
  Na  Na15  1  0.420617  0.579383  0.500000  1
  Na  Na16  1  0.754349  0.245651  0.000000  1
  Na  Na17  1  0.745023  0.254977  0.500000  1
  Na  Na18  1  0.244991  0.755009  0.000000  1
  Na  Na19  1  0.255052  0.744948  0.500000  1
  Ti  Ti20  1  0.915580  0.084420  0.500000  1
  Ti  Ti21  1  0.418774  0.581226  0.000000  1
  Ti  Ti22  1  0.084451  0.915549  0.500000  1
  Ge  Ge23  1  0.582646  0.417354  0.000000  1
  P  P24  1  0.855931  0.553013  0.093222  1
  P  P25  1  0.446987  0.144069  0.906778  1
  P  P26  1  0.642048  0.947789  0.592398  1
  P  P27  1  0.947769  0.641940  0.592357  1
  P  P28  1  0.144674  0.448451  0.907955  1
  P  P29  1  0.551549  0.855326  0.092045  1
  P  P30  1  0.358060  0.052231  0.407643  1
  P  P31  1  0.189487  0.189533  0.582475  1
  P  P32  1  0.693062  0.691413  0.914766  1
  P  P33  1  0.308587  0.306938  0.085234  1
  P  P34  1  0.052211  0.357952  0.407602  1
  P  P35  1  0.810467  0.810513  0.417525  1
