# generated using pymatgen
data_YHo3Ga5Ir9
_symmetry_space_group_name_H-M   'P 1'
_cell_length_a   5.56459500
_cell_length_b   5.56459457
_cell_length_c   23.68769800
_cell_angle_alpha   90.00000000
_cell_angle_beta   90.00000000
_cell_angle_gamma   119.99998473
_symmetry_Int_Tables_number   1
_chemical_formula_structural   YHo3Ga5Ir9
_chemical_formula_sum   'Y2 Ho6 Ga10 Ir18'
_cell_volume   635.21485337
_cell_formula_units_Z   2
loop_
 _symmetry_equiv_pos_site_id
 _symmetry_equiv_pos_as_xyz
  1  'x, y, z'
loop_
 _atom_site_type_symbol
 _atom_site_label
 _atom_site_symmetry_multiplicity
 _atom_site_fract_x
 _atom_site_fract_y
 _atom_site_fract_z
 _atom_site_occupancy
  Y  Y0  1  0.666667  0.333333  0.178159  1
  Y  Y1  1  0.333333  0.666667  0.821841  1
  Ho  Ho2  1  0.333333  0.666667  0.530223  1
  Ho  Ho3  1  0.666667  0.333333  0.469777  1
  Ho  Ho4  1  0.666667  0.333333  0.030045  1
  Ho  Ho5  1  0.333333  0.666667  0.969955  1
  Ho  Ho6  1  0.333333  0.666667  0.678529  1
  Ho  Ho7  1  0.666667  0.333333  0.321471  1
  Ga  Ga8  1  0.000000  0.000000  0.000000  1
  Ga  Ga9  1  0.000000  0.000000  0.500000  1
  Ga  Ga10  1  0.333333  0.666667  0.168038  1
  Ga  Ga11  1  0.666667  0.333333  0.831962  1
  Ga  Ga12  1  0.666667  0.333333  0.667888  1
  Ga  Ga13  1  0.333333  0.666667  0.332112  1
  Ga  Ga14  1  0.000000  0.000000  0.165083  1
  Ga  Ga15  1  0.000000  0.000000  0.834917  1
  Ga  Ga16  1  0.000000  0.000000  0.664967  1
  Ga  Ga17  1  0.000000  0.000000  0.335033  1
  Ir  Ir18  1  0.170808  0.341615  0.083061  1
  Ir  Ir19  1  0.829192  0.658385  0.916939  1
  Ir  Ir20  1  0.658385  0.829192  0.083061  1
  Ir  Ir21  1  0.829188  0.658378  0.583048  1
  Ir  Ir22  1  0.341615  0.170808  0.916939  1
  Ir  Ir23  1  0.170812  0.341622  0.416952  1
  Ir  Ir24  1  0.170808  0.829192  0.083061  1
  Ir  Ir25  1  0.341622  0.170812  0.583048  1
  Ir  Ir26  1  0.829192  0.170808  0.916939  1
  Ir  Ir27  1  0.658378  0.829188  0.416952  1
  Ir  Ir28  1  0.829188  0.170812  0.583048  1
  Ir  Ir29  1  0.170812  0.829188  0.416952  1
  Ir  Ir30  1  0.165176  0.330349  0.250174  1
  Ir  Ir31  1  0.834824  0.669651  0.749826  1
  Ir  Ir32  1  0.669651  0.834824  0.250174  1
  Ir  Ir33  1  0.330349  0.165176  0.749826  1
  Ir  Ir34  1  0.165176  0.834824  0.250174  1
  Ir  Ir35  1  0.834824  0.165176  0.749826  1
