# generated using pymatgen
data_ScPa3CuTe12
_symmetry_space_group_name_H-M   'P 1'
_cell_length_a   7.43313541
_cell_length_b   7.43101838
_cell_length_c   11.18248514
_cell_angle_alpha   70.75348455
_cell_angle_beta   70.80747387
_cell_angle_gamma   68.64801360
_symmetry_Int_Tables_number   1
_chemical_formula_structural   ScPa3CuTe12
_chemical_formula_sum   'Sc1 Pa3 Cu1 Te12'
_cell_volume   527.60057805
_cell_formula_units_Z   1
loop_
 _symmetry_equiv_pos_site_id
 _symmetry_equiv_pos_as_xyz
  1  'x, y, z'
loop_
 _atom_site_type_symbol
 _atom_site_label
 _atom_site_symmetry_multiplicity
 _atom_site_fract_x
 _atom_site_fract_y
 _atom_site_fract_z
 _atom_site_occupancy
  Sc  Sc0  1  0.192616  0.686240  0.168317  1
  Pa  Pa1  1  0.810651  0.810680  0.832634  1
  Pa  Pa2  1  0.312508  0.312537  0.834394  1
  Pa  Pa3  1  0.689564  0.194312  0.161090  1
  Cu  Cu4  1  0.812627  0.815282  0.533486  1
  Te  Te5  1  0.014600  0.005473  0.323086  1
  Te  Te6  1  0.498105  0.504359  0.329278  1
  Te  Te7  1  0.484223  0.993066  0.673288  1
  Te  Te8  1  0.991923  0.484558  0.673351  1
  Te  Te9  1  0.257079  0.263349  0.331400  1
  Te  Te10  1  0.760773  0.752900  0.327948  1
  Te  Te11  1  0.243481  0.742613  0.671657  1
  Te  Te12  1  0.742856  0.244143  0.671276  1
  Te  Te13  1  0.027817  0.011770  0.947381  1
  Te  Te14  1  0.510833  0.528681  0.946216  1
  Te  Te15  1  0.483026  0.982049  0.054739  1
  Te  Te16  1  0.978613  0.479285  0.054858  1
