# generated using pymatgen
data_Pr8Ir3PdO24
_symmetry_space_group_name_H-M   'P 1'
_cell_length_a   5.49692080
_cell_length_b   9.48648623
_cell_length_c   10.22701092
_cell_angle_alpha   89.95418060
_cell_angle_beta   90.25239794
_cell_angle_gamma   90.32792575
_symmetry_Int_Tables_number   1
_chemical_formula_structural   Pr8Ir3PdO24
_chemical_formula_sum   'Pr8 Ir3 Pd1 O24'
_cell_volume   533.28838228
_cell_formula_units_Z   1
loop_
 _symmetry_equiv_pos_site_id
 _symmetry_equiv_pos_as_xyz
  1  'x, y, z'
loop_
 _atom_site_type_symbol
 _atom_site_label
 _atom_site_symmetry_multiplicity
 _atom_site_fract_x
 _atom_site_fract_y
 _atom_site_fract_z
 _atom_site_occupancy
  Pr  Pr0  1  0.035366  0.219858  0.133581  1
  Pr  Pr1  1  0.464697  0.774608  0.634807  1
  Pr  Pr2  1  0.965607  0.717662  0.372694  1
  Pr  Pr3  1  0.531508  0.288643  0.859764  1
  Pr  Pr4  1  0.031560  0.112950  0.540197  1
  Pr  Pr5  1  0.472350  0.897910  0.038625  1
  Pr  Pr6  1  0.973082  0.597368  0.953254  1
  Pr  Pr7  1  0.522410  0.403127  0.470066  1
  Ir  Ir8  1  0.547611  0.002477  0.358749  1
  Ir  Ir9  1  0.954693  0.996542  0.859125  1
  Ir  Ir10  1  0.455255  0.504599  0.143444  1
  Pd  Pd11  1  0.043584  0.495658  0.637997  1
  O  O12  1  0.443872  0.149179  0.476988  1
  O  O13  1  0.060481  0.850329  0.980440  1
  O  O14  1  0.560010  0.648669  0.019985  1
  O  O15  1  0.932292  0.350168  0.506544  1
  O  O16  1  0.722744  0.391362  0.069653  1
  O  O17  1  0.768786  0.616198  0.562456  1
  O  O18  1  0.279904  0.891016  0.434730  1
  O  O19  1  0.220855  0.109536  0.936259  1
  O  O20  1  0.249403  0.410327  0.008168  1
  O  O21  1  0.255645  0.594470  0.501330  1
  O  O22  1  0.755262  0.915861  0.494830  1
  O  O23  1  0.749266  0.087818  0.994965  1
  O  O24  1  0.186587  0.628972  0.179337  1
  O  O25  1  0.310613  0.351883  0.674502  1
  O  O26  1  0.819612  0.126274  0.318875  1
  O  O27  1  0.685994  0.867851  0.824564  1
  O  O28  1  0.341853  0.058709  0.216113  1
  O  O29  1  0.158255  0.942659  0.719316  1
  O  O30  1  0.656612  0.563592  0.282714  1
  O  O31  1  0.832931  0.437638  0.787960  1
  O  O32  1  0.330975  0.361210  0.257949  1
  O  O33  1  0.188796  0.639610  0.761727  1
  O  O34  1  0.669898  0.859023  0.243742  1
  O  O35  1  0.821630  0.136244  0.744551  1
