# generated using pymatgen
data_Hf4Ru9(RhC)3
_symmetry_space_group_name_H-M   'P 1'
_cell_length_a   4.07660300
_cell_length_b   4.07660300
_cell_length_c   16.08101100
_cell_angle_alpha   90.00000000
_cell_angle_beta   90.00000000
_cell_angle_gamma   90.00000000
_symmetry_Int_Tables_number   1
_chemical_formula_structural   Hf4Ru9(RhC)3
_chemical_formula_sum   'Hf4 Ru9 Rh3 C3'
_cell_volume   267.24536917
_cell_formula_units_Z   1
loop_
 _symmetry_equiv_pos_site_id
 _symmetry_equiv_pos_as_xyz
  1  'x, y, z'
loop_
 _atom_site_type_symbol
 _atom_site_label
 _atom_site_symmetry_multiplicity
 _atom_site_fract_x
 _atom_site_fract_y
 _atom_site_fract_z
 _atom_site_occupancy
  Hf  Hf0  1  0.000000  0.000000  0.884187  1
  Hf  Hf1  1  0.000000  0.000000  0.117660  1
  Hf  Hf2  1  0.000000  0.000000  0.372560  1
  Hf  Hf3  1  0.000000  0.000000  0.627331  1
  Ru  Ru4  1  0.500000  0.500000  0.118565  1
  Ru  Ru5  1  0.500000  0.500000  0.372915  1
  Ru  Ru6  1  0.500000  0.500000  0.627077  1
  Ru  Ru7  1  0.500000  0.000000  0.248428  1
  Ru  Ru8  1  0.500000  0.000000  0.499832  1
  Ru  Ru9  1  0.500000  0.000000  0.751445  1
  Ru  Ru10  1  0.000000  0.500000  0.248428  1
  Ru  Ru11  1  0.000000  0.500000  0.499832  1
  Ru  Ru12  1  0.000000  0.500000  0.751445  1
  Rh  Rh13  1  0.500000  0.500000  0.881211  1
  Rh  Rh14  1  0.500000  0.000000  0.000873  1
  Rh  Rh15  1  0.000000  0.500000  0.000873  1
  C  C16  1  0.500000  0.500000  0.240283  1
  C  C17  1  0.500000  0.500000  0.499420  1
  C  C18  1  0.500000  0.500000  0.757632  1
