# generated using pymatgen
data_Sc6Co3Ni2Sn6Pt
_symmetry_space_group_name_H-M   'P 1'
_cell_length_a   7.37401300
_cell_length_b   7.37401138
_cell_length_c   6.84650900
_cell_angle_alpha   90.00000000
_cell_angle_beta   90.00000000
_cell_angle_gamma   120.00000280
_symmetry_Int_Tables_number   1
_chemical_formula_structural   Sc6Co3Ni2Sn6Pt
_chemical_formula_sum   'Sc6 Co3 Ni2 Sn6 Pt1'
_cell_volume   322.40925871
_cell_formula_units_Z   1
loop_
 _symmetry_equiv_pos_site_id
 _symmetry_equiv_pos_as_xyz
  1  'x, y, z'
loop_
 _atom_site_type_symbol
 _atom_site_label
 _atom_site_symmetry_multiplicity
 _atom_site_fract_x
 _atom_site_fract_y
 _atom_site_fract_z
 _atom_site_occupancy
  Sc  Sc0  1  0.390978  0.994013  0.246442  1
  Sc  Sc1  1  0.603034  0.609022  0.246442  1
  Sc  Sc2  1  0.005987  0.396966  0.246442  1
  Sc  Sc3  1  0.390425  0.992938  0.753761  1
  Sc  Sc4  1  0.602513  0.609575  0.753761  1
  Sc  Sc5  1  0.007062  0.397487  0.753761  1
  Co  Co6  1  0.000000  0.000000  0.770030  1
  Co  Co7  1  0.000000  0.000000  0.230136  1
  Co  Co8  1  0.333333  0.666667  0.001480  1
  Ni  Ni9  1  0.666667  0.333333  0.997589  1
  Ni  Ni10  1  0.333333  0.666667  0.498412  1
  Sn  Sn11  1  0.278895  0.277806  0.000105  1
  Sn  Sn12  1  0.998911  0.721105  0.000105  1
  Sn  Sn13  1  0.006939  0.742951  0.500010  1
  Sn  Sn14  1  0.736012  0.993061  0.500010  1
  Sn  Sn15  1  0.257049  0.263988  0.500010  1
  Sn  Sn16  1  0.722194  0.001089  0.000105  1
  Pt  Pt17  1  0.666667  0.333333  0.501397  1
