# generated using pymatgen
data_PuReF12
_symmetry_space_group_name_H-M   'P 1'
_cell_length_a   5.23304500
_cell_length_b   8.91529300
_cell_length_c   10.02833300
_cell_angle_alpha   90.00000000
_cell_angle_beta   90.00000000
_cell_angle_gamma   90.00000000
_symmetry_Int_Tables_number   1
_chemical_formula_structural   PuReF12
_chemical_formula_sum   'Pu2 Re2 F24'
_cell_volume   467.86314602
_cell_formula_units_Z   2
loop_
 _symmetry_equiv_pos_site_id
 _symmetry_equiv_pos_as_xyz
  1  'x, y, z'
loop_
 _atom_site_type_symbol
 _atom_site_label
 _atom_site_symmetry_multiplicity
 _atom_site_fract_x
 _atom_site_fract_y
 _atom_site_fract_z
 _atom_site_occupancy
  Pu  Pu0  1  0.586273  0.250000  0.871858  1
  Pu  Pu1  1  0.913727  0.250000  0.371858  1
  Re  Re2  1  0.408879  0.750000  0.128136  1
  Re  Re3  1  0.091121  0.750000  0.628136  1
  F  F4  1  0.239934  0.603590  0.521982  1
  F  F5  1  0.260066  0.896410  0.021982  1
  F  F6  1  0.942901  0.896805  0.734026  1
  F  F7  1  0.223991  0.250000  0.490084  1
  F  F8  1  0.744834  0.088150  0.986045  1
  F  F9  1  0.557099  0.896805  0.234026  1
  F  F10  1  0.276009  0.250000  0.990084  1
  F  F11  1  0.239934  0.896410  0.521982  1
  F  F12  1  0.755166  0.411850  0.486045  1
  F  F13  1  0.428007  0.411998  0.757983  1
  F  F14  1  0.744834  0.411850  0.986045  1
  F  F15  1  0.803193  0.750000  0.518697  1
  F  F16  1  0.696807  0.750000  0.018697  1
  F  F17  1  0.260066  0.603590  0.021982  1
  F  F18  1  0.428007  0.088002  0.757983  1
  F  F19  1  0.071993  0.411998  0.257983  1
  F  F20  1  0.603328  0.250000  0.253145  1
  F  F21  1  0.557099  0.603195  0.234026  1
  F  F22  1  0.896672  0.250000  0.753145  1
  F  F23  1  0.121131  0.750000  0.238008  1
  F  F24  1  0.071993  0.088002  0.257983  1
  F  F25  1  0.942901  0.603195  0.734026  1
  F  F26  1  0.378869  0.750000  0.738008  1
  F  F27  1  0.755166  0.088150  0.486045  1
