# generated using pymatgen
data_CsSc10(C2Br9)2
_symmetry_space_group_name_H-M   'P 1'
_cell_length_a   10.37814252
_cell_length_b   10.41050435
_cell_length_c   10.44209413
_cell_angle_alpha   113.51776758
_cell_angle_beta   86.71197778
_cell_angle_gamma   119.65888477
_symmetry_Int_Tables_number   1
_chemical_formula_structural   CsSc10(C2Br9)2
_chemical_formula_sum   'Cs1 Sc10 C4 Br18'
_cell_volume   884.93679833
_cell_formula_units_Z   1
loop_
 _symmetry_equiv_pos_site_id
 _symmetry_equiv_pos_as_xyz
  1  'x, y, z'
loop_
 _atom_site_type_symbol
 _atom_site_label
 _atom_site_symmetry_multiplicity
 _atom_site_fract_x
 _atom_site_fract_y
 _atom_site_fract_z
 _atom_site_occupancy
  Cs  Cs0  1  0.500000  0.000000  0.500000  1
  Sc  Sc1  1  0.676093  0.722951  0.711689  1
  Sc  Sc2  1  0.281040  0.360080  0.012211  1
  Sc  Sc3  1  0.092369  0.393327  0.292955  1
  Sc  Sc4  1  0.959699  0.035576  0.330232  1
  Sc  Sc5  1  0.907631  0.606673  0.707045  1
  Sc  Sc6  1  0.105187  0.942740  0.001581  1
  Sc  Sc7  1  0.040301  0.964424  0.669768  1
  Sc  Sc8  1  0.323907  0.277049  0.288311  1
  Sc  Sc9  1  0.718960  0.639920  0.987789  1
  Sc  Sc10  1  0.894813  0.057260  0.998419  1
  C  C11  1  0.155239  0.223175  0.117415  1
  C  C12  1  0.844761  0.776825  0.882585  1
  C  C13  1  0.926768  0.858467  0.799143  1
  C  C14  1  0.073232  0.141533  0.200857  1
  Br  Br15  1  0.456751  0.532557  0.837486  1
  Br  Br16  1  0.376225  0.044966  0.158155  1
  Br  Br17  1  0.786317  0.859408  0.504224  1
  Br  Br18  1  0.844803  0.304981  0.152907  1
  Br  Br19  1  0.543249  0.467443  0.162514  1
  Br  Br20  1  0.213683  0.140592  0.495776  1
  Br  Br21  1  0.311804  0.100426  0.826001  1
  Br  Br22  1  0.688196  0.899574  0.173999  1
  Br  Br23  1  0.966887  0.759286  0.170956  1
  Br  Br24  1  0.935775  0.298506  0.495780  1
  Br  Br25  1  0.033113  0.240714  0.829044  1
  Br  Br26  1  0.064225  0.701494  0.504220  1
  Br  Br27  1  0.254162  0.612055  0.180840  1
  Br  Br28  1  0.745838  0.387945  0.819160  1
  Br  Br29  1  0.647582  0.446105  0.510336  1
  Br  Br30  1  0.155197  0.695019  0.847093  1
  Br  Br31  1  0.623775  0.955034  0.841845  1
  Br  Br32  1  0.352418  0.553895  0.489664  1
