# generated using pymatgen
data_TbPa2Ga5
_symmetry_space_group_name_H-M   'P 1'
_cell_length_a   6.10556700
_cell_length_b   9.56488400
_cell_length_c   11.62663000
_cell_angle_alpha   90.00000000
_cell_angle_beta   90.00000000
_cell_angle_gamma   90.00000000
_symmetry_Int_Tables_number   1
_chemical_formula_structural   TbPa2Ga5
_chemical_formula_sum   'Tb4 Pa8 Ga20'
_cell_volume   678.98403171
_cell_formula_units_Z   4
loop_
 _symmetry_equiv_pos_site_id
 _symmetry_equiv_pos_as_xyz
  1  'x, y, z'
loop_
 _atom_site_type_symbol
 _atom_site_label
 _atom_site_symmetry_multiplicity
 _atom_site_fract_x
 _atom_site_fract_y
 _atom_site_fract_z
 _atom_site_occupancy
  Tb  Tb0  1  0.856235  0.750000  0.073311  1
  Tb  Tb1  1  0.643765  0.750000  0.573311  1
  Tb  Tb2  1  0.143765  0.250000  0.926689  1
  Tb  Tb3  1  0.356235  0.250000  0.426689  1
  Pa  Pa4  1  0.883379  0.504573  0.352195  1
  Pa  Pa5  1  0.616621  0.995427  0.852195  1
  Pa  Pa6  1  0.116621  0.004573  0.647805  1
  Pa  Pa7  1  0.383379  0.495427  0.147805  1
  Pa  Pa8  1  0.116621  0.495427  0.647805  1
  Pa  Pa9  1  0.383379  0.004573  0.147805  1
  Pa  Pa10  1  0.883379  0.995427  0.352195  1
  Pa  Pa11  1  0.616621  0.504573  0.852195  1
  Ga  Ga12  1  0.873183  0.052764  0.090882  1
  Ga  Ga13  1  0.626817  0.447236  0.590882  1
  Ga  Ga14  1  0.126817  0.552764  0.909118  1
  Ga  Ga15  1  0.373183  0.947236  0.409118  1
  Ga  Ga16  1  0.126817  0.947236  0.909118  1
  Ga  Ga17  1  0.373183  0.552764  0.409118  1
  Ga  Ga18  1  0.873183  0.447236  0.090882  1
  Ga  Ga19  1  0.626817  0.052764  0.590882  1
  Ga  Ga20  1  0.161751  0.750000  0.263148  1
  Ga  Ga21  1  0.338249  0.750000  0.763148  1
  Ga  Ga22  1  0.838249  0.250000  0.736852  1
  Ga  Ga23  1  0.661751  0.250000  0.236852  1
  Ga  Ga24  1  0.386280  0.750000  0.996412  1
  Ga  Ga25  1  0.113720  0.750000  0.496412  1
  Ga  Ga26  1  0.613720  0.250000  0.003588  1
  Ga  Ga27  1  0.886280  0.250000  0.503588  1
  Ga  Ga28  1  0.598278  0.750000  0.294313  1
  Ga  Ga29  1  0.901722  0.750000  0.794313  1
  Ga  Ga30  1  0.401722  0.250000  0.705687  1
  Ga  Ga31  1  0.098278  0.250000  0.205687  1
