# generated using pymatgen
data_PuTl2P2S7
_symmetry_space_group_name_H-M   'P 1'
_cell_length_a   6.82205499
_cell_length_b   12.28707867
_cell_length_c   17.12396000
_cell_angle_alpha   79.45453138
_cell_angle_beta   78.44296508
_cell_angle_gamma   73.88609581
_symmetry_Int_Tables_number   1
_chemical_formula_structural   PuTl2P2S7
_chemical_formula_sum   'Pu4 Tl8 P8 S28'
_cell_volume   1338.59695475
_cell_formula_units_Z   4
loop_
 _symmetry_equiv_pos_site_id
 _symmetry_equiv_pos_as_xyz
  1  'x, y, z'
loop_
 _atom_site_type_symbol
 _atom_site_label
 _atom_site_symmetry_multiplicity
 _atom_site_fract_x
 _atom_site_fract_y
 _atom_site_fract_z
 _atom_site_occupancy
  Pu  Pu0  1  0.885713  0.082052  0.242498  1
  Pu  Pu1  1  0.114287  0.917948  0.757502  1
  Pu  Pu2  1  0.210795  0.417823  0.257430  1
  Pu  Pu3  1  0.789205  0.582177  0.742570  1
  Tl  Tl4  1  0.538710  0.864456  0.125210  1
  Tl  Tl5  1  0.471531  0.364582  0.624982  1
  Tl  Tl6  1  0.461290  0.135544  0.874790  1
  Tl  Tl7  1  0.831361  0.824087  0.525545  1
  Tl  Tl8  1  0.528469  0.635418  0.375018  1
  Tl  Tl9  1  0.168639  0.175913  0.474455  1
  Tl  Tl10  1  0.180203  0.675730  0.974188  1
  Tl  Tl11  1  0.819797  0.324270  0.025812  1
  P  P12  1  0.073548  0.708541  0.193447  1
  P  P13  1  0.975045  0.791382  0.306572  1
  P  P14  1  0.330770  0.693218  0.640915  1
  P  P15  1  0.926452  0.291459  0.806553  1
  P  P16  1  0.669230  0.306782  0.359085  1
  P  P17  1  0.024955  0.208618  0.693428  1
  P  P18  1  0.336166  0.193063  0.141021  1
  P  P19  1  0.663834  0.806937  0.858979  1
  S  S20  1  0.133300  0.611894  0.612494  1
  S  S21  1  0.356384  0.888275  0.887465  1
  S  S22  1  0.252291  0.863911  0.598861  1
  S  S23  1  0.886793  0.602404  0.199228  1
  S  S24  1  0.113207  0.397596  0.800772  1
  S  S25  1  0.627073  0.614606  0.593226  1
  S  S26  1  0.050299  0.838861  0.102586  1
  S  S27  1  0.949701  0.161139  0.897414  1
  S  S28  1  0.643616  0.111725  0.112535  1
  S  S29  1  0.224280  0.177997  0.263441  1
  S  S30  1  0.311973  0.102210  0.699205  1
  S  S31  1  0.372927  0.385394  0.406774  1
  S  S32  1  0.833646  0.885688  0.906556  1
  S  S33  1  0.866700  0.388106  0.387506  1
  S  S34  1  0.166354  0.114312  0.093444  1
  S  S35  1  0.688027  0.897790  0.300795  1
  S  S36  1  0.010230  0.339082  0.602764  1
  S  S37  1  0.334739  0.677867  0.763310  1
  S  S38  1  0.665261  0.322133  0.236690  1
  S  S39  1  0.713870  0.636244  0.901075  1
  S  S40  1  0.367861  0.611685  0.200471  1
  S  S41  1  0.286130  0.363756  0.098925  1
  S  S42  1  0.819993  0.112110  0.700035  1
  S  S43  1  0.747709  0.136089  0.401139  1
  S  S44  1  0.775720  0.822003  0.736559  1
  S  S45  1  0.632139  0.388315  0.799529  1
  S  S46  1  0.180007  0.887890  0.299965  1
  S  S47  1  0.989770  0.660918  0.397236  1
