# generated using pymatgen
data_Y18Lu2(Ir3Os)3
_symmetry_space_group_name_H-M   'P 1'
_cell_length_a   10.88651600
_cell_length_b   10.88710000
_cell_length_c   6.41775500
_cell_angle_alpha   90.00000000
_cell_angle_beta   90.00000000
_cell_angle_gamma   89.99970528
_symmetry_Int_Tables_number   1
_chemical_formula_structural   Y18Lu2(Ir3Os)3
_chemical_formula_sum   'Y18 Lu2 Ir9 Os3'
_cell_volume   760.64893395
_cell_formula_units_Z   1
loop_
 _symmetry_equiv_pos_site_id
 _symmetry_equiv_pos_as_xyz
  1  'x, y, z'
loop_
 _atom_site_type_symbol
 _atom_site_label
 _atom_site_symmetry_multiplicity
 _atom_site_fract_x
 _atom_site_fract_y
 _atom_site_fract_z
 _atom_site_occupancy
  Y  Y0  1  0.292631  0.086197  0.377456  1
  Y  Y1  1  0.292635  0.914070  0.877642  1
  Y  Y2  1  0.707365  0.085930  0.877642  1
  Y  Y3  1  0.707369  0.913803  0.377456  1
  Y  Y4  1  0.586324  0.794127  0.877933  1
  Y  Y5  1  0.586608  0.205908  0.377773  1
  Y  Y6  1  0.413392  0.794092  0.377773  1
  Y  Y7  1  0.413676  0.205873  0.877933  1
  Y  Y8  1  0.207808  0.412790  0.623926  1
  Y  Y9  1  0.207251  0.587341  0.119919  1
  Y  Y10  1  0.792749  0.412659  0.119919  1
  Y  Y11  1  0.792192  0.587210  0.623926  1
  Y  Y12  1  0.913106  0.708811  0.120136  1
  Y  Y13  1  0.913262  0.290721  0.624152  1
  Y  Y14  1  0.086738  0.709279  0.624152  1
  Y  Y15  1  0.086894  0.291189  0.120136  1
  Y  Y16  1  0.500000  0.500000  0.999896  1
  Y  Y17  1  0.500000  0.500000  0.499552  1
  Lu  Lu18  1  0.000000  0.000000  0.499634  1
  Lu  Lu19  1  0.000000  0.000000  0.999888  1
  Ir  Ir20  1  0.851258  0.150139  0.250282  1
  Ir  Ir21  1  0.851025  0.850114  0.749653  1
  Ir  Ir22  1  0.148975  0.149886  0.749653  1
  Ir  Ir23  1  0.148742  0.849861  0.250282  1
  Ir  Ir24  1  0.653199  0.347824  0.749592  1
  Ir  Ir25  1  0.653489  0.651916  0.250196  1
  Ir  Ir26  1  0.346511  0.348084  0.250196  1
  Ir  Ir27  1  0.346801  0.652176  0.749592  1
  Ir  Ir28  1  0.000000  0.500000  0.377181  1
  Os  Os29  1  0.500000  0.000000  0.125793  1
  Os  Os30  1  0.500000  0.000000  0.625321  1
  Os  Os31  1  0.000000  0.500000  0.875415  1
