# generated using pymatgen
data_Y4Al16GaSi(IrRh2)2
_symmetry_space_group_name_H-M   'P 1'
_cell_length_a   7.53450403
_cell_length_b   7.53450434
_cell_length_c   9.37154300
_cell_angle_alpha   89.99517117
_cell_angle_beta   89.99517117
_cell_angle_gamma   119.50178664
_symmetry_Int_Tables_number   1
_chemical_formula_structural   Y4Al16GaSi(IrRh2)2
_chemical_formula_sum   'Y4 Al16 Ga1 Si1 Ir2 Rh4'
_cell_volume   463.03046492
_cell_formula_units_Z   1
loop_
 _symmetry_equiv_pos_site_id
 _symmetry_equiv_pos_as_xyz
  1  'x, y, z'
loop_
 _atom_site_type_symbol
 _atom_site_label
 _atom_site_symmetry_multiplicity
 _atom_site_fract_x
 _atom_site_fract_y
 _atom_site_fract_z
 _atom_site_occupancy
  Y  Y0  1  0.994863  0.673120  0.250689  1
  Y  Y1  1  0.005138  0.325240  0.749255  1
  Y  Y2  1  0.673120  0.994863  0.250689  1
  Y  Y3  1  0.325240  0.005138  0.749255  1
  Al  Al4  1  0.001276  0.335185  0.075218  1
  Al  Al5  1  0.998808  0.663563  0.923100  1
  Al  Al6  1  0.998043  0.663190  0.577092  1
  Al  Al7  1  0.335571  0.002042  0.424445  1
  Al  Al8  1  0.002042  0.335571  0.424445  1
  Al  Al9  1  0.663190  0.998043  0.577092  1
  Al  Al10  1  0.663563  0.998808  0.923100  1
  Al  Al11  1  0.335185  0.001276  0.075218  1
  Al  Al12  1  0.334950  0.334950  0.553080  1
  Al  Al13  1  0.665501  0.665501  0.445652  1
  Al  Al14  1  0.665384  0.665384  0.054820  1
  Al  Al15  1  0.335076  0.335076  0.946436  1
  Al  Al16  1  0.337987  0.549979  0.249028  1
  Al  Al17  1  0.664212  0.451623  0.750851  1
  Al  Al18  1  0.549979  0.337987  0.249028  1
  Al  Al19  1  0.451623  0.664212  0.750851  1
  Ga  Ga20  1  0.129747  0.129747  0.249882  1
  Si  Si21  1  0.869541  0.869541  0.749943  1
  Ir  Ir22  1  0.328712  0.672808  0.500583  1
  Ir  Ir23  1  0.672808  0.328712  0.500583  1
  Rh  Rh24  1  0.672697  0.328635  0.999911  1
  Rh  Rh25  1  0.328635  0.672697  0.999911  1
  Rh  Rh26  1  0.998485  0.998485  0.991031  1
  Rh  Rh27  1  0.998624  0.998624  0.508814  1
