# generated using pymatgen
data_Nb4B2MoP
_symmetry_space_group_name_H-M   'P 1'
_cell_length_a   6.16351212
_cell_length_b   6.16351280
_cell_length_c   7.24352210
_cell_angle_alpha   115.17914423
_cell_angle_beta   115.17914808
_cell_angle_gamma   89.99999272
_symmetry_Int_Tables_number   1
_chemical_formula_structural   Nb4B2MoP
_chemical_formula_sum   'Nb8 B4 Mo2 P2'
_cell_volume   219.79180495
_cell_formula_units_Z   2
loop_
 _symmetry_equiv_pos_site_id
 _symmetry_equiv_pos_as_xyz
  1  'x, y, z'
loop_
 _atom_site_type_symbol
 _atom_site_label
 _atom_site_symmetry_multiplicity
 _atom_site_fract_x
 _atom_site_fract_y
 _atom_site_fract_z
 _atom_site_occupancy
  Nb  Nb0  1  0.028970  0.528970  0.720474  1
  Nb  Nb1  1  0.691504  0.191504  0.720474  1
  Nb  Nb2  1  0.191504  0.028970  0.720474  1
  Nb  Nb3  1  0.528970  0.691504  0.720474  1
  Nb  Nb4  1  0.971030  0.471030  0.279526  1
  Nb  Nb5  1  0.308496  0.808496  0.279526  1
  Nb  Nb6  1  0.808496  0.971030  0.279526  1
  Nb  Nb7  1  0.471030  0.308496  0.279526  1
  B  B8  1  0.383034  0.883034  0.000000  1
  B  B9  1  0.616966  0.116966  0.000000  1
  B  B10  1  0.116966  0.383034  0.000000  1
  B  B11  1  0.883034  0.616966  0.000000  1
  Mo  Mo12  1  0.500000  0.500000  0.000000  1
  Mo  Mo13  1  0.000000  0.000000  0.000000  1
  P  P14  1  0.250000  0.250000  0.500000  1
  P  P15  1  0.750000  0.750000  0.500000  1
