# generated using pymatgen
data_Li2La3MgIr2Pd
_symmetry_space_group_name_H-M   'P 1'
_cell_length_a   7.47648233
_cell_length_b   7.49315483
_cell_length_c   4.10704600
_cell_angle_alpha   90.00000000
_cell_angle_beta   90.00000000
_cell_angle_gamma   120.07379743
_symmetry_Int_Tables_number   1
_chemical_formula_structural   Li2La3MgIr2Pd
_chemical_formula_sum   'Li2 La3 Mg1 Ir2 Pd1'
_cell_volume   199.11261719
_cell_formula_units_Z   1
loop_
 _symmetry_equiv_pos_site_id
 _symmetry_equiv_pos_as_xyz
  1  'x, y, z'
loop_
 _atom_site_type_symbol
 _atom_site_label
 _atom_site_symmetry_multiplicity
 _atom_site_fract_x
 _atom_site_fract_y
 _atom_site_fract_z
 _atom_site_occupancy
  Li  Li0  1  0.765095  0.768122  0.000000  1
  Li  Li1  1  0.234905  0.003027  0.000000  1
  La  La2  1  0.430207  0.427721  0.500000  1
  La  La3  1  0.569793  0.997513  0.500000  1
  La  La4  1  0.000000  0.583203  0.500000  1
  Mg  Mg5  1  0.000000  0.235053  0.000000  1
  Ir  Ir6  1  0.672511  0.328032  0.000000  1
  Ir  Ir7  1  0.327489  0.655522  0.000000  1
  Pd  Pd8  1  0.000000  0.001807  0.500000  1
