# generated using pymatgen
data_YAg(AuO2)4
_symmetry_space_group_name_H-M   'P 1'
_cell_length_a   6.67790682
_cell_length_b   6.67790583
_cell_length_c   6.67790685
_cell_angle_alpha   125.40318946
_cell_angle_beta   125.40318564
_cell_angle_gamma   80.87128457
_symmetry_Int_Tables_number   1
_chemical_formula_structural   YAg(AuO2)4
_chemical_formula_sum   'Y1 Ag1 Au4 O8'
_cell_volume   190.70312711
_cell_formula_units_Z   1
loop_
 _symmetry_equiv_pos_site_id
 _symmetry_equiv_pos_as_xyz
  1  'x, y, z'
loop_
 _atom_site_type_symbol
 _atom_site_label
 _atom_site_symmetry_multiplicity
 _atom_site_fract_x
 _atom_site_fract_y
 _atom_site_fract_z
 _atom_site_occupancy
  Y  Y0  1  0.000000  0.000000  0.000000  1
  Ag  Ag1  1  0.750000  0.250000  0.500000  1
  Au  Au2  1  0.373987  0.638562  0.761382  1
  Au  Au3  1  0.361438  0.122820  0.735425  1
  Au  Au4  1  0.877180  0.612606  0.238618  1
  Au  Au5  1  0.387394  0.626013  0.264575  1
  O  O6  1  0.056994  0.394671  0.055476  1
  O  O7  1  0.740021  0.274376  0.109206  1
  O  O8  1  0.165169  0.630814  0.890794  1
  O  O9  1  0.339194  0.001518  0.944524  1
  O  O10  1  0.725624  0.834831  0.465645  1
  O  O11  1  0.998482  0.943006  0.337676  1
  O  O12  1  0.369186  0.259979  0.534355  1
  O  O13  1  0.605329  0.660806  0.662324  1
