# generated using pymatgen
data_Yb5Cu2Ag
_symmetry_space_group_name_H-M   'P 1'
_cell_length_a   8.91390732
_cell_length_b   8.91390817
_cell_length_c   8.91390806
_cell_angle_alpha   129.03978941
_cell_angle_beta   129.03978810
_cell_angle_gamma   74.94655579
_symmetry_Int_Tables_number   1
_chemical_formula_structural   Yb5Cu2Ag
_chemical_formula_sum   'Yb10 Cu4 Ag2'
_cell_volume   416.12377269
_cell_formula_units_Z   2
loop_
 _symmetry_equiv_pos_site_id
 _symmetry_equiv_pos_as_xyz
  1  'x, y, z'
loop_
 _atom_site_type_symbol
 _atom_site_label
 _atom_site_symmetry_multiplicity
 _atom_site_fract_x
 _atom_site_fract_y
 _atom_site_fract_z
 _atom_site_occupancy
  Yb  Yb0  1  0.500000  0.500000  0.000000  1
  Yb  Yb1  1  0.000000  0.000000  0.000000  1
  Yb  Yb2  1  0.529768  0.029768  0.836649  1
  Yb  Yb3  1  0.193120  0.693120  0.163351  1
  Yb  Yb4  1  0.029768  0.193120  0.500000  1
  Yb  Yb5  1  0.693120  0.529768  0.500000  1
  Yb  Yb6  1  0.470232  0.970232  0.163351  1
  Yb  Yb7  1  0.806880  0.306880  0.836649  1
  Yb  Yb8  1  0.970232  0.806880  0.500000  1
  Yb  Yb9  1  0.306880  0.470232  0.500000  1
  Cu  Cu10  1  0.118433  0.618433  0.736868  1
  Cu  Cu11  1  0.881567  0.381567  0.263132  1
  Cu  Cu12  1  0.618433  0.881567  0.500000  1
  Cu  Cu13  1  0.381567  0.118433  0.500000  1
  Ag  Ag14  1  0.250000  0.250000  0.000000  1
  Ag  Ag15  1  0.750000  0.750000  0.000000  1
