# generated using pymatgen
data_Li3Ho4Mg(B6Ir)4
_symmetry_space_group_name_H-M   'P 1'
_cell_length_a   3.52366100
_cell_length_b   8.84486215
_cell_length_c   11.23955271
_cell_angle_alpha   89.92246323
_cell_angle_beta   90.00000000
_cell_angle_gamma   90.00000000
_symmetry_Int_Tables_number   1
_chemical_formula_structural   Li3Ho4Mg(B6Ir)4
_chemical_formula_sum   'Li3 Ho4 Mg1 B24 Ir4'
_cell_volume   350.29490356
_cell_formula_units_Z   1
loop_
 _symmetry_equiv_pos_site_id
 _symmetry_equiv_pos_as_xyz
  1  'x, y, z'
loop_
 _atom_site_type_symbol
 _atom_site_label
 _atom_site_symmetry_multiplicity
 _atom_site_fract_x
 _atom_site_fract_y
 _atom_site_fract_z
 _atom_site_occupancy
  Li  Li0  1  0.500000  0.553964  0.878880  1
  Li  Li1  1  0.500000  0.054244  0.622839  1
  Li  Li2  1  0.500000  0.945849  0.378694  1
  Ho  Ho3  1  0.500000  0.315607  0.416289  1
  Ho  Ho4  1  0.500000  0.683123  0.587223  1
  Ho  Ho5  1  0.500000  0.182114  0.911627  1
  Ho  Ho6  1  0.500000  0.818087  0.085078  1
  Mg  Mg7  1  0.500000  0.447997  0.116542  1
  B  B8  1  0.000000  0.090705  0.475530  1
  B  B9  1  0.000000  0.908972  0.525247  1
  B  B10  1  0.000000  0.405044  0.972938  1
  B  B11  1  0.000000  0.595738  0.024684  1
  B  B12  1  0.000000  0.123368  0.319732  1
  B  B13  1  0.000000  0.876126  0.681218  1
  B  B14  1  0.000000  0.375655  0.818351  1
  B  B15  1  0.000000  0.626220  0.181381  1
  B  B16  1  0.000000  0.055316  0.067522  1
  B  B17  1  0.000000  0.944537  0.931921  1
  B  B18  1  0.000000  0.444259  0.567770  1
  B  B19  1  0.000000  0.555701  0.433195  1
  B  B20  1  0.000000  0.479840  0.285727  1
  B  B21  1  0.000000  0.520446  0.715355  1
  B  B22  1  0.000000  0.021375  0.784718  1
  B  B23  1  0.000000  0.978562  0.215504  1
  B  B24  1  0.000000  0.255565  0.080736  1
  B  B25  1  0.000000  0.742729  0.917879  1
  B  B26  1  0.000000  0.241776  0.581945  1
  B  B27  1  0.000000  0.758148  0.418916  1
  B  B28  1  0.000000  0.292009  0.235930  1
  B  B29  1  0.000000  0.707194  0.764883  1
  B  B30  1  0.000000  0.207241  0.735363  1
  B  B31  1  0.000000  0.793212  0.264568  1
  Ir  Ir32  1  0.500000  0.137886  0.183610  1
  Ir  Ir33  1  0.500000  0.861069  0.817243  1
  Ir  Ir34  1  0.500000  0.359624  0.680939  1
  Ir  Ir35  1  0.500000  0.640693  0.320024  1
