# generated using pymatgen
data_LaU(PIr)2
_symmetry_space_group_name_H-M   'P 1'
_cell_length_a   4.09225100
_cell_length_b   4.09225147
_cell_length_c   16.08805800
_cell_angle_alpha   90.00000000
_cell_angle_beta   90.00000000
_cell_angle_gamma   120.00002046
_symmetry_Int_Tables_number   1
_chemical_formula_structural   LaU(PIr)2
_chemical_formula_sum   'La2 U2 P4 Ir4'
_cell_volume   233.32363952
_cell_formula_units_Z   2
loop_
 _symmetry_equiv_pos_site_id
 _symmetry_equiv_pos_as_xyz
  1  'x, y, z'
loop_
 _atom_site_type_symbol
 _atom_site_label
 _atom_site_symmetry_multiplicity
 _atom_site_fract_x
 _atom_site_fract_y
 _atom_site_fract_z
 _atom_site_occupancy
  La  La0  1  0.000000  0.000000  0.250000  1
  La  La1  1  0.000000  0.000000  0.750000  1
  U  U2  1  0.000000  0.000000  0.500000  1
  U  U3  1  0.000000  0.000000  0.000000  1
  P  P4  1  0.333333  0.666667  0.872341  1
  P  P5  1  0.666667  0.333333  0.127659  1
  P  P6  1  0.666667  0.333333  0.372341  1
  P  P7  1  0.333333  0.666667  0.627659  1
  Ir  Ir8  1  0.333333  0.666667  0.396976  1
  Ir  Ir9  1  0.666667  0.333333  0.603024  1
  Ir  Ir10  1  0.666667  0.333333  0.896976  1
  Ir  Ir11  1  0.333333  0.666667  0.103024  1
