# generated using pymatgen
data_Tb2HgRhAu
_symmetry_space_group_name_H-M   'P 1'
_cell_length_a   7.64714700
_cell_length_b   7.87610700
_cell_length_c   3.78021500
_cell_angle_alpha   90.00000000
_cell_angle_beta   90.00000000
_cell_angle_gamma   90.00000000
_symmetry_Int_Tables_number   1
_chemical_formula_structural   Tb2HgRhAu
_chemical_formula_sum   'Tb4 Hg2 Rh2 Au2'
_cell_volume   227.68139690
_cell_formula_units_Z   2
loop_
 _symmetry_equiv_pos_site_id
 _symmetry_equiv_pos_as_xyz
  1  'x, y, z'
loop_
 _atom_site_type_symbol
 _atom_site_label
 _atom_site_symmetry_multiplicity
 _atom_site_fract_x
 _atom_site_fract_y
 _atom_site_fract_z
 _atom_site_occupancy
  Tb  Tb0  1  0.328572  0.186599  0.500000  1
  Tb  Tb1  1  0.828571  0.313402  0.500000  1
  Tb  Tb2  1  0.177228  0.646547  0.500000  1
  Tb  Tb3  1  0.677227  0.853452  0.500000  1
  Hg  Hg4  1  0.997624  0.007358  0.000000  1
  Hg  Hg5  1  0.497624  0.492642  0.000000  1
  Rh  Rh6  1  0.631018  0.128790  0.000000  1
  Rh  Rh7  1  0.131019  0.371211  0.000000  1
  Au  Au8  1  0.865559  0.621590  0.000000  1
  Au  Au9  1  0.365559  0.878410  0.000000  1
