# generated using pymatgen
data_HoEr15Cd2(Ni2Ag)2
_symmetry_space_group_name_H-M   'P 1'
_cell_length_a   9.40237974
_cell_length_b   9.40237943
_cell_length_c   9.39151900
_cell_angle_alpha   60.03820565
_cell_angle_beta   60.03820676
_cell_angle_gamma   60.12014282
_symmetry_Int_Tables_number   1
_chemical_formula_structural   HoEr15Cd2(Ni2Ag)2
_chemical_formula_sum   'Ho1 Er15 Cd2 Ni4 Ag2'
_cell_volume   587.94973264
_cell_formula_units_Z   1
loop_
 _symmetry_equiv_pos_site_id
 _symmetry_equiv_pos_as_xyz
  1  'x, y, z'
loop_
 _atom_site_type_symbol
 _atom_site_label
 _atom_site_symmetry_multiplicity
 _atom_site_fract_x
 _atom_site_fract_y
 _atom_site_fract_z
 _atom_site_occupancy
  Ho  Ho0  1  0.934701  0.934701  0.565299  1
  Er  Er1  1  0.348285  0.348285  0.347927  1
  Er  Er2  1  0.348285  0.348285  0.955500  1
  Er  Er3  1  0.350829  0.951418  0.348876  1
  Er  Er4  1  0.951418  0.350829  0.348876  1
  Er  Er5  1  0.811406  0.188576  0.189028  1
  Er  Er6  1  0.188576  0.811406  0.810990  1
  Er  Er7  1  0.188576  0.811406  0.189028  1
  Er  Er8  1  0.811406  0.188576  0.810990  1
  Er  Er9  1  0.188734  0.188734  0.811266  1
  Er  Er10  1  0.811833  0.811833  0.188167  1
  Er  Er11  1  0.932482  0.564029  0.565120  1
  Er  Er12  1  0.564029  0.932482  0.938368  1
  Er  Er13  1  0.564029  0.932482  0.565120  1
  Er  Er14  1  0.932482  0.564029  0.938368  1
  Er  Er15  1  0.564115  0.564115  0.935885  1
  Cd  Cd16  1  0.581732  0.258951  0.579659  1
  Cd  Cd17  1  0.258951  0.581732  0.579659  1
  Ni  Ni18  1  0.142635  0.142635  0.142810  1
  Ni  Ni19  1  0.142635  0.142635  0.571920  1
  Ni  Ni20  1  0.141951  0.573266  0.142392  1
  Ni  Ni21  1  0.573266  0.141951  0.142392  1
  Ag  Ag22  1  0.583820  0.583820  0.581895  1
  Ag  Ag23  1  0.583820  0.583820  0.250465  1
