# generated using pymatgen
data_Pm2SeS2
_symmetry_space_group_name_H-M   'P 1'
_cell_length_a   4.00707000
_cell_length_b   10.77771600
_cell_length_c   11.22498000
_cell_angle_alpha   90.00000000
_cell_angle_beta   90.00000000
_cell_angle_gamma   90.00000000
_symmetry_Int_Tables_number   1
_chemical_formula_structural   Pm2SeS2
_chemical_formula_sum   'Pm8 Se4 S8'
_cell_volume   484.77391228
_cell_formula_units_Z   4
loop_
 _symmetry_equiv_pos_site_id
 _symmetry_equiv_pos_as_xyz
  1  'x, y, z'
loop_
 _atom_site_type_symbol
 _atom_site_label
 _atom_site_symmetry_multiplicity
 _atom_site_fract_x
 _atom_site_fract_y
 _atom_site_fract_z
 _atom_site_occupancy
  Pm  Pm0  1  0.250000  0.004471  0.690552  1
  Pm  Pm1  1  0.750000  0.995529  0.309448  1
  Pm  Pm2  1  0.750000  0.504471  0.809448  1
  Pm  Pm3  1  0.250000  0.495529  0.190552  1
  Pm  Pm4  1  0.250000  0.316845  0.509621  1
  Pm  Pm5  1  0.750000  0.683155  0.490379  1
  Pm  Pm6  1  0.750000  0.816845  0.990379  1
  Pm  Pm7  1  0.250000  0.183155  0.009621  1
  Se  Se8  1  0.250000  0.299101  0.770578  1
  Se  Se9  1  0.750000  0.700899  0.229422  1
  Se  Se10  1  0.750000  0.799101  0.729422  1
  Se  Se11  1  0.250000  0.200899  0.270578  1
  S  S12  1  0.750000  0.054871  0.880412  1
  S  S13  1  0.250000  0.945129  0.119588  1
  S  S14  1  0.250000  0.554871  0.619588  1
  S  S15  1  0.750000  0.445129  0.380412  1
  S  S16  1  0.250000  0.873319  0.456168  1
  S  S17  1  0.750000  0.126681  0.543832  1
  S  S18  1  0.750000  0.373319  0.043832  1
  S  S19  1  0.250000  0.626681  0.956168  1
