# generated using pymatgen
data_Ca2YbB2Pt7
_symmetry_space_group_name_H-M   'P 1'
_cell_length_a   8.28713667
_cell_length_b   8.28713645
_cell_length_c   8.28713700
_cell_angle_alpha   38.72527428
_cell_angle_beta   38.72527612
_cell_angle_gamma   38.72527577
_symmetry_Int_Tables_number   1
_chemical_formula_structural   Ca2YbB2Pt7
_chemical_formula_sum   'Ca2 Yb1 B2 Pt7'
_cell_volume   200.20607820
_cell_formula_units_Z   1
loop_
 _symmetry_equiv_pos_site_id
 _symmetry_equiv_pos_as_xyz
  1  'x, y, z'
loop_
 _atom_site_type_symbol
 _atom_site_label
 _atom_site_symmetry_multiplicity
 _atom_site_fract_x
 _atom_site_fract_y
 _atom_site_fract_z
 _atom_site_occupancy
  Ca  Ca0  1  0.856202  0.856202  0.856202  1
  Ca  Ca1  1  0.143798  0.143798  0.143798  1
  Yb  Yb2  1  0.000000  0.000000  0.000000  1
  B  B3  1  0.668245  0.668245  0.668245  1
  B  B4  1  0.331755  0.331755  0.331755  1
  Pt  Pt5  1  0.435023  0.932583  0.435023  1
  Pt  Pt6  1  0.435023  0.435023  0.932583  1
  Pt  Pt7  1  0.932583  0.435023  0.435023  1
  Pt  Pt8  1  0.564977  0.067417  0.564977  1
  Pt  Pt9  1  0.564977  0.564977  0.067417  1
  Pt  Pt10  1  0.067417  0.564977  0.564977  1
  Pt  Pt11  1  0.500000  0.500000  0.500000  1
