# generated using pymatgen
data_Dy4TmMo3(P3Ir4)4
_symmetry_space_group_name_H-M   'P 1'
_cell_length_a   12.67952000
_cell_length_b   12.67951963
_cell_length_c   3.98820200
_cell_angle_alpha   90.00000000
_cell_angle_beta   90.00000000
_cell_angle_gamma   120.00000097
_symmetry_Int_Tables_number   1
_chemical_formula_structural   Dy4TmMo3(P3Ir4)4
_chemical_formula_sum   'Dy4 Tm1 Mo3 P12 Ir16'
_cell_volume   555.28173434
_cell_formula_units_Z   1
loop_
 _symmetry_equiv_pos_site_id
 _symmetry_equiv_pos_as_xyz
  1  'x, y, z'
loop_
 _atom_site_type_symbol
 _atom_site_label
 _atom_site_symmetry_multiplicity
 _atom_site_fract_x
 _atom_site_fract_y
 _atom_site_fract_z
 _atom_site_occupancy
  Dy  Dy0  1  0.666667  0.333333  0.500000  1
  Dy  Dy1  1  0.999997  0.812929  0.000000  1
  Dy  Dy2  1  0.187071  0.187068  0.000000  1
  Dy  Dy3  1  0.812932  0.000003  0.000000  1
  Tm  Tm4  1  0.333333  0.666667  0.500000  1
  Mo  Mo5  1  0.000099  0.453513  0.500000  1
  Mo  Mo6  1  0.546487  0.546586  0.500000  1
  Mo  Mo7  1  0.453414  0.999901  0.500000  1
  P  P8  1  0.999922  0.638765  0.500000  1
  P  P9  1  0.361235  0.361158  0.500000  1
  P  P10  1  0.638842  0.000078  0.500000  1
  P  P11  1  0.515806  0.684295  0.000000  1
  P  P12  1  0.315705  0.831511  0.000000  1
  P  P13  1  0.168489  0.484194  0.000000  1
  P  P14  1  0.483801  0.168069  0.000000  1
  P  P15  1  0.684267  0.516199  0.000000  1
  P  P16  1  0.831931  0.315733  0.000000  1
  P  P17  1  0.000035  0.176881  0.500000  1
  P  P18  1  0.823119  0.823153  0.500000  1
  P  P19  1  0.176847  0.999965  0.500000  1
  Ir  Ir20  1  0.508404  0.865705  0.000000  1
  Ir  Ir21  1  0.134295  0.642701  0.000000  1
  Ir  Ir22  1  0.357299  0.491596  0.000000  1
  Ir  Ir23  1  0.490749  0.357404  0.000000  1
  Ir  Ir24  1  0.866656  0.509251  0.000000  1
  Ir  Ir25  1  0.642596  0.133344  0.000000  1
  Ir  Ir26  1  0.000123  0.286558  0.000000  1
  Ir  Ir27  1  0.713442  0.713565  0.000000  1
  Ir  Ir28  1  0.286435  0.999877  0.000000  1
  Ir  Ir29  1  0.625530  0.804412  0.500000  1
  Ir  Ir30  1  0.195588  0.821118  0.500000  1
  Ir  Ir31  1  0.178882  0.374470  0.500000  1
  Ir  Ir32  1  0.374154  0.178676  0.500000  1
  Ir  Ir33  1  0.804522  0.625846  0.500000  1
  Ir  Ir34  1  0.821324  0.195478  0.500000  1
  Ir  Ir35  1  0.000000  0.000000  0.500000  1
