# generated using pymatgen
data_Pr16Sm3LuSn16
_symmetry_space_group_name_H-M   'P 1'
_cell_length_a   8.31100700
_cell_length_b   8.47065600
_cell_length_c   16.06071000
_cell_angle_alpha   90.00000000
_cell_angle_beta   90.00000000
_cell_angle_gamma   89.99989074
_symmetry_Int_Tables_number   1
_chemical_formula_structural   Pr16Sm3LuSn16
_chemical_formula_sum   'Pr16 Sm3 Lu1 Sn16'
_cell_volume   1130.66886562
_cell_formula_units_Z   1
loop_
 _symmetry_equiv_pos_site_id
 _symmetry_equiv_pos_as_xyz
  1  'x, y, z'
loop_
 _atom_site_type_symbol
 _atom_site_label
 _atom_site_symmetry_multiplicity
 _atom_site_fract_x
 _atom_site_fract_y
 _atom_site_fract_z
 _atom_site_occupancy
  Pr  Pr0  1  0.366940  0.837755  0.879803  1
  Pr  Pr1  1  0.866826  0.662388  0.620753  1
  Pr  Pr2  1  0.632153  0.161538  0.379282  1
  Pr  Pr3  1  0.133712  0.337313  0.120912  1
  Pr  Pr4  1  0.632153  0.161538  0.120718  1
  Pr  Pr5  1  0.133712  0.337313  0.379088  1
  Pr  Pr6  1  0.366940  0.837755  0.620197  1
  Pr  Pr7  1  0.866826  0.662388  0.879247  1
  Pr  Pr8  1  0.518794  0.318733  0.901150  1
  Pr  Pr9  1  0.018616  0.181437  0.598747  1
  Pr  Pr10  1  0.480958  0.681956  0.401194  1
  Pr  Pr11  1  0.981836  0.819044  0.098912  1
  Pr  Pr12  1  0.480958  0.681956  0.098806  1
  Pr  Pr13  1  0.981836  0.819044  0.401088  1
  Pr  Pr14  1  0.518794  0.318733  0.598850  1
  Pr  Pr15  1  0.018616  0.181437  0.901253  1
  Sm  Sm16  1  0.197525  0.502142  0.750000  1
  Sm  Sm17  1  0.697593  0.998080  0.750000  1
  Sm  Sm18  1  0.802185  0.498281  0.250000  1
  Lu  Lu19  1  0.300454  0.002064  0.250000  1
  Sn  Sn20  1  0.292041  0.033568  0.045485  1
  Sn  Sn21  1  0.792003  0.465560  0.456117  1
  Sn  Sn22  1  0.708127  0.965262  0.543620  1
  Sn  Sn23  1  0.207980  0.534436  0.956431  1
  Sn  Sn24  1  0.708127  0.965262  0.956380  1
  Sn  Sn25  1  0.207980  0.534436  0.543569  1
  Sn  Sn26  1  0.292041  0.033568  0.454515  1
  Sn  Sn27  1  0.792003  0.465560  0.043883  1
  Sn  Sn28  1  0.565153  0.616030  0.750000  1
  Sn  Sn29  1  0.065499  0.883890  0.750000  1
  Sn  Sn30  1  0.433952  0.382708  0.250000  1
  Sn  Sn31  1  0.938005  0.115371  0.250000  1
  Sn  Sn32  1  0.322566  0.145096  0.750000  1
  Sn  Sn33  1  0.823255  0.354286  0.750000  1
  Sn  Sn34  1  0.676157  0.855742  0.250000  1
  Sn  Sn35  1  0.177681  0.648332  0.250000  1
