# generated using pymatgen
data_Al4(V3Tc)3
_symmetry_space_group_name_H-M   'P 1'
_cell_length_a   4.79412113
_cell_length_b   4.82120439
_cell_length_c   9.57517600
_cell_angle_alpha   90.00000000
_cell_angle_beta   90.00000000
_cell_angle_gamma   90.03003911
_symmetry_Int_Tables_number   1
_chemical_formula_structural   Al4(V3Tc)3
_chemical_formula_sum   'Al4 V9 Tc3'
_cell_volume   221.31520469
_cell_formula_units_Z   1
loop_
 _symmetry_equiv_pos_site_id
 _symmetry_equiv_pos_as_xyz
  1  'x, y, z'
loop_
 _atom_site_type_symbol
 _atom_site_label
 _atom_site_symmetry_multiplicity
 _atom_site_fract_x
 _atom_site_fract_y
 _atom_site_fract_z
 _atom_site_occupancy
  Al  Al0  1  0.495893  0.500072  0.000000  1
  Al  Al1  1  0.500856  0.505638  0.500000  1
  Al  Al2  1  0.001092  0.995799  0.749713  1
  Al  Al3  1  0.001092  0.995799  0.250287  1
  V  V4  1  0.997510  0.499769  0.123283  1
  V  V5  1  0.001860  0.496886  0.627295  1
  V  V6  1  0.754197  0.005962  0.500000  1
  V  V7  1  0.997510  0.499769  0.876717  1
  V  V8  1  0.001860  0.496886  0.372705  1
  V  V9  1  0.500801  0.748382  0.750944  1
  V  V10  1  0.500801  0.748382  0.249056  1
  V  V11  1  0.247023  0.999178  0.000000  1
  V  V12  1  0.247832  0.004374  0.500000  1
  Tc  Tc13  1  0.499688  0.252752  0.749306  1
  Tc  Tc14  1  0.499688  0.252752  0.250694  1
  Tc  Tc15  1  0.752296  0.997600  0.000000  1
