# generated using pymatgen
data_RbMgPt5O12
_symmetry_space_group_name_H-M   'P 1'
_cell_length_a   8.72122533
_cell_length_b   8.64145033
_cell_length_c   8.70010700
_cell_angle_alpha   107.48270932
_cell_angle_beta   107.83855697
_cell_angle_gamma   113.31560711
_symmetry_Int_Tables_number   1
_chemical_formula_structural   RbMgPt5O12
_chemical_formula_sum   'Rb2 Mg2 Pt10 O24'
_cell_volume   502.09645741
_cell_formula_units_Z   2
loop_
 _symmetry_equiv_pos_site_id
 _symmetry_equiv_pos_as_xyz
  1  'x, y, z'
loop_
 _atom_site_type_symbol
 _atom_site_label
 _atom_site_symmetry_multiplicity
 _atom_site_fract_x
 _atom_site_fract_y
 _atom_site_fract_z
 _atom_site_occupancy
  Rb  Rb0  1  0.292962  0.296016  0.998746  1
  Rb  Rb1  1  0.712200  0.711668  0.009176  1
  Mg  Mg2  1  0.857767  0.337887  0.187556  1
  Mg  Mg3  1  0.997625  0.811137  0.475929  1
  Pt  Pt4  1  0.666475  0.849066  0.514743  1
  Pt  Pt5  1  0.485106  0.004824  0.816967  1
  Pt  Pt6  1  0.817135  0.332556  0.818757  1
  Pt  Pt7  1  0.518703  0.004650  0.185402  1
  Pt  Pt8  1  0.667186  0.481491  0.483136  1
  Pt  Pt9  1  0.332095  0.146559  0.485211  1
  Pt  Pt10  1  0.333133  0.517552  0.521920  1
  Pt  Pt11  1  0.002309  0.183935  0.517845  1
  Pt  Pt12  1  0.144222  0.665400  0.813300  1
  Pt  Pt13  1  0.180391  0.662829  0.183495  1
  O  O14  1  0.672482  0.046345  0.719167  1
  O  O15  1  0.319617  0.965919  0.949450  1
  O  O16  1  0.649899  0.294596  0.940388  1
  O  O17  1  0.713964  0.992554  0.369440  1
  O  O18  1  0.620553  0.330789  0.621922  1
  O  O19  1  0.288395  0.993844  0.616752  1
  O  O20  1  0.669174  0.030721  0.047446  1
  O  O21  1  0.334876  0.955096  0.291683  1
  O  O22  1  0.674052  0.291689  0.294022  1
  O  O23  1  0.299384  0.347583  0.650585  1
  O  O24  1  0.955070  0.013276  0.638989  1
  O  O25  1  0.631372  0.683423  0.643808  1
  O  O26  1  0.041727  0.997724  0.358439  1
  O  O27  1  0.688951  0.644561  0.351985  1
  O  O28  1  0.370683  0.321972  0.362400  1
  O  O29  1  0.000203  0.379051  0.714827  1
  O  O30  1  0.328546  0.713536  0.711832  1
  O  O31  1  0.987309  0.630785  0.949318  1
  O  O32  1  0.375054  0.657072  0.373923  1
  O  O33  1  0.051446  0.344111  0.392351  1
  O  O34  1  0.952253  0.659132  0.613018  1
  O  O35  1  0.018359  0.371222  0.044089  1
  O  O36  1  0.346446  0.706078  0.048261  1
  O  O37  1  0.002876  0.623353  0.283724  1
