# generated using pymatgen
data_Tb8Fe(Si4Au)3
_symmetry_space_group_name_H-M   'P 1'
_cell_length_a   8.16790400
_cell_length_b   8.16790332
_cell_length_c   8.23520400
_cell_angle_alpha   90.00000000
_cell_angle_beta   90.00000000
_cell_angle_gamma   120.00001084
_symmetry_Int_Tables_number   1
_chemical_formula_structural   Tb8Fe(Si4Au)3
_chemical_formula_sum   'Tb8 Fe1 Si12 Au3'
_cell_volume   475.80188633
_cell_formula_units_Z   1
loop_
 _symmetry_equiv_pos_site_id
 _symmetry_equiv_pos_as_xyz
  1  'x, y, z'
loop_
 _atom_site_type_symbol
 _atom_site_label
 _atom_site_symmetry_multiplicity
 _atom_site_fract_x
 _atom_site_fract_y
 _atom_site_fract_z
 _atom_site_occupancy
  Tb  Tb0  1  0.496403  0.992806  0.257467  1
  Tb  Tb1  1  0.494817  0.989636  0.742442  1
  Tb  Tb2  1  0.007194  0.503597  0.257467  1
  Tb  Tb3  1  0.010364  0.505183  0.742442  1
  Tb  Tb4  1  0.496403  0.503597  0.257467  1
  Tb  Tb5  1  0.494817  0.505183  0.742442  1
  Tb  Tb6  1  0.000000  0.000000  0.250807  1
  Tb  Tb7  1  0.000000  0.000000  0.748793  1
  Fe  Fe8  1  0.333333  0.666667  0.498696  1
  Si  Si9  1  0.162810  0.325621  0.995928  1
  Si  Si10  1  0.836589  0.673179  0.003640  1
  Si  Si11  1  0.674379  0.837190  0.995928  1
  Si  Si12  1  0.839528  0.679057  0.501669  1
  Si  Si13  1  0.326821  0.163411  0.003640  1
  Si  Si14  1  0.174390  0.348779  0.498220  1
  Si  Si15  1  0.162810  0.837190  0.995928  1
  Si  Si16  1  0.320943  0.160472  0.501669  1
  Si  Si17  1  0.836589  0.163411  0.003640  1
  Si  Si18  1  0.651221  0.825610  0.498220  1
  Si  Si19  1  0.839528  0.160472  0.501669  1
  Si  Si20  1  0.174390  0.825610  0.498220  1
  Au  Au21  1  0.333333  0.666667  0.004624  1
  Au  Au22  1  0.666667  0.333333  0.997468  1
  Au  Au23  1  0.666667  0.333333  0.501513  1
