# generated using pymatgen
data_Ho9LuPb8
_symmetry_space_group_name_H-M   'P 1'
_cell_length_a   8.18067300
_cell_length_b   15.57553700
_cell_length_c   8.25088300
_cell_angle_alpha   90.00000000
_cell_angle_beta   90.00000000
_cell_angle_gamma   90.00000000
_symmetry_Int_Tables_number   1
_chemical_formula_structural   Ho9LuPb8
_chemical_formula_sum   'Ho18 Lu2 Pb16'
_cell_volume   1051.31410415
_cell_formula_units_Z   2
loop_
 _symmetry_equiv_pos_site_id
 _symmetry_equiv_pos_as_xyz
  1  'x, y, z'
loop_
 _atom_site_type_symbol
 _atom_site_label
 _atom_site_symmetry_multiplicity
 _atom_site_fract_x
 _atom_site_fract_y
 _atom_site_fract_z
 _atom_site_occupancy
  Ho  Ho0  1  0.622734  0.621473  0.158029  1
  Ho  Ho1  1  0.122734  0.878527  0.341971  1
  Ho  Ho2  1  0.377141  0.120774  0.841546  1
  Ho  Ho3  1  0.877141  0.379226  0.658454  1
  Ho  Ho4  1  0.377141  0.379226  0.841546  1
  Ho  Ho5  1  0.877141  0.120774  0.658454  1
  Ho  Ho6  1  0.622734  0.878527  0.158029  1
  Ho  Ho7  1  0.122734  0.621473  0.341971  1
  Ho  Ho8  1  0.463546  0.599917  0.675849  1
  Ho  Ho9  1  0.963546  0.900083  0.824151  1
  Ho  Ho10  1  0.536233  0.099643  0.324138  1
  Ho  Ho11  1  0.036233  0.400357  0.175862  1
  Ho  Ho12  1  0.536233  0.400357  0.324138  1
  Ho  Ho13  1  0.036233  0.099643  0.175862  1
  Ho  Ho14  1  0.463546  0.900083  0.675849  1
  Ho  Ho15  1  0.963546  0.599917  0.824151  1
  Ho  Ho16  1  0.208870  0.250000  0.504208  1
  Ho  Ho17  1  0.708870  0.250000  0.995792  1
  Lu  Lu18  1  0.791045  0.750000  0.495422  1
  Lu  Lu19  1  0.291045  0.750000  0.004578  1
  Pb  Pb20  1  0.718889  0.457513  0.966953  1
  Pb  Pb21  1  0.218889  0.042487  0.533047  1
  Pb  Pb22  1  0.281217  0.956310  0.033069  1
  Pb  Pb23  1  0.781217  0.543690  0.466931  1
  Pb  Pb24  1  0.281217  0.543690  0.033069  1
  Pb  Pb25  1  0.781217  0.956310  0.466931  1
  Pb  Pb26  1  0.718889  0.042487  0.966953  1
  Pb  Pb27  1  0.218889  0.457513  0.533047  1
  Pb  Pb28  1  0.429001  0.750000  0.374062  1
  Pb  Pb29  1  0.929001  0.750000  0.125938  1
  Pb  Pb30  1  0.571890  0.250000  0.625779  1
  Pb  Pb31  1  0.071890  0.250000  0.874221  1
  Pb  Pb32  1  0.651480  0.750000  0.844242  1
  Pb  Pb33  1  0.151480  0.750000  0.655758  1
  Pb  Pb34  1  0.348195  0.250000  0.154046  1
  Pb  Pb35  1  0.848195  0.250000  0.345954  1
