# generated using pymatgen
data_Zr13PaPt20
_symmetry_space_group_name_H-M   'P 1'
_cell_length_a   8.25849617
_cell_length_b   8.25849545
_cell_length_c   9.76092287
_cell_angle_alpha   90.06749026
_cell_angle_beta   90.06749118
_cell_angle_gamma   107.53835036
_symmetry_Int_Tables_number   1
_chemical_formula_structural   Zr13PaPt20
_chemical_formula_sum   'Zr13 Pa1 Pt20'
_cell_volume   634.77478130
_cell_formula_units_Z   1
loop_
 _symmetry_equiv_pos_site_id
 _symmetry_equiv_pos_as_xyz
  1  'x, y, z'
loop_
 _atom_site_type_symbol
 _atom_site_label
 _atom_site_symmetry_multiplicity
 _atom_site_fract_x
 _atom_site_fract_y
 _atom_site_fract_z
 _atom_site_occupancy
  Zr  Zr0  1  0.309865  0.690135  0.000000  1
  Zr  Zr1  1  0.810059  0.189941  0.500000  1
  Zr  Zr2  1  0.190018  0.809982  0.500000  1
  Zr  Zr3  1  0.999943  0.000057  0.000000  1
  Zr  Zr4  1  0.500317  0.499683  0.500000  1
  Zr  Zr5  1  0.003968  0.503227  0.252224  1
  Zr  Zr6  1  0.001291  0.500522  0.747395  1
  Zr  Zr7  1  0.496773  0.996032  0.747776  1
  Zr  Zr8  1  0.499478  0.998709  0.252605  1
  Zr  Zr9  1  0.312786  0.316232  0.186163  1
  Zr  Zr10  1  0.683768  0.687214  0.813837  1
  Zr  Zr11  1  0.182015  0.181143  0.681500  1
  Zr  Zr12  1  0.818857  0.817985  0.318500  1
  Pa  Pa13  1  0.689859  0.310141  0.000000  1
  Pt  Pt14  1  0.852588  0.142969  0.209437  1
  Pt  Pt15  1  0.147181  0.854917  0.791354  1
  Pt  Pt16  1  0.647575  0.354386  0.707891  1
  Pt  Pt17  1  0.645614  0.352425  0.292109  1
  Pt  Pt18  1  0.352197  0.644663  0.292086  1
  Pt  Pt19  1  0.355337  0.647803  0.707914  1
  Pt  Pt20  1  0.857031  0.147412  0.790563  1
  Pt  Pt21  1  0.145083  0.852819  0.208646  1
  Pt  Pt22  1  0.937225  0.645824  0.999105  1
  Pt  Pt23  1  0.062981  0.354925  0.002014  1
  Pt  Pt24  1  0.562941  0.854223  0.499161  1
  Pt  Pt25  1  0.145777  0.437059  0.500839  1
  Pt  Pt26  1  0.437203  0.145222  0.500733  1
  Pt  Pt27  1  0.854778  0.562797  0.499267  1
  Pt  Pt28  1  0.354176  0.062775  0.000895  1
  Pt  Pt29  1  0.645075  0.937019  0.997986  1
  Pt  Pt30  1  0.107694  0.107049  0.394216  1
  Pt  Pt31  1  0.892951  0.892306  0.605784  1
  Pt  Pt32  1  0.391032  0.393435  0.892027  1
  Pt  Pt33  1  0.606565  0.608968  0.107973  1
