# generated using pymatgen
data_YHo2In3RhAu2
_symmetry_space_group_name_H-M   'P 1'
_cell_length_a   7.76398804
_cell_length_b   7.76398822
_cell_length_c   3.88070400
_cell_angle_alpha   90.00000000
_cell_angle_beta   90.00000000
_cell_angle_gamma   120.01125400
_symmetry_Int_Tables_number   1
_chemical_formula_structural   YHo2In3RhAu2
_chemical_formula_sum   'Y1 Ho2 In3 Rh1 Au2'
_cell_volume   202.56369657
_cell_formula_units_Z   1
loop_
 _symmetry_equiv_pos_site_id
 _symmetry_equiv_pos_as_xyz
  1  'x, y, z'
loop_
 _atom_site_type_symbol
 _atom_site_label
 _atom_site_symmetry_multiplicity
 _atom_site_fract_x
 _atom_site_fract_y
 _atom_site_fract_z
 _atom_site_occupancy
  Y  Y0  1  0.399163  0.399163  0.500000  1
  Ho  Ho1  1  0.601339  0.000058  0.500000  1
  Ho  Ho2  1  0.000058  0.601339  0.500000  1
  In  In3  1  0.744344  0.744344  0.000000  1
  In  In4  1  0.255429  0.000104  0.000000  1
  In  In5  1  0.000104  0.255429  0.000000  1
  Rh  Rh6  1  0.998433  0.998433  0.500000  1
  Au  Au7  1  0.668322  0.332807  0.000000  1
  Au  Au8  1  0.332807  0.668322  0.000000  1
