# generated using pymatgen
data_Er11TmInCo4Os
_symmetry_space_group_name_H-M   'P 1'
_cell_length_a   8.20637996
_cell_length_b   8.20892590
_cell_length_c   8.20638007
_cell_angle_alpha   111.60329772
_cell_angle_beta   110.63963882
_cell_angle_gamma   106.20839608
_symmetry_Int_Tables_number   1
_chemical_formula_structural   Er11TmInCo4Os
_chemical_formula_sum   'Er11 Tm1 In1 Co4 Os1'
_cell_volume   424.57397073
_cell_formula_units_Z   1
loop_
 _symmetry_equiv_pos_site_id
 _symmetry_equiv_pos_as_xyz
  1  'x, y, z'
loop_
 _atom_site_type_symbol
 _atom_site_label
 _atom_site_symmetry_multiplicity
 _atom_site_fract_x
 _atom_site_fract_y
 _atom_site_fract_z
 _atom_site_occupancy
  Er  Er0  1  0.416510  0.222103  0.194234  1
  Er  Er1  1  0.583864  0.778050  0.806237  1
  Er  Er2  1  0.027870  0.222103  0.805595  1
  Er  Er3  1  0.971813  0.778050  0.194185  1
  Er  Er4  1  0.181376  0.279056  0.460905  1
  Er  Er5  1  0.818124  0.721056  0.538960  1
  Er  Er6  1  0.182097  0.721056  0.902932  1
  Er  Er7  1  0.818150  0.279056  0.097680  1
  Er  Er8  1  0.314569  0.620497  0.305928  1
  Er  Er9  1  0.685790  0.379708  0.693919  1
  Er  Er10  1  0.314507  0.008705  0.694199  1
  Tm  Tm11  1  0.685152  0.991457  0.306304  1
  In  In12  1  0.500131  0.500326  0.000195  1
  Co  Co13  1  0.375774  0.999982  0.375249  1
  Co  Co14  1  0.624732  0.999982  0.624208  1
  Co  Co15  1  0.111642  0.611724  0.500082  1
  Co  Co16  1  0.887922  0.387838  0.499917  1
  Os  Os17  1  0.999979  0.999251  0.999272  1
