# generated using pymatgen
data_Er3Tm(Sc3Sn4)2
_symmetry_space_group_name_H-M   'P 1'
_cell_length_a   7.65081033
_cell_length_b   7.87910395
_cell_length_c   14.75545300
_cell_angle_alpha   89.98227119
_cell_angle_beta   90.06762434
_cell_angle_gamma   89.97820534
_symmetry_Int_Tables_number   1
_chemical_formula_structural   Er3Tm(Sc3Sn4)2
_chemical_formula_sum   'Er6 Tm2 Sc12 Sn16'
_cell_volume   889.48055418
_cell_formula_units_Z   2
loop_
 _symmetry_equiv_pos_site_id
 _symmetry_equiv_pos_as_xyz
  1  'x, y, z'
loop_
 _atom_site_type_symbol
 _atom_site_label
 _atom_site_symmetry_multiplicity
 _atom_site_fract_x
 _atom_site_fract_y
 _atom_site_fract_z
 _atom_site_occupancy
  Er  Er0  1  0.988868  0.178609  0.093076  1
  Er  Er1  1  0.011132  0.821391  0.906924  1
  Er  Er2  1  0.511849  0.678363  0.906632  1
  Er  Er3  1  0.011714  0.821692  0.593496  1
  Er  Er4  1  0.488151  0.321637  0.093368  1
  Er  Er5  1  0.988286  0.178308  0.406504  1
  Tm  Tm6  1  0.489536  0.321236  0.406482  1
  Tm  Tm7  1  0.510464  0.678764  0.593518  1
  Sc  Sc8  1  0.173984  0.494664  0.750311  1
  Sc  Sc9  1  0.826016  0.505336  0.249689  1
  Sc  Sc10  1  0.326228  0.995078  0.249822  1
  Sc  Sc11  1  0.673772  0.004922  0.750178  1
  Sc  Sc12  1  0.344953  0.159598  0.627172  1
  Sc  Sc13  1  0.655047  0.840402  0.372828  1
  Sc  Sc14  1  0.155145  0.660273  0.372789  1
  Sc  Sc15  1  0.654475  0.839806  0.126851  1
  Sc  Sc16  1  0.844855  0.339727  0.627211  1
  Sc  Sc17  1  0.345525  0.160194  0.873149  1
  Sc  Sc18  1  0.845603  0.340098  0.873027  1
  Sc  Sc19  1  0.154397  0.659902  0.126973  1
  Sn  Sn20  1  0.036900  0.122445  0.750376  1
  Sn  Sn21  1  0.963100  0.877555  0.249624  1
  Sn  Sn22  1  0.463083  0.622471  0.249995  1
  Sn  Sn23  1  0.536917  0.377529  0.750005  1
  Sn  Sn24  1  0.315825  0.847330  0.750238  1
  Sn  Sn25  1  0.684175  0.152670  0.249762  1
  Sn  Sn26  1  0.184339  0.347432  0.249811  1
  Sn  Sn27  1  0.815661  0.652568  0.750189  1
  Sn  Sn28  1  0.188323  0.456922  0.542167  1
  Sn  Sn29  1  0.811677  0.543078  0.457833  1
  Sn  Sn30  1  0.311984  0.957494  0.457632  1
  Sn  Sn31  1  0.811309  0.542579  0.042204  1
  Sn  Sn32  1  0.688016  0.042506  0.542368  1
  Sn  Sn33  1  0.188691  0.457421  0.957796  1
  Sn  Sn34  1  0.688335  0.042931  0.957728  1
  Sn  Sn35  1  0.311665  0.957069  0.042272  1
