# generated using pymatgen
data_Y16In4IrRu3
_symmetry_space_group_name_H-M   'P 1'
_cell_length_a   9.71406231
_cell_length_b   9.71387448
_cell_length_c   9.71477291
_cell_angle_alpha   59.71772971
_cell_angle_beta   59.70175810
_cell_angle_gamma   59.70571237
_symmetry_Int_Tables_number   1
_chemical_formula_structural   Y16In4IrRu3
_chemical_formula_sum   'Y16 In4 Ir1 Ru3'
_cell_volume   643.90970408
_cell_formula_units_Z   1
loop_
 _symmetry_equiv_pos_site_id
 _symmetry_equiv_pos_as_xyz
  1  'x, y, z'
loop_
 _atom_site_type_symbol
 _atom_site_label
 _atom_site_symmetry_multiplicity
 _atom_site_fract_x
 _atom_site_fract_y
 _atom_site_fract_z
 _atom_site_occupancy
  Y  Y0  1  0.808020  0.189081  0.808019  1
  Y  Y1  1  0.940095  0.559282  0.559213  1
  Y  Y2  1  0.559262  0.940137  0.559277  1
  Y  Y3  1  0.806406  0.191503  0.191512  1
  Y  Y4  1  0.191489  0.806264  0.191470  1
  Y  Y5  1  0.349424  0.953952  0.349441  1
  Y  Y6  1  0.940950  0.940989  0.559118  1
  Y  Y7  1  0.559094  0.941013  0.940973  1
  Y  Y8  1  0.189043  0.808019  0.808133  1
  Y  Y9  1  0.349441  0.349515  0.953986  1
  Y  Y10  1  0.559223  0.559315  0.940105  1
  Y  Y11  1  0.348900  0.349037  0.348893  1
  Y  Y12  1  0.191538  0.191508  0.806371  1
  Y  Y13  1  0.808108  0.807988  0.189076  1
  Y  Y14  1  0.940963  0.559143  0.940958  1
  Y  Y15  1  0.953989  0.349499  0.349450  1
  In  In16  1  0.582639  0.582526  0.582664  1
  In  In17  1  0.582831  0.251681  0.582831  1
  In  In18  1  0.582813  0.582838  0.251664  1
  In  In19  1  0.251671  0.582857  0.582835  1
  Ir  Ir20  1  0.140717  0.140612  0.140654  1
  Ru  Ru21  1  0.141338  0.141323  0.580716  1
  Ru  Ru22  1  0.580689  0.141267  0.141279  1
  Ru  Ru23  1  0.141357  0.580655  0.141364  1
