# generated using pymatgen
data_YSb3Pb4O13
_symmetry_space_group_name_H-M   'P 1'
_cell_length_a   7.68971922
_cell_length_b   7.68971836
_cell_length_c   7.68971779
_cell_angle_alpha   59.63081033
_cell_angle_beta   59.63081208
_cell_angle_gamma   59.63081358
_symmetry_Int_Tables_number   1
_chemical_formula_structural   YSb3Pb4O13
_chemical_formula_sum   'Y1 Sb3 Pb4 O13'
_cell_volume   318.82867832
_cell_formula_units_Z   1
loop_
 _symmetry_equiv_pos_site_id
 _symmetry_equiv_pos_as_xyz
  1  'x, y, z'
loop_
 _atom_site_type_symbol
 _atom_site_label
 _atom_site_symmetry_multiplicity
 _atom_site_fract_x
 _atom_site_fract_y
 _atom_site_fract_z
 _atom_site_occupancy
  Y  Y0  1  0.499952  0.499952  0.499952  1
  Sb  Sb1  1  0.000949  0.499891  0.499891  1
  Sb  Sb2  1  0.499891  0.499891  0.000949  1
  Sb  Sb3  1  0.499891  0.000949  0.499891  1
  Pb  Pb4  1  0.999202  0.999202  0.999202  1
  Pb  Pb5  1  0.498243  0.002097  0.002097  1
  Pb  Pb6  1  0.002097  0.002097  0.498243  1
  Pb  Pb7  1  0.002097  0.498243  0.002097  1
  O  O8  1  0.855850  0.416325  0.416325  1
  O  O9  1  0.419040  0.815318  0.815318  1
  O  O10  1  0.416325  0.416325  0.855850  1
  O  O11  1  0.815318  0.815318  0.419040  1
  O  O12  1  0.815318  0.419040  0.815318  1
  O  O13  1  0.416325  0.855850  0.416325  1
  O  O14  1  0.149057  0.580642  0.580642  1
  O  O15  1  0.581057  0.185675  0.185675  1
  O  O16  1  0.580642  0.580642  0.149057  1
  O  O17  1  0.185675  0.185675  0.581057  1
  O  O18  1  0.185675  0.581057  0.185675  1
  O  O19  1  0.580642  0.149057  0.580642  1
  O  O20  1  0.121754  0.121754  0.121754  1
