# generated using pymatgen
data_Na(NbS2)3
_symmetry_space_group_name_H-M   'P 1'
_cell_length_a   5.85006800
_cell_length_b   5.85006757
_cell_length_c   14.78124900
_cell_angle_alpha   90.00000000
_cell_angle_beta   90.00000000
_cell_angle_gamma   120.00000246
_symmetry_Int_Tables_number   1
_chemical_formula_structural   Na(NbS2)3
_chemical_formula_sum   'Na2 Nb6 S12'
_cell_volume   438.09021214
_cell_formula_units_Z   2
loop_
 _symmetry_equiv_pos_site_id
 _symmetry_equiv_pos_as_xyz
  1  'x, y, z'
loop_
 _atom_site_type_symbol
 _atom_site_label
 _atom_site_symmetry_multiplicity
 _atom_site_fract_x
 _atom_site_fract_y
 _atom_site_fract_z
 _atom_site_occupancy
  Na  Na0  1  0.333333  0.666667  0.250000  1
  Na  Na1  1  0.666667  0.333333  0.750000  1
  Nb  Nb2  1  0.333333  0.666667  0.999640  1
  Nb  Nb3  1  0.000000  0.000000  0.000000  1
  Nb  Nb4  1  0.666667  0.333333  0.000360  1
  Nb  Nb5  1  0.333333  0.666667  0.500360  1
  Nb  Nb6  1  0.000000  0.000000  0.500000  1
  Nb  Nb7  1  0.666667  0.333333  0.499640  1
  S  S8  1  0.668244  0.666957  0.394507  1
  S  S9  1  0.666957  0.668244  0.605493  1
  S  S10  1  0.001287  0.668244  0.894507  1
  S  S11  1  0.666957  0.998713  0.894507  1
  S  S12  1  0.668244  0.001287  0.105493  1
  S  S13  1  0.333043  0.001287  0.394507  1
  S  S14  1  0.001287  0.333043  0.605493  1
  S  S15  1  0.331756  0.998713  0.605493  1
  S  S16  1  0.998713  0.666957  0.105493  1
  S  S17  1  0.331756  0.333043  0.894507  1
  S  S18  1  0.998713  0.331756  0.394507  1
  S  S19  1  0.333043  0.331756  0.105493  1
