# generated using pymatgen
data_CsKLi6Si24(SnO15)4
_symmetry_space_group_name_H-M   'P 1'
_cell_length_a   10.15712100
_cell_length_b   10.15712178
_cell_length_c   14.51307200
_cell_angle_alpha   90.00000000
_cell_angle_beta   90.00000000
_cell_angle_gamma   119.99999422
_symmetry_Int_Tables_number   1
_chemical_formula_structural   CsKLi6Si24(SnO15)4
_chemical_formula_sum   'Cs1 K1 Li6 Si24 Sn4 O60'
_cell_volume   1296.67546168
_cell_formula_units_Z   1
loop_
 _symmetry_equiv_pos_site_id
 _symmetry_equiv_pos_as_xyz
  1  'x, y, z'
loop_
 _atom_site_type_symbol
 _atom_site_label
 _atom_site_symmetry_multiplicity
 _atom_site_fract_x
 _atom_site_fract_y
 _atom_site_fract_z
 _atom_site_occupancy
  Cs  Cs0  1  0.000000  0.000000  0.250000  1
  K  K1  1  0.000000  0.000000  0.750000  1
  Li  Li2  1  0.500000  0.500000  0.250000  1
  Li  Li3  1  0.500000  0.000000  0.750000  1
  Li  Li4  1  0.000000  0.500000  0.750000  1
  Li  Li5  1  0.500000  0.500000  0.750000  1
  Li  Li6  1  0.500000  0.000000  0.250000  1
  Li  Li7  1  0.000000  0.500000  0.250000  1
  Si  Si8  1  0.761916  0.118122  0.890975  1
  Si  Si9  1  0.881878  0.643794  0.890975  1
  Si  Si10  1  0.356206  0.238084  0.890975  1
  Si  Si11  1  0.643794  0.761916  0.890975  1
  Si  Si12  1  0.238084  0.356206  0.609025  1
  Si  Si13  1  0.238084  0.881878  0.890975  1
  Si  Si14  1  0.118122  0.356206  0.890975  1
  Si  Si15  1  0.881878  0.238084  0.609025  1
  Si  Si16  1  0.356206  0.118122  0.609025  1
  Si  Si17  1  0.643794  0.881878  0.609025  1
  Si  Si18  1  0.118122  0.761916  0.609025  1
  Si  Si19  1  0.761916  0.643794  0.609025  1
  Si  Si20  1  0.238815  0.881532  0.108208  1
  Si  Si21  1  0.118468  0.357283  0.108208  1
  Si  Si22  1  0.642717  0.761185  0.108208  1
  Si  Si23  1  0.238815  0.357283  0.391792  1
  Si  Si24  1  0.761185  0.642717  0.391792  1
  Si  Si25  1  0.761185  0.118468  0.108208  1
  Si  Si26  1  0.881532  0.642717  0.108208  1
  Si  Si27  1  0.118468  0.761185  0.391792  1
  Si  Si28  1  0.642717  0.881532  0.391792  1
  Si  Si29  1  0.357283  0.118468  0.391792  1
  Si  Si30  1  0.881532  0.238815  0.391792  1
  Si  Si31  1  0.357283  0.238815  0.108208  1
  Sn  Sn32  1  0.333333  0.666667  0.250000  1
  Sn  Sn33  1  0.666667  0.333333  0.250000  1
  Sn  Sn34  1  0.666667  0.333333  0.750000  1
  Sn  Sn35  1  0.333333  0.666667  0.750000  1
  O  O36  1  0.224114  0.281144  0.131442  1
  O  O37  1  0.157283  0.656043  0.673041  1
  O  O38  1  0.157283  0.501240  0.826959  1
  O  O39  1  0.498760  0.842717  0.673041  1
  O  O40  1  0.501240  0.157283  0.673041  1
  O  O41  1  0.656043  0.498760  0.673041  1
  O  O42  1  0.343957  0.501240  0.673041  1
  O  O43  1  0.656043  0.157283  0.826959  1
  O  O44  1  0.501240  0.343957  0.826959  1
  O  O45  1  0.498760  0.656043  0.826959  1
  O  O46  1  0.343957  0.842717  0.826959  1
  O  O47  1  0.842717  0.498760  0.826959  1
  O  O48  1  0.157328  0.655925  0.326991  1
  O  O49  1  0.344075  0.501402  0.326991  1
  O  O50  1  0.498598  0.842672  0.326991  1
  O  O51  1  0.501402  0.157328  0.326991  1
  O  O52  1  0.842672  0.498598  0.173009  1
  O  O53  1  0.842672  0.344075  0.326991  1
  O  O54  1  0.655925  0.498598  0.326991  1
  O  O55  1  0.344075  0.842672  0.173009  1
  O  O56  1  0.498598  0.655925  0.173009  1
  O  O57  1  0.501402  0.344075  0.173009  1
  O  O58  1  0.655925  0.157328  0.173009  1
  O  O59  1  0.056512  0.278656  0.632691  1
  O  O60  1  0.777855  0.056512  0.632691  1
  O  O61  1  0.943488  0.721344  0.632691  1
  O  O62  1  0.278656  0.222145  0.632691  1
  O  O63  1  0.721344  0.777855  0.632691  1
  O  O64  1  0.222145  0.278656  0.867309  1
  O  O65  1  0.222145  0.943488  0.632691  1
  O  O66  1  0.133687  0.401657  0.999480  1
  O  O67  1  0.732029  0.133687  0.999480  1
  O  O68  1  0.401657  0.267971  0.999480  1
  O  O69  1  0.598343  0.732029  0.999480  1
  O  O70  1  0.267971  0.866313  0.999480  1
  O  O71  1  0.732029  0.598343  0.500520  1
  O  O72  1  0.866313  0.267971  0.500520  1
  O  O73  1  0.866313  0.598343  0.999480  1
  O  O74  1  0.401657  0.133687  0.500520  1
  O  O75  1  0.598343  0.866313  0.500520  1
  O  O76  1  0.267971  0.401657  0.500520  1
  O  O77  1  0.133687  0.732029  0.500520  1
  O  O78  1  0.842717  0.343957  0.673041  1
  O  O79  1  0.942970  0.224114  0.131442  1
  O  O80  1  0.281144  0.057030  0.131442  1
  O  O81  1  0.718856  0.942970  0.131442  1
  O  O82  1  0.057030  0.775886  0.131442  1
  O  O83  1  0.942970  0.718856  0.368558  1
  O  O84  1  0.775886  0.057030  0.368558  1
  O  O85  1  0.775886  0.718856  0.131442  1
  O  O86  1  0.281144  0.224114  0.368558  1
  O  O87  1  0.718856  0.775886  0.368558  1
  O  O88  1  0.057030  0.281144  0.368558  1
  O  O89  1  0.224114  0.942970  0.368558  1
  O  O90  1  0.777855  0.721344  0.867309  1
  O  O91  1  0.056512  0.777855  0.867309  1
  O  O92  1  0.721344  0.943488  0.867309  1
  O  O93  1  0.278656  0.056512  0.867309  1
  O  O94  1  0.943488  0.222145  0.867309  1
  O  O95  1  0.157328  0.501402  0.173009  1
