# generated using pymatgen
data_KPuF7
_symmetry_space_group_name_H-M   'P 1'
_cell_length_a   7.85556000
_cell_length_b   5.32342859
_cell_length_c   7.34854500
_cell_angle_alpha   85.46866212
_cell_angle_beta   90.00000000
_cell_angle_gamma   90.00000000
_symmetry_Int_Tables_number   1
_chemical_formula_structural   KPuF7
_chemical_formula_sum   'K2 Pu2 F14'
_cell_volume   306.34466982
_cell_formula_units_Z   2
loop_
 _symmetry_equiv_pos_site_id
 _symmetry_equiv_pos_as_xyz
  1  'x, y, z'
loop_
 _atom_site_type_symbol
 _atom_site_label
 _atom_site_symmetry_multiplicity
 _atom_site_fract_x
 _atom_site_fract_y
 _atom_site_fract_z
 _atom_site_occupancy
  K  K0  1  0.250000  0.015537  0.722704  1
  K  K1  1  0.750000  0.984463  0.277296  1
  Pu  Pu2  1  0.250000  0.457851  0.235936  1
  Pu  Pu3  1  0.750000  0.542149  0.764064  1
  F  F4  1  0.250000  0.595149  0.954994  1
  F  F5  1  0.553276  0.290649  0.784873  1
  F  F6  1  0.750000  0.404851  0.045006  1
  F  F7  1  0.053276  0.709351  0.215127  1
  F  F8  1  0.250000  0.161575  0.060920  1
  F  F9  1  0.063349  0.216528  0.341500  1
  F  F10  1  0.436651  0.216528  0.341500  1
  F  F11  1  0.563349  0.783472  0.658500  1
  F  F12  1  0.946724  0.290649  0.784873  1
  F  F13  1  0.750000  0.838425  0.939080  1
  F  F14  1  0.446724  0.709351  0.215127  1
  F  F15  1  0.750000  0.445522  0.496927  1
  F  F16  1  0.936651  0.783472  0.658500  1
  F  F17  1  0.250000  0.554478  0.503073  1
