# generated using pymatgen
data_Nd3YAl18(Ir2Pd)2
_symmetry_space_group_name_H-M   'P 1'
_cell_length_a   7.63231723
_cell_length_b   7.62803440
_cell_length_c   9.55722700
_cell_angle_alpha   90.00000000
_cell_angle_beta   90.00000000
_cell_angle_gamma   119.42570213
_symmetry_Int_Tables_number   1
_chemical_formula_structural   Nd3YAl18(Ir2Pd)2
_chemical_formula_sum   'Nd3 Y1 Al18 Ir4 Pd2'
_cell_volume   484.63622849
_cell_formula_units_Z   1
loop_
 _symmetry_equiv_pos_site_id
 _symmetry_equiv_pos_as_xyz
  1  'x, y, z'
loop_
 _atom_site_type_symbol
 _atom_site_label
 _atom_site_symmetry_multiplicity
 _atom_site_fract_x
 _atom_site_fract_y
 _atom_site_fract_z
 _atom_site_occupancy
  Nd  Nd0  1  0.004394  0.327713  0.750000  1
  Nd  Nd1  1  0.672480  0.995807  0.250000  1
  Nd  Nd2  1  0.327571  0.004459  0.750000  1
  Y  Y3  1  0.995686  0.672292  0.250000  1
  Al  Al4  1  0.134004  0.132513  0.250000  1
  Al  Al5  1  0.865647  0.865073  0.750000  1
  Al  Al6  1  0.002756  0.341243  0.076233  1
  Al  Al7  1  0.997531  0.660626  0.926553  1
  Al  Al8  1  0.997531  0.660626  0.573447  1
  Al  Al9  1  0.337693  0.001025  0.423946  1
  Al  Al10  1  0.002756  0.341243  0.423767  1
  Al  Al11  1  0.660358  0.997267  0.574904  1
  Al  Al12  1  0.660358  0.997267  0.925096  1
  Al  Al13  1  0.337693  0.001025  0.076054  1
  Al  Al14  1  0.337868  0.337874  0.549874  1
  Al  Al15  1  0.663624  0.662337  0.448599  1
  Al  Al16  1  0.663624  0.662337  0.051401  1
  Al  Al17  1  0.337868  0.337874  0.950126  1
  Al  Al18  1  0.337959  0.548228  0.250000  1
  Al  Al19  1  0.660651  0.452285  0.750000  1
  Al  Al20  1  0.549891  0.341063  0.250000  1
  Al  Al21  1  0.451844  0.660043  0.750000  1
  Ir  Ir22  1  0.672090  0.329079  0.000916  1
  Ir  Ir23  1  0.328294  0.671650  0.000835  1
  Ir  Ir24  1  0.328294  0.671650  0.499165  1
  Ir  Ir25  1  0.672090  0.329079  0.499084  1
  Pd  Pd26  1  0.999723  0.999161  0.000866  1
  Pd  Pd27  1  0.999723  0.999161  0.499134  1
