# generated using pymatgen
data_YEr(Tc2P)4
_symmetry_space_group_name_H-M   'P 1'
_cell_length_a   7.40635063
_cell_length_b   7.40635063
_cell_length_c   3.94941400
_cell_angle_alpha   90.00000000
_cell_angle_beta   90.00000000
_cell_angle_gamma   89.88662067
_symmetry_Int_Tables_number   1
_chemical_formula_structural   YEr(Tc2P)4
_chemical_formula_sum   'Y1 Er1 Tc8 P4'
_cell_volume   216.64084823
_cell_formula_units_Z   1
loop_
 _symmetry_equiv_pos_site_id
 _symmetry_equiv_pos_as_xyz
  1  'x, y, z'
loop_
 _atom_site_type_symbol
 _atom_site_label
 _atom_site_symmetry_multiplicity
 _atom_site_fract_x
 _atom_site_fract_y
 _atom_site_fract_z
 _atom_site_occupancy
  Y  Y0  1  0.500000  0.500000  0.000000  1
  Er  Er1  1  0.000000  0.000000  0.500000  1
  Tc  Tc2  1  0.583101  0.160218  0.500000  1
  Tc  Tc3  1  0.416899  0.839782  0.500000  1
  Tc  Tc4  1  0.082347  0.338578  0.000000  1
  Tc  Tc5  1  0.917653  0.661422  0.000000  1
  Tc  Tc6  1  0.160218  0.583101  0.500000  1
  Tc  Tc7  1  0.839782  0.416899  0.500000  1
  Tc  Tc8  1  0.338578  0.082347  0.000000  1
  Tc  Tc9  1  0.661422  0.917653  0.000000  1
  P  P10  1  0.712602  0.712602  0.500000  1
  P  P11  1  0.287398  0.287398  0.500000  1
  P  P12  1  0.211300  0.788700  0.000000  1
  P  P13  1  0.788700  0.211300  0.000000  1
