# generated using pymatgen
data_Er(ScCu6)2
_symmetry_space_group_name_H-M   'P 1'
_cell_length_a   4.88791929
_cell_length_b   4.88791969
_cell_length_c   10.45014000
_cell_angle_alpha   95.06525814
_cell_angle_beta   95.06524679
_cell_angle_gamma   119.90864557
_symmetry_Int_Tables_number   1
_chemical_formula_structural   Er(ScCu6)2
_chemical_formula_sum   'Er1 Sc2 Cu12'
_cell_volume   213.02988759
_cell_formula_units_Z   1
loop_
 _symmetry_equiv_pos_site_id
 _symmetry_equiv_pos_as_xyz
  1  'x, y, z'
loop_
 _atom_site_type_symbol
 _atom_site_label
 _atom_site_symmetry_multiplicity
 _atom_site_fract_x
 _atom_site_fract_y
 _atom_site_fract_z
 _atom_site_occupancy
  Er  Er0  1  0.000000  0.000000  0.000000  1
  Sc  Sc1  1  0.135438  0.135438  0.360524  1
  Sc  Sc2  1  0.864562  0.864562  0.639476  1
  Cu  Cu3  1  0.664897  0.335104  0.000000  1
  Cu  Cu4  1  0.335104  0.664897  0.000000  1
  Cu  Cu5  1  0.572882  0.070373  0.201479  1
  Cu  Cu6  1  0.070373  0.572882  0.201479  1
  Cu  Cu7  1  0.568420  0.568420  0.204038  1
  Cu  Cu8  1  0.808834  0.482583  0.409123  1
  Cu  Cu9  1  0.482583  0.808834  0.409123  1
  Cu  Cu10  1  0.517419  0.191167  0.590877  1
  Cu  Cu11  1  0.191167  0.517419  0.590877  1
  Cu  Cu12  1  0.431579  0.431579  0.795962  1
  Cu  Cu13  1  0.929626  0.427117  0.798522  1
  Cu  Cu14  1  0.427117  0.929626  0.798522  1
