# generated using pymatgen
data_Lu3Th(Tc3Ge4)2
_symmetry_space_group_name_H-M   'P 1'
_cell_length_a   8.30792737
_cell_length_b   5.71579139
_cell_length_c   6.98070384
_cell_angle_alpha   76.08523907
_cell_angle_beta   90.51626306
_cell_angle_gamma   90.17295206
_symmetry_Int_Tables_number   1
_chemical_formula_structural   Lu3Th(Tc3Ge4)2
_chemical_formula_sum   'Lu3 Th1 Tc6 Ge8'
_cell_volume   321.74749581
_cell_formula_units_Z   1
loop_
 _symmetry_equiv_pos_site_id
 _symmetry_equiv_pos_as_xyz
  1  'x, y, z'
loop_
 _atom_site_type_symbol
 _atom_site_label
 _atom_site_symmetry_multiplicity
 _atom_site_fract_x
 _atom_site_fract_y
 _atom_site_fract_z
 _atom_site_occupancy
  Lu  Lu0  1  0.052304  0.422858  0.757921  1
  Lu  Lu1  1  0.442354  0.924893  0.757402  1
  Lu  Lu2  1  0.942649  0.576040  0.242281  1
  Th  Th3  1  0.551949  0.076434  0.248571  1
  Tc  Tc4  1  0.212406  0.122428  0.112534  1
  Tc  Tc5  1  0.709042  0.376768  0.892861  1
  Tc  Tc6  1  0.796079  0.890723  0.885437  1
  Tc  Tc7  1  0.294625  0.607842  0.108966  1
  Tc  Tc8  1  0.999311  0.997881  0.499773  1
  Tc  Tc9  1  0.501016  0.501294  0.499387  1
  Ge  Ge10  1  0.908511  0.117347  0.130270  1
  Ge  Ge11  1  0.400544  0.388608  0.859984  1
  Ge  Ge12  1  0.099647  0.877235  0.875241  1
  Ge  Ge13  1  0.599137  0.624435  0.118619  1
  Ge  Ge14  1  0.751461  0.227057  0.580506  1
  Ge  Ge15  1  0.239887  0.285228  0.425897  1
  Ge  Ge16  1  0.244133  0.767927  0.419169  1
  Ge  Ge17  1  0.754944  0.715003  0.585182  1
