# generated using pymatgen
data_Dy5YVFeB14
_symmetry_space_group_name_H-M   'P 1'
_cell_length_a   8.08802400
_cell_length_b   8.08802484
_cell_length_c   9.33853700
_cell_angle_alpha   90.00000000
_cell_angle_beta   90.00000000
_cell_angle_gamma   155.50840109
_symmetry_Int_Tables_number   1
_chemical_formula_structural   Dy5YVFeB14
_chemical_formula_sum   'Dy5 Y1 V1 Fe1 B14'
_cell_volume   253.25087359
_cell_formula_units_Z   1
loop_
 _symmetry_equiv_pos_site_id
 _symmetry_equiv_pos_as_xyz
  1  'x, y, z'
loop_
 _atom_site_type_symbol
 _atom_site_label
 _atom_site_symmetry_multiplicity
 _atom_site_fract_x
 _atom_site_fract_y
 _atom_site_fract_z
 _atom_site_occupancy
  Dy  Dy0  1  0.893907  0.106093  0.441765  1
  Dy  Dy1  1  0.104988  0.895012  0.563019  1
  Dy  Dy2  1  0.893907  0.106093  0.058235  1
  Dy  Dy3  1  0.104988  0.895012  0.936981  1
  Dy  Dy4  1  0.243615  0.756385  0.250000  1
  Y  Y5  1  0.758400  0.241600  0.750000  1
  V  V6  1  0.052521  0.947479  0.250000  1
  Fe  Fe7  1  0.945414  0.054586  0.750000  1
  B  B8  1  0.727940  0.272060  0.468661  1
  B  B9  1  0.273258  0.726742  0.534417  1
  B  B10  1  0.727940  0.272060  0.031339  1
  B  B11  1  0.273258  0.726742  0.965583  1
  B  B12  1  0.632857  0.367143  0.149063  1
  B  B13  1  0.370645  0.629355  0.846771  1
  B  B14  1  0.632857  0.367143  0.350937  1
  B  B15  1  0.370645  0.629355  0.653229  1
  B  B16  1  0.520551  0.479449  0.093569  1
  B  B17  1  0.478075  0.521925  0.902088  1
  B  B18  1  0.520551  0.479449  0.406431  1
  B  B19  1  0.478075  0.521925  0.597912  1
  B  B20  1  0.457638  0.542362  0.250000  1
  B  B21  1  0.537975  0.462025  0.750000  1
