# generated using pymatgen
data_Sc2Re7Si4Os
_symmetry_space_group_name_H-M   'P 1'
_cell_length_a   7.34990979
_cell_length_b   7.32447984
_cell_length_c   4.09873800
_cell_angle_alpha   90.00000000
_cell_angle_beta   90.00000000
_cell_angle_gamma   90.10043179
_symmetry_Int_Tables_number   1
_chemical_formula_structural   Sc2Re7Si4Os
_chemical_formula_sum   'Sc2 Re7 Si4 Os1'
_cell_volume   220.65221329
_cell_formula_units_Z   1
loop_
 _symmetry_equiv_pos_site_id
 _symmetry_equiv_pos_as_xyz
  1  'x, y, z'
loop_
 _atom_site_type_symbol
 _atom_site_label
 _atom_site_symmetry_multiplicity
 _atom_site_fract_x
 _atom_site_fract_y
 _atom_site_fract_z
 _atom_site_occupancy
  Sc  Sc0  1  0.497931  0.499972  0.000000  1
  Sc  Sc1  1  0.998785  0.000059  0.500000  1
  Re  Re2  1  0.405301  0.845894  0.500000  1
  Re  Re3  1  0.095855  0.339772  0.000000  1
  Re  Re4  1  0.903214  0.654542  0.000000  1
  Re  Re5  1  0.162030  0.592649  0.500000  1
  Re  Re6  1  0.844485  0.411192  0.500000  1
  Re  Re7  1  0.343377  0.091294  0.000000  1
  Re  Re8  1  0.658639  0.904451  0.000000  1
  Si  Si9  1  0.702360  0.706776  0.500000  1
  Si  Si10  1  0.296313  0.290824  0.500000  1
  Si  Si11  1  0.202864  0.792111  0.000000  1
  Si  Si12  1  0.792898  0.206104  0.000000  1
  Os  Os13  1  0.595951  0.164360  0.500000  1
