# generated using pymatgen
data_TmCd(NiRh)2
_symmetry_space_group_name_H-M   'P 1'
_cell_length_a   5.00567996
_cell_length_b   5.10455871
_cell_length_c   5.10455899
_cell_angle_alpha   62.40619579
_cell_angle_beta   60.63872920
_cell_angle_gamma   60.63873397
_symmetry_Int_Tables_number   1
_chemical_formula_structural   TmCd(NiRh)2
_chemical_formula_sum   'Tm1 Cd1 Ni2 Rh2'
_cell_volume   94.71660873
_cell_formula_units_Z   1
loop_
 _symmetry_equiv_pos_site_id
 _symmetry_equiv_pos_as_xyz
  1  'x, y, z'
loop_
 _atom_site_type_symbol
 _atom_site_label
 _atom_site_symmetry_multiplicity
 _atom_site_fract_x
 _atom_site_fract_y
 _atom_site_fract_z
 _atom_site_occupancy
  Tm  Tm0  1  0.248286  0.251714  0.251714  1
  Cd  Cd1  1  0.003895  0.996105  0.996105  1
  Ni  Ni2  1  0.124725  0.626608  0.626608  1
  Ni  Ni3  1  0.622060  0.626608  0.626608  1
  Rh  Rh4  1  0.625518  0.625489  0.123477  1
  Rh  Rh5  1  0.625518  0.123477  0.625489  1
