# generated using pymatgen
data_NaIn(PS3)2
_symmetry_space_group_name_H-M   'P 1'
_cell_length_a   6.33706700
_cell_length_b   6.33706538
_cell_length_c   14.41598800
_cell_angle_alpha   90.00000000
_cell_angle_beta   90.00000000
_cell_angle_gamma   119.99999281
_symmetry_Int_Tables_number   1
_chemical_formula_structural   NaIn(PS3)2
_chemical_formula_sum   'Na2 In2 P4 S12'
_cell_volume   501.36217037
_cell_formula_units_Z   2
loop_
 _symmetry_equiv_pos_site_id
 _symmetry_equiv_pos_as_xyz
  1  'x, y, z'
loop_
 _atom_site_type_symbol
 _atom_site_label
 _atom_site_symmetry_multiplicity
 _atom_site_fract_x
 _atom_site_fract_y
 _atom_site_fract_z
 _atom_site_occupancy
  Na  Na0  1  0.666667  0.333333  0.250000  1
  Na  Na1  1  0.333333  0.666667  0.750000  1
  In  In2  1  0.000000  0.000000  0.250000  1
  In  In3  1  0.000000  0.000000  0.750000  1
  P  P4  1  0.666667  0.333333  0.671915  1
  P  P5  1  0.666667  0.333333  0.828085  1
  P  P6  1  0.333333  0.666667  0.328085  1
  P  P7  1  0.333333  0.666667  0.171915  1
  S  S8  1  0.962052  0.307989  0.868510  1
  S  S9  1  0.345936  0.307989  0.631490  1
  S  S10  1  0.962052  0.654064  0.631490  1
  S  S11  1  0.692011  0.037948  0.631490  1
  S  S12  1  0.307989  0.345936  0.131490  1
  S  S13  1  0.654064  0.962052  0.131490  1
  S  S14  1  0.037948  0.692011  0.131490  1
  S  S15  1  0.654064  0.692011  0.368510  1
  S  S16  1  0.037948  0.345936  0.368510  1
  S  S17  1  0.307989  0.962052  0.368510  1
  S  S18  1  0.692011  0.654064  0.868510  1
  S  S19  1  0.345936  0.037948  0.868510  1
