# generated using pymatgen
data_YbDy(Ga4Ni)2
_symmetry_space_group_name_H-M   'P 1'
_cell_length_a   7.90084855
_cell_length_b   7.90084892
_cell_length_c   6.51385600
_cell_angle_alpha   90.00000000
_cell_angle_beta   90.00000000
_cell_angle_gamma   149.64804033
_symmetry_Int_Tables_number   1
_chemical_formula_structural   YbDy(Ga4Ni)2
_chemical_formula_sum   'Yb1 Dy1 Ga8 Ni2'
_cell_volume   205.46785440
_cell_formula_units_Z   1
loop_
 _symmetry_equiv_pos_site_id
 _symmetry_equiv_pos_as_xyz
  1  'x, y, z'
loop_
 _atom_site_type_symbol
 _atom_site_label
 _atom_site_symmetry_multiplicity
 _atom_site_fract_x
 _atom_site_fract_y
 _atom_site_fract_z
 _atom_site_occupancy
  Yb  Yb0  1  0.375988  0.624012  0.250000  1
  Dy  Dy1  1  0.622717  0.377283  0.750000  1
  Ga  Ga2  1  0.185375  0.814625  0.448648  1
  Ga  Ga3  1  0.815928  0.184072  0.549383  1
  Ga  Ga4  1  0.999936  0.000064  0.000919  1
  Ga  Ga5  1  0.999936  0.000064  0.499081  1
  Ga  Ga6  1  0.568635  0.431365  0.250000  1
  Ga  Ga7  1  0.430375  0.569625  0.750000  1
  Ga  Ga8  1  0.185375  0.814625  0.051352  1
  Ga  Ga9  1  0.815928  0.184072  0.950617  1
  Ni  Ni10  1  0.722775  0.277225  0.250000  1
  Ni  Ni11  1  0.277031  0.722969  0.750000  1
