# generated using pymatgen
data_Li6YbU2N6
_symmetry_space_group_name_H-M   'P 1'
_cell_length_a   6.04437500
_cell_length_b   6.04437522
_cell_length_c   5.44067200
_cell_angle_alpha   90.00000000
_cell_angle_beta   90.00000000
_cell_angle_gamma   119.99999986
_symmetry_Int_Tables_number   1
_chemical_formula_structural   Li6YbU2N6
_chemical_formula_sum   'Li6 Yb1 U2 N6'
_cell_volume   172.14166295
_cell_formula_units_Z   1
loop_
 _symmetry_equiv_pos_site_id
 _symmetry_equiv_pos_as_xyz
  1  'x, y, z'
loop_
 _atom_site_type_symbol
 _atom_site_label
 _atom_site_symmetry_multiplicity
 _atom_site_fract_x
 _atom_site_fract_y
 _atom_site_fract_z
 _atom_site_occupancy
  Li  Li0  1  0.985786  0.660043  0.607291  1
  Li  Li1  1  0.339957  0.325743  0.607291  1
  Li  Li2  1  0.674257  0.014214  0.607291  1
  Li  Li3  1  0.014214  0.339957  0.392709  1
  Li  Li4  1  0.660043  0.674257  0.392709  1
  Li  Li5  1  0.325743  0.985786  0.392709  1
  Yb  Yb6  1  0.000000  0.000000  0.000000  1
  U  U7  1  0.333333  0.666667  0.993575  1
  U  U8  1  0.666667  0.333333  0.006425  1
  N  N9  1  0.001050  0.643492  0.223210  1
  N  N10  1  0.356508  0.357558  0.223210  1
  N  N11  1  0.642442  0.998950  0.223210  1
  N  N12  1  0.998950  0.356508  0.776790  1
  N  N13  1  0.643492  0.642442  0.776790  1
  N  N14  1  0.357558  0.001050  0.776790  1
