# generated using pymatgen
data_Er6BiRuO14
_symmetry_space_group_name_H-M   'P 1'
_cell_length_a   6.41329924
_cell_length_b   6.44177138
_cell_length_c   7.55763067
_cell_angle_alpha   106.48942111
_cell_angle_beta   89.99960148
_cell_angle_gamma   98.00138800
_symmetry_Int_Tables_number   1
_chemical_formula_structural   Er6BiRuO14
_chemical_formula_sum   'Er6 Bi1 Ru1 O14'
_cell_volume   296.21587946
_cell_formula_units_Z   1
loop_
 _symmetry_equiv_pos_site_id
 _symmetry_equiv_pos_as_xyz
  1  'x, y, z'
loop_
 _atom_site_type_symbol
 _atom_site_label
 _atom_site_symmetry_multiplicity
 _atom_site_fract_x
 _atom_site_fract_y
 _atom_site_fract_z
 _atom_site_occupancy
  Er  Er0  1  0.732497  0.460047  0.115063  1
  Er  Er1  1  0.732771  0.469359  0.605837  1
  Er  Er2  1  0.543133  0.995599  0.755373  1
  Er  Er3  1  0.456867  0.004401  0.244627  1
  Er  Er4  1  0.267229  0.530641  0.394163  1
  Er  Er5  1  0.267503  0.539953  0.884937  1
  Bi  Bi6  1  0.000000  0.000000  0.500000  1
  Ru  Ru7  1  0.000000  0.000000  0.000000  1
  O  O8  1  0.695014  0.074490  0.490189  1
  O  O9  1  0.930398  0.690718  0.982200  1
  O  O10  1  0.710653  0.073729  0.051835  1
  O  O11  1  0.929751  0.642245  0.383508  1
  O  O12  1  0.885025  0.903023  0.737312  1
  O  O13  1  0.558712  0.352513  0.834580  1
  O  O14  1  0.543576  0.360167  0.341949  1
  O  O15  1  0.456424  0.639833  0.658051  1
  O  O16  1  0.441288  0.647487  0.165420  1
  O  O17  1  0.114975  0.096977  0.262688  1
  O  O18  1  0.070249  0.357755  0.616492  1
  O  O19  1  0.289347  0.926271  0.948165  1
  O  O20  1  0.069602  0.309282  0.017800  1
  O  O21  1  0.304986  0.925510  0.509811  1
