# generated using pymatgen
data_Dy5CrOsO12
_symmetry_space_group_name_H-M   'P 1'
_cell_length_a   6.86400403
_cell_length_b   6.86400487
_cell_length_c   7.28151674
_cell_angle_alpha   74.49718985
_cell_angle_beta   74.49719051
_cell_angle_gamma   50.77745031
_symmetry_Int_Tables_number   1
_chemical_formula_structural   Dy5CrOsO12
_chemical_formula_sum   'Dy5 Cr1 Os1 O12'
_cell_volume   253.87308987
_cell_formula_units_Z   1
loop_
 _symmetry_equiv_pos_site_id
 _symmetry_equiv_pos_as_xyz
  1  'x, y, z'
loop_
 _atom_site_type_symbol
 _atom_site_label
 _atom_site_symmetry_multiplicity
 _atom_site_fract_x
 _atom_site_fract_y
 _atom_site_fract_z
 _atom_site_occupancy
  Dy  Dy0  1  0.313293  0.288215  0.360136  1
  Dy  Dy1  1  0.711785  0.686707  0.639864  1
  Dy  Dy2  1  0.307114  0.307334  0.831598  1
  Dy  Dy3  1  0.692666  0.692886  0.168402  1
  Dy  Dy4  1  0.005620  0.994380  0.500000  1
  Cr  Cr5  1  0.745843  0.254157  0.000000  1
  Os  Os6  1  0.238103  0.761897  0.000000  1
  O  O7  1  0.901022  0.435474  0.916369  1
  O  O8  1  0.420131  0.901491  0.915996  1
  O  O9  1  0.098509  0.579869  0.084004  1
  O  O10  1  0.564526  0.098978  0.083631  1
  O  O11  1  0.103058  0.596011  0.569898  1
  O  O12  1  0.600807  0.090634  0.576875  1
  O  O13  1  0.909366  0.399193  0.423125  1
  O  O14  1  0.403989  0.896942  0.430102  1
  O  O15  1  0.002850  0.995948  0.818009  1
  O  O16  1  0.004052  0.997150  0.181991  1
  O  O17  1  0.487960  0.510695  0.815044  1
  O  O18  1  0.489305  0.512040  0.184956  1
