# generated using pymatgen
data_Tb11Ho5MgCo4Au3
_symmetry_space_group_name_H-M   'P 1'
_cell_length_a   9.38983377
_cell_length_b   9.44934442
_cell_length_c   9.44722300
_cell_angle_alpha   60.00742977
_cell_angle_beta   59.79761846
_cell_angle_gamma   59.75396621
_symmetry_Int_Tables_number   1
_chemical_formula_structural   Tb11Ho5MgCo4Au3
_chemical_formula_sum   'Tb11 Ho5 Mg1 Co4 Au3'
_cell_volume   590.73501860
_cell_formula_units_Z   1
loop_
 _symmetry_equiv_pos_site_id
 _symmetry_equiv_pos_as_xyz
  1  'x, y, z'
loop_
 _atom_site_type_symbol
 _atom_site_label
 _atom_site_symmetry_multiplicity
 _atom_site_fract_x
 _atom_site_fract_y
 _atom_site_fract_z
 _atom_site_occupancy
  Tb  Tb0  1  0.808409  0.812413  0.189590  1
  Tb  Tb1  1  0.937383  0.561417  0.562264  1
  Tb  Tb2  1  0.561963  0.937475  0.936827  1
  Tb  Tb3  1  0.561964  0.937475  0.563734  1
  Tb  Tb4  1  0.937383  0.561417  0.938938  1
  Tb  Tb5  1  0.562242  0.563305  0.937226  1
  Tb  Tb6  1  0.937220  0.938974  0.561903  1
  Tb  Tb7  1  0.348600  0.346467  0.346684  1
  Tb  Tb8  1  0.348600  0.346467  0.958248  1
  Tb  Tb9  1  0.348049  0.958642  0.346654  1
  Tb  Tb10  1  0.931775  0.355580  0.356322  1
  Ho  Ho11  1  0.808479  0.190486  0.189445  1
  Ho  Ho12  1  0.186308  0.814942  0.813796  1
  Ho  Ho13  1  0.186308  0.814942  0.184954  1
  Ho  Ho14  1  0.808479  0.190486  0.811591  1
  Ho  Ho15  1  0.185352  0.184948  0.814850  1
  Mg  Mg16  1  0.311277  0.562656  0.563033  1
  Co  Co17  1  0.134208  0.143810  0.144189  1
  Co  Co18  1  0.134208  0.143810  0.577793  1
  Co  Co19  1  0.134320  0.577564  0.144058  1
  Co  Co20  1  0.576006  0.141284  0.141355  1
  Au  Au21  1  0.583814  0.591477  0.592105  1
  Au  Au22  1  0.583814  0.591477  0.232605  1
  Au  Au23  1  0.583838  0.232485  0.591839  1
