# generated using pymatgen
data_Nb4Fe4Si3As
_symmetry_space_group_name_H-M   'P 1'
_cell_length_a   3.73864700
_cell_length_b   6.25008063
_cell_length_c   7.05651102
_cell_angle_alpha   89.68389318
_cell_angle_beta   90.00000000
_cell_angle_gamma   90.00000000
_symmetry_Int_Tables_number   1
_chemical_formula_structural   Nb4Fe4Si3As
_chemical_formula_sum   'Nb4 Fe4 Si3 As1'
_cell_volume   164.88589114
_cell_formula_units_Z   1
loop_
 _symmetry_equiv_pos_site_id
 _symmetry_equiv_pos_as_xyz
  1  'x, y, z'
loop_
 _atom_site_type_symbol
 _atom_site_label
 _atom_site_symmetry_multiplicity
 _atom_site_fract_x
 _atom_site_fract_y
 _atom_site_fract_z
 _atom_site_occupancy
  Nb  Nb0  1  0.250000  0.515092  0.188375  1
  Nb  Nb1  1  0.750000  0.474998  0.813567  1
  Nb  Nb2  1  0.750000  0.986165  0.680710  1
  Nb  Nb3  1  0.250000  0.017889  0.318228  1
  Fe  Fe4  1  0.250000  0.644510  0.560253  1
  Fe  Fe5  1  0.750000  0.355089  0.436272  1
  Fe  Fe6  1  0.750000  0.857023  0.066534  1
  Fe  Fe7  1  0.250000  0.150448  0.937367  1
  Si  Si8  1  0.750000  0.221867  0.118959  1
  Si  Si9  1  0.750000  0.722801  0.383175  1
  Si  Si10  1  0.250000  0.278887  0.614190  1
  As  As11  1  0.250000  0.775230  0.882371  1
