# generated using pymatgen
data_Y20Ag3Ru2Au3
_symmetry_space_group_name_H-M   'P 1'
_cell_length_a   9.54666000
_cell_length_b   9.54664671
_cell_length_c   9.60084700
_cell_angle_alpha   90.00000000
_cell_angle_beta   90.00000000
_cell_angle_gamma   120.00009086
_symmetry_Int_Tables_number   1
_chemical_formula_structural   Y20Ag3Ru2Au3
_chemical_formula_sum   'Y20 Ag3 Ru2 Au3'
_cell_volume   757.77816900
_cell_formula_units_Z   1
loop_
 _symmetry_equiv_pos_site_id
 _symmetry_equiv_pos_as_xyz
  1  'x, y, z'
loop_
 _atom_site_type_symbol
 _atom_site_label
 _atom_site_symmetry_multiplicity
 _atom_site_fract_x
 _atom_site_fract_y
 _atom_site_fract_z
 _atom_site_occupancy
  Y  Y0  1  0.000000  0.000000  0.482224  1
  Y  Y1  1  0.000000  0.000000  0.017776  1
  Y  Y2  1  0.208398  0.791602  0.440460  1
  Y  Y3  1  0.208399  0.416797  0.440460  1
  Y  Y4  1  0.583203  0.791602  0.440460  1
  Y  Y5  1  0.791959  0.208041  0.558135  1
  Y  Y6  1  0.791959  0.583917  0.558135  1
  Y  Y7  1  0.416083  0.208041  0.558135  1
  Y  Y8  1  0.791959  0.208041  0.941865  1
  Y  Y9  1  0.791959  0.583917  0.941865  1
  Y  Y10  1  0.416083  0.208041  0.941865  1
  Y  Y11  1  0.208398  0.791602  0.059540  1
  Y  Y12  1  0.208399  0.416797  0.059540  1
  Y  Y13  1  0.583203  0.791602  0.059540  1
  Y  Y14  1  0.540518  0.459483  0.250000  1
  Y  Y15  1  0.540518  0.081035  0.250000  1
  Y  Y16  1  0.918965  0.459482  0.250000  1
  Y  Y17  1  0.458153  0.541846  0.750000  1
  Y  Y18  1  0.458154  0.916307  0.750000  1
  Y  Y19  1  0.083693  0.541846  0.750000  1
  Ag  Ag20  1  0.113683  0.886317  0.750000  1
  Ag  Ag21  1  0.113683  0.227365  0.750000  1
  Ag  Ag22  1  0.772635  0.886317  0.750000  1
  Ru  Ru23  1  0.333333  0.666668  0.250000  1
  Ru  Ru24  1  0.666667  0.333333  0.750000  1
  Au  Au25  1  0.875075  0.124924  0.250000  1
  Au  Au26  1  0.875075  0.750150  0.250000  1
  Au  Au27  1  0.249849  0.124925  0.250000  1
