# generated using pymatgen
data_TaNb7Ni4CN
_symmetry_space_group_name_H-M   'P 1'
_cell_length_a   8.27800338
_cell_length_b   8.27800273
_cell_length_c   8.28477800
_cell_angle_alpha   59.97292965
_cell_angle_beta   59.97293222
_cell_angle_gamma   59.96595336
_symmetry_Int_Tables_number   1
_chemical_formula_structural   TaNb7Ni4CN
_chemical_formula_sum   'Ta2 Nb14 Ni8 C2 N2'
_cell_volume   401.16907741
_cell_formula_units_Z   2
loop_
 _symmetry_equiv_pos_site_id
 _symmetry_equiv_pos_as_xyz
  1  'x, y, z'
loop_
 _atom_site_type_symbol
 _atom_site_label
 _atom_site_symmetry_multiplicity
 _atom_site_fract_x
 _atom_site_fract_y
 _atom_site_fract_z
 _atom_site_occupancy
  Ta  Ta0  1  0.625000  0.625000  0.125000  1
  Ta  Ta1  1  0.625000  0.625000  0.625000  1
  Nb  Nb2  1  0.125000  0.625000  0.625000  1
  Nb  Nb3  1  0.625000  0.125000  0.625000  1
  Nb  Nb4  1  0.818940  0.818940  0.181060  1
  Nb  Nb5  1  0.184604  0.184604  0.815396  1
  Nb  Nb6  1  0.816849  0.183594  0.817295  1
  Nb  Nb7  1  0.183594  0.816849  0.182263  1
  Nb  Nb8  1  0.183594  0.816849  0.817295  1
  Nb  Nb9  1  0.816849  0.183594  0.182263  1
  Nb  Nb10  1  0.431060  0.431060  0.068940  1
  Nb  Nb11  1  0.065396  0.065396  0.434604  1
  Nb  Nb12  1  0.433151  0.066406  0.432705  1
  Nb  Nb13  1  0.066406  0.433151  0.067737  1
  Nb  Nb14  1  0.066406  0.433151  0.432705  1
  Nb  Nb15  1  0.433151  0.066406  0.067737  1
  Ni  Ni16  1  0.738201  0.422732  0.419533  1
  Ni  Ni17  1  0.422732  0.738201  0.419533  1
  Ni  Ni18  1  0.421240  0.421240  0.739665  1
  Ni  Ni19  1  0.421240  0.421240  0.417854  1
  Ni  Ni20  1  0.511799  0.827268  0.830467  1
  Ni  Ni21  1  0.827268  0.511799  0.830467  1
  Ni  Ni22  1  0.828760  0.828760  0.510335  1
  Ni  Ni23  1  0.828760  0.828760  0.832146  1
  C  C24  1  0.125000  0.125000  0.625000  1
  C  C25  1  0.125000  0.125000  0.125000  1
  N  N26  1  0.625000  0.125000  0.125000  1
  N  N27  1  0.125000  0.625000  0.125000  1
