# generated using pymatgen
data_PaSbSe4
_symmetry_space_group_name_H-M   'P 1'
_cell_length_a   7.94915506
_cell_length_b   7.94915610
_cell_length_c   7.16099234
_cell_angle_alpha   63.57975684
_cell_angle_beta   63.57976318
_cell_angle_gamma   30.40284122
_symmetry_Int_Tables_number   1
_chemical_formula_structural   PaSbSe4
_chemical_formula_sum   'Pa1 Sb1 Se4'
_cell_volume   203.20261777
_cell_formula_units_Z   1
loop_
 _symmetry_equiv_pos_site_id
 _symmetry_equiv_pos_as_xyz
  1  'x, y, z'
loop_
 _atom_site_type_symbol
 _atom_site_label
 _atom_site_symmetry_multiplicity
 _atom_site_fract_x
 _atom_site_fract_y
 _atom_site_fract_z
 _atom_site_occupancy
  Pa  Pa0  1  0.500000  0.500000  0.500000  1
  Sb  Sb1  1  0.000000  0.000000  0.000000  1
  Se  Se2  1  0.887890  0.887890  0.452085  1
  Se  Se3  1  0.612591  0.612591  0.069532  1
  Se  Se4  1  0.112110  0.112110  0.547915  1
  Se  Se5  1  0.387409  0.387409  0.930468  1
