# generated using pymatgen
data_NaSr11(SnAu)12
_symmetry_space_group_name_H-M   'P 1'
_cell_length_a   4.89012400
_cell_length_b   8.39868499
_cell_length_c   23.69818473
_cell_angle_alpha   90.05534421
_cell_angle_beta   90.00000000
_cell_angle_gamma   90.00000000
_symmetry_Int_Tables_number   1
_chemical_formula_structural   NaSr11(SnAu)12
_chemical_formula_sum   'Na1 Sr11 Sn12 Au12'
_cell_volume   973.29847348
_cell_formula_units_Z   1
loop_
 _symmetry_equiv_pos_site_id
 _symmetry_equiv_pos_as_xyz
  1  'x, y, z'
loop_
 _atom_site_type_symbol
 _atom_site_label
 _atom_site_symmetry_multiplicity
 _atom_site_fract_x
 _atom_site_fract_y
 _atom_site_fract_z
 _atom_site_occupancy
  Na  Na0  1  0.750000  0.211958  0.497736  1
  Sr  Sr1  1  0.250000  0.792820  0.166196  1
  Sr  Sr2  1  0.250000  0.795459  0.502131  1
  Sr  Sr3  1  0.250000  0.792908  0.833442  1
  Sr  Sr4  1  0.250000  0.706701  0.334508  1
  Sr  Sr5  1  0.750000  0.206988  0.833756  1
  Sr  Sr6  1  0.750000  0.287400  0.997787  1
  Sr  Sr7  1  0.750000  0.293396  0.664367  1
  Sr  Sr8  1  0.750000  0.290826  0.336263  1
  Sr  Sr9  1  0.250000  0.707359  0.664926  1
  Sr  Sr10  1  0.250000  0.712678  0.002178  1
  Sr  Sr11  1  0.750000  0.206936  0.166640  1
  Sn  Sn12  1  0.250000  0.408427  0.561223  1
  Sn  Sn13  1  0.250000  0.084011  0.399130  1
  Sn  Sn14  1  0.250000  0.086723  0.064873  1
  Sn  Sn15  1  0.250000  0.415842  0.897985  1
  Sn  Sn16  1  0.750000  0.584073  0.102090  1
  Sn  Sn17  1  0.250000  0.417510  0.768870  1
  Sn  Sn18  1  0.750000  0.581978  0.231270  1
  Sn  Sn19  1  0.750000  0.583236  0.437340  1
  Sn  Sn20  1  0.750000  0.913099  0.935090  1
  Sn  Sn21  1  0.250000  0.083048  0.269491  1
  Sn  Sn22  1  0.750000  0.919887  0.600633  1
  Sn  Sn23  1  0.750000  0.917525  0.730118  1
  Au  Au24  1  0.250000  0.088350  0.594600  1
  Au  Au25  1  0.250000  0.086169  0.738990  1
  Au  Au26  1  0.750000  0.586042  0.906477  1
  Au  Au27  1  0.750000  0.913755  0.406774  1
  Au  Au28  1  0.750000  0.585033  0.566653  1
  Au  Au29  1  0.750000  0.585798  0.760301  1
  Au  Au30  1  0.250000  0.412712  0.434258  1
  Au  Au31  1  0.250000  0.413676  0.239541  1
  Au  Au32  1  0.750000  0.915828  0.066905  1
  Au  Au33  1  0.250000  0.413939  0.093505  1
  Au  Au34  1  0.250000  0.084154  0.933051  1
  Au  Au35  1  0.750000  0.913758  0.260902  1
