# generated using pymatgen
data_Nd4CuPd2Pt
_symmetry_space_group_name_H-M   'P 1'
_cell_length_a   4.65441800
_cell_length_b   5.71758247
_cell_length_c   7.33865924
_cell_angle_alpha   89.99226493
_cell_angle_beta   90.00000000
_cell_angle_gamma   90.00000000
_symmetry_Int_Tables_number   1
_chemical_formula_structural   Nd4CuPd2Pt
_chemical_formula_sum   'Nd4 Cu1 Pd2 Pt1'
_cell_volume   195.29653560
_cell_formula_units_Z   1
loop_
 _symmetry_equiv_pos_site_id
 _symmetry_equiv_pos_as_xyz
  1  'x, y, z'
loop_
 _atom_site_type_symbol
 _atom_site_label
 _atom_site_symmetry_multiplicity
 _atom_site_fract_x
 _atom_site_fract_y
 _atom_site_fract_z
 _atom_site_occupancy
  Nd  Nd0  1  0.000000  0.112708  0.689991  1
  Nd  Nd1  1  0.000000  0.893660  0.179012  1
  Nd  Nd2  1  0.500000  0.384668  0.315291  1
  Nd  Nd3  1  0.500000  0.610129  0.818936  1
  Cu  Cu4  1  0.500000  0.880255  0.462870  1
  Pd  Pd5  1  0.000000  0.618759  0.533912  1
  Pd  Pd6  1  0.000000  0.404232  0.043666  1
  Pt  Pt7  1  0.500000  0.095588  0.956321  1
