# generated using pymatgen
data_Yb2Zr2CO3
_symmetry_space_group_name_H-M   'P 1'
_cell_length_a   11.09794593
_cell_length_b   11.09794622
_cell_length_c   11.09794591
_cell_angle_alpha   17.22088240
_cell_angle_beta   17.22087781
_cell_angle_gamma   17.22088305
_symmetry_Int_Tables_number   1
_chemical_formula_structural   Yb2Zr2CO3
_chemical_formula_sum   'Yb2 Zr2 C1 O3'
_cell_volume   104.53539735
_cell_formula_units_Z   1
loop_
 _symmetry_equiv_pos_site_id
 _symmetry_equiv_pos_as_xyz
  1  'x, y, z'
loop_
 _atom_site_type_symbol
 _atom_site_label
 _atom_site_symmetry_multiplicity
 _atom_site_fract_x
 _atom_site_fract_y
 _atom_site_fract_z
 _atom_site_occupancy
  Yb  Yb0  1  0.875447  0.875447  0.875447  1
  Yb  Yb1  1  0.124553  0.124553  0.124553  1
  Zr  Zr2  1  0.371000  0.371000  0.371000  1
  Zr  Zr3  1  0.629000  0.629000  0.629000  1
  C  C4  1  0.000000  0.000000  0.000000  1
  O  O5  1  0.249556  0.249556  0.249556  1
  O  O6  1  0.500000  0.500000  0.500000  1
  O  O7  1  0.750444  0.750444  0.750444  1
