# generated using pymatgen
data_TbErNi2Ag
_symmetry_space_group_name_H-M   'P 1'
_cell_length_a   7.23696854
_cell_length_b   7.23696818
_cell_length_c   3.65091300
_cell_angle_alpha   90.00000000
_cell_angle_beta   90.00000000
_cell_angle_gamma   148.99909632
_symmetry_Int_Tables_number   1
_chemical_formula_structural   TbErNi2Ag
_chemical_formula_sum   'Tb1 Er1 Ni2 Ag1'
_cell_volume   98.48397461
_cell_formula_units_Z   1
loop_
 _symmetry_equiv_pos_site_id
 _symmetry_equiv_pos_as_xyz
  1  'x, y, z'
loop_
 _atom_site_type_symbol
 _atom_site_label
 _atom_site_symmetry_multiplicity
 _atom_site_fract_x
 _atom_site_fract_y
 _atom_site_fract_z
 _atom_site_occupancy
  Tb  Tb0  1  0.365958  0.634042  0.500000  1
  Er  Er1  1  0.635628  0.364372  0.500000  1
  Ni  Ni2  1  0.799574  0.200426  0.000000  1
  Ni  Ni3  1  0.197917  0.802083  0.000000  1
  Ag  Ag4  1  0.000924  0.999076  0.000000  1
