# generated using pymatgen
data_Ce2ErSn3Ir2Rh
_symmetry_space_group_name_H-M   'P 1'
_cell_length_a   7.50704707
_cell_length_b   7.50704720
_cell_length_c   4.01939300
_cell_angle_alpha   90.00000000
_cell_angle_beta   90.00000000
_cell_angle_gamma   120.25940444
_symmetry_Int_Tables_number   1
_chemical_formula_structural   Ce2ErSn3Ir2Rh
_chemical_formula_sum   'Ce2 Er1 Sn3 Ir2 Rh1'
_cell_volume   195.65377328
_cell_formula_units_Z   1
loop_
 _symmetry_equiv_pos_site_id
 _symmetry_equiv_pos_as_xyz
  1  'x, y, z'
loop_
 _atom_site_type_symbol
 _atom_site_label
 _atom_site_symmetry_multiplicity
 _atom_site_fract_x
 _atom_site_fract_y
 _atom_site_fract_z
 _atom_site_occupancy
  Ce  Ce0  1  0.585351  0.999124  0.000000  1
  Ce  Ce1  1  0.999124  0.585351  0.000000  1
  Er  Er2  1  0.408035  0.408035  0.000000  1
  Sn  Sn3  1  0.006292  0.255572  0.500000  1
  Sn  Sn4  1  0.739878  0.739878  0.500000  1
  Sn  Sn5  1  0.255572  0.006292  0.500000  1
  Ir  Ir6  1  0.673890  0.332368  0.500000  1
  Ir  Ir7  1  0.332368  0.673890  0.500000  1
  Rh  Rh8  1  0.999488  0.999488  0.000000  1
