# generated using pymatgen
data_Tb9Sm(Hg2Pd)4
_symmetry_space_group_name_H-M   'P 1'
_cell_length_a   7.98491125
_cell_length_b   18.30274979
_cell_length_c   3.68122800
_cell_angle_alpha   90.00000000
_cell_angle_beta   90.00000000
_cell_angle_gamma   90.27025462
_symmetry_Int_Tables_number   1
_chemical_formula_structural   Tb9Sm(Hg2Pd)4
_chemical_formula_sum   'Tb9 Sm1 Hg8 Pd4'
_cell_volume   537.99014698
_cell_formula_units_Z   1
loop_
 _symmetry_equiv_pos_site_id
 _symmetry_equiv_pos_as_xyz
  1  'x, y, z'
loop_
 _atom_site_type_symbol
 _atom_site_label
 _atom_site_symmetry_multiplicity
 _atom_site_fract_x
 _atom_site_fract_y
 _atom_site_fract_z
 _atom_site_occupancy
  Tb  Tb0  1  0.000000  0.000000  0.000000  1
  Tb  Tb1  1  0.734644  0.284486  0.000000  1
  Tb  Tb2  1  0.265356  0.715514  0.000000  1
  Tb  Tb3  1  0.765292  0.784954  0.000000  1
  Tb  Tb4  1  0.234708  0.215046  0.000000  1
  Tb  Tb5  1  0.614417  0.085260  0.000000  1
  Tb  Tb6  1  0.385583  0.914740  0.000000  1
  Tb  Tb7  1  0.884522  0.585308  0.000000  1
  Tb  Tb8  1  0.115478  0.414692  0.000000  1
  Sm  Sm9  1  0.500000  0.500000  0.000000  1
  Hg  Hg10  1  0.710860  0.935140  0.500000  1
  Hg  Hg11  1  0.289140  0.064860  0.500000  1
  Hg  Hg12  1  0.793303  0.434012  0.500000  1
  Hg  Hg13  1  0.206697  0.565988  0.500000  1
  Hg  Hg14  1  0.582608  0.649792  0.500000  1
  Hg  Hg15  1  0.417392  0.350208  0.500000  1
  Hg  Hg16  1  0.918266  0.147709  0.500000  1
  Hg  Hg17  1  0.081734  0.852291  0.500000  1
  Pd  Pd18  1  0.524054  0.196026  0.500000  1
  Pd  Pd19  1  0.475946  0.803974  0.500000  1
  Pd  Pd20  1  0.976256  0.696528  0.500000  1
  Pd  Pd21  1  0.023744  0.303472  0.500000  1
