# generated using pymatgen
data_Tb4Yb7Sn9Pt4
_symmetry_space_group_name_H-M   'P 1'
_cell_length_a   13.32418600
_cell_length_b   13.32375579
_cell_length_c   3.72586800
_cell_angle_alpha   90.00000000
_cell_angle_beta   90.00000000
_cell_angle_gamma   112.84092993
_symmetry_Int_Tables_number   1
_chemical_formula_structural   Tb4Yb7Sn9Pt4
_chemical_formula_sum   'Tb4 Yb7 Sn9 Pt4'
_cell_volume   609.58002334
_cell_formula_units_Z   1
loop_
 _symmetry_equiv_pos_site_id
 _symmetry_equiv_pos_as_xyz
  1  'x, y, z'
loop_
 _atom_site_type_symbol
 _atom_site_label
 _atom_site_symmetry_multiplicity
 _atom_site_fract_x
 _atom_site_fract_y
 _atom_site_fract_z
 _atom_site_occupancy
  Tb  Tb0  1  0.370911  0.629086  0.000000  1
  Tb  Tb1  1  0.629089  0.370914  0.000000  1
  Tb  Tb2  1  0.311550  0.311542  0.000000  1
  Tb  Tb3  1  0.688450  0.688458  0.000000  1
  Yb  Yb4  1  0.412845  0.068257  0.000000  1
  Yb  Yb5  1  0.587155  0.931743  0.000000  1
  Yb  Yb6  1  0.068258  0.412840  0.000000  1
  Yb  Yb7  1  0.931742  0.587160  0.000000  1
  Yb  Yb8  1  0.161641  0.838357  0.000000  1
  Yb  Yb9  1  0.838359  0.161643  0.000000  1
  Yb  Yb10  1  0.000000  0.000000  0.000000  1
  Sn  Sn11  1  0.371764  0.839471  0.500000  1
  Sn  Sn12  1  0.628236  0.160529  0.500000  1
  Sn  Sn13  1  0.839471  0.371764  0.500000  1
  Sn  Sn14  1  0.160529  0.628236  0.500000  1
  Sn  Sn15  1  0.218727  0.081318  0.500000  1
  Sn  Sn16  1  0.781273  0.918682  0.500000  1
  Sn  Sn17  1  0.081359  0.218750  0.500000  1
  Sn  Sn18  1  0.918641  0.781250  0.500000  1
  Sn  Sn19  1  0.500000  0.500000  0.500000  1
  Pt  Pt20  1  0.450324  0.247397  0.500000  1
  Pt  Pt21  1  0.549676  0.752603  0.500000  1
  Pt  Pt22  1  0.247395  0.450319  0.500000  1
  Pt  Pt23  1  0.752605  0.549681  0.500000  1
