# generated using pymatgen
data_Y3CdIr3RhO14
_symmetry_space_group_name_H-M   'P 1'
_cell_length_a   7.20417117
_cell_length_b   7.20417218
_cell_length_c   7.20417241
_cell_angle_alpha   60.91516863
_cell_angle_beta   60.91516693
_cell_angle_gamma   60.91516733
_symmetry_Int_Tables_number   1
_chemical_formula_structural   Y3CdIr3RhO14
_chemical_formula_sum   'Y3 Cd1 Ir3 Rh1 O14'
_cell_volume   269.83840846
_cell_formula_units_Z   1
loop_
 _symmetry_equiv_pos_site_id
 _symmetry_equiv_pos_as_xyz
  1  'x, y, z'
loop_
 _atom_site_type_symbol
 _atom_site_label
 _atom_site_symmetry_multiplicity
 _atom_site_fract_x
 _atom_site_fract_y
 _atom_site_fract_z
 _atom_site_occupancy
  Y  Y0  1  0.625000  0.125000  0.125000  1
  Y  Y1  1  0.125000  0.625000  0.125000  1
  Y  Y2  1  0.125000  0.125000  0.625000  1
  Cd  Cd3  1  0.125000  0.125000  0.125000  1
  Ir  Ir4  1  0.125000  0.625000  0.625000  1
  Ir  Ir5  1  0.625000  0.125000  0.625000  1
  Ir  Ir6  1  0.625000  0.625000  0.125000  1
  Rh  Rh7  1  0.625000  0.625000  0.625000  1
  O  O8  1  0.712587  0.712587  0.286696  1
  O  O9  1  0.297126  0.297126  0.699551  1
  O  O10  1  0.712587  0.286696  0.712587  1
  O  O11  1  0.297126  0.699551  0.297126  1
  O  O12  1  0.286696  0.712587  0.712587  1
  O  O13  1  0.699551  0.297126  0.297126  1
  O  O14  1  0.537413  0.537413  0.963304  1
  O  O15  1  0.952874  0.952874  0.550449  1
  O  O16  1  0.537413  0.963304  0.537413  1
  O  O17  1  0.952874  0.550449  0.952874  1
  O  O18  1  0.963304  0.537413  0.537413  1
  O  O19  1  0.550449  0.952874  0.952874  1
  O  O20  1  0.250720  0.250720  0.250720  1
  O  O21  1  0.999280  0.999280  0.999280  1
