# generated using pymatgen
data_NdDy3(MgPb2)4
_symmetry_space_group_name_H-M   'P 1'
_cell_length_a   6.92920000
_cell_length_b   6.91311100
_cell_length_c   9.10188400
_cell_angle_alpha   89.99864906
_cell_angle_beta   89.99948734
_cell_angle_gamma   89.99971820
_symmetry_Int_Tables_number   1
_chemical_formula_structural   NdDy3(MgPb2)4
_chemical_formula_sum   'Nd1 Dy3 Mg4 Pb8'
_cell_volume   436.00143953
_cell_formula_units_Z   1
loop_
 _symmetry_equiv_pos_site_id
 _symmetry_equiv_pos_as_xyz
  1  'x, y, z'
loop_
 _atom_site_type_symbol
 _atom_site_label
 _atom_site_symmetry_multiplicity
 _atom_site_fract_x
 _atom_site_fract_y
 _atom_site_fract_z
 _atom_site_occupancy
  Nd  Nd0  1  0.749646  0.249986  0.500067  1
  Dy  Dy1  1  0.750802  0.250028  0.000041  1
  Dy  Dy2  1  0.249501  0.749990  0.999974  1
  Dy  Dy3  1  0.250119  0.750060  0.500050  1
  Mg  Mg4  1  0.250019  0.249996  0.999969  1
  Mg  Mg5  1  0.750045  0.749977  0.000031  1
  Mg  Mg6  1  0.749551  0.750030  0.499960  1
  Mg  Mg7  1  0.250280  0.250025  0.499931  1
  Pb  Pb8  1  0.498880  0.998428  0.247726  1
  Pb  Pb9  1  0.498713  0.501547  0.247812  1
  Pb  Pb10  1  0.001266  0.501539  0.248383  1
  Pb  Pb11  1  0.001376  0.998436  0.248424  1
  Pb  Pb12  1  0.001150  0.501659  0.751528  1
  Pb  Pb13  1  0.001192  0.998399  0.751566  1
  Pb  Pb14  1  0.498714  0.501437  0.752240  1
  Pb  Pb15  1  0.498750  0.998463  0.752298  1
