# generated using pymatgen
data_Sr5Nd3(Sn4Au3)4
_symmetry_space_group_name_H-M   'P 1'
_cell_length_a   15.40160800
_cell_length_b   15.40160732
_cell_length_c   4.54093300
_cell_angle_alpha   90.00000000
_cell_angle_beta   90.00000000
_cell_angle_gamma   120.00000146
_symmetry_Int_Tables_number   1
_chemical_formula_structural   Sr5Nd3(Sn4Au3)4
_chemical_formula_sum   'Sr5 Nd3 Sn16 Au12'
_cell_volume   932.84144132
_cell_formula_units_Z   1
loop_
 _symmetry_equiv_pos_site_id
 _symmetry_equiv_pos_as_xyz
  1  'x, y, z'
loop_
 _atom_site_type_symbol
 _atom_site_label
 _atom_site_symmetry_multiplicity
 _atom_site_fract_x
 _atom_site_fract_y
 _atom_site_fract_z
 _atom_site_occupancy
  Sr  Sr0  1  0.333333  0.666667  0.000000  1
  Sr  Sr1  1  0.666667  0.333333  0.000000  1
  Sr  Sr2  1  0.819374  0.000000  0.500000  1
  Sr  Sr3  1  0.000000  0.819374  0.500000  1
  Sr  Sr4  1  0.180626  0.180626  0.500000  1
  Nd  Nd5  1  0.425399  0.000000  0.000000  1
  Nd  Nd6  1  0.000000  0.425399  0.000000  1
  Nd  Nd7  1  0.574601  0.574601  0.000000  1
  Sn  Sn8  1  0.189580  0.367872  0.000000  1
  Sn  Sn9  1  0.632128  0.821709  0.000000  1
  Sn  Sn10  1  0.367872  0.189580  0.000000  1
  Sn  Sn11  1  0.178291  0.810420  0.000000  1
  Sn  Sn12  1  0.821709  0.632128  0.000000  1
  Sn  Sn13  1  0.810420  0.178291  0.000000  1
  Sn  Sn14  1  0.274177  0.000000  0.500000  1
  Sn  Sn15  1  0.000000  0.274177  0.500000  1
  Sn  Sn16  1  0.725823  0.725823  0.500000  1
  Sn  Sn17  1  0.372747  0.498332  0.500000  1
  Sn  Sn18  1  0.501668  0.874415  0.500000  1
  Sn  Sn19  1  0.498332  0.372747  0.500000  1
  Sn  Sn20  1  0.125585  0.627253  0.500000  1
  Sn  Sn21  1  0.874415  0.501668  0.500000  1
  Sn  Sn22  1  0.627253  0.125585  0.500000  1
  Sn  Sn23  1  0.000000  0.000000  0.000000  1
  Au  Au24  1  0.175140  0.474579  0.500000  1
  Au  Au25  1  0.525421  0.700561  0.500000  1
  Au  Au26  1  0.474579  0.175140  0.500000  1
  Au  Au27  1  0.299439  0.824860  0.500000  1
  Au  Au28  1  0.700561  0.525421  0.500000  1
  Au  Au29  1  0.824860  0.299439  0.500000  1
  Au  Au30  1  0.173072  0.000000  0.000000  1
  Au  Au31  1  0.000000  0.173072  0.000000  1
  Au  Au32  1  0.826928  0.826928  0.000000  1
  Au  Au33  1  0.621922  0.000000  0.000000  1
  Au  Au34  1  0.000000  0.621922  0.000000  1
  Au  Au35  1  0.378078  0.378078  0.000000  1
