# generated using pymatgen
data_Li3(Pr2Ag5)2
_symmetry_space_group_name_H-M   'P 1'
_cell_length_a   8.79159693
_cell_length_b   8.79159553
_cell_length_c   10.34325100
_cell_angle_alpha   90.00000000
_cell_angle_beta   90.00000000
_cell_angle_gamma   108.75221770
_symmetry_Int_Tables_number   1
_chemical_formula_structural   Li3(Pr2Ag5)2
_chemical_formula_sum   'Li6 Pr8 Ag20'
_cell_volume   757.01548079
_cell_formula_units_Z   2
loop_
 _symmetry_equiv_pos_site_id
 _symmetry_equiv_pos_as_xyz
  1  'x, y, z'
loop_
 _atom_site_type_symbol
 _atom_site_label
 _atom_site_symmetry_multiplicity
 _atom_site_fract_x
 _atom_site_fract_y
 _atom_site_fract_z
 _atom_site_occupancy
  Li  Li0  1  0.016937  0.516937  0.250000  1
  Li  Li1  1  0.983063  0.483063  0.750000  1
  Li  Li2  1  0.483063  0.983063  0.750000  1
  Li  Li3  1  0.516937  0.016937  0.250000  1
  Li  Li4  1  0.000000  0.000000  0.000000  1
  Li  Li5  1  0.500000  0.500000  0.500000  1
  Pr  Pr6  1  0.698218  0.301782  0.000000  1
  Pr  Pr7  1  0.301782  0.698218  0.000000  1
  Pr  Pr8  1  0.801782  0.198218  0.500000  1
  Pr  Pr9  1  0.198218  0.801782  0.500000  1
  Pr  Pr10  1  0.302110  0.302110  0.198658  1
  Pr  Pr11  1  0.697890  0.697890  0.801342  1
  Pr  Pr12  1  0.197890  0.197890  0.698658  1
  Pr  Pr13  1  0.802110  0.802110  0.301342  1
  Ag  Ag14  1  0.098260  0.098260  0.403949  1
  Ag  Ag15  1  0.901740  0.901740  0.596051  1
  Ag  Ag16  1  0.401740  0.401740  0.903949  1
  Ag  Ag17  1  0.598260  0.598260  0.096051  1
  Ag  Ag18  1  0.898090  0.174069  0.201966  1
  Ag  Ag19  1  0.101910  0.825931  0.798034  1
  Ag  Ag20  1  0.601910  0.325931  0.701966  1
  Ag  Ag21  1  0.674069  0.398090  0.298034  1
  Ag  Ag22  1  0.398090  0.674069  0.298034  1
  Ag  Ag23  1  0.325931  0.601910  0.701966  1
  Ag  Ag24  1  0.825931  0.101910  0.798034  1
  Ag  Ag25  1  0.174069  0.898090  0.201966  1
  Ag  Ag26  1  0.936658  0.660270  0.029775  1
  Ag  Ag27  1  0.063342  0.339730  0.970225  1
  Ag  Ag28  1  0.563342  0.839730  0.529775  1
  Ag  Ag29  1  0.160270  0.436658  0.470225  1
  Ag  Ag30  1  0.436658  0.160270  0.470225  1
  Ag  Ag31  1  0.839730  0.563342  0.529775  1
  Ag  Ag32  1  0.339730  0.063342  0.970225  1
  Ag  Ag33  1  0.660270  0.936658  0.029775  1
