# generated using pymatgen
data_Sr3Ca(BeAs2)2
_symmetry_space_group_name_H-M   'P 1'
_cell_length_a   7.68329607
_cell_length_b   7.66341783
_cell_length_c   7.66341700
_cell_angle_alpha   133.25805276
_cell_angle_beta   130.47441256
_cell_angle_gamma   70.41481030
_symmetry_Int_Tables_number   1
_chemical_formula_structural   Sr3Ca(BeAs2)2
_chemical_formula_sum   'Sr3 Ca1 Be2 As4'
_cell_volume   245.03407156
_cell_formula_units_Z   1
loop_
 _symmetry_equiv_pos_site_id
 _symmetry_equiv_pos_as_xyz
  1  'x, y, z'
loop_
 _atom_site_type_symbol
 _atom_site_label
 _atom_site_symmetry_multiplicity
 _atom_site_fract_x
 _atom_site_fract_y
 _atom_site_fract_z
 _atom_site_occupancy
  Sr  Sr0  1  0.670652  0.861533  0.809119  1
  Sr  Sr1  1  0.336089  0.139908  0.196180  1
  Sr  Sr2  1  0.940217  0.638899  0.301318  1
  Ca  Ca3  1  0.069938  0.364012  0.705925  1
  Be  Be4  1  0.498583  0.249521  0.749008  1
  Be  Be5  1  0.498583  0.749574  0.249062  1
  As  As6  1  0.399350  0.601262  0.798086  1
  As  As7  1  0.590206  0.392836  0.197371  1
  As  As8  1  0.193244  0.891081  0.302163  1
  As  As9  1  0.803141  0.111375  0.691765  1
