# generated using pymatgen
data_Hf4Zr3Cu10
_symmetry_space_group_name_H-M   'P 1'
_cell_length_a   7.85010206
_cell_length_b   7.85010249
_cell_length_c   9.33293104
_cell_angle_alpha   89.99378422
_cell_angle_beta   89.99377941
_cell_angle_gamma   107.39927603
_symmetry_Int_Tables_number   1
_chemical_formula_structural   Hf4Zr3Cu10
_chemical_formula_sum   'Hf8 Zr6 Cu20'
_cell_volume   548.81777147
_cell_formula_units_Z   2
loop_
 _symmetry_equiv_pos_site_id
 _symmetry_equiv_pos_as_xyz
  1  'x, y, z'
loop_
 _atom_site_type_symbol
 _atom_site_label
 _atom_site_symmetry_multiplicity
 _atom_site_fract_x
 _atom_site_fract_y
 _atom_site_fract_z
 _atom_site_occupancy
  Hf  Hf0  1  0.689652  0.310348  0.500000  1
  Hf  Hf1  1  0.189668  0.810332  0.000000  1
  Hf  Hf2  1  0.516996  0.017593  0.750778  1
  Hf  Hf3  1  0.982407  0.483004  0.249222  1
  Hf  Hf4  1  0.016922  0.517633  0.749253  1
  Hf  Hf5  1  0.482366  0.983077  0.250747  1
  Hf  Hf6  1  0.000448  0.999552  0.500000  1
  Hf  Hf7  1  0.500437  0.499563  0.000000  1
  Zr  Zr8  1  0.809983  0.810184  0.804826  1
  Zr  Zr9  1  0.189816  0.190017  0.195174  1
  Zr  Zr10  1  0.309991  0.310166  0.695154  1
  Zr  Zr11  1  0.689834  0.690009  0.304846  1
  Zr  Zr12  1  0.310762  0.689238  0.500000  1
  Zr  Zr13  1  0.810769  0.189231  0.000000  1
  Cu  Cu14  1  0.376024  0.667007  0.796251  1
  Cu  Cu15  1  0.332993  0.623976  0.203749  1
  Cu  Cu16  1  0.876139  0.167031  0.703795  1
  Cu  Cu17  1  0.832969  0.123861  0.296205  1
  Cu  Cu18  1  0.166665  0.876787  0.705944  1
  Cu  Cu19  1  0.123213  0.833335  0.294056  1
  Cu  Cu20  1  0.666692  0.376810  0.794104  1
  Cu  Cu21  1  0.623190  0.333308  0.205896  1
  Cu  Cu22  1  0.650323  0.943711  0.508516  1
  Cu  Cu23  1  0.056289  0.349677  0.491484  1
  Cu  Cu24  1  0.150323  0.443630  0.991466  1
  Cu  Cu25  1  0.556370  0.849677  0.008534  1
  Cu  Cu26  1  0.941078  0.648656  0.507425  1
  Cu  Cu27  1  0.351344  0.058922  0.492575  1
  Cu  Cu28  1  0.441097  0.148682  0.992562  1
  Cu  Cu29  1  0.851318  0.558903  0.007438  1
  Cu  Cu30  1  0.606651  0.604664  0.600007  1
  Cu  Cu31  1  0.395336  0.393349  0.399993  1
  Cu  Cu32  1  0.106603  0.104669  0.900010  1
  Cu  Cu33  1  0.895331  0.893397  0.099990  1
