# generated using pymatgen
data_Tb5Si3Te
_symmetry_space_group_name_H-M   'P 1'
_cell_length_a   7.73523800
_cell_length_b   7.77467700
_cell_length_c   14.88684200
_cell_angle_alpha   90.00000000
_cell_angle_beta   90.00000000
_cell_angle_gamma   90.00000000
_symmetry_Int_Tables_number   1
_chemical_formula_structural   Tb5Si3Te
_chemical_formula_sum   'Tb20 Si12 Te4'
_cell_volume   895.27944817
_cell_formula_units_Z   4
loop_
 _symmetry_equiv_pos_site_id
 _symmetry_equiv_pos_as_xyz
  1  'x, y, z'
loop_
 _atom_site_type_symbol
 _atom_site_label
 _atom_site_symmetry_multiplicity
 _atom_site_fract_x
 _atom_site_fract_y
 _atom_site_fract_z
 _atom_site_occupancy
  Tb  Tb0  1  0.407992  0.836167  0.875159  1
  Tb  Tb1  1  0.907992  0.663833  0.624841  1
  Tb  Tb2  1  0.592008  0.163833  0.375159  1
  Tb  Tb3  1  0.092008  0.336167  0.124841  1
  Tb  Tb4  1  0.618321  0.171954  0.119699  1
  Tb  Tb5  1  0.118321  0.328046  0.380301  1
  Tb  Tb6  1  0.381679  0.828046  0.619699  1
  Tb  Tb7  1  0.881679  0.671954  0.880301  1
  Tb  Tb8  1  0.564647  0.322286  0.888186  1
  Tb  Tb9  1  0.064647  0.177714  0.611814  1
  Tb  Tb10  1  0.435353  0.677714  0.388186  1
  Tb  Tb11  1  0.935353  0.822286  0.111814  1
  Tb  Tb12  1  0.466068  0.671993  0.111850  1
  Tb  Tb13  1  0.966068  0.828007  0.388150  1
  Tb  Tb14  1  0.533932  0.328007  0.611850  1
  Tb  Tb15  1  0.033932  0.171993  0.888150  1
  Tb  Tb16  1  0.221396  0.494944  0.745005  1
  Tb  Tb17  1  0.721396  0.005056  0.754995  1
  Tb  Tb18  1  0.778604  0.505056  0.245005  1
  Tb  Tb19  1  0.278604  0.994944  0.254995  1
  Si  Si20  1  0.731218  0.983527  0.953253  1
  Si  Si21  1  0.231218  0.516473  0.546747  1
  Si  Si22  1  0.268782  0.016473  0.453253  1
  Si  Si23  1  0.768782  0.483527  0.046747  1
  Si  Si24  1  0.599250  0.615156  0.748091  1
  Si  Si25  1  0.099250  0.884844  0.751909  1
  Si  Si26  1  0.400750  0.384844  0.248091  1
  Si  Si27  1  0.900750  0.115156  0.251909  1
  Si  Si28  1  0.342775  0.126967  0.751397  1
  Si  Si29  1  0.842775  0.373033  0.748603  1
  Si  Si30  1  0.657225  0.873033  0.251397  1
  Si  Si31  1  0.157225  0.626967  0.248603  1
  Te  Te32  1  0.267196  0.016996  0.044128  1
  Te  Te33  1  0.767196  0.483004  0.455872  1
  Te  Te34  1  0.732804  0.983004  0.544128  1
  Te  Te35  1  0.232804  0.516996  0.955872  1
