# generated using pymatgen
data_Er3CO2
_symmetry_space_group_name_H-M   'P 1'
_cell_length_a   3.38520055
_cell_length_b   5.86405595
_cell_length_c   5.86239100
_cell_angle_alpha   47.88517331
_cell_angle_beta   73.06377279
_cell_angle_gamma   73.06981244
_symmetry_Int_Tables_number   1
_chemical_formula_structural   Er3CO2
_chemical_formula_sum   'Er3 C1 O2'
_cell_volume   81.82594765
_cell_formula_units_Z   1
loop_
 _symmetry_equiv_pos_site_id
 _symmetry_equiv_pos_as_xyz
  1  'x, y, z'
loop_
 _atom_site_type_symbol
 _atom_site_label
 _atom_site_symmetry_multiplicity
 _atom_site_fract_x
 _atom_site_fract_y
 _atom_site_fract_z
 _atom_site_occupancy
  Er  Er0  1  0.036326  0.890520  0.817447  1
  Er  Er1  1  0.372192  0.553692  0.480617  1
  Er  Er2  1  0.700352  0.227373  0.154305  1
  C  C3  1  0.036279  0.390528  0.317483  1
  O  O4  1  0.701208  0.725653  0.652334  1
  O  O5  1  0.371333  0.055401  0.982586  1
