# generated using pymatgen
data_Er8Tm12(Ir3Os)3
_symmetry_space_group_name_H-M   'P 1'
_cell_length_a   10.72941400
_cell_length_b   10.72941400
_cell_length_c   6.34478800
_cell_angle_alpha   90.00000000
_cell_angle_beta   90.00000000
_cell_angle_gamma   90.00000000
_symmetry_Int_Tables_number   1
_chemical_formula_structural   Er8Tm12(Ir3Os)3
_chemical_formula_sum   'Er8 Tm12 Ir9 Os3'
_cell_volume   730.41405524
_cell_formula_units_Z   1
loop_
 _symmetry_equiv_pos_site_id
 _symmetry_equiv_pos_as_xyz
  1  'x, y, z'
loop_
 _atom_site_type_symbol
 _atom_site_label
 _atom_site_symmetry_multiplicity
 _atom_site_fract_x
 _atom_site_fract_y
 _atom_site_fract_z
 _atom_site_occupancy
  Er  Er0  1  0.293272  0.086241  0.375994  1
  Er  Er1  1  0.293279  0.913962  0.876098  1
  Er  Er2  1  0.706721  0.086038  0.876098  1
  Er  Er3  1  0.706728  0.913759  0.375994  1
  Er  Er4  1  0.586038  0.793279  0.876098  1
  Er  Er5  1  0.586241  0.206728  0.375994  1
  Er  Er6  1  0.413759  0.793272  0.375994  1
  Er  Er7  1  0.413962  0.206721  0.876098  1
  Tm  Tm8  1  0.207856  0.413633  0.625391  1
  Tm  Tm9  1  0.207367  0.586546  0.121276  1
  Tm  Tm10  1  0.792633  0.413454  0.121276  1
  Tm  Tm11  1  0.792144  0.586367  0.625391  1
  Tm  Tm12  1  0.913454  0.707367  0.121276  1
  Tm  Tm13  1  0.913633  0.292144  0.625391  1
  Tm  Tm14  1  0.086367  0.707856  0.625391  1
  Tm  Tm15  1  0.086546  0.292633  0.121276  1
  Tm  Tm16  1  0.000000  0.000000  0.500040  1
  Tm  Tm17  1  0.000000  0.000000  0.000164  1
  Tm  Tm18  1  0.500000  0.500000  0.000164  1
  Tm  Tm19  1  0.500000  0.500000  0.500040  1
  Ir  Ir20  1  0.848585  0.153248  0.250589  1
  Ir  Ir21  1  0.848371  0.847024  0.749981  1
  Ir  Ir22  1  0.151629  0.152976  0.749981  1
  Ir  Ir23  1  0.151415  0.846752  0.250589  1
  Ir  Ir24  1  0.652976  0.348371  0.749981  1
  Ir  Ir25  1  0.653248  0.651415  0.250589  1
  Ir  Ir26  1  0.346752  0.348585  0.250589  1
  Ir  Ir27  1  0.347024  0.651629  0.749981  1
  Ir  Ir28  1  0.000000  0.500000  0.378132  1
  Os  Os29  1  0.500000  0.000000  0.123986  1
  Os  Os30  1  0.500000  0.000000  0.623705  1
  Os  Os31  1  0.000000  0.500000  0.876454  1
