# generated using pymatgen
data_TbLuAlZnPt2
_symmetry_space_group_name_H-M   'P 1'
_cell_length_a   4.33082200
_cell_length_b   6.77683879
_cell_length_c   7.94516234
_cell_angle_alpha   88.68813059
_cell_angle_beta   90.00000000
_cell_angle_gamma   90.00000000
_symmetry_Int_Tables_number   1
_chemical_formula_structural   TbLuAlZnPt2
_chemical_formula_sum   'Tb2 Lu2 Al2 Zn2 Pt4'
_cell_volume   233.12369374
_cell_formula_units_Z   2
loop_
 _symmetry_equiv_pos_site_id
 _symmetry_equiv_pos_as_xyz
  1  'x, y, z'
loop_
 _atom_site_type_symbol
 _atom_site_label
 _atom_site_symmetry_multiplicity
 _atom_site_fract_x
 _atom_site_fract_y
 _atom_site_fract_z
 _atom_site_occupancy
  Tb  Tb0  1  0.250000  0.535142  0.179125  1
  Tb  Tb1  1  0.750000  0.464858  0.820875  1
  Lu  Lu2  1  0.750000  0.968604  0.683549  1
  Lu  Lu3  1  0.250000  0.031396  0.316451  1
  Al  Al4  1  0.250000  0.641153  0.558038  1
  Al  Al5  1  0.750000  0.358847  0.441962  1
  Zn  Zn6  1  0.750000  0.859293  0.062261  1
  Zn  Zn7  1  0.250000  0.140707  0.937739  1
  Pt  Pt8  1  0.250000  0.759939  0.866099  1
  Pt  Pt9  1  0.750000  0.240061  0.133901  1
  Pt  Pt10  1  0.750000  0.738581  0.389112  1
  Pt  Pt11  1  0.250000  0.261419  0.610888  1
