# generated using pymatgen
data_Tb16Cd4TcPt3
_symmetry_space_group_name_H-M   'P 1'
_cell_length_a   9.75669600
_cell_length_b   9.75669581
_cell_length_c   9.75669628
_cell_angle_alpha   59.45337617
_cell_angle_beta   59.45337780
_cell_angle_gamma   59.45337653
_symmetry_Int_Tables_number   1
_chemical_formula_structural   Tb16Cd4TcPt3
_chemical_formula_sum   'Tb16 Cd4 Tc1 Pt3'
_cell_volume   648.57310222
_cell_formula_units_Z   1
loop_
 _symmetry_equiv_pos_site_id
 _symmetry_equiv_pos_as_xyz
  1  'x, y, z'
loop_
 _atom_site_type_symbol
 _atom_site_label
 _atom_site_symmetry_multiplicity
 _atom_site_fract_x
 _atom_site_fract_y
 _atom_site_fract_z
 _atom_site_occupancy
  Tb  Tb0  1  0.351465  0.351465  0.351465  1
  Tb  Tb1  1  0.349928  0.349928  0.948782  1
  Tb  Tb2  1  0.349928  0.948782  0.349928  1
  Tb  Tb3  1  0.948782  0.349928  0.349928  1
  Tb  Tb4  1  0.814883  0.188638  0.188638  1
  Tb  Tb5  1  0.189258  0.809355  0.809355  1
  Tb  Tb6  1  0.188638  0.814883  0.188638  1
  Tb  Tb7  1  0.809355  0.189258  0.809355  1
  Tb  Tb8  1  0.188638  0.188638  0.814883  1
  Tb  Tb9  1  0.809355  0.809355  0.189258  1
  Tb  Tb10  1  0.935765  0.564882  0.564882  1
  Tb  Tb11  1  0.557034  0.937765  0.937765  1
  Tb  Tb12  1  0.564882  0.935765  0.564882  1
  Tb  Tb13  1  0.937765  0.557034  0.937765  1
  Tb  Tb14  1  0.564882  0.564882  0.935765  1
  Tb  Tb15  1  0.937765  0.937765  0.557034  1
  Cd  Cd16  1  0.580149  0.580149  0.580149  1
  Cd  Cd17  1  0.581054  0.581054  0.254241  1
  Cd  Cd18  1  0.581054  0.254241  0.581054  1
  Cd  Cd19  1  0.254241  0.581054  0.581054  1
  Tc  Tc20  1  0.143652  0.143652  0.143652  1
  Pt  Pt21  1  0.144368  0.144368  0.572791  1
  Pt  Pt22  1  0.144368  0.572791  0.144368  1
  Pt  Pt23  1  0.572791  0.144368  0.144368  1
