# generated using pymatgen
data_CaHo3Co12(GeB3)2
_symmetry_space_group_name_H-M   'P 1'
_cell_length_a   5.14786002
_cell_length_b   5.14747848
_cell_length_c   12.32151200
_cell_angle_alpha   90.00010581
_cell_angle_beta   89.99985828
_cell_angle_gamma   119.98598807
_symmetry_Int_Tables_number   1
_chemical_formula_structural   CaHo3Co12(GeB3)2
_chemical_formula_sum   'Ca1 Ho3 Co12 Ge2 B6'
_cell_volume   282.79856834
_cell_formula_units_Z   1
loop_
 _symmetry_equiv_pos_site_id
 _symmetry_equiv_pos_as_xyz
  1  'x, y, z'
loop_
 _atom_site_type_symbol
 _atom_site_label
 _atom_site_symmetry_multiplicity
 _atom_site_fract_x
 _atom_site_fract_y
 _atom_site_fract_z
 _atom_site_occupancy
  Ca  Ca0  1  0.999990  0.999991  0.000023  1
  Ho  Ho1  1  0.999999  0.000006  0.499998  1
  Ho  Ho2  1  0.000003  0.999996  0.256590  1
  Ho  Ho3  1  0.999990  0.000004  0.743430  1
  Co  Co4  1  0.500001  0.000004  0.384475  1
  Co  Co5  1  0.999997  0.500000  0.384461  1
  Co  Co6  1  0.500001  0.500001  0.384470  1
  Co  Co7  1  0.499994  0.000003  0.615533  1
  Co  Co8  1  0.499993  0.500006  0.615519  1
  Co  Co9  1  0.999996  0.500006  0.615515  1
  Co  Co10  1  0.500001  0.999995  0.157518  1
  Co  Co11  1  0.000001  0.499996  0.157569  1
  Co  Co12  1  0.500000  0.499997  0.157544  1
  Co  Co13  1  0.499991  0.000002  0.842469  1
  Co  Co14  1  0.499992  0.500001  0.842505  1
  Co  Co15  1  0.999991  0.500002  0.842527  1
  Ge  Ge16  1  0.333325  0.666629  0.999961  1
  Ge  Ge17  1  0.666658  0.333357  0.999961  1
  B  B18  1  0.333425  0.666768  0.267627  1
  B  B19  1  0.666573  0.333228  0.267626  1
  B  B20  1  0.666714  0.333424  0.732347  1
  B  B21  1  0.333270  0.666582  0.732347  1
  B  B22  1  0.333344  0.666690  0.499993  1
  B  B23  1  0.666649  0.333317  0.499993  1
