# generated using pymatgen
data_Ho2Mn2FeCo9P7
_symmetry_space_group_name_H-M   'P 1'
_cell_length_a   9.05603496
_cell_length_b   9.05600735
_cell_length_c   3.61258300
_cell_angle_alpha   90.00000000
_cell_angle_beta   90.00000000
_cell_angle_gamma   120.19414644
_symmetry_Int_Tables_number   1
_chemical_formula_structural   Ho2Mn2FeCo9P7
_chemical_formula_sum   'Ho2 Mn2 Fe1 Co9 P7'
_cell_volume   256.07687558
_cell_formula_units_Z   1
loop_
 _symmetry_equiv_pos_site_id
 _symmetry_equiv_pos_as_xyz
  1  'x, y, z'
loop_
 _atom_site_type_symbol
 _atom_site_label
 _atom_site_symmetry_multiplicity
 _atom_site_fract_x
 _atom_site_fract_y
 _atom_site_fract_z
 _atom_site_occupancy
  Ho  Ho0  1  0.000492  0.002588  0.000000  1
  Ho  Ho1  1  0.332272  0.666180  0.500000  1
  Mn  Mn2  1  0.546520  0.110926  0.500000  1
  Mn  Mn3  1  0.567636  0.453222  0.500000  1
  Fe  Fe4  1  0.885553  0.428153  0.500000  1
  Co  Co5  1  0.295752  0.902321  0.000000  1
  Co  Co6  1  0.605932  0.702927  0.000000  1
  Co  Co7  1  0.096466  0.394290  0.000000  1
  Co  Co8  1  0.783787  0.174956  0.000000  1
  Co  Co9  1  0.393458  0.217218  0.000000  1
  Co  Co10  1  0.825632  0.610482  0.000000  1
  Co  Co11  1  0.717320  0.947157  0.500000  1
  Co  Co12  1  0.230028  0.283094  0.500000  1
  Co  Co13  1  0.052404  0.769007  0.500000  1
  P  P14  1  0.554369  0.920146  0.000000  1
  P  P15  1  0.365683  0.445056  0.000000  1
  P  P16  1  0.076168  0.630588  0.000000  1
  P  P17  1  0.955294  0.222270  0.500000  1
  P  P18  1  0.260223  0.043438  0.500000  1
  P  P19  1  0.784331  0.740697  0.500000  1
  P  P20  1  0.670679  0.335286  0.000000  1
