# generated using pymatgen
data_Li2DyMnH6
_symmetry_space_group_name_H-M   'P 1'
_cell_length_a   4.74218290
_cell_length_b   4.74218328
_cell_length_c   4.74219400
_cell_angle_alpha   120.00021427
_cell_angle_beta   120.00028668
_cell_angle_gamma   59.99989876
_symmetry_Int_Tables_number   1
_chemical_formula_structural   Li2DyMnH6
_chemical_formula_sum   'Li2 Dy1 Mn1 H6'
_cell_volume   75.40827011
_cell_formula_units_Z   1
loop_
 _symmetry_equiv_pos_site_id
 _symmetry_equiv_pos_as_xyz
  1  'x, y, z'
loop_
 _atom_site_type_symbol
 _atom_site_label
 _atom_site_symmetry_multiplicity
 _atom_site_fract_x
 _atom_site_fract_y
 _atom_site_fract_z
 _atom_site_occupancy
  Li  Li0  1  0.500002  0.500002  0.499998  1
  Li  Li1  1  0.249999  0.250002  0.749999  1
  Dy  Dy2  1  0.750006  0.750000  0.250003  1
  Mn  Mn3  1  0.999984  0.999982  0.999988  1
  H  H4  1  0.241870  0.241871  0.241870  1
  H  H5  1  0.758135  0.241869  0.241868  1
  H  H6  1  0.241869  0.758135  0.241868  1
  H  H7  1  0.758135  0.241870  0.758133  1
  H  H8  1  0.241869  0.758136  0.758134  1
  H  H9  1  0.758134  0.758135  0.758134  1
