# generated using pymatgen
data_Ba3LaZrS6
_symmetry_space_group_name_H-M   'P 1'
_cell_length_a   8.49598816
_cell_length_b   8.49598705
_cell_length_c   8.49598800
_cell_angle_alpha   92.75140057
_cell_angle_beta   92.75141372
_cell_angle_gamma   92.75141942
_symmetry_Int_Tables_number   1
_chemical_formula_structural   Ba3LaZrS6
_chemical_formula_sum   'Ba6 La2 Zr2 S12'
_cell_volume   611.06435050
_cell_formula_units_Z   2
loop_
 _symmetry_equiv_pos_site_id
 _symmetry_equiv_pos_as_xyz
  1  'x, y, z'
loop_
 _atom_site_type_symbol
 _atom_site_label
 _atom_site_symmetry_multiplicity
 _atom_site_fract_x
 _atom_site_fract_y
 _atom_site_fract_z
 _atom_site_occupancy
  Ba  Ba0  1  0.879121  0.620879  0.250000  1
  Ba  Ba1  1  0.250000  0.879121  0.620879  1
  Ba  Ba2  1  0.620879  0.250000  0.879121  1
  Ba  Ba3  1  0.750000  0.120879  0.379121  1
  Ba  Ba4  1  0.379121  0.750000  0.120879  1
  Ba  Ba5  1  0.120879  0.379121  0.750000  1
  La  La6  1  0.250000  0.250000  0.250000  1
  La  La7  1  0.750000  0.750000  0.750000  1
  Zr  Zr8  1  0.500000  0.500000  0.500000  1
  Zr  Zr9  1  0.000000  0.000000  0.000000  1
  S  S10  1  0.206745  0.548573  0.415819  1
  S  S11  1  0.415819  0.206745  0.548573  1
  S  S12  1  0.548573  0.415819  0.206745  1
  S  S13  1  0.915819  0.048573  0.706745  1
  S  S14  1  0.706745  0.915819  0.048573  1
  S  S15  1  0.048573  0.706745  0.915819  1
  S  S16  1  0.793255  0.451427  0.584181  1
  S  S17  1  0.584181  0.793255  0.451427  1
  S  S18  1  0.451427  0.584181  0.793255  1
  S  S19  1  0.084181  0.951427  0.293255  1
  S  S20  1  0.293255  0.084181  0.951427  1
  S  S21  1  0.951427  0.293255  0.084181  1
