# generated using pymatgen
data_Tb2Er2MnB12Ru
_symmetry_space_group_name_H-M   'P 1'
_cell_length_a   3.60891000
_cell_length_b   9.10183010
_cell_length_c   11.49162313
_cell_angle_alpha   89.98292085
_cell_angle_beta   90.00000000
_cell_angle_gamma   90.00000000
_symmetry_Int_Tables_number   1
_chemical_formula_structural   Tb2Er2MnB12Ru
_chemical_formula_sum   'Tb4 Er4 Mn2 B24 Ru2'
_cell_volume   377.47320757
_cell_formula_units_Z   2
loop_
 _symmetry_equiv_pos_site_id
 _symmetry_equiv_pos_as_xyz
  1  'x, y, z'
loop_
 _atom_site_type_symbol
 _atom_site_label
 _atom_site_symmetry_multiplicity
 _atom_site_fract_x
 _atom_site_fract_y
 _atom_site_fract_z
 _atom_site_occupancy
  Tb  Tb0  1  0.000000  0.326612  0.416012  1
  Tb  Tb1  1  0.000000  0.673388  0.583988  1
  Tb  Tb2  1  0.000000  0.821112  0.087585  1
  Tb  Tb3  1  0.000000  0.178888  0.912415  1
  Er  Er4  1  0.000000  0.939708  0.370542  1
  Er  Er5  1  0.000000  0.060292  0.629458  1
  Er  Er6  1  0.000000  0.445260  0.131738  1
  Er  Er7  1  0.000000  0.554740  0.868262  1
  Mn  Mn8  1  0.000000  0.639165  0.319742  1
  Mn  Mn9  1  0.000000  0.360835  0.680258  1
  B  B10  1  0.500000  0.554429  0.431735  1
  B  B11  1  0.500000  0.445571  0.568265  1
  B  B12  1  0.500000  0.054013  0.067658  1
  B  B13  1  0.500000  0.945987  0.932342  1
  B  B14  1  0.500000  0.746702  0.417316  1
  B  B15  1  0.500000  0.253298  0.582684  1
  B  B16  1  0.500000  0.249583  0.081766  1
  B  B17  1  0.500000  0.750417  0.918234  1
  B  B18  1  0.500000  0.789619  0.266312  1
  B  B19  1  0.500000  0.210381  0.733688  1
  B  B20  1  0.500000  0.291838  0.234817  1
  B  B21  1  0.500000  0.708162  0.765183  1
  B  B22  1  0.500000  0.631450  0.186595  1
  B  B23  1  0.500000  0.368550  0.813405  1
  B  B24  1  0.500000  0.131134  0.314866  1
  B  B25  1  0.500000  0.868866  0.685134  1
  B  B26  1  0.500000  0.982971  0.212732  1
  B  B27  1  0.500000  0.017029  0.787268  1
  B  B28  1  0.500000  0.486068  0.288436  1
  B  B29  1  0.500000  0.513932  0.711564  1
  B  B30  1  0.500000  0.602738  0.028269  1
  B  B31  1  0.500000  0.397262  0.971731  1
  B  B32  1  0.500000  0.103060  0.471592  1
  B  B33  1  0.500000  0.896940  0.528408  1
  Ru  Ru34  1  0.000000  0.138788  0.179510  1
  Ru  Ru35  1  0.000000  0.861212  0.820490  1
