# generated using pymatgen
data_Gd2Cd(Si3Pd10)2
_symmetry_space_group_name_H-M   'P 1'
_cell_length_a   8.71026719
_cell_length_b   8.71026642
_cell_length_c   8.71026700
_cell_angle_alpha   60.00000161
_cell_angle_beta   60.00000451
_cell_angle_gamma   60.00000449
_symmetry_Int_Tables_number   1
_chemical_formula_structural   Gd2Cd(Si3Pd10)2
_chemical_formula_sum   'Gd2 Cd1 Si6 Pd20'
_cell_volume   467.28239702
_cell_formula_units_Z   1
loop_
 _symmetry_equiv_pos_site_id
 _symmetry_equiv_pos_as_xyz
  1  'x, y, z'
loop_
 _atom_site_type_symbol
 _atom_site_label
 _atom_site_symmetry_multiplicity
 _atom_site_fract_x
 _atom_site_fract_y
 _atom_site_fract_z
 _atom_site_occupancy
  Gd  Gd0  1  0.250012  0.250012  0.250007  1
  Gd  Gd1  1  0.749988  0.749988  0.749993  1
  Cd  Cd2  1  0.000000  0.000000  0.000000  1
  Si  Si3  1  0.732667  0.267339  0.267328  1
  Si  Si4  1  0.267333  0.732661  0.732672  1
  Si  Si5  1  0.267333  0.732661  0.267331  1
  Si  Si6  1  0.732667  0.267339  0.732669  1
  Si  Si7  1  0.267334  0.267335  0.732664  1
  Si  Si8  1  0.732666  0.732665  0.267336  1
  Pd  Pd9  1  0.384215  0.384213  0.384216  1
  Pd  Pd10  1  0.615785  0.615787  0.615784  1
  Pd  Pd11  1  0.384226  0.384217  0.847319  1
  Pd  Pd12  1  0.384236  0.847289  0.384222  1
  Pd  Pd13  1  0.615774  0.615783  0.152681  1
  Pd  Pd14  1  0.615764  0.152711  0.615778  1
  Pd  Pd15  1  0.847345  0.384218  0.384207  1
  Pd  Pd16  1  0.152655  0.615782  0.615793  1
  Pd  Pd17  1  0.344300  0.000009  0.000029  1
  Pd  Pd18  1  0.655700  0.999991  0.999971  1
  Pd  Pd19  1  0.999980  0.344376  0.655643  1
  Pd  Pd20  1  0.000020  0.655624  0.344357  1
  Pd  Pd21  1  0.000063  0.344277  0.000027  1
  Pd  Pd22  1  0.655638  0.000009  0.344311  1
  Pd  Pd23  1  0.999937  0.655723  0.999973  1
  Pd  Pd24  1  0.344362  0.999991  0.655689  1
  Pd  Pd25  1  0.000051  0.000046  0.344284  1
  Pd  Pd26  1  0.999949  0.999954  0.655716  1
  Pd  Pd27  1  0.655616  0.344318  0.000036  1
  Pd  Pd28  1  0.344384  0.655682  0.999964  1
