# generated using pymatgen
data_Pr2PaNiIr
_symmetry_space_group_name_H-M   'P 1'
_cell_length_a   6.14882624
_cell_length_b   6.14882605
_cell_length_c   6.14882600
_cell_angle_alpha   142.99884142
_cell_angle_beta   116.94130712
_cell_angle_gamma   75.42182487
_symmetry_Int_Tables_number   1
_chemical_formula_structural   Pr2PaNiIr
_chemical_formula_sum   'Pr2 Pa1 Ni1 Ir1'
_cell_volume   122.07010850
_cell_formula_units_Z   1
loop_
 _symmetry_equiv_pos_site_id
 _symmetry_equiv_pos_as_xyz
  1  'x, y, z'
loop_
 _atom_site_type_symbol
 _atom_site_label
 _atom_site_symmetry_multiplicity
 _atom_site_fract_x
 _atom_site_fract_y
 _atom_site_fract_z
 _atom_site_occupancy
  Pr  Pr0  1  0.703748  0.197148  0.506600  1
  Pr  Pr1  1  0.309451  0.802852  0.506600  1
  Pa  Pa2  1  0.995456  0.000000  0.995456  1
  Ni  Ni3  1  0.716834  0.500000  0.216834  1
  Ir  Ir4  1  0.274511  0.500000  0.774511  1
