# generated using pymatgen
data_Er6AlNiOs
_symmetry_space_group_name_H-M   'P 1'
_cell_length_a   8.29461232
_cell_length_b   8.29461196
_cell_length_c   8.29461222
_cell_angle_alpha   113.00108827
_cell_angle_beta   110.90460858
_cell_angle_gamma   104.62183812
_symmetry_Int_Tables_number   1
_chemical_formula_structural   Er6AlNiOs
_chemical_formula_sum   'Er12 Al2 Ni2 Os2'
_cell_volume   436.81108687
_cell_formula_units_Z   2
loop_
 _symmetry_equiv_pos_site_id
 _symmetry_equiv_pos_as_xyz
  1  'x, y, z'
loop_
 _atom_site_type_symbol
 _atom_site_label
 _atom_site_symmetry_multiplicity
 _atom_site_fract_x
 _atom_site_fract_y
 _atom_site_fract_z
 _atom_site_occupancy
  Er  Er0  1  0.436341  0.242302  0.194039  1
  Er  Er1  1  0.563659  0.757698  0.805961  1
  Er  Er2  1  0.048264  0.242302  0.805961  1
  Er  Er3  1  0.951736  0.757698  0.194039  1
  Er  Er4  1  0.181553  0.280669  0.462221  1
  Er  Er5  1  0.818447  0.719331  0.537779  1
  Er  Er6  1  0.181553  0.719331  0.900884  1
  Er  Er7  1  0.818447  0.280669  0.099116  1
  Er  Er8  1  0.329682  0.642323  0.312642  1
  Er  Er9  1  0.670318  0.357677  0.687358  1
  Er  Er10  1  0.329682  0.017039  0.687358  1
  Er  Er11  1  0.670318  0.982961  0.312642  1
  Al  Al12  1  0.500000  0.500000  0.000000  1
  Al  Al13  1  0.000000  0.000000  0.000000  1
  Ni  Ni14  1  0.117503  0.617503  0.500000  1
  Ni  Ni15  1  0.882497  0.382497  0.500000  1
  Os  Os16  1  0.325029  0.000000  0.325029  1
  Os  Os17  1  0.674971  0.000000  0.674971  1
