# generated using pymatgen
data_Ca2Zn21Pt
_symmetry_space_group_name_H-M   'P 1'
_cell_length_a   8.33975088
_cell_length_b   8.31384080
_cell_length_c   8.31386246
_cell_angle_alpha   98.94074461
_cell_angle_beta   100.17539776
_cell_angle_gamma   131.70463006
_symmetry_Int_Tables_number   1
_chemical_formula_structural   Ca2Zn21Pt
_chemical_formula_sum   'Ca2 Zn21 Pt1'
_cell_volume   393.29148366
_cell_formula_units_Z   1
loop_
 _symmetry_equiv_pos_site_id
 _symmetry_equiv_pos_as_xyz
  1  'x, y, z'
loop_
 _atom_site_type_symbol
 _atom_site_label
 _atom_site_symmetry_multiplicity
 _atom_site_fract_x
 _atom_site_fract_y
 _atom_site_fract_z
 _atom_site_occupancy
  Ca  Ca0  1  0.503516  0.502930  0.000586  1
  Ca  Ca1  1  0.746484  0.247070  0.499414  1
  Zn  Zn2  1  0.925248  0.597453  0.915418  1
  Zn  Zn3  1  0.848688  0.432366  0.173876  1
  Zn  Zn4  1  0.258726  0.673537  0.828012  1
  Zn  Zn5  1  0.682092  0.008380  0.082992  1
  Zn  Zn6  1  0.401312  0.075187  0.083677  1
  Zn  Zn7  1  0.991275  0.319286  0.914811  1
  Zn  Zn8  1  0.567908  0.150900  0.826287  1
  Zn  Zn9  1  0.324753  0.740170  0.172205  1
  Zn  Zn10  1  0.324752  0.152547  0.584582  1
  Zn  Zn11  1  0.401312  0.317634  0.326124  1
  Zn  Zn12  1  0.991275  0.076464  0.671988  1
  Zn  Zn13  1  0.567908  0.741620  0.417008  1
  Zn  Zn14  1  0.848688  0.674813  0.416322  1
  Zn  Zn15  1  0.258726  0.430714  0.585188  1
  Zn  Zn16  1  0.682093  0.599099  0.673713  1
  Zn  Zn17  1  0.925247  0.009830  0.327794  1
  Zn  Zn18  1  0.125000  0.875000  0.250000  1
  Zn  Zn19  1  0.125000  0.375000  0.250000  1
  Zn  Zn20  1  0.125000  0.875000  0.750000  1
  Zn  Zn21  1  0.257257  0.752085  0.505172  1
  Zn  Zn22  1  0.992744  0.997916  0.994829  1
  Pt  Pt23  1  0.624999  0.875000  0.750001  1
