# generated using pymatgen
data_CaErGa2(SiRh3)2
_symmetry_space_group_name_H-M   'P 1'
_cell_length_a   6.70729095
_cell_length_b   6.70728971
_cell_length_c   6.70729146
_cell_angle_alpha   130.21314217
_cell_angle_beta   114.29123965
_cell_angle_gamma   86.73191108
_symmetry_Int_Tables_number   1
_chemical_formula_structural   CaErGa2(SiRh3)2
_chemical_formula_sum   'Ca1 Er1 Ga2 Si2 Rh6'
_cell_volume   200.37410303
_cell_formula_units_Z   1
loop_
 _symmetry_equiv_pos_site_id
 _symmetry_equiv_pos_as_xyz
  1  'x, y, z'
loop_
 _atom_site_type_symbol
 _atom_site_label
 _atom_site_symmetry_multiplicity
 _atom_site_fract_x
 _atom_site_fract_y
 _atom_site_fract_z
 _atom_site_occupancy
  Ca  Ca0  1  0.750000  0.046958  0.296958  1
  Er  Er1  1  0.250000  0.962325  0.712325  1
  Ga  Ga2  1  0.602722  0.396359  0.793637  1
  Ga  Ga3  1  0.897278  0.690914  0.793637  1
  Si  Si4  1  0.436803  0.635150  0.198348  1
  Si  Si5  1  0.063197  0.261545  0.198348  1
  Rh  Rh6  1  0.227004  0.511051  0.726554  1
  Rh  Rh7  1  0.784498  0.511051  0.284048  1
  Rh  Rh8  1  0.457035  0.492772  0.449807  1
  Rh  Rh9  1  0.042965  0.492772  0.035737  1
  Rh  Rh10  1  0.715502  0.999550  0.726554  1
  Rh  Rh11  1  0.272996  0.999550  0.284048  1
