# generated using pymatgen
data_Er3Tm4Co6Sn23
_symmetry_space_group_name_H-M   'P 1'
_cell_length_a   9.66916004
_cell_length_b   9.67062445
_cell_length_c   9.94698101
_cell_angle_alpha   90.00000000
_cell_angle_beta   90.00417088
_cell_angle_gamma   120.00501242
_symmetry_Int_Tables_number   1
_chemical_formula_structural   Er3Tm4Co6Sn23
_chemical_formula_sum   'Er3 Tm4 Co6 Sn23'
_cell_volume   805.45864688
_cell_formula_units_Z   1
loop_
 _symmetry_equiv_pos_site_id
 _symmetry_equiv_pos_as_xyz
  1  'x, y, z'
loop_
 _atom_site_type_symbol
 _atom_site_label
 _atom_site_symmetry_multiplicity
 _atom_site_fract_x
 _atom_site_fract_y
 _atom_site_fract_z
 _atom_site_occupancy
  Er  Er0  1  0.041819  0.520910  0.305900  1
  Er  Er1  1  0.958181  0.479090  0.694100  1
  Er  Er2  1  0.000000  0.000000  0.000000  1
  Tm  Tm3  1  0.479176  0.520813  0.305899  1
  Tm  Tm4  1  0.520824  0.479187  0.694101  1
  Tm  Tm5  1  0.479176  0.958365  0.305899  1
  Tm  Tm6  1  0.520824  0.041635  0.694101  1
  Co  Co7  1  0.832155  0.167608  0.197386  1
  Co  Co8  1  0.167845  0.832392  0.802614  1
  Co  Co9  1  0.832155  0.664548  0.197386  1
  Co  Co10  1  0.167845  0.335452  0.802614  1
  Co  Co11  1  0.335525  0.167763  0.197445  1
  Co  Co12  1  0.664475  0.832237  0.802555  1
  Sn  Sn13  1  0.118542  0.881673  0.274787  1
  Sn  Sn14  1  0.881458  0.118327  0.725213  1
  Sn  Sn15  1  0.118542  0.236869  0.274787  1
  Sn  Sn16  1  0.881458  0.763131  0.725213  1
  Sn  Sn17  1  0.762981  0.881491  0.274808  1
  Sn  Sn18  1  0.237019  0.118509  0.725192  1
  Sn  Sn19  1  0.780517  0.218974  0.452217  1
  Sn  Sn20  1  0.219483  0.781026  0.547783  1
  Sn  Sn21  1  0.780517  0.561542  0.452217  1
  Sn  Sn22  1  0.219483  0.438458  0.547783  1
  Sn  Sn23  1  0.438464  0.219232  0.452199  1
  Sn  Sn24  1  0.561536  0.780768  0.547801  1
  Sn  Sn25  1  0.346024  0.000027  0.000002  1
  Sn  Sn26  1  0.653976  0.999973  0.999998  1
  Sn  Sn27  1  0.000000  0.345976  0.000000  1
  Sn  Sn28  1  0.000000  0.654024  0.000000  1
  Sn  Sn29  1  0.653976  0.654003  0.999998  1
  Sn  Sn30  1  0.346024  0.345997  0.000002  1
  Sn  Sn31  1  0.333586  0.666793  0.119435  1
  Sn  Sn32  1  0.666414  0.333207  0.880565  1
  Sn  Sn33  1  0.333404  0.666703  0.817533  1
  Sn  Sn34  1  0.666596  0.333297  0.182467  1
  Sn  Sn35  1  0.000000  0.000000  0.500000  1
