# generated using pymatgen
data_PrLu7Sc12Si15As
_symmetry_space_group_name_H-M   'P 1'
_cell_length_a   7.10674933
_cell_length_b   7.33025344
_cell_length_c   13.91578437
_cell_angle_alpha   90.06243222
_cell_angle_beta   88.61605015
_cell_angle_gamma   90.01408066
_symmetry_Int_Tables_number   1
_chemical_formula_structural   PrLu7Sc12Si15As
_chemical_formula_sum   'Pr1 Lu7 Sc12 Si15 As1'
_cell_volume   724.72076550
_cell_formula_units_Z   1
loop_
 _symmetry_equiv_pos_site_id
 _symmetry_equiv_pos_as_xyz
  1  'x, y, z'
loop_
 _atom_site_type_symbol
 _atom_site_label
 _atom_site_symmetry_multiplicity
 _atom_site_fract_x
 _atom_site_fract_y
 _atom_site_fract_z
 _atom_site_occupancy
  Pr  Pr0  1  0.501739  0.678206  0.595832  1
  Lu  Lu1  1  0.009653  0.176777  0.096686  1
  Lu  Lu2  1  0.990921  0.824546  0.905981  1
  Lu  Lu3  1  0.491667  0.677290  0.903110  1
  Lu  Lu4  1  0.999153  0.824473  0.595705  1
  Lu  Lu5  1  0.508987  0.323900  0.096610  1
  Lu  Lu6  1  0.998060  0.178873  0.401722  1
  Lu  Lu7  1  0.501617  0.318460  0.400790  1
  Sc  Sc8  1  0.171655  0.502214  0.751341  1
  Sc  Sc9  1  0.828644  0.496741  0.252167  1
  Sc  Sc10  1  0.328495  0.002604  0.250851  1
  Sc  Sc11  1  0.671509  0.999171  0.750921  1
  Sc  Sc12  1  0.348199  0.168376  0.625887  1
  Sc  Sc13  1  0.652993  0.829651  0.373887  1
  Sc  Sc14  1  0.152881  0.671663  0.374862  1
  Sc  Sc15  1  0.663506  0.822056  0.125045  1
  Sc  Sc16  1  0.845988  0.329172  0.623905  1
  Sc  Sc17  1  0.335177  0.176538  0.876436  1
  Sc  Sc18  1  0.837666  0.322762  0.876170  1
  Sc  Sc19  1  0.163170  0.677558  0.125279  1
  Si  Si20  1  0.042581  0.114769  0.750830  1
  Si  Si21  1  0.956406  0.886908  0.248548  1
  Si  Si22  1  0.455224  0.613626  0.248497  1
  Si  Si23  1  0.545306  0.381472  0.752906  1
  Si  Si24  1  0.289658  0.872095  0.753975  1
  Si  Si25  1  0.706207  0.129761  0.247975  1
  Si  Si26  1  0.206421  0.370346  0.248207  1
  Si  Si27  1  0.800316  0.629957  0.753916  1
  Si  Si28  1  0.813716  0.536123  0.454235  1
  Si  Si29  1  0.315733  0.966416  0.457576  1
  Si  Si30  1  0.839722  0.533828  0.039921  1
  Si  Si31  1  0.684576  0.044526  0.538434  1
  Si  Si32  1  0.161526  0.466407  0.961521  1
  Si  Si33  1  0.659820  0.034137  0.961049  1
  Si  Si34  1  0.339330  0.965894  0.040182  1
  As  As35  1  0.181775  0.452702  0.539048  1
