# generated using pymatgen
data_PrSeClO4
_symmetry_space_group_name_H-M   'P 1'
_cell_length_a   6.38003220
_cell_length_b   6.38003299
_cell_length_c   6.90714623
_cell_angle_alpha   102.03469668
_cell_angle_beta   102.03469609
_cell_angle_gamma   71.28157005
_symmetry_Int_Tables_number   1
_chemical_formula_structural   PrSeClO4
_chemical_formula_sum   'Pr2 Se2 Cl2 O8'
_cell_volume   257.37000799
_cell_formula_units_Z   2
loop_
 _symmetry_equiv_pos_site_id
 _symmetry_equiv_pos_as_xyz
  1  'x, y, z'
loop_
 _atom_site_type_symbol
 _atom_site_label
 _atom_site_symmetry_multiplicity
 _atom_site_fract_x
 _atom_site_fract_y
 _atom_site_fract_z
 _atom_site_occupancy
  Pr  Pr0  1  0.776173  0.776173  0.369340  1
  Pr  Pr1  1  0.223828  0.223828  0.630661  1
  Se  Se2  1  0.363145  0.363145  0.235904  1
  Se  Se3  1  0.636854  0.636854  0.764097  1
  Cl  Cl4  1  0.018075  0.018075  0.266022  1
  Cl  Cl5  1  0.981925  0.981925  0.733979  1
  O  O6  1  0.709762  0.709762  0.005517  1
  O  O7  1  0.526551  0.526551  0.279550  1
  O  O8  1  0.480994  0.134009  0.352610  1
  O  O9  1  0.134009  0.480994  0.352610  1
  O  O10  1  0.865990  0.519006  0.647390  1
  O  O11  1  0.519006  0.865990  0.647390  1
  O  O12  1  0.473450  0.473450  0.720451  1
  O  O13  1  0.290238  0.290238  0.994483  1
