# generated using pymatgen
data_YbGaAgPt3
_symmetry_space_group_name_H-M   'P 1'
_cell_length_a   5.51370065
_cell_length_b   5.51370029
_cell_length_c   5.15292311
_cell_angle_alpha   57.65560654
_cell_angle_beta   57.65561354
_cell_angle_gamma   59.99998957
_symmetry_Int_Tables_number   1
_chemical_formula_structural   YbGaAgPt3
_chemical_formula_sum   'Yb1 Ga1 Ag1 Pt3'
_cell_volume   106.68174259
_cell_formula_units_Z   1
loop_
 _symmetry_equiv_pos_site_id
 _symmetry_equiv_pos_as_xyz
  1  'x, y, z'
loop_
 _atom_site_type_symbol
 _atom_site_label
 _atom_site_symmetry_multiplicity
 _atom_site_fract_x
 _atom_site_fract_y
 _atom_site_fract_z
 _atom_site_occupancy
  Yb  Yb0  1  0.003963  0.003963  0.988109  1
  Ga  Ga1  1  0.623799  0.623799  0.128603  1
  Ag  Ag2  1  0.250373  0.250373  0.248881  1
  Pt  Pt3  1  0.623274  0.125316  0.628135  1
  Pt  Pt4  1  0.125316  0.623274  0.628135  1
  Pt  Pt5  1  0.623274  0.623274  0.628135  1
