# generated using pymatgen
data_Yb8Si6Ir3Pd5
_symmetry_space_group_name_H-M   'P 1'
_cell_length_a   10.69976175
_cell_length_b   10.70036584
_cell_length_c   7.65607856
_cell_angle_alpha   71.91445175
_cell_angle_beta   71.80629968
_cell_angle_gamma   31.19547082
_symmetry_Int_Tables_number   1
_chemical_formula_structural   Yb8Si6Ir3Pd5
_chemical_formula_sum   'Yb8 Si6 Ir3 Pd5'
_cell_volume   429.64443699
_cell_formula_units_Z   1
loop_
 _symmetry_equiv_pos_site_id
 _symmetry_equiv_pos_as_xyz
  1  'x, y, z'
loop_
 _atom_site_type_symbol
 _atom_site_label
 _atom_site_symmetry_multiplicity
 _atom_site_fract_x
 _atom_site_fract_y
 _atom_site_fract_z
 _atom_site_occupancy
  Yb  Yb0  1  0.928621  0.202365  0.327982  1
  Yb  Yb1  1  0.076540  0.791154  0.665593  1
  Yb  Yb2  1  0.799908  0.068409  0.167258  1
  Yb  Yb3  1  0.448654  0.210908  0.911834  1
  Yb  Yb4  1  0.784462  0.554845  0.592938  1
  Yb  Yb5  1  0.212616  0.447918  0.408716  1
  Yb  Yb6  1  0.204129  0.927559  0.834818  1
  Yb  Yb7  1  0.547174  0.793166  0.087957  1
  Si  Si8  1  0.298800  0.046506  0.432318  1
  Si  Si9  1  0.406024  0.588265  0.247917  1
  Si  Si10  1  0.030730  0.309158  0.932136  1
  Si  Si11  1  0.695054  0.968319  0.565838  1
  Si  Si12  1  0.966146  0.694472  0.066492  1
  Si  Si13  1  0.605574  0.389509  0.757360  1
  Ir  Ir14  1  0.582536  0.294858  0.532127  1
  Ir  Ir15  1  0.704670  0.420325  0.969393  1
  Ir  Ir16  1  0.296155  0.576836  0.026596  1
  Pd  Pd17  1  0.419212  0.707535  0.468602  1
  Pd  Pd18  1  0.643790  0.914779  0.320405  1
  Pd  Pd19  1  0.914601  0.644623  0.816693  1
  Pd  Pd20  1  0.362844  0.080398  0.684805  1
  Pd  Pd21  1  0.071759  0.368093  0.182220  1
