# generated using pymatgen
data_Ho20Sn5Bi3Ru4
_symmetry_space_group_name_H-M   'P 1'
_cell_length_a   7.84099282
_cell_length_b   9.03689911
_cell_length_c   12.19981218
_cell_angle_alpha   90.04076827
_cell_angle_beta   90.15642038
_cell_angle_gamma   89.95884022
_symmetry_Int_Tables_number   1
_chemical_formula_structural   Ho20Sn5Bi3Ru4
_chemical_formula_sum   'Ho20 Sn5 Bi3 Ru4'
_cell_volume   864.45381383
_cell_formula_units_Z   1
loop_
 _symmetry_equiv_pos_site_id
 _symmetry_equiv_pos_as_xyz
  1  'x, y, z'
loop_
 _atom_site_type_symbol
 _atom_site_label
 _atom_site_symmetry_multiplicity
 _atom_site_fract_x
 _atom_site_fract_y
 _atom_site_fract_z
 _atom_site_occupancy
  Ho  Ho0  1  0.843012  0.743086  0.790098  1
  Ho  Ho1  1  0.160392  0.253830  0.211377  1
  Ho  Ho2  1  0.343920  0.257782  0.710832  1
  Ho  Ho3  1  0.653720  0.745982  0.287946  1
  Ho  Ho4  1  0.375225  0.743166  0.694130  1
  Ho  Ho5  1  0.620994  0.253411  0.303861  1
  Ho  Ho6  1  0.875276  0.257038  0.806056  1
  Ho  Ho7  1  0.129848  0.746281  0.194416  1
  Ho  Ho8  1  0.950512  0.743485  0.503115  1
  Ho  Ho9  1  0.048812  0.256735  0.496390  1
  Ho  Ho10  1  0.451473  0.253169  0.998240  1
  Ho  Ho11  1  0.546228  0.746825  0.005844  1
  Ho  Ho12  1  0.675842  0.038684  0.566923  1
  Ho  Ho13  1  0.325722  0.961927  0.428172  1
  Ho  Ho14  1  0.176995  0.961351  0.935424  1
  Ho  Ho15  1  0.321425  0.537917  0.430132  1
  Ho  Ho16  1  0.820708  0.037474  0.068235  1
  Ho  Ho17  1  0.677900  0.461670  0.569350  1
  Ho  Ho18  1  0.823189  0.462888  0.070566  1
  Ho  Ho19  1  0.178683  0.536939  0.929905  1
  Sn  Sn20  1  0.572363  0.494617  0.830950  1
  Sn  Sn21  1  0.428269  0.505207  0.169945  1
  Sn  Sn22  1  0.071063  0.506046  0.671013  1
  Sn  Sn23  1  0.428590  0.995079  0.169177  1
  Sn  Sn24  1  0.928084  0.494372  0.328250  1
  Bi  Bi25  1  0.571532  0.005793  0.827797  1
  Bi  Bi26  1  0.928743  0.005897  0.329119  1
  Bi  Bi27  1  0.071265  0.994071  0.671899  1
  Ru  Ru28  1  0.573099  0.750223  0.508979  1
  Ru  Ru29  1  0.426626  0.249627  0.490801  1
  Ru  Ru30  1  0.072701  0.249242  0.991459  1
  Ru  Ru31  1  0.927788  0.750185  0.009598  1
