# generated using pymatgen
data_CsTa(CuS2)2
_symmetry_space_group_name_H-M   'P 1'
_cell_length_a   10.15179071
_cell_length_b   10.15179147
_cell_length_c   7.70269200
_cell_angle_alpha   90.00000000
_cell_angle_beta   90.00000000
_cell_angle_gamma   147.97854814
_symmetry_Int_Tables_number   1
_chemical_formula_structural   CsTa(CuS2)2
_chemical_formula_sum   'Cs2 Ta2 Cu4 S8'
_cell_volume   420.91818978
_cell_formula_units_Z   2
loop_
 _symmetry_equiv_pos_site_id
 _symmetry_equiv_pos_as_xyz
  1  'x, y, z'
loop_
 _atom_site_type_symbol
 _atom_site_label
 _atom_site_symmetry_multiplicity
 _atom_site_fract_x
 _atom_site_fract_y
 _atom_site_fract_z
 _atom_site_occupancy
  Cs  Cs0  1  0.169898  0.533092  0.750000  1
  Cs  Cs1  1  0.533092  0.169898  0.250000  1
  Ta  Ta2  1  0.708844  0.499477  0.750000  1
  Ta  Ta3  1  0.499477  0.708844  0.250000  1
  Cu  Cu4  1  0.619521  0.619521  0.500000  1
  Cu  Cu5  1  0.003900  0.203903  0.250000  1
  Cu  Cu6  1  0.203903  0.003900  0.750000  1
  Cu  Cu7  1  0.619521  0.619521  0.000000  1
  S  S8  1  0.746636  0.947733  0.008225  1
  S  S9  1  0.377181  0.365583  0.750000  1
  S  S10  1  0.365583  0.377181  0.250000  1
  S  S11  1  0.947733  0.746636  0.508225  1
  S  S12  1  0.548123  0.154018  0.750000  1
  S  S13  1  0.947733  0.746636  0.991775  1
  S  S14  1  0.154018  0.548123  0.250000  1
  S  S15  1  0.746636  0.947733  0.491775  1
