# generated using pymatgen
data_Ho12ZnInSi4
_symmetry_space_group_name_H-M   'P 1'
_cell_length_a   8.44749498
_cell_length_b   8.44749447
_cell_length_c   8.44749472
_cell_angle_alpha   111.76895149
_cell_angle_beta   111.96398115
_cell_angle_gamma   104.78021110
_symmetry_Int_Tables_number   1
_chemical_formula_structural   Ho12ZnInSi4
_chemical_formula_sum   'Ho12 Zn1 In1 Si4'
_cell_volume   461.73770441
_cell_formula_units_Z   1
loop_
 _symmetry_equiv_pos_site_id
 _symmetry_equiv_pos_as_xyz
  1  'x, y, z'
loop_
 _atom_site_type_symbol
 _atom_site_label
 _atom_site_symmetry_multiplicity
 _atom_site_fract_x
 _atom_site_fract_y
 _atom_site_fract_z
 _atom_site_occupancy
  Ho  Ho0  1  0.319472  0.617234  0.297762  1
  Ho  Ho1  1  0.680528  0.382766  0.702238  1
  Ho  Ho2  1  0.319472  0.021709  0.702238  1
  Ho  Ho3  1  0.680528  0.978291  0.297762  1
  Ho  Ho4  1  0.181051  0.271913  0.452963  1
  Ho  Ho5  1  0.818949  0.728087  0.547037  1
  Ho  Ho6  1  0.181051  0.728087  0.909137  1
  Ho  Ho7  1  0.818949  0.271913  0.090863  1
  Ho  Ho8  1  0.432402  0.235090  0.197312  1
  Ho  Ho9  1  0.567598  0.764910  0.802688  1
  Ho  Ho10  1  0.037779  0.235090  0.802688  1
  Ho  Ho11  1  0.962221  0.764910  0.197312  1
  Zn  Zn12  1  0.000000  0.000000  0.000000  1
  In  In13  1  0.500000  0.500000  0.000000  1
  Si  Si14  1  0.116742  0.616742  0.500000  1
  Si  Si15  1  0.883258  0.383258  0.500000  1
  Si  Si16  1  0.364267  0.000000  0.364267  1
  Si  Si17  1  0.635733  0.000000  0.635733  1
