# generated using pymatgen
data_PuCd3P7N12
_symmetry_space_group_name_H-M   'P 1'
_cell_length_a   7.45987316
_cell_length_b   7.48664876
_cell_length_c   7.48664898
_cell_angle_alpha   109.54355229
_cell_angle_beta   109.39878890
_cell_angle_gamma   109.39879670
_symmetry_Int_Tables_number   1
_chemical_formula_structural   PuCd3P7N12
_chemical_formula_sum   'Pu1 Cd3 P7 N12'
_cell_volume   322.16020519
_cell_formula_units_Z   1
loop_
 _symmetry_equiv_pos_site_id
 _symmetry_equiv_pos_as_xyz
  1  'x, y, z'
loop_
 _atom_site_type_symbol
 _atom_site_label
 _atom_site_symmetry_multiplicity
 _atom_site_fract_x
 _atom_site_fract_y
 _atom_site_fract_z
 _atom_site_occupancy
  Pu  Pu0  1  0.645185  0.000000  0.000000  1
  Cd  Cd1  1  0.999047  0.000000  0.668035  1
  Cd  Cd2  1  0.999047  0.668035  0.000000  1
  Cd  Cd3  1  0.331013  0.331965  0.331965  1
  P  P4  1  0.247215  0.749089  0.495794  1
  P  P5  1  0.751421  0.253295  0.504206  1
  P  P6  1  0.751421  0.504206  0.253295  1
  P  P7  1  0.247215  0.495794  0.749089  1
  P  P8  1  0.498126  0.746705  0.250911  1
  P  P9  1  0.498126  0.250911  0.746705  1
  P  P10  1  0.012584  0.000000  0.000000  1
  N  N11  1  0.717127  0.300242  0.300242  1
  N  N12  1  0.287368  0.705092  0.287270  1
  N  N13  1  0.309113  0.599062  0.599062  1
  N  N14  1  0.582276  0.582178  0.294908  1
  N  N15  1  0.416885  0.699758  0.000000  1
  N  N16  1  0.000098  0.712730  0.417822  1
  N  N17  1  0.582276  0.294908  0.582178  1
  N  N18  1  0.710051  0.000000  0.400938  1
  N  N19  1  0.416885  0.000000  0.699758  1
  N  N20  1  0.710051  0.400938  0.000000  1
  N  N21  1  0.287368  0.287270  0.705092  1
  N  N22  1  0.000098  0.417822  0.712730  1
