# generated using pymatgen
data_Ho6Er6GaCo5
_symmetry_space_group_name_H-M   'P 1'
_cell_length_a   8.15797193
_cell_length_b   8.15640004
_cell_length_c   8.15610401
_cell_angle_alpha   110.79757140
_cell_angle_beta   110.73745313
_cell_angle_gamma   106.89829801
_symmetry_Int_Tables_number   1
_chemical_formula_structural   Ho6Er6GaCo5
_chemical_formula_sum   'Ho6 Er6 Ga1 Co5'
_cell_volume   417.20156399
_cell_formula_units_Z   1
loop_
 _symmetry_equiv_pos_site_id
 _symmetry_equiv_pos_as_xyz
  1  'x, y, z'
loop_
 _atom_site_type_symbol
 _atom_site_label
 _atom_site_symmetry_multiplicity
 _atom_site_fract_x
 _atom_site_fract_y
 _atom_site_fract_z
 _atom_site_occupancy
  Ho  Ho0  1  0.288495  0.185657  0.474567  1
  Ho  Ho1  1  0.711505  0.814343  0.525433  1
  Ho  Ho2  1  0.288491  0.813909  0.102843  1
  Ho  Ho3  1  0.711509  0.186091  0.897157  1
  Ho  Ho4  1  0.618882  0.316090  0.302810  1
  Ho  Ho5  1  0.381118  0.683910  0.697190  1
  Er  Er6  1  0.013082  0.316216  0.696788  1
  Er  Er7  1  0.986918  0.683784  0.303212  1
  Er  Er8  1  0.215325  0.406573  0.190831  1
  Er  Er9  1  0.784675  0.593427  0.809169  1
  Er  Er10  1  0.215296  0.024496  0.808761  1
  Er  Er11  1  0.784704  0.975504  0.191239  1
  Ga  Ga12  1  0.500000  0.500000  0.000000  1
  Co  Co13  1  0.000003  0.375773  0.375778  1
  Co  Co14  1  0.999997  0.624227  0.624222  1
  Co  Co15  1  0.386284  0.886415  0.499865  1
  Co  Co16  1  0.613716  0.113585  0.500135  1
  Co  Co17  1  0.000000  0.000000  0.000000  1
