# generated using pymatgen
data_Ta9Ti(Ga3B)2
_symmetry_space_group_name_H-M   'P 1'
_cell_length_a   7.77540600
_cell_length_b   7.77540590
_cell_length_c   5.33269600
_cell_angle_alpha   90.00000000
_cell_angle_beta   90.00000000
_cell_angle_gamma   120.00000044
_symmetry_Int_Tables_number   1
_chemical_formula_structural   Ta9Ti(Ga3B)2
_chemical_formula_sum   'Ta9 Ti1 Ga6 B2'
_cell_volume   279.20526355
_cell_formula_units_Z   1
loop_
 _symmetry_equiv_pos_site_id
 _symmetry_equiv_pos_as_xyz
  1  'x, y, z'
loop_
 _atom_site_type_symbol
 _atom_site_label
 _atom_site_symmetry_multiplicity
 _atom_site_fract_x
 _atom_site_fract_y
 _atom_site_fract_z
 _atom_site_occupancy
  Ta  Ta0  1  0.242803  0.001388  0.250711  1
  Ta  Ta1  1  0.758585  0.001388  0.749289  1
  Ta  Ta2  1  0.998612  0.241415  0.250711  1
  Ta  Ta3  1  0.998612  0.757197  0.749289  1
  Ta  Ta4  1  0.758585  0.757197  0.250711  1
  Ta  Ta5  1  0.242803  0.241415  0.749289  1
  Ta  Ta6  1  0.666667  0.333333  0.000000  1
  Ta  Ta7  1  0.666667  0.333333  0.500000  1
  Ta  Ta8  1  0.333333  0.666667  0.500000  1
  Ti  Ti9  1  0.333333  0.666667  0.000000  1
  Ga  Ga10  1  0.596908  0.997179  0.247335  1
  Ga  Ga11  1  0.400271  0.997179  0.752665  1
  Ga  Ga12  1  0.002821  0.599729  0.247335  1
  Ga  Ga13  1  0.002821  0.403092  0.752665  1
  Ga  Ga14  1  0.400271  0.403092  0.247335  1
  Ga  Ga15  1  0.596908  0.599729  0.752665  1
  B  B16  1  0.000000  0.000000  0.000000  1
  B  B17  1  0.000000  0.000000  0.500000  1
