# generated using pymatgen
data_BaSm6OsI12
_symmetry_space_group_name_H-M   'P 1'
_cell_length_a   10.03509011
_cell_length_b   10.03509116
_cell_length_c   10.03509093
_cell_angle_alpha   105.73012986
_cell_angle_beta   105.73014168
_cell_angle_gamma   105.73013166
_symmetry_Int_Tables_number   1
_chemical_formula_structural   BaSm6OsI12
_chemical_formula_sum   'Ba1 Sm6 Os1 I12'
_cell_volume   869.11538426
_cell_formula_units_Z   1
loop_
 _symmetry_equiv_pos_site_id
 _symmetry_equiv_pos_as_xyz
  1  'x, y, z'
loop_
 _atom_site_type_symbol
 _atom_site_label
 _atom_site_symmetry_multiplicity
 _atom_site_fract_x
 _atom_site_fract_y
 _atom_site_fract_z
 _atom_site_occupancy
  Ba  Ba0  1  0.500000  0.500000  0.500000  1
  Sm  Sm1  1  0.090977  0.293375  0.015229  1
  Sm  Sm2  1  0.293374  0.015228  0.090977  1
  Sm  Sm3  1  0.015228  0.090977  0.293375  1
  Sm  Sm4  1  0.984771  0.909023  0.706625  1
  Sm  Sm5  1  0.706626  0.984771  0.909022  1
  Sm  Sm6  1  0.909023  0.706625  0.984771  1
  Os  Os7  1  0.000000  0.000000  0.000000  1
  I  I8  1  0.223645  0.678634  0.074491  1
  I  I9  1  0.438988  0.356914  0.123800  1
  I  I10  1  0.678634  0.074492  0.223645  1
  I  I11  1  0.925509  0.776356  0.321367  1
  I  I12  1  0.123800  0.438988  0.356914  1
  I  I13  1  0.356914  0.123800  0.438989  1
  I  I14  1  0.643086  0.876200  0.561011  1
  I  I15  1  0.876199  0.561012  0.643086  1
  I  I16  1  0.074492  0.223645  0.678634  1
  I  I17  1  0.321367  0.925509  0.776355  1
  I  I18  1  0.561011  0.643085  0.876200  1
  I  I19  1  0.776355  0.321367  0.925509  1
