# generated using pymatgen
data_Tm10Tl3Sn3Se2
_symmetry_space_group_name_H-M   'P 1'
_cell_length_a   9.08234200
_cell_length_b   9.08234122
_cell_length_c   6.59972200
_cell_angle_alpha   90.00000000
_cell_angle_beta   90.00000000
_cell_angle_gamma   120.00000283
_symmetry_Int_Tables_number   1
_chemical_formula_structural   Tm10Tl3Sn3Se2
_chemical_formula_sum   'Tm10 Tl3 Sn3 Se2'
_cell_volume   471.46768083
_cell_formula_units_Z   1
loop_
 _symmetry_equiv_pos_site_id
 _symmetry_equiv_pos_as_xyz
  1  'x, y, z'
loop_
 _atom_site_type_symbol
 _atom_site_label
 _atom_site_symmetry_multiplicity
 _atom_site_fract_x
 _atom_site_fract_y
 _atom_site_fract_z
 _atom_site_occupancy
  Tm  Tm0  1  0.666667  0.333333  0.997809  1
  Tm  Tm1  1  0.333333  0.666667  0.997809  1
  Tm  Tm2  1  0.333333  0.666667  0.502191  1
  Tm  Tm3  1  0.666667  0.333333  0.502191  1
  Tm  Tm4  1  0.746737  0.746737  0.750000  1
  Tm  Tm5  1  0.253263  0.000000  0.750000  1
  Tm  Tm6  1  0.000000  0.253263  0.750000  1
  Tm  Tm7  1  0.252465  0.252465  0.250000  1
  Tm  Tm8  1  0.747535  0.000000  0.250000  1
  Tm  Tm9  1  0.000000  0.747535  0.250000  1
  Tl  Tl10  1  0.397820  0.397820  0.750000  1
  Tl  Tl11  1  0.602180  0.000000  0.750000  1
  Tl  Tl12  1  0.000000  0.602180  0.750000  1
  Sn  Sn13  1  0.603845  0.603845  0.250000  1
  Sn  Sn14  1  0.396155  0.000000  0.250000  1
  Sn  Sn15  1  0.000000  0.396155  0.250000  1
  Se  Se16  1  0.000000  0.000000  0.001094  1
  Se  Se17  1  0.000000  0.000000  0.498906  1
