# generated using pymatgen
data_Ta6MnGa4FeC2
_symmetry_space_group_name_H-M   'P 1'
_cell_length_a   8.19996126
_cell_length_b   8.20379330
_cell_length_c   8.19995726
_cell_angle_alpha   59.98719035
_cell_angle_beta   59.98598190
_cell_angle_gamma   59.98339029
_symmetry_Int_Tables_number   1
_chemical_formula_structural   Ta6MnGa4FeC2
_chemical_formula_sum   'Ta12 Mn2 Ga8 Fe2 C4'
_cell_volume   389.92447314
_cell_formula_units_Z   2
loop_
 _symmetry_equiv_pos_site_id
 _symmetry_equiv_pos_as_xyz
  1  'x, y, z'
loop_
 _atom_site_type_symbol
 _atom_site_label
 _atom_site_symmetry_multiplicity
 _atom_site_fract_x
 _atom_site_fract_y
 _atom_site_fract_z
 _atom_site_occupancy
  Ta  Ta0  1  0.553457  0.946500  0.553538  1
  Ta  Ta1  1  0.304376  0.697121  0.694316  1
  Ta  Ta2  1  0.694252  0.304255  0.304461  1
  Ta  Ta3  1  0.305521  0.694446  0.305545  1
  Ta  Ta4  1  0.694314  0.697033  0.304434  1
  Ta  Ta5  1  0.304399  0.304220  0.694272  1
  Ta  Ta6  1  0.555686  0.552967  0.945566  1
  Ta  Ta7  1  0.945624  0.552879  0.555684  1
  Ta  Ta8  1  0.555748  0.945746  0.945539  1
  Ta  Ta9  1  0.945601  0.945780  0.555728  1
  Ta  Ta10  1  0.696543  0.303500  0.696462  1
  Ta  Ta11  1  0.944479  0.555554  0.944455  1
  Mn  Mn12  1  0.625000  0.125000  0.125000  1
  Mn  Mn13  1  0.125000  0.125000  0.625000  1
  Ga  Ga14  1  0.916760  0.913965  0.916867  1
  Ga  Ga15  1  0.996716  0.335183  0.332646  1
  Ga  Ga16  1  0.333166  0.997625  0.333019  1
  Ga  Ga17  1  0.332752  0.335168  0.996660  1
  Ga  Ga18  1  0.916834  0.252376  0.916981  1
  Ga  Ga19  1  0.917248  0.914832  0.253340  1
  Ga  Ga20  1  0.253284  0.914817  0.917354  1
  Ga  Ga21  1  0.333240  0.336034  0.333133  1
  Fe  Fe22  1  0.125000  0.125000  0.125000  1
  Fe  Fe23  1  0.125000  0.625000  0.125000  1
  C  C24  1  0.625000  0.625000  0.625000  1
  C  C25  1  0.125000  0.625000  0.625000  1
  C  C26  1  0.625000  0.125000  0.625000  1
  C  C27  1  0.625000  0.625000  0.125000  1
