# generated using pymatgen
data_YLu2Co8P6W
_symmetry_space_group_name_H-M   'P 1'
_cell_length_a   3.70080300
_cell_length_b   10.50548000
_cell_length_c   12.19679100
_cell_angle_alpha   90.00000000
_cell_angle_beta   90.00000000
_cell_angle_gamma   90.00000000
_symmetry_Int_Tables_number   1
_chemical_formula_structural   YLu2Co8P6W
_chemical_formula_sum   'Y2 Lu4 Co16 P12 W2'
_cell_volume   474.19552340
_cell_formula_units_Z   2
loop_
 _symmetry_equiv_pos_site_id
 _symmetry_equiv_pos_as_xyz
  1  'x, y, z'
loop_
 _atom_site_type_symbol
 _atom_site_label
 _atom_site_symmetry_multiplicity
 _atom_site_fract_x
 _atom_site_fract_y
 _atom_site_fract_z
 _atom_site_occupancy
  Y  Y0  1  0.000000  0.500000  0.525022  1
  Y  Y1  1  0.500000  0.000000  0.474978  1
  Lu  Lu2  1  0.500000  0.820051  0.204610  1
  Lu  Lu3  1  0.500000  0.179949  0.204610  1
  Lu  Lu4  1  0.000000  0.679949  0.795390  1
  Lu  Lu5  1  0.000000  0.320051  0.795390  1
  Co  Co6  1  0.500000  0.500000  0.703115  1
  Co  Co7  1  0.000000  0.000000  0.296885  1
  Co  Co8  1  0.000000  0.500000  0.987038  1
  Co  Co9  1  0.500000  0.000000  0.012962  1
  Co  Co10  1  0.500000  0.332597  0.990034  1
  Co  Co11  1  0.500000  0.667403  0.990034  1
  Co  Co12  1  0.000000  0.167403  0.009966  1
  Co  Co13  1  0.000000  0.832597  0.009966  1
  Co  Co14  1  0.500000  0.295605  0.431022  1
  Co  Co15  1  0.500000  0.704395  0.431022  1
  Co  Co16  1  0.000000  0.204395  0.568978  1
  Co  Co17  1  0.000000  0.795605  0.568978  1
  Co  Co18  1  0.500000  0.877146  0.708069  1
  Co  Co19  1  0.500000  0.122854  0.708069  1
  Co  Co20  1  0.000000  0.622854  0.291931  1
  Co  Co21  1  0.000000  0.377146  0.291931  1
  P  P22  1  0.500000  0.500000  0.879877  1
  P  P23  1  0.000000  0.000000  0.120123  1
  P  P24  1  0.500000  0.500000  0.350435  1
  P  P25  1  0.000000  0.000000  0.649565  1
  P  P26  1  0.500000  0.311802  0.617575  1
  P  P27  1  0.500000  0.688198  0.617575  1
  P  P28  1  0.000000  0.188198  0.382425  1
  P  P29  1  0.000000  0.811802  0.382425  1
  P  P30  1  0.500000  0.843067  0.891666  1
  P  P31  1  0.500000  0.156933  0.891666  1
  P  P32  1  0.000000  0.656933  0.108334  1
  P  P33  1  0.000000  0.343067  0.108334  1
  W  W34  1  0.500000  0.500000  0.156607  1
  W  W35  1  0.000000  0.000000  0.843393  1
