# generated using pymatgen
data_LaPr3Mg3Au10
_symmetry_space_group_name_H-M   'P 1'
_cell_length_a   8.76375747
_cell_length_b   8.76374904
_cell_length_c   10.40993719
_cell_angle_alpha   89.98694669
_cell_angle_beta   89.98681889
_cell_angle_gamma   108.35510487
_symmetry_Int_Tables_number   1
_chemical_formula_structural   LaPr3Mg3Au10
_chemical_formula_sum   'La2 Pr6 Mg6 Au20'
_cell_volume   758.84116260
_cell_formula_units_Z   2
loop_
 _symmetry_equiv_pos_site_id
 _symmetry_equiv_pos_as_xyz
  1  'x, y, z'
loop_
 _atom_site_type_symbol
 _atom_site_label
 _atom_site_symmetry_multiplicity
 _atom_site_fract_x
 _atom_site_fract_y
 _atom_site_fract_z
 _atom_site_occupancy
  La  La0  1  0.198370  0.198370  0.703367  1
  La  La1  1  0.801630  0.801630  0.296633  1
  Pr  Pr2  1  0.700316  0.299684  0.000000  1
  Pr  Pr3  1  0.299684  0.700316  0.000000  1
  Pr  Pr4  1  0.799628  0.200373  0.500000  1
  Pr  Pr5  1  0.200372  0.799627  0.500000  1
  Pr  Pr6  1  0.302334  0.302331  0.202852  1
  Pr  Pr7  1  0.697666  0.697669  0.797148  1
  Mg  Mg8  1  0.012811  0.511736  0.249707  1
  Mg  Mg9  1  0.987189  0.488264  0.750293  1
  Mg  Mg10  1  0.488263  0.987191  0.750292  1
  Mg  Mg11  1  0.511737  0.012809  0.249708  1
  Mg  Mg12  1  0.000000  0.000000  0.000000  1
  Mg  Mg13  1  0.500000  0.500000  0.500000  1
  Au  Au14  1  0.097558  0.097558  0.404388  1
  Au  Au15  1  0.902442  0.902442  0.595612  1
  Au  Au16  1  0.402541  0.402540  0.904566  1
  Au  Au17  1  0.597459  0.597460  0.095434  1
  Au  Au18  1  0.885670  0.167441  0.205610  1
  Au  Au19  1  0.114330  0.832559  0.794390  1
  Au  Au20  1  0.614605  0.333148  0.706032  1
  Au  Au21  1  0.666853  0.385395  0.293967  1
  Au  Au22  1  0.385395  0.666852  0.293968  1
  Au  Au23  1  0.333147  0.614605  0.706033  1
  Au  Au24  1  0.832559  0.114329  0.794390  1
  Au  Au25  1  0.167441  0.885671  0.205610  1
  Au  Au26  1  0.934488  0.657848  0.022672  1
  Au  Au27  1  0.065512  0.342152  0.977328  1
  Au  Au28  1  0.565019  0.842316  0.523064  1
  Au  Au29  1  0.157684  0.434981  0.476936  1
  Au  Au30  1  0.434981  0.157684  0.476936  1
  Au  Au31  1  0.842316  0.565019  0.523064  1
  Au  Au32  1  0.342152  0.065511  0.977328  1
  Au  Au33  1  0.657848  0.934489  0.022672  1
