# generated using pymatgen
data_PrDy15MgHg3Rh4
_symmetry_space_group_name_H-M   'P 1'
_cell_length_a   9.62252702
_cell_length_b   9.65704046
_cell_length_c   9.65704097
_cell_angle_alpha   59.94884331
_cell_angle_beta   59.94951552
_cell_angle_gamma   59.94951990
_symmetry_Int_Tables_number   1
_chemical_formula_structural   PrDy15MgHg3Rh4
_chemical_formula_sum   'Pr1 Dy15 Mg1 Hg3 Rh4'
_cell_volume   633.81502502
_cell_formula_units_Z   1
loop_
 _symmetry_equiv_pos_site_id
 _symmetry_equiv_pos_as_xyz
  1  'x, y, z'
loop_
 _atom_site_type_symbol
 _atom_site_label
 _atom_site_symmetry_multiplicity
 _atom_site_fract_x
 _atom_site_fract_y
 _atom_site_fract_z
 _atom_site_occupancy
  Pr  Pr0  1  0.061946  0.433465  0.433465  1
  Dy  Dy1  1  0.648336  0.047820  0.652211  1
  Dy  Dy2  1  0.812373  0.813732  0.187424  1
  Dy  Dy3  1  0.437139  0.063525  0.063525  1
  Dy  Dy4  1  0.440359  0.435453  0.060589  1
  Dy  Dy5  1  0.191892  0.189410  0.811074  1
  Dy  Dy6  1  0.814566  0.188734  0.188734  1
  Dy  Dy7  1  0.064098  0.438162  0.058236  1
  Dy  Dy8  1  0.440359  0.060589  0.435453  1
  Dy  Dy9  1  0.056028  0.646640  0.646640  1
  Dy  Dy10  1  0.191950  0.809242  0.809242  1
  Dy  Dy11  1  0.648336  0.652211  0.047820  1
  Dy  Dy12  1  0.191892  0.811074  0.189410  1
  Dy  Dy13  1  0.064098  0.058236  0.438162  1
  Dy  Dy14  1  0.812373  0.187424  0.813732  1
  Dy  Dy15  1  0.651457  0.652890  0.652890  1
  Mg  Mg16  1  0.713897  0.429251  0.429251  1
  Hg  Hg17  1  0.416966  0.412639  0.758044  1
  Hg  Hg18  1  0.422440  0.412170  0.412170  1
  Hg  Hg19  1  0.416966  0.758044  0.412639  1
  Rh  Rh20  1  0.857179  0.426685  0.860070  1
  Rh  Rh21  1  0.426740  0.856990  0.856990  1
  Rh  Rh22  1  0.857179  0.860070  0.426685  1
  Rh  Rh23  1  0.861432  0.855547  0.855547  1
