# generated using pymatgen
data_Tm10Hg3Os
_symmetry_space_group_name_H-M   'P 1'
_cell_length_a   9.43318200
_cell_length_b   9.43320322
_cell_length_c   9.64567300
_cell_angle_alpha   90.00000000
_cell_angle_beta   90.00000000
_cell_angle_gamma   120.00040241
_symmetry_Int_Tables_number   1
_chemical_formula_structural   Tm10Hg3Os
_chemical_formula_sum   'Tm20 Hg6 Os2'
_cell_volume   743.32511983
_cell_formula_units_Z   2
loop_
 _symmetry_equiv_pos_site_id
 _symmetry_equiv_pos_as_xyz
  1  'x, y, z'
loop_
 _atom_site_type_symbol
 _atom_site_label
 _atom_site_symmetry_multiplicity
 _atom_site_fract_x
 _atom_site_fract_y
 _atom_site_fract_z
 _atom_site_occupancy
  Tm  Tm0  1  0.000000  0.000000  0.500000  1
  Tm  Tm1  1  0.000000  0.000000  0.000000  1
  Tm  Tm2  1  0.209328  0.790673  0.440938  1
  Tm  Tm3  1  0.209338  0.418666  0.440944  1
  Tm  Tm4  1  0.581333  0.790661  0.440947  1
  Tm  Tm5  1  0.790672  0.209327  0.559062  1
  Tm  Tm6  1  0.790662  0.581334  0.559056  1
  Tm  Tm7  1  0.418667  0.209339  0.559053  1
  Tm  Tm8  1  0.790672  0.209327  0.940938  1
  Tm  Tm9  1  0.790662  0.581334  0.940944  1
  Tm  Tm10  1  0.418667  0.209339  0.940947  1
  Tm  Tm11  1  0.209328  0.790673  0.059062  1
  Tm  Tm12  1  0.209338  0.418666  0.059056  1
  Tm  Tm13  1  0.581333  0.790661  0.059053  1
  Tm  Tm14  1  0.539753  0.460250  0.250000  1
  Tm  Tm15  1  0.539757  0.079512  0.250000  1
  Tm  Tm16  1  0.920485  0.460244  0.250000  1
  Tm  Tm17  1  0.460247  0.539750  0.750000  1
  Tm  Tm18  1  0.460243  0.920488  0.750000  1
  Tm  Tm19  1  0.079515  0.539756  0.750000  1
  Hg  Hg20  1  0.882031  0.117982  0.250000  1
  Hg  Hg21  1  0.882029  0.764050  0.250000  1
  Hg  Hg22  1  0.235956  0.117983  0.250000  1
  Hg  Hg23  1  0.117969  0.882018  0.750000  1
  Hg  Hg24  1  0.117971  0.235950  0.750000  1
  Hg  Hg25  1  0.764044  0.882017  0.750000  1
  Os  Os26  1  0.333348  0.666659  0.250000  1
  Os  Os27  1  0.666652  0.333341  0.750000  1
