# generated using pymatgen
data_Nd4PtRh2Au
_symmetry_space_group_name_H-M   'P 1'
_cell_length_a   4.54200900
_cell_length_b   5.77821545
_cell_length_c   7.41817431
_cell_angle_alpha   89.96370691
_cell_angle_beta   90.00000000
_cell_angle_gamma   90.00000000
_symmetry_Int_Tables_number   1
_chemical_formula_structural   Nd4PtRh2Au
_chemical_formula_sum   'Nd4 Pt1 Rh2 Au1'
_cell_volume   194.68776900
_cell_formula_units_Z   1
loop_
 _symmetry_equiv_pos_site_id
 _symmetry_equiv_pos_as_xyz
  1  'x, y, z'
loop_
 _atom_site_type_symbol
 _atom_site_label
 _atom_site_symmetry_multiplicity
 _atom_site_fract_x
 _atom_site_fract_y
 _atom_site_fract_z
 _atom_site_occupancy
  Nd  Nd0  1  0.250000  0.371341  0.687984  1
  Nd  Nd1  1  0.250000  0.135518  0.169330  1
  Nd  Nd2  1  0.750000  0.640808  0.314186  1
  Nd  Nd3  1  0.750000  0.855820  0.821869  1
  Pt  Pt4  1  0.750000  0.348264  0.956262  1
  Rh  Rh5  1  0.250000  0.843152  0.542204  1
  Rh  Rh6  1  0.250000  0.661854  0.048765  1
  Au  Au7  1  0.750000  0.143244  0.459401  1
