# generated using pymatgen
data_Zr10InSnBiPb5
_symmetry_space_group_name_H-M   'P 1'
_cell_length_a   8.98796350
_cell_length_b   8.98793372
_cell_length_c   5.99794902
_cell_angle_alpha   89.99497664
_cell_angle_beta   89.99501177
_cell_angle_gamma   119.93417611
_symmetry_Int_Tables_number   1
_chemical_formula_structural   Zr10InSnBiPb5
_chemical_formula_sum   'Zr10 In1 Sn1 Bi1 Pb5'
_cell_volume   419.89648154
_cell_formula_units_Z   1
loop_
 _symmetry_equiv_pos_site_id
 _symmetry_equiv_pos_as_xyz
  1  'x, y, z'
loop_
 _atom_site_type_symbol
 _atom_site_label
 _atom_site_symmetry_multiplicity
 _atom_site_fract_x
 _atom_site_fract_y
 _atom_site_fract_z
 _atom_site_occupancy
  Zr  Zr0  1  0.666839  0.333320  0.000706  1
  Zr  Zr1  1  0.333320  0.666842  0.000707  1
  Zr  Zr2  1  0.333381  0.666770  0.499292  1
  Zr  Zr3  1  0.666770  0.333380  0.499292  1
  Zr  Zr4  1  0.720090  0.720090  0.750260  1
  Zr  Zr5  1  0.279443  0.999243  0.750187  1
  Zr  Zr6  1  0.999246  0.279444  0.750186  1
  Zr  Zr7  1  0.279828  0.279829  0.249596  1
  Zr  Zr8  1  0.719798  0.999847  0.249738  1
  Zr  Zr9  1  0.999848  0.719798  0.249737  1
  In  In10  1  0.999639  0.999639  0.000095  1
  Sn  Sn11  1  0.999750  0.999750  0.499923  1
  Bi  Bi12  1  0.385316  0.385315  0.751718  1
  Pb  Pb13  1  0.616093  0.999962  0.751651  1
  Pb  Pb14  1  0.999960  0.616093  0.751650  1
  Pb  Pb15  1  0.616767  0.616766  0.248535  1
  Pb  Pb16  1  0.384076  0.999837  0.248363  1
  Pb  Pb17  1  0.999835  0.384075  0.248363  1
