# generated using pymatgen
data_Ho5Er(Si3Pt2)4
_symmetry_space_group_name_H-M   'P 1'
_cell_length_a   4.23672800
_cell_length_b   8.54136790
_cell_length_c   12.90644600
_cell_angle_alpha   80.24909977
_cell_angle_beta   90.00000000
_cell_angle_gamma   90.00000000
_symmetry_Int_Tables_number   1
_chemical_formula_structural   Ho5Er(Si3Pt2)4
_chemical_formula_sum   'Ho5 Er1 Si12 Pt8'
_cell_volume   460.30409669
_cell_formula_units_Z   1
loop_
 _symmetry_equiv_pos_site_id
 _symmetry_equiv_pos_as_xyz
  1  'x, y, z'
loop_
 _atom_site_type_symbol
 _atom_site_label
 _atom_site_symmetry_multiplicity
 _atom_site_fract_x
 _atom_site_fract_y
 _atom_site_fract_z
 _atom_site_occupancy
  Ho  Ho0  1  0.250000  0.583642  0.186493  1
  Ho  Ho1  1  0.750000  0.233752  0.560738  1
  Ho  Ho2  1  0.750000  0.416373  0.813500  1
  Ho  Ho3  1  0.750000  0.926419  0.815692  1
  Ho  Ho4  1  0.250000  0.073561  0.184313  1
  Er  Er5  1  0.250000  0.766304  0.439286  1
  Si  Si6  1  0.750000  0.588791  0.571423  1
  Si  Si7  1  0.750000  0.126956  0.004639  1
  Si  Si8  1  0.750000  0.872779  0.573578  1
  Si  Si9  1  0.250000  0.696384  0.713722  1
  Si  Si10  1  0.750000  0.303615  0.286288  1
  Si  Si11  1  0.750000  0.805727  0.277056  1
  Si  Si12  1  0.250000  0.873031  0.995360  1
  Si  Si13  1  0.250000  0.194240  0.723056  1
  Si  Si14  1  0.250000  0.378484  0.001322  1
  Si  Si15  1  0.250000  0.127028  0.426347  1
  Si  Si16  1  0.750000  0.621523  0.998674  1
  Si  Si17  1  0.250000  0.411432  0.428492  1
  Pt  Pt18  1  0.750000  0.351915  0.099231  1
  Pt  Pt19  1  0.250000  0.971048  0.624146  1
  Pt  Pt20  1  0.750000  0.849362  0.089058  1
  Pt  Pt21  1  0.750000  0.028618  0.375837  1
  Pt  Pt22  1  0.250000  0.648070  0.900788  1
  Pt  Pt23  1  0.250000  0.150623  0.910976  1
  Pt  Pt24  1  0.750000  0.533447  0.376050  1
  Pt  Pt25  1  0.250000  0.466878  0.623937  1
