# generated using pymatgen
data_RbSc10(C2Br9)2
_symmetry_space_group_name_H-M   'P 1'
_cell_length_a   10.38557097
_cell_length_b   10.40058504
_cell_length_c   10.44885212
_cell_angle_alpha   113.65068450
_cell_angle_beta   86.54021114
_cell_angle_gamma   119.78010315
_symmetry_Int_Tables_number   1
_chemical_formula_structural   RbSc10(C2Br9)2
_chemical_formula_sum   'Rb1 Sc10 C4 Br18'
_cell_volume   883.51481338
_cell_formula_units_Z   1
loop_
 _symmetry_equiv_pos_site_id
 _symmetry_equiv_pos_as_xyz
  1  'x, y, z'
loop_
 _atom_site_type_symbol
 _atom_site_label
 _atom_site_symmetry_multiplicity
 _atom_site_fract_x
 _atom_site_fract_y
 _atom_site_fract_z
 _atom_site_occupancy
  Rb  Rb0  1  0.500000  0.000000  0.500000  1
  Sc  Sc1  1  0.676061  0.722944  0.711694  1
  Sc  Sc2  1  0.281534  0.361214  0.013138  1
  Sc  Sc3  1  0.092862  0.394399  0.293977  1
  Sc  Sc4  1  0.959475  0.035187  0.329987  1
  Sc  Sc5  1  0.907138  0.605601  0.706023  1
  Sc  Sc6  1  0.104857  0.942231  0.001401  1
  Sc  Sc7  1  0.040525  0.964813  0.670013  1
  Sc  Sc8  1  0.323939  0.277056  0.288306  1
  Sc  Sc9  1  0.718466  0.638786  0.986862  1
  Sc  Sc10  1  0.895143  0.057769  0.998599  1
  C  C11  1  0.155089  0.223298  0.117435  1
  C  C12  1  0.844911  0.776702  0.882565  1
  C  C13  1  0.927062  0.858730  0.799339  1
  C  C14  1  0.072938  0.141270  0.200661  1
  Br  Br15  1  0.455952  0.532623  0.837904  1
  Br  Br16  1  0.375982  0.044511  0.157624  1
  Br  Br17  1  0.786127  0.860960  0.505151  1
  Br  Br18  1  0.845966  0.306450  0.153649  1
  Br  Br19  1  0.544048  0.467377  0.162096  1
  Br  Br20  1  0.213873  0.139040  0.494849  1
  Br  Br21  1  0.312757  0.101545  0.824598  1
  Br  Br22  1  0.687243  0.898455  0.175402  1
  Br  Br23  1  0.965564  0.757289  0.170590  1
  Br  Br24  1  0.934671  0.297943  0.496346  1
  Br  Br25  1  0.034436  0.242711  0.829410  1
  Br  Br26  1  0.065329  0.702057  0.503654  1
  Br  Br27  1  0.257551  0.615631  0.184169  1
  Br  Br28  1  0.742449  0.384369  0.815831  1
  Br  Br29  1  0.647394  0.445749  0.509631  1
  Br  Br30  1  0.154034  0.693550  0.846351  1
  Br  Br31  1  0.624018  0.955489  0.842376  1
  Br  Br32  1  0.352606  0.554251  0.490369  1
