# generated using pymatgen
data_CaTb2Sm4RhBr12
_symmetry_space_group_name_H-M   'P 1'
_cell_length_a   9.33548090
_cell_length_b   9.41693839
_cell_length_c   9.42607003
_cell_angle_alpha   106.71576379
_cell_angle_beta   106.75209905
_cell_angle_gamma   107.04476471
_symmetry_Int_Tables_number   1
_chemical_formula_structural   CaTb2Sm4RhBr12
_chemical_formula_sum   'Ca1 Tb2 Sm4 Rh1 Br12'
_cell_volume   693.14739843
_cell_formula_units_Z   1
loop_
 _symmetry_equiv_pos_site_id
 _symmetry_equiv_pos_as_xyz
  1  'x, y, z'
loop_
 _atom_site_type_symbol
 _atom_site_label
 _atom_site_symmetry_multiplicity
 _atom_site_fract_x
 _atom_site_fract_y
 _atom_site_fract_z
 _atom_site_occupancy
  Ca  Ca0  1  0.500287  0.499892  0.499741  1
  Tb  Tb1  1  0.975953  0.685561  0.893647  1
  Tb  Tb2  1  0.895041  0.975797  0.686279  1
  Sm  Sm3  1  0.307088  0.101863  0.022304  1
  Sm  Sm4  1  0.023121  0.317347  0.105278  1
  Sm  Sm5  1  0.105931  0.023500  0.316976  1
  Sm  Sm6  1  0.691805  0.896175  0.976956  1
  Rh  Rh7  1  0.999223  0.999255  0.999454  1
  Br  Br8  1  0.678608  0.219110  0.071413  1
  Br  Br9  1  0.071170  0.679332  0.215469  1
  Br  Br10  1  0.217177  0.071748  0.679869  1
  Br  Br11  1  0.316646  0.777567  0.926998  1
  Br  Br12  1  0.927450  0.319874  0.778167  1
  Br  Br13  1  0.779136  0.927678  0.323502  1
  Br  Br14  1  0.458311  0.161609  0.376467  1
  Br  Br15  1  0.377553  0.456873  0.161063  1
  Br  Br16  1  0.160035  0.376526  0.457202  1
  Br  Br17  1  0.546069  0.840325  0.623192  1
  Br  Br18  1  0.626648  0.542895  0.839153  1
  Br  Br19  1  0.842747  0.627072  0.546869  1
