# generated using pymatgen
data_Th4In2Cu3Rh
_symmetry_space_group_name_H-M   'P 1'
_cell_length_a   7.77618725
_cell_length_b   7.77618775
_cell_length_c   3.84406100
_cell_angle_alpha   90.00000000
_cell_angle_beta   90.00000000
_cell_angle_gamma   89.86877325
_symmetry_Int_Tables_number   1
_chemical_formula_structural   Th4In2Cu3Rh
_chemical_formula_sum   'Th4 In2 Cu3 Rh1'
_cell_volume   232.44626882
_cell_formula_units_Z   1
loop_
 _symmetry_equiv_pos_site_id
 _symmetry_equiv_pos_as_xyz
  1  'x, y, z'
loop_
 _atom_site_type_symbol
 _atom_site_label
 _atom_site_symmetry_multiplicity
 _atom_site_fract_x
 _atom_site_fract_y
 _atom_site_fract_z
 _atom_site_occupancy
  Th  Th0  1  0.674976  0.174976  0.500000  1
  Th  Th1  1  0.317583  0.817583  0.500000  1
  Th  Th2  1  0.178196  0.331886  0.500000  1
  Th  Th3  1  0.831886  0.678196  0.500000  1
  In  In4  1  0.504639  0.499833  0.000000  1
  In  In5  1  0.999833  0.004639  0.000000  1
  Cu  Cu6  1  0.874158  0.374158  0.000000  1
  Cu  Cu7  1  0.617478  0.879852  0.000000  1
  Cu  Cu8  1  0.379852  0.117478  0.000000  1
  Rh  Rh9  1  0.121401  0.621401  0.000000  1
