# generated using pymatgen
data_Pr4Y2Al24Ru7Au
_symmetry_space_group_name_H-M   'P 1'
_cell_length_a   8.89622500
_cell_length_b   8.93491004
_cell_length_c   9.65010186
_cell_angle_alpha   89.91814593
_cell_angle_beta   90.00000000
_cell_angle_gamma   119.85687566
_symmetry_Int_Tables_number   1
_chemical_formula_structural   Pr4Y2Al24Ru7Au
_chemical_formula_sum   'Pr4 Y2 Al24 Ru7 Au1'
_cell_volume   665.24623289
_cell_formula_units_Z   1
loop_
 _symmetry_equiv_pos_site_id
 _symmetry_equiv_pos_as_xyz
  1  'x, y, z'
loop_
 _atom_site_type_symbol
 _atom_site_label
 _atom_site_symmetry_multiplicity
 _atom_site_fract_x
 _atom_site_fract_y
 _atom_site_fract_z
 _atom_site_occupancy
  Pr  Pr0  1  0.619180  0.810911  0.249669  1
  Pr  Pr1  1  0.380820  0.189089  0.750331  1
  Pr  Pr2  1  0.191731  0.810911  0.249669  1
  Pr  Pr3  1  0.808269  0.189089  0.750331  1
  Y  Y4  1  0.194737  0.389474  0.254956  1
  Y  Y5  1  0.805263  0.610526  0.745044  1
  Al  Al6  1  0.327542  0.655085  0.015314  1
  Al  Al7  1  0.672458  0.344915  0.984686  1
  Al  Al8  1  0.666939  0.333876  0.514911  1
  Al  Al9  1  0.333061  0.666124  0.485089  1
  Al  Al10  1  0.163446  0.326891  0.575641  1
  Al  Al11  1  0.836554  0.673109  0.424359  1
  Al  Al12  1  0.674263  0.835268  0.575223  1
  Al  Al13  1  0.837174  0.674348  0.076005  1
  Al  Al14  1  0.325737  0.164732  0.424777  1
  Al  Al15  1  0.162826  0.325652  0.923995  1
  Al  Al16  1  0.161006  0.835268  0.575223  1
  Al  Al17  1  0.322321  0.173994  0.080235  1
  Al  Al18  1  0.838994  0.164732  0.424777  1
  Al  Al19  1  0.677679  0.826006  0.919765  1
  Al  Al20  1  0.851673  0.173994  0.080235  1
  Al  Al21  1  0.148327  0.826006  0.919765  1
  Al  Al22  1  0.565969  0.131939  0.257166  1
  Al  Al23  1  0.434031  0.868061  0.742834  1
  Al  Al24  1  0.878570  0.439891  0.249583  1
  Al  Al25  1  0.121430  0.560109  0.750417  1
  Al  Al26  1  0.561322  0.439891  0.249583  1
  Al  Al27  1  0.438678  0.560109  0.750417  1
  Al  Al28  1  0.002361  0.004721  0.250342  1
  Al  Al29  1  0.997639  0.995279  0.749658  1
  Ru  Ru30  1  0.000000  0.500000  0.000000  1
  Ru  Ru31  1  0.500000  0.000000  0.500000  1
  Ru  Ru32  1  0.500000  0.500000  0.000000  1
  Ru  Ru33  1  0.000000  0.500000  0.500000  1
  Ru  Ru34  1  0.500000  0.500000  0.500000  1
  Ru  Ru35  1  0.000000  0.000000  0.000000  1
  Ru  Ru36  1  0.000000  0.000000  0.500000  1
  Au  Au37  1  0.500000  0.000000  0.000000  1
