# generated using pymatgen
data_Zr5(PaPt5)2
_symmetry_space_group_name_H-M   'P 1'
_cell_length_a   8.31403113
_cell_length_b   8.31403152
_cell_length_c   9.86431500
_cell_angle_alpha   90.00000000
_cell_angle_beta   90.00000000
_cell_angle_gamma   107.26131081
_symmetry_Int_Tables_number   1
_chemical_formula_structural   Zr5(PaPt5)2
_chemical_formula_sum   'Zr10 Pa4 Pt20'
_cell_volume   651.14252012
_cell_formula_units_Z   2
loop_
 _symmetry_equiv_pos_site_id
 _symmetry_equiv_pos_as_xyz
  1  'x, y, z'
loop_
 _atom_site_type_symbol
 _atom_site_label
 _atom_site_symmetry_multiplicity
 _atom_site_fract_x
 _atom_site_fract_y
 _atom_site_fract_z
 _atom_site_occupancy
  Zr  Zr0  1  0.000000  0.000000  0.000000  1
  Zr  Zr1  1  0.500000  0.500000  0.500000  1
  Zr  Zr2  1  0.000535  0.500535  0.250000  1
  Zr  Zr3  1  0.999465  0.499465  0.750000  1
  Zr  Zr4  1  0.499465  0.999465  0.750000  1
  Zr  Zr5  1  0.500535  0.000535  0.250000  1
  Zr  Zr6  1  0.311104  0.311104  0.187865  1
  Zr  Zr7  1  0.688896  0.688896  0.812135  1
  Zr  Zr8  1  0.188896  0.188896  0.687865  1
  Zr  Zr9  1  0.811104  0.811104  0.312135  1
  Pa  Pa10  1  0.689369  0.310631  0.000000  1
  Pa  Pa11  1  0.310631  0.689369  0.000000  1
  Pa  Pa12  1  0.810631  0.189369  0.500000  1
  Pa  Pa13  1  0.189369  0.810631  0.500000  1
  Pt  Pt14  1  0.850791  0.141573  0.208083  1
  Pt  Pt15  1  0.149209  0.858427  0.791917  1
  Pt  Pt16  1  0.649209  0.358427  0.708083  1
  Pt  Pt17  1  0.641573  0.350791  0.291917  1
  Pt  Pt18  1  0.350791  0.641573  0.291917  1
  Pt  Pt19  1  0.358427  0.649209  0.708083  1
  Pt  Pt20  1  0.858427  0.149209  0.791917  1
  Pt  Pt21  1  0.141573  0.850791  0.208083  1
  Pt  Pt22  1  0.937570  0.646511  0.996869  1
  Pt  Pt23  1  0.062430  0.353489  0.003131  1
  Pt  Pt24  1  0.562430  0.853489  0.496869  1
  Pt  Pt25  1  0.146511  0.437570  0.503131  1
  Pt  Pt26  1  0.437570  0.146511  0.503131  1
  Pt  Pt27  1  0.853489  0.562430  0.496869  1
  Pt  Pt28  1  0.353489  0.062430  0.003131  1
  Pt  Pt29  1  0.646511  0.937570  0.996869  1
  Pt  Pt30  1  0.106882  0.106882  0.393511  1
  Pt  Pt31  1  0.893118  0.893118  0.606489  1
  Pt  Pt32  1  0.393118  0.393118  0.893511  1
  Pt  Pt33  1  0.606882  0.606882  0.106489  1
