# generated using pymatgen
data_Ho5Er11(In3Ru)2
_symmetry_space_group_name_H-M   'P 1'
_cell_length_a   10.33357217
_cell_length_b   10.33375080
_cell_length_c   7.02968904
_cell_angle_alpha   90.01238573
_cell_angle_beta   89.98660779
_cell_angle_gamma   120.00938343
_symmetry_Int_Tables_number   1
_chemical_formula_structural   Ho5Er11(In3Ru)2
_chemical_formula_sum   'Ho5 Er11 In6 Ru2'
_cell_volume   650.03107756
_cell_formula_units_Z   1
loop_
 _symmetry_equiv_pos_site_id
 _symmetry_equiv_pos_as_xyz
  1  'x, y, z'
loop_
 _atom_site_type_symbol
 _atom_site_label
 _atom_site_symmetry_multiplicity
 _atom_site_fract_x
 _atom_site_fract_y
 _atom_site_fract_z
 _atom_site_occupancy
  Ho  Ho0  1  0.533177  0.066348  0.794067  1
  Ho  Ho1  1  0.933650  0.466831  0.794071  1
  Ho  Ho2  1  0.533061  0.466924  0.794224  1
  Ho  Ho3  1  0.466795  0.933501  0.294129  1
  Ho  Ho4  1  0.066482  0.533204  0.294107  1
  Er  Er5  1  0.466691  0.533321  0.294237  1
  Er  Er6  1  0.822640  0.645597  0.497991  1
  Er  Er7  1  0.354391  0.177352  0.497985  1
  Er  Er8  1  0.822927  0.177142  0.498136  1
  Er  Er9  1  0.177293  0.354406  0.998377  1
  Er  Er10  1  0.645589  0.822677  0.998336  1
  Er  Er11  1  0.177112  0.822893  0.998233  1
  Er  Er12  1  0.666531  0.333461  0.173686  1
  Er  Er13  1  0.333456  0.666510  0.673651  1
  Er  Er14  1  0.999992  0.000044  0.778543  1
  Er  Er15  1  0.999992  0.999998  0.278551  1
  In  In16  1  0.837231  0.674519  0.040036  1
  In  In17  1  0.325451  0.162744  0.039999  1
  In  In18  1  0.837245  0.162720  0.040102  1
  In  In19  1  0.162957  0.325643  0.539963  1
  In  In20  1  0.674395  0.837079  0.540015  1
  In  In21  1  0.162758  0.837271  0.540078  1
  Ru  Ru22  1  0.666703  0.333311  0.568623  1
  Ru  Ru23  1  0.333480  0.666504  0.068767  1
