# generated using pymatgen
data_YHo2In3CoPt2
_symmetry_space_group_name_H-M   'P 1'
_cell_length_a   7.65000400
_cell_length_b   7.67812124
_cell_length_c   3.76368400
_cell_angle_alpha   90.00000000
_cell_angle_beta   90.00000000
_cell_angle_gamma   119.87893596
_symmetry_Int_Tables_number   1
_chemical_formula_structural   YHo2In3CoPt2
_chemical_formula_sum   'Y1 Ho2 In3 Co1 Pt2'
_cell_volume   191.68535154
_cell_formula_units_Z   1
loop_
 _symmetry_equiv_pos_site_id
 _symmetry_equiv_pos_as_xyz
  1  'x, y, z'
loop_
 _atom_site_type_symbol
 _atom_site_label
 _atom_site_symmetry_multiplicity
 _atom_site_fract_x
 _atom_site_fract_y
 _atom_site_fract_z
 _atom_site_occupancy
  Y  Y0  1  0.593958  0.000000  0.500000  1
  Ho  Ho1  1  0.406080  0.406122  0.500000  1
  Ho  Ho2  1  0.999958  0.593878  0.500000  1
  In  In3  1  0.752126  0.751860  0.000000  1
  In  In4  1  0.000266  0.248140  0.000000  1
  In  In5  1  0.247966  0.000000  0.000000  1
  Co  Co6  1  0.001079  0.000000  0.500000  1
  Pt  Pt7  1  0.331207  0.663850  0.000000  1
  Pt  Pt8  1  0.667358  0.336150  0.000000  1
