# generated using pymatgen
data_Pu2GeRh2
_symmetry_space_group_name_H-M   'P 1'
_cell_length_a   5.58356507
_cell_length_b   5.58356491
_cell_length_c   7.76337908
_cell_angle_alpha   102.36921959
_cell_angle_beta   102.36922366
_cell_angle_gamma   58.88424163
_symmetry_Int_Tables_number   1
_chemical_formula_structural   Pu2GeRh2
_chemical_formula_sum   'Pu4 Ge2 Rh4'
_cell_volume   200.84374338
_cell_formula_units_Z   2
loop_
 _symmetry_equiv_pos_site_id
 _symmetry_equiv_pos_as_xyz
  1  'x, y, z'
loop_
 _atom_site_type_symbol
 _atom_site_label
 _atom_site_symmetry_multiplicity
 _atom_site_fract_x
 _atom_site_fract_y
 _atom_site_fract_z
 _atom_site_occupancy
  Pu  Pu0  1  0.290201  0.001824  0.149435  1
  Pu  Pu1  1  0.998175  0.709799  0.350565  1
  Pu  Pu2  1  0.001825  0.290201  0.649436  1
  Pu  Pu3  1  0.709799  0.998176  0.850564  1
  Ge  Ge4  1  0.650727  0.349274  0.250000  1
  Ge  Ge5  1  0.349273  0.650726  0.749999  1
  Rh  Rh6  1  0.763077  0.499781  0.001362  1
  Rh  Rh7  1  0.500218  0.236923  0.498639  1
  Rh  Rh8  1  0.499781  0.763077  0.501361  1
  Rh  Rh9  1  0.236923  0.500219  0.998639  1
