# generated using pymatgen
data_Tb2Ho2Al18ZnIr5
_symmetry_space_group_name_H-M   'P 1'
_cell_length_a   7.59348742
_cell_length_b   7.59212830
_cell_length_c   9.45805518
_cell_angle_alpha   90.04196889
_cell_angle_beta   90.00716060
_cell_angle_gamma   119.54958095
_symmetry_Int_Tables_number   1
_chemical_formula_structural   Tb2Ho2Al18ZnIr5
_chemical_formula_sum   'Tb2 Ho2 Al18 Zn1 Ir5'
_cell_volume   474.34072131
_cell_formula_units_Z   1
loop_
 _symmetry_equiv_pos_site_id
 _symmetry_equiv_pos_as_xyz
  1  'x, y, z'
loop_
 _atom_site_type_symbol
 _atom_site_label
 _atom_site_symmetry_multiplicity
 _atom_site_fract_x
 _atom_site_fract_y
 _atom_site_fract_z
 _atom_site_occupancy
  Tb  Tb0  1  0.674624  0.994989  0.249542  1
  Tb  Tb1  1  0.325376  0.005011  0.750458  1
  Ho  Ho2  1  0.995038  0.674305  0.249804  1
  Ho  Ho3  1  0.004962  0.325695  0.750196  1
  Al  Al4  1  0.134920  0.134760  0.256189  1
  Al  Al5  1  0.865080  0.865240  0.743811  1
  Al  Al6  1  0.001965  0.344496  0.078832  1
  Al  Al7  1  0.998035  0.655504  0.921168  1
  Al  Al8  1  0.000617  0.664496  0.571799  1
  Al  Al9  1  0.334869  0.999027  0.427868  1
  Al  Al10  1  0.999383  0.335504  0.428201  1
  Al  Al11  1  0.665131  0.000973  0.572132  1
  Al  Al12  1  0.656091  0.998306  0.920972  1
  Al  Al13  1  0.343909  0.001694  0.079028  1
  Al  Al14  1  0.332812  0.333030  0.551283  1
  Al  Al15  1  0.667188  0.666970  0.448717  1
  Al  Al16  1  0.658142  0.657867  0.059223  1
  Al  Al17  1  0.341858  0.342133  0.940777  1
  Al  Al18  1  0.338342  0.549986  0.251454  1
  Al  Al19  1  0.661658  0.450014  0.748546  1
  Al  Al20  1  0.550369  0.338970  0.251462  1
  Al  Al21  1  0.449631  0.661030  0.748538  1
  Zn  Zn22  1  0.000000  0.000000  0.000000  1
  Ir  Ir23  1  0.672563  0.328550  0.000003  1
  Ir  Ir24  1  0.327437  0.671450  0.999997  1
  Ir  Ir25  1  0.327880  0.671364  0.500063  1
  Ir  Ir26  1  0.672120  0.328636  0.499937  1
  Ir  Ir27  1  0.000000  0.000000  0.500000  1
