# generated using pymatgen
data_Tb19NdSn13Sb3
_symmetry_space_group_name_H-M   'P 1'
_cell_length_a   8.13002919
_cell_length_b   8.22070813
_cell_length_c   15.52338853
_cell_angle_alpha   89.85980053
_cell_angle_beta   90.84070927
_cell_angle_gamma   90.19561503
_symmetry_Int_Tables_number   1
_chemical_formula_structural   Tb19NdSn13Sb3
_chemical_formula_sum   'Tb19 Nd1 Sn13 Sb3'
_cell_volume   1037.37870635
_cell_formula_units_Z   1
loop_
 _symmetry_equiv_pos_site_id
 _symmetry_equiv_pos_as_xyz
  1  'x, y, z'
loop_
 _atom_site_type_symbol
 _atom_site_label
 _atom_site_symmetry_multiplicity
 _atom_site_fract_x
 _atom_site_fract_y
 _atom_site_fract_z
 _atom_site_occupancy
  Tb  Tb0  1  0.037227  0.171176  0.395802  1
  Tb  Tb1  1  0.370101  0.836539  0.122293  1
  Tb  Tb2  1  0.124666  0.338308  0.619603  1
  Tb  Tb3  1  0.476761  0.678752  0.900662  1
  Tb  Tb4  1  0.870143  0.662470  0.122836  1
  Tb  Tb5  1  0.129740  0.337435  0.877062  1
  Tb  Tb6  1  0.202606  0.500824  0.246821  1
  Tb  Tb7  1  0.703012  0.999118  0.246343  1
  Tb  Tb8  1  0.464890  0.677074  0.604143  1
  Tb  Tb9  1  0.297285  0.001157  0.751363  1
  Tb  Tb10  1  0.623480  0.160378  0.620618  1
  Tb  Tb11  1  0.797408  0.499388  0.753030  1
  Tb  Tb12  1  0.876587  0.660758  0.380506  1
  Tb  Tb13  1  0.022861  0.178701  0.098611  1
  Tb  Tb14  1  0.976659  0.821518  0.900469  1
  Tb  Tb15  1  0.629836  0.162786  0.876977  1
  Tb  Tb16  1  0.523846  0.321823  0.099536  1
  Tb  Tb17  1  0.375912  0.839135  0.379923  1
  Tb  Tb18  1  0.968214  0.827399  0.603789  1
  Nd  Nd19  1  0.529862  0.319775  0.399469  1
  Sn  Sn20  1  0.664958  0.854615  0.749962  1
  Sn  Sn21  1  0.290020  0.036916  0.958566  1
  Sn  Sn22  1  0.836609  0.354609  0.250489  1
  Sn  Sn23  1  0.790351  0.463877  0.958795  1
  Sn  Sn24  1  0.570296  0.622937  0.252885  1
  Sn  Sn25  1  0.209802  0.535726  0.041226  1
  Sn  Sn26  1  0.429787  0.378405  0.747591  1
  Sn  Sn27  1  0.164808  0.645449  0.749744  1
  Sn  Sn28  1  0.930225  0.122175  0.747768  1
  Sn  Sn29  1  0.280699  0.031009  0.543134  1
  Sn  Sn30  1  0.709624  0.963117  0.040996  1
  Sn  Sn31  1  0.333496  0.143464  0.248324  1
  Sn  Sn32  1  0.069531  0.877525  0.252130  1
  Sb  Sb33  1  0.779498  0.475334  0.546951  1
  Sb  Sb34  1  0.722271  0.968927  0.456017  1
  Sb  Sb35  1  0.216930  0.531397  0.455565  1
