# generated using pymatgen
data_Er13Th3(CdCo)4
_symmetry_space_group_name_H-M   'P 1'
_cell_length_a   9.47343569
_cell_length_b   9.48462653
_cell_length_c   9.48404583
_cell_angle_alpha   59.99862568
_cell_angle_beta   59.91664801
_cell_angle_gamma   59.95959063
_symmetry_Int_Tables_number   1
_chemical_formula_structural   Er13Th3(CdCo)4
_chemical_formula_sum   'Er13 Th3 Cd4 Co4'
_cell_volume   601.99783143
_cell_formula_units_Z   1
loop_
 _symmetry_equiv_pos_site_id
 _symmetry_equiv_pos_as_xyz
  1  'x, y, z'
loop_
 _atom_site_type_symbol
 _atom_site_label
 _atom_site_symmetry_multiplicity
 _atom_site_fract_x
 _atom_site_fract_y
 _atom_site_fract_z
 _atom_site_occupancy
  Er  Er0  1  0.201777  0.599433  0.599366  1
  Er  Er1  1  0.063076  0.437806  0.437807  1
  Er  Er2  1  0.437764  0.063102  0.063184  1
  Er  Er3  1  0.437766  0.063141  0.435945  1
  Er  Er4  1  0.063045  0.437810  0.061334  1
  Er  Er5  1  0.437762  0.435951  0.063182  1
  Er  Er6  1  0.063080  0.061312  0.437804  1
  Er  Er7  1  0.186213  0.814195  0.814182  1
  Er  Er8  1  0.814191  0.185840  0.185854  1
  Er  Er9  1  0.814209  0.185832  0.814124  1
  Er  Er10  1  0.186221  0.814180  0.185415  1
  Er  Er11  1  0.814190  0.814115  0.185853  1
  Er  Er12  1  0.186211  0.185413  0.814179  1
  Th  Th13  1  0.592426  0.597022  0.596742  1
  Th  Th14  1  0.592315  0.596893  0.213923  1
  Th  Th15  1  0.592454  0.213781  0.596759  1
  Cd  Cd16  1  0.833852  0.831130  0.831176  1
  Cd  Cd17  1  0.833852  0.831152  0.503860  1
  Cd  Cd18  1  0.833878  0.503826  0.831179  1
  Cd  Cd19  1  0.503070  0.832312  0.832311  1
  Co  Co20  1  0.398090  0.390462  0.390454  1
  Co  Co21  1  0.398069  0.390449  0.821032  1
  Co  Co22  1  0.398098  0.820979  0.390459  1
  Co  Co23  1  0.818387  0.393862  0.393875  1
