# generated using pymatgen
data_Ba10Si17Ni
_symmetry_space_group_name_H-M   'P 1'
_cell_length_a   6.64506962
_cell_length_b   6.64507043
_cell_length_c   17.81011572
_cell_angle_alpha   81.80413241
_cell_angle_beta   81.80413342
_cell_angle_gamma   100.88745931
_symmetry_Int_Tables_number   1
_chemical_formula_structural   Ba10Si17Ni
_chemical_formula_sum   'Ba10 Si17 Ni1'
_cell_volume   752.68630681
_cell_formula_units_Z   1
loop_
 _symmetry_equiv_pos_site_id
 _symmetry_equiv_pos_as_xyz
  1  'x, y, z'
loop_
 _atom_site_type_symbol
 _atom_site_label
 _atom_site_symmetry_multiplicity
 _atom_site_fract_x
 _atom_site_fract_y
 _atom_site_fract_z
 _atom_site_occupancy
  Ba  Ba0  1  0.750651  0.256220  0.999041  1
  Ba  Ba1  1  0.112572  0.578777  0.791610  1
  Ba  Ba2  1  0.285540  0.708683  0.499640  1
  Ba  Ba3  1  0.755490  0.755490  0.648493  1
  Ba  Ba4  1  0.242705  0.242705  0.347618  1
  Ba  Ba5  1  0.578777  0.112572  0.791610  1
  Ba  Ba6  1  0.256220  0.750651  0.999041  1
  Ba  Ba7  1  0.708683  0.285540  0.499640  1
  Ba  Ba8  1  0.423156  0.890058  0.208314  1
  Ba  Ba9  1  0.890058  0.423156  0.208314  1
  Si  Si10  1  0.914401  0.914401  0.258982  1
  Si  Si11  1  0.073767  0.073767  0.736839  1
  Si  Si12  1  0.779884  0.779884  0.931969  1
  Si  Si13  1  0.348090  0.348090  0.646530  1
  Si  Si14  1  0.288107  0.288107  0.944850  1
  Si  Si15  1  0.950628  0.950628  0.125275  1
  Si  Si16  1  0.646324  0.646324  0.355379  1
  Si  Si17  1  0.429717  0.429717  0.138164  1
  Si  Si18  1  0.067009  0.067009  0.870363  1
  Si  Si19  1  0.820340  0.820340  0.450044  1
  Si  Si20  1  0.327199  0.970638  0.643505  1
  Si  Si21  1  0.671211  0.023326  0.355197  1
  Si  Si22  1  0.179959  0.179959  0.549007  1
  Si  Si23  1  0.970638  0.327199  0.643505  1
  Si  Si24  1  0.023326  0.671211  0.355197  1
  Si  Si25  1  0.710517  0.710517  0.069907  1
  Si  Si26  1  0.572843  0.572843  0.856460  1
  Ni  Ni27  1  0.222187  0.222187  0.075508  1
