# generated using pymatgen
data_YEr4In4PdPt
_symmetry_space_group_name_H-M   'P 1'
_cell_length_a   3.61250400
_cell_length_b   8.12107867
_cell_length_c   18.19927501
_cell_angle_alpha   90.07715078
_cell_angle_beta   90.00000000
_cell_angle_gamma   90.00000000
_symmetry_Int_Tables_number   1
_chemical_formula_structural   YEr4In4PdPt
_chemical_formula_sum   'Y2 Er8 In8 Pd2 Pt2'
_cell_volume   533.91945765
_cell_formula_units_Z   2
loop_
 _symmetry_equiv_pos_site_id
 _symmetry_equiv_pos_as_xyz
  1  'x, y, z'
loop_
 _atom_site_type_symbol
 _atom_site_label
 _atom_site_symmetry_multiplicity
 _atom_site_fract_x
 _atom_site_fract_y
 _atom_site_fract_z
 _atom_site_occupancy
  Y  Y0  1  0.000000  0.000000  0.000000  1
  Y  Y1  1  0.000000  0.500000  0.500000  1
  Er  Er2  1  0.000000  0.117495  0.415535  1
  Er  Er3  1  0.000000  0.882505  0.584465  1
  Er  Er4  1  0.000000  0.383066  0.914976  1
  Er  Er5  1  0.000000  0.616934  0.085024  1
  Er  Er6  1  0.000000  0.246932  0.219695  1
  Er  Er7  1  0.000000  0.753068  0.780305  1
  Er  Er8  1  0.000000  0.260703  0.720612  1
  Er  Er9  1  0.000000  0.739297  0.279388  1
  In  In10  1  0.500000  0.421638  0.351337  1
  In  In11  1  0.500000  0.578362  0.648663  1
  In  In12  1  0.500000  0.075177  0.850233  1
  In  In13  1  0.500000  0.924823  0.149767  1
  In  In14  1  0.500000  0.292448  0.066442  1
  In  In15  1  0.500000  0.707552  0.933558  1
  In  In16  1  0.500000  0.206518  0.567281  1
  In  In17  1  0.500000  0.793482  0.432719  1
  Pd  Pd18  1  0.500000  0.025010  0.303853  1
  Pd  Pd19  1  0.500000  0.974990  0.696147  1
  Pt  Pt20  1  0.500000  0.474610  0.803706  1
  Pt  Pt21  1  0.500000  0.525390  0.196294  1
