# generated using pymatgen
data_Sm7Y(Si3Au)4
_symmetry_space_group_name_H-M   'P 1'
_cell_length_a   8.24059200
_cell_length_b   8.26048781
_cell_length_c   8.46336300
_cell_angle_alpha   90.00000000
_cell_angle_beta   90.00000000
_cell_angle_gamma   120.07988926
_symmetry_Int_Tables_number   1
_chemical_formula_structural   Sm7Y(Si3Au)4
_chemical_formula_sum   'Sm7 Y1 Si12 Au4'
_cell_volume   498.52567430
_cell_formula_units_Z   1
loop_
 _symmetry_equiv_pos_site_id
 _symmetry_equiv_pos_as_xyz
  1  'x, y, z'
loop_
 _atom_site_type_symbol
 _atom_site_label
 _atom_site_symmetry_multiplicity
 _atom_site_fract_x
 _atom_site_fract_y
 _atom_site_fract_z
 _atom_site_occupancy
  Sm  Sm0  1  0.000178  0.000089  0.250000  1
  Sm  Sm1  1  0.999737  0.999869  0.750000  1
  Sm  Sm2  1  0.499558  0.500120  0.250000  1
  Sm  Sm3  1  0.499558  0.999438  0.250000  1
  Sm  Sm4  1  0.000267  0.500134  0.250000  1
  Sm  Sm5  1  0.500162  0.499949  0.750000  1
  Sm  Sm6  1  0.500162  0.000213  0.750000  1
  Y  Y7  1  0.000468  0.500235  0.750000  1
  Si  Si8  1  0.164059  0.836698  0.501841  1
  Si  Si9  1  0.164059  0.327363  0.501841  1
  Si  Si10  1  0.670779  0.835390  0.501013  1
  Si  Si11  1  0.835826  0.163355  0.498678  1
  Si  Si12  1  0.835826  0.672470  0.498678  1
  Si  Si13  1  0.329368  0.164683  0.498301  1
  Si  Si14  1  0.835826  0.163355  0.001322  1
  Si  Si15  1  0.835826  0.672470  0.001322  1
  Si  Si16  1  0.329368  0.164683  0.001699  1
  Si  Si17  1  0.164059  0.836698  0.998159  1
  Si  Si18  1  0.164059  0.327363  0.998159  1
  Si  Si19  1  0.670779  0.835390  0.998987  1
  Au  Au20  1  0.330784  0.665392  0.503685  1
  Au  Au21  1  0.669253  0.334626  0.502876  1
  Au  Au22  1  0.669253  0.334626  0.997124  1
  Au  Au23  1  0.330784  0.665392  0.996315  1
