# generated using pymatgen
data_Ba12Dy3Er(Ga4O15)2
_symmetry_space_group_name_H-M   'P 1'
_cell_length_a   6.04031500
_cell_length_b   8.04544753
_cell_length_c   18.67383267
_cell_angle_alpha   91.28495808
_cell_angle_beta   89.99595741
_cell_angle_gamma   89.99863198
_symmetry_Int_Tables_number   1
_chemical_formula_structural   Ba12Dy3Er(Ga4O15)2
_chemical_formula_sum   'Ba12 Dy3 Er1 Ga8 O30'
_cell_volume   907.26473690
_cell_formula_units_Z   1
loop_
 _symmetry_equiv_pos_site_id
 _symmetry_equiv_pos_as_xyz
  1  'x, y, z'
loop_
 _atom_site_type_symbol
 _atom_site_label
 _atom_site_symmetry_multiplicity
 _atom_site_fract_x
 _atom_site_fract_y
 _atom_site_fract_z
 _atom_site_occupancy
  Ba  Ba0  1  0.748082  0.026747  0.089691  1
  Ba  Ba1  1  0.754767  0.498904  0.421189  1
  Ba  Ba2  1  0.245267  0.500679  0.578670  1
  Ba  Ba3  1  0.251918  0.973239  0.910319  1
  Ba  Ba4  1  0.329797  0.499875  0.250113  1
  Ba  Ba5  1  0.754734  0.500829  0.078785  1
  Ba  Ba6  1  0.724795  0.000008  0.750009  1
  Ba  Ba7  1  0.275215  0.000162  0.250127  1
  Ba  Ba8  1  0.245271  0.499194  0.921220  1
  Ba  Ba9  1  0.670128  0.499996  0.750006  1
  Ba  Ba10  1  0.251915  0.026855  0.589564  1
  Ba  Ba11  1  0.748096  0.973530  0.410308  1
  Dy  Dy12  1  0.747165  0.247181  0.910315  1
  Dy  Dy13  1  0.747136  0.752791  0.589660  1
  Dy  Dy14  1  0.252838  0.752849  0.089714  1
  Er  Er15  1  0.253230  0.247480  0.410342  1
  Ga  Ga16  1  0.252234  0.754103  0.441802  1
  Ga  Ga17  1  0.773351  0.770168  0.233317  1
  Ga  Ga18  1  0.773348  0.229936  0.267055  1
  Ga  Ga19  1  0.252172  0.245762  0.058099  1
  Ga  Ga20  1  0.747813  0.754233  0.941898  1
  Ga  Ga21  1  0.226647  0.229836  0.766658  1
  Ga  Ga22  1  0.226629  0.770168  0.733323  1
  Ga  Ga23  1  0.747793  0.245732  0.557648  1
  O  O24  1  0.245003  0.531076  0.409500  1
  O  O25  1  0.508683  0.766019  0.498953  1
  O  O26  1  0.957863  0.275290  0.810538  1
  O  O27  1  0.010967  0.234219  0.992980  1
  O  O28  1  0.800113  0.000197  0.250009  1
  O  O29  1  0.329113  0.687546  0.817109  1
  O  O30  1  0.042584  0.274814  0.311273  1
  O  O31  1  0.547909  0.751344  0.163595  1
  O  O32  1  0.546224  0.248565  0.336709  1
  O  O33  1  0.329151  0.312449  0.682885  1
  O  O34  1  0.491186  0.766078  0.998953  1
  O  O35  1  0.236992  0.954603  0.392230  1
  O  O36  1  0.957822  0.724733  0.689439  1
  O  O37  1  0.452226  0.751357  0.663602  1
  O  O38  1  0.670838  0.687542  0.317100  1
  O  O39  1  0.199835  0.999991  0.750003  1
  O  O40  1  0.763133  0.046847  0.607826  1
  O  O41  1  0.755117  0.467415  0.590550  1
  O  O42  1  0.989018  0.765784  0.007011  1
  O  O43  1  0.755131  0.532250  0.909369  1
  O  O44  1  0.236821  0.046516  0.107973  1
  O  O45  1  0.763174  0.953508  0.892007  1
  O  O46  1  0.508816  0.233931  0.001041  1
  O  O47  1  0.452145  0.248664  0.836390  1
  O  O48  1  0.011065  0.765729  0.506984  1
  O  O49  1  0.671192  0.312383  0.183104  1
  O  O50  1  0.042059  0.724711  0.189452  1
  O  O51  1  0.990297  0.234367  0.492456  1
  O  O52  1  0.244868  0.467746  0.090621  1
  O  O53  1  0.490316  0.234069  0.500505  1
