# generated using pymatgen
data_ScGa4Fe6SnGe
_symmetry_space_group_name_H-M   'P 1'
_cell_length_a   5.04301900
_cell_length_b   5.04302013
_cell_length_c   8.44119500
_cell_angle_alpha   90.00000000
_cell_angle_beta   90.00000000
_cell_angle_gamma   120.00001229
_symmetry_Int_Tables_number   1
_chemical_formula_structural   ScGa4Fe6SnGe
_chemical_formula_sum   'Sc1 Ga4 Fe6 Sn1 Ge1'
_cell_volume   185.91559322
_cell_formula_units_Z   1
loop_
 _symmetry_equiv_pos_site_id
 _symmetry_equiv_pos_as_xyz
  1  'x, y, z'
loop_
 _atom_site_type_symbol
 _atom_site_label
 _atom_site_symmetry_multiplicity
 _atom_site_fract_x
 _atom_site_fract_y
 _atom_site_fract_z
 _atom_site_occupancy
  Sc  Sc0  1  0.000000  0.000000  0.995608  1
  Ga  Ga1  1  0.666667  0.333333  0.999179  1
  Ga  Ga2  1  0.333333  0.666667  0.999179  1
  Ga  Ga3  1  0.666667  0.333333  0.499800  1
  Ga  Ga4  1  0.333333  0.666667  0.499800  1
  Fe  Fe5  1  0.500000  0.500000  0.753168  1
  Fe  Fe6  1  0.500000  0.000000  0.753168  1
  Fe  Fe7  1  0.000000  0.500000  0.753168  1
  Fe  Fe8  1  0.500000  0.500000  0.243322  1
  Fe  Fe9  1  0.500000  0.000000  0.243322  1
  Fe  Fe10  1  0.000000  0.500000  0.243322  1
  Sn  Sn11  1  0.000000  0.000000  0.348424  1
  Ge  Ge12  1  0.000000  0.000000  0.668540  1
