# generated using pymatgen
data_Tm9Al(SiB4)4
_symmetry_space_group_name_H-M   'P 1'
_cell_length_a   7.09908600
_cell_length_b   7.09908600
_cell_length_c   7.83662700
_cell_angle_alpha   90.00000000
_cell_angle_beta   90.00000000
_cell_angle_gamma   90.00000000
_symmetry_Int_Tables_number   1
_chemical_formula_structural   Tm9Al(SiB4)4
_chemical_formula_sum   'Tm9 Al1 Si4 B16'
_cell_volume   394.94266360
_cell_formula_units_Z   1
loop_
 _symmetry_equiv_pos_site_id
 _symmetry_equiv_pos_as_xyz
  1  'x, y, z'
loop_
 _atom_site_type_symbol
 _atom_site_label
 _atom_site_symmetry_multiplicity
 _atom_site_fract_x
 _atom_site_fract_y
 _atom_site_fract_z
 _atom_site_occupancy
  Tm  Tm0  1  0.682038  0.179315  0.227322  1
  Tm  Tm1  1  0.317962  0.820685  0.772678  1
  Tm  Tm2  1  0.317962  0.820685  0.227322  1
  Tm  Tm3  1  0.820685  0.682038  0.227322  1
  Tm  Tm4  1  0.820685  0.682038  0.772678  1
  Tm  Tm5  1  0.682038  0.179315  0.772678  1
  Tm  Tm6  1  0.179315  0.317962  0.772678  1
  Tm  Tm7  1  0.179315  0.317962  0.227322  1
  Tm  Tm8  1  0.500000  0.500000  0.500000  1
  Al  Al9  1  0.000000  0.000000  0.500000  1
  Si  Si10  1  0.114565  0.621441  0.500000  1
  Si  Si11  1  0.885435  0.378559  0.500000  1
  Si  Si12  1  0.378559  0.114565  0.500000  1
  Si  Si13  1  0.621441  0.885435  0.500000  1
  B  B14  1  0.174846  0.039742  0.000000  1
  B  B15  1  0.825154  0.960258  0.000000  1
  B  B16  1  0.960258  0.174846  0.000000  1
  B  B17  1  0.326774  0.539492  0.000000  1
  B  B18  1  0.039742  0.825154  0.000000  1
  B  B19  1  0.673226  0.460508  0.000000  1
  B  B20  1  0.539492  0.673226  0.000000  1
  B  B21  1  0.460508  0.326774  0.000000  1
  B  B22  1  0.089559  0.588220  0.000000  1
  B  B23  1  0.910441  0.411780  0.000000  1
  B  B24  1  0.411780  0.089559  0.000000  1
  B  B25  1  0.588220  0.910441  0.000000  1
  B  B26  1  0.000000  0.000000  0.165128  1
  B  B27  1  0.000000  0.000000  0.834872  1
  B  B28  1  0.500000  0.500000  0.832842  1
  B  B29  1  0.500000  0.500000  0.167158  1
