# generated using pymatgen
data_Lu6Fe4Si5Sb
_symmetry_space_group_name_H-M   'P 1'
_cell_length_a   5.55973199
_cell_length_b   5.55973047
_cell_length_c   13.48572100
_cell_angle_alpha   90.00000000
_cell_angle_beta   90.00000000
_cell_angle_gamma   136.77979917
_symmetry_Int_Tables_number   1
_chemical_formula_structural   Lu6Fe4Si5Sb
_chemical_formula_sum   'Lu6 Fe4 Si5 Sb1'
_cell_volume   285.46186725
_cell_formula_units_Z   1
loop_
 _symmetry_equiv_pos_site_id
 _symmetry_equiv_pos_as_xyz
  1  'x, y, z'
loop_
 _atom_site_type_symbol
 _atom_site_label
 _atom_site_symmetry_multiplicity
 _atom_site_fract_x
 _atom_site_fract_y
 _atom_site_fract_z
 _atom_site_occupancy
  Lu  Lu0  1  0.632242  0.367758  0.250000  1
  Lu  Lu1  1  0.361932  0.638068  0.750000  1
  Lu  Lu2  1  0.925149  0.074851  0.100633  1
  Lu  Lu3  1  0.081955  0.918045  0.885549  1
  Lu  Lu4  1  0.081955  0.918045  0.614451  1
  Lu  Lu5  1  0.925149  0.074851  0.399367  1
  Fe  Fe6  1  0.786399  0.213601  0.582548  1
  Fe  Fe7  1  0.208078  0.791922  0.426092  1
  Fe  Fe8  1  0.208078  0.791922  0.073908  1
  Fe  Fe9  1  0.786399  0.213601  0.917452  1
  Si  Si10  1  0.672816  0.327184  0.750000  1
  Si  Si11  1  0.621214  0.378786  0.037390  1
  Si  Si12  1  0.375834  0.624166  0.956768  1
  Si  Si13  1  0.375834  0.624166  0.543232  1
  Si  Si14  1  0.621214  0.378786  0.462610  1
  Sb  Sb15  1  0.335749  0.664251  0.250000  1
