# generated using pymatgen
data_LiErP6Pd20Pb
_symmetry_space_group_name_H-M   'P 1'
_cell_length_a   8.64248402
_cell_length_b   8.63676436
_cell_length_c   8.63819504
_cell_angle_alpha   59.98574121
_cell_angle_beta   60.01988766
_cell_angle_gamma   60.00687466
_symmetry_Int_Tables_number   1
_chemical_formula_structural   LiErP6Pd20Pb
_chemical_formula_sum   'Li1 Er1 P6 Pd20 Pb1'
_cell_volume   455.97246860
_cell_formula_units_Z   1
loop_
 _symmetry_equiv_pos_site_id
 _symmetry_equiv_pos_as_xyz
  1  'x, y, z'
loop_
 _atom_site_type_symbol
 _atom_site_label
 _atom_site_symmetry_multiplicity
 _atom_site_fract_x
 _atom_site_fract_y
 _atom_site_fract_z
 _atom_site_occupancy
  Li  Li0  1  0.000032  0.000010  0.999966  1
  Er  Er1  1  0.250002  0.250022  0.250013  1
  P  P2  1  0.738876  0.261150  0.261150  1
  P  P3  1  0.738881  0.738819  0.261157  1
  P  P4  1  0.738886  0.261156  0.738811  1
  P  P5  1  0.261139  0.738841  0.261169  1
  P  P6  1  0.261160  0.738834  0.738820  1
  P  P7  1  0.261154  0.261188  0.738816  1
  Pd  Pd8  1  0.340966  0.003023  0.002990  1
  Pd  Pd9  1  0.003042  0.653037  0.340887  1
  Pd  Pd10  1  0.340993  0.003006  0.653000  1
  Pd  Pd11  1  0.003016  0.653035  0.002994  1
  Pd  Pd12  1  0.653065  0.340944  0.002988  1
  Pd  Pd13  1  0.615515  0.615540  0.153432  1
  Pd  Pd14  1  0.384575  0.846350  0.384517  1
  Pd  Pd15  1  0.153351  0.615564  0.615521  1
  Pd  Pd16  1  0.653032  0.002999  0.340946  1
  Pd  Pd17  1  0.003039  0.340917  0.653026  1
  Pd  Pd18  1  0.653041  0.003007  0.003011  1
  Pd  Pd19  1  0.003025  0.003006  0.340946  1
  Pd  Pd20  1  0.615554  0.153400  0.615531  1
  Pd  Pd21  1  0.340967  0.653032  0.002983  1
  Pd  Pd22  1  0.384541  0.384545  0.384548  1
  Pd  Pd23  1  0.615572  0.615533  0.615519  1
  Pd  Pd24  1  0.384570  0.384528  0.846328  1
  Pd  Pd25  1  0.003031  0.002996  0.653003  1
  Pd  Pd26  1  0.846354  0.384558  0.384548  1
  Pd  Pd27  1  0.003028  0.340961  0.002976  1
  Pb  Pb28  1  0.749591  0.749997  0.750404  1
