# generated using pymatgen
data_Er2LuZn4CdPt4
_symmetry_space_group_name_H-M   'P 1'
_cell_length_a   4.19716500
_cell_length_b   6.77730046
_cell_length_c   7.99725569
_cell_angle_alpha   91.55622115
_cell_angle_beta   90.00000000
_cell_angle_gamma   90.00000000
_symmetry_Int_Tables_number   1
_chemical_formula_structural   Er2LuZn4CdPt4
_chemical_formula_sum   'Er2 Lu1 Zn4 Cd1 Pt4'
_cell_volume   227.40161707
_cell_formula_units_Z   1
loop_
 _symmetry_equiv_pos_site_id
 _symmetry_equiv_pos_as_xyz
  1  'x, y, z'
loop_
 _atom_site_type_symbol
 _atom_site_label
 _atom_site_symmetry_multiplicity
 _atom_site_fract_x
 _atom_site_fract_y
 _atom_site_fract_z
 _atom_site_occupancy
  Er  Er0  1  0.750000  0.466291  0.831624  1
  Er  Er1  1  0.250000  0.035092  0.313789  1
  Lu  Lu2  1  0.750000  0.961408  0.679121  1
  Zn  Zn3  1  0.250000  0.639818  0.553639  1
  Zn  Zn4  1  0.750000  0.364406  0.442318  1
  Zn  Zn5  1  0.750000  0.856375  0.058370  1
  Zn  Zn6  1  0.250000  0.141105  0.941118  1
  Cd  Cd7  1  0.250000  0.535128  0.179461  1
  Pt  Pt8  1  0.250000  0.758706  0.869572  1
  Pt  Pt9  1  0.750000  0.239658  0.127150  1
  Pt  Pt10  1  0.750000  0.745947  0.374118  1
  Pt  Pt11  1  0.250000  0.256067  0.629722  1
