# generated using pymatgen
data_Y6Al24IrRu7
_symmetry_space_group_name_H-M   'P 1'
_cell_length_a   8.83682625
_cell_length_b   8.83682570
_cell_length_c   9.60282724
_cell_angle_alpha   89.87556596
_cell_angle_beta   90.12443272
_cell_angle_gamma   119.99632320
_symmetry_Int_Tables_number   1
_chemical_formula_structural   Y6Al24IrRu7
_chemical_formula_sum   'Y6 Al24 Ir1 Ru7'
_cell_volume   649.43707265
_cell_formula_units_Z   1
loop_
 _symmetry_equiv_pos_site_id
 _symmetry_equiv_pos_as_xyz
  1  'x, y, z'
loop_
 _atom_site_type_symbol
 _atom_site_label
 _atom_site_symmetry_multiplicity
 _atom_site_fract_x
 _atom_site_fract_y
 _atom_site_fract_z
 _atom_site_occupancy
  Y  Y0  1  0.806438  0.193562  0.750585  1
  Y  Y1  1  0.193562  0.806438  0.249415  1
  Y  Y2  1  0.385752  0.192558  0.750113  1
  Y  Y3  1  0.614248  0.807442  0.249887  1
  Y  Y4  1  0.807442  0.614248  0.750113  1
  Y  Y5  1  0.192558  0.385752  0.249887  1
  Al  Al6  1  0.667430  0.332570  0.981714  1
  Al  Al7  1  0.332570  0.667430  0.018286  1
  Al  Al8  1  0.333287  0.666713  0.482734  1
  Al  Al9  1  0.666713  0.333287  0.517266  1
  Al  Al10  1  0.837525  0.162475  0.422591  1
  Al  Al11  1  0.162475  0.837525  0.577409  1
  Al  Al12  1  0.324508  0.162395  0.422172  1
  Al  Al13  1  0.162348  0.837652  0.922530  1
  Al  Al14  1  0.675492  0.837605  0.577828  1
  Al  Al15  1  0.837652  0.162348  0.077470  1
  Al  Al16  1  0.837605  0.675492  0.422172  1
  Al  Al17  1  0.675146  0.838418  0.923277  1
  Al  Al18  1  0.162395  0.324508  0.577828  1
  Al  Al19  1  0.324854  0.161582  0.076723  1
  Al  Al20  1  0.161582  0.324854  0.923277  1
  Al  Al21  1  0.838418  0.675146  0.076723  1
  Al  Al22  1  0.438526  0.561474  0.749295  1
  Al  Al23  1  0.561474  0.438526  0.250705  1
  Al  Al24  1  0.122302  0.561003  0.750522  1
  Al  Al25  1  0.877698  0.438997  0.249478  1
  Al  Al26  1  0.438997  0.877698  0.750522  1
  Al  Al27  1  0.561003  0.122302  0.249478  1
  Al  Al28  1  0.999846  0.000154  0.750061  1
  Al  Al29  1  0.000154  0.999846  0.249939  1
  Ir  Ir30  1  0.500000  0.500000  0.000000  1
  Ru  Ru31  1  0.000000  0.500000  0.000000  1
  Ru  Ru32  1  0.500000  0.500000  0.500000  1
  Ru  Ru33  1  0.500000  0.000000  0.000000  1
  Ru  Ru34  1  0.000000  0.500000  0.500000  1
  Ru  Ru35  1  0.500000  0.000000  0.500000  1
  Ru  Ru36  1  0.000000  0.000000  0.000000  1
  Ru  Ru37  1  0.000000  0.000000  0.500000  1
