# generated using pymatgen
data_La3Dy6ThSn8
_symmetry_space_group_name_H-M   'P 1'
_cell_length_a   8.19947700
_cell_length_b   8.32431580
_cell_length_c   15.69597900
_cell_angle_alpha   90.12498055
_cell_angle_beta   90.00000000
_cell_angle_gamma   90.00000000
_symmetry_Int_Tables_number   1
_chemical_formula_structural   La3Dy6ThSn8
_chemical_formula_sum   'La6 Dy12 Th2 Sn16'
_cell_volume   1071.32706257
_cell_formula_units_Z   2
loop_
 _symmetry_equiv_pos_site_id
 _symmetry_equiv_pos_as_xyz
  1  'x, y, z'
loop_
 _atom_site_type_symbol
 _atom_site_label
 _atom_site_symmetry_multiplicity
 _atom_site_fract_x
 _atom_site_fract_y
 _atom_site_fract_z
 _atom_site_occupancy
  La  La0  1  0.517379  0.320458  0.903200  1
  La  La1  1  0.017379  0.179542  0.596800  1
  La  La2  1  0.483580  0.678575  0.403552  1
  La  La3  1  0.983580  0.821425  0.096448  1
  La  La4  1  0.484328  0.678969  0.096203  1
  La  La5  1  0.984328  0.821031  0.403797  1
  Dy  Dy6  1  0.361603  0.836362  0.876465  1
  Dy  Dy7  1  0.861603  0.663638  0.623535  1
  Dy  Dy8  1  0.637212  0.163572  0.377129  1
  Dy  Dy9  1  0.137212  0.336428  0.122871  1
  Dy  Dy10  1  0.638537  0.162568  0.122529  1
  Dy  Dy11  1  0.138537  0.337432  0.377471  1
  Dy  Dy12  1  0.361612  0.836713  0.623498  1
  Dy  Dy13  1  0.861612  0.663287  0.876502  1
  Dy  Dy14  1  0.193428  0.501613  0.750400  1
  Dy  Dy15  1  0.693428  0.998387  0.749600  1
  Dy  Dy16  1  0.805257  0.497565  0.250458  1
  Dy  Dy17  1  0.305257  0.002435  0.249542  1
  Th  Th18  1  0.517242  0.320685  0.597718  1
  Th  Th19  1  0.017242  0.179315  0.902282  1
  Sn  Sn20  1  0.298446  0.042519  0.040420  1
  Sn  Sn21  1  0.798446  0.457481  0.459580  1
  Sn  Sn22  1  0.696282  0.962749  0.544161  1
  Sn  Sn23  1  0.196282  0.537251  0.955839  1
  Sn  Sn24  1  0.701386  0.962119  0.955635  1
  Sn  Sn25  1  0.201386  0.537881  0.544365  1
  Sn  Sn26  1  0.304086  0.043180  0.458719  1
  Sn  Sn27  1  0.804086  0.456820  0.041281  1
  Sn  Sn28  1  0.559363  0.623305  0.748365  1
  Sn  Sn29  1  0.059363  0.876695  0.751635  1
  Sn  Sn30  1  0.439478  0.375147  0.249497  1
  Sn  Sn31  1  0.939478  0.124853  0.250503  1
  Sn  Sn32  1  0.324573  0.142652  0.749689  1
  Sn  Sn33  1  0.824573  0.357348  0.750311  1
  Sn  Sn34  1  0.676209  0.858715  0.250034  1
  Sn  Sn35  1  0.176209  0.641285  0.249966  1
