# generated using pymatgen
data_HoZr7(Si4W3)4
_symmetry_space_group_name_H-M   'P 1'
_cell_length_a   6.63888347
_cell_length_b   6.79597275
_cell_length_c   12.73691926
_cell_angle_alpha   89.92534339
_cell_angle_beta   90.02420213
_cell_angle_gamma   89.99812925
_symmetry_Int_Tables_number   1
_chemical_formula_structural   HoZr7(Si4W3)4
_chemical_formula_sum   'Ho1 Zr7 Si16 W12'
_cell_volume   574.65959571
_cell_formula_units_Z   1
loop_
 _symmetry_equiv_pos_site_id
 _symmetry_equiv_pos_as_xyz
  1  'x, y, z'
loop_
 _atom_site_type_symbol
 _atom_site_label
 _atom_site_symmetry_multiplicity
 _atom_site_fract_x
 _atom_site_fract_y
 _atom_site_fract_z
 _atom_site_occupancy
  Ho  Ho0  1  0.996349  0.831143  0.590959  1
  Zr  Zr1  1  0.496223  0.670702  0.591809  1
  Zr  Zr2  1  0.995085  0.827875  0.907937  1
  Zr  Zr3  1  0.505777  0.327538  0.092332  1
  Zr  Zr4  1  0.005910  0.174088  0.405378  1
  Zr  Zr5  1  0.506154  0.328845  0.406847  1
  Zr  Zr6  1  0.005484  0.171586  0.092720  1
  Zr  Zr7  1  0.494097  0.671658  0.909255  1
  Si  Si8  1  0.666001  0.959832  0.455691  1
  Si  Si9  1  0.167000  0.541458  0.043359  1
  Si  Si10  1  0.332201  0.041842  0.957773  1
  Si  Si11  1  0.832185  0.456033  0.542425  1
  Si  Si12  1  0.336726  0.043482  0.542153  1
  Si  Si13  1  0.832658  0.458439  0.957779  1
  Si  Si14  1  0.667235  0.958354  0.042959  1
  Si  Si15  1  0.167844  0.539272  0.455446  1
  Si  Si16  1  0.465390  0.379661  0.750562  1
  Si  Si17  1  0.965046  0.122993  0.751316  1
  Si  Si18  1  0.533633  0.619363  0.249176  1
  Si  Si19  1  0.034119  0.878820  0.250597  1
  Si  Si20  1  0.696828  0.858197  0.751052  1
  Si  Si21  1  0.200808  0.640146  0.751312  1
  Si  Si22  1  0.301147  0.140114  0.249489  1
  Si  Si23  1  0.799935  0.359434  0.249419  1
  W  W24  1  0.664799  0.164911  0.625162  1
  W  W25  1  0.168011  0.337485  0.876544  1
  W  W26  1  0.331944  0.836242  0.124175  1
  W  W27  1  0.830407  0.662290  0.374598  1
  W  W28  1  0.334744  0.835676  0.375225  1
  W  W29  1  0.832326  0.663899  0.124252  1
  W  W30  1  0.665970  0.164165  0.876509  1
  W  W31  1  0.167361  0.336674  0.624520  1
  W  W32  1  0.833820  0.505287  0.751332  1
  W  W33  1  0.333881  0.993915  0.751230  1
  W  W34  1  0.166261  0.490589  0.249838  1
  W  W35  1  0.666642  0.007990  0.248866  1
