# generated using pymatgen
data_K4Zr(SeS)2
_symmetry_space_group_name_H-M   'P 1'
_cell_length_a   8.19948600
_cell_length_b   10.20600200
_cell_length_c   14.77629100
_cell_angle_alpha   90.00000000
_cell_angle_beta   90.00000000
_cell_angle_gamma   90.00000000
_symmetry_Int_Tables_number   1
_chemical_formula_structural   K4Zr(SeS)2
_chemical_formula_sum   'K16 Zr4 Se8 S8'
_cell_volume   1236.53870036
_cell_formula_units_Z   4
loop_
 _symmetry_equiv_pos_site_id
 _symmetry_equiv_pos_as_xyz
  1  'x, y, z'
loop_
 _atom_site_type_symbol
 _atom_site_label
 _atom_site_symmetry_multiplicity
 _atom_site_fract_x
 _atom_site_fract_y
 _atom_site_fract_z
 _atom_site_occupancy
  K  K0  1  0.500000  0.500000  0.500000  1
  K  K1  1  0.149218  0.448885  0.275429  1
  K  K2  1  0.149218  0.051115  0.275429  1
  K  K3  1  0.997031  0.750000  0.435684  1
  K  K4  1  0.002969  0.250000  0.564316  1
  K  K5  1  0.649218  0.948885  0.224571  1
  K  K6  1  0.350782  0.051115  0.775429  1
  K  K7  1  0.850782  0.948885  0.724571  1
  K  K8  1  0.350782  0.448885  0.775429  1
  K  K9  1  0.000000  0.500000  0.000000  1
  K  K10  1  0.497031  0.250000  0.064316  1
  K  K11  1  0.649218  0.551115  0.224571  1
  K  K12  1  0.502969  0.750000  0.935684  1
  K  K13  1  0.000000  0.000000  0.000000  1
  K  K14  1  0.850782  0.551115  0.724571  1
  K  K15  1  0.500000  0.000000  0.500000  1
  Zr  Zr16  1  0.747722  0.250000  0.835324  1
  Zr  Zr17  1  0.752278  0.250000  0.335324  1
  Zr  Zr18  1  0.247722  0.750000  0.664676  1
  Zr  Zr19  1  0.252278  0.750000  0.164676  1
  Se  Se20  1  0.559189  0.750000  0.667445  1
  Se  Se21  1  0.440811  0.250000  0.332555  1
  Se  Se22  1  0.368163  0.750000  0.326569  1
  Se  Se23  1  0.131837  0.750000  0.826569  1
  Se  Se24  1  0.059189  0.250000  0.832555  1
  Se  Se25  1  0.940811  0.750000  0.167445  1
  Se  Se26  1  0.631837  0.250000  0.673431  1
  Se  Se27  1  0.868163  0.250000  0.173431  1
  S  S28  1  0.844188  0.447070  0.407932  1
  S  S29  1  0.655812  0.052930  0.907932  1
  S  S30  1  0.344188  0.947070  0.092068  1
  S  S31  1  0.344188  0.552930  0.092068  1
  S  S32  1  0.155812  0.552930  0.592068  1
  S  S33  1  0.844188  0.052930  0.407932  1
  S  S34  1  0.155812  0.947070  0.592068  1
  S  S35  1  0.655812  0.447070  0.907932  1
