# generated using pymatgen
data_Tm4Sc2MnSb2
_symmetry_space_group_name_H-M   'P 1'
_cell_length_a   7.86684700
_cell_length_b   7.86399393
_cell_length_c   4.18393400
_cell_angle_alpha   90.00000000
_cell_angle_beta   90.00000000
_cell_angle_gamma   120.01199789
_symmetry_Int_Tables_number   1
_chemical_formula_structural   Tm4Sc2MnSb2
_chemical_formula_sum   'Tm4 Sc2 Mn1 Sb2'
_cell_volume   224.13352009
_cell_formula_units_Z   1
loop_
 _symmetry_equiv_pos_site_id
 _symmetry_equiv_pos_as_xyz
  1  'x, y, z'
loop_
 _atom_site_type_symbol
 _atom_site_label
 _atom_site_symmetry_multiplicity
 _atom_site_fract_x
 _atom_site_fract_y
 _atom_site_fract_z
 _atom_site_occupancy
  Tm  Tm0  1  0.387989  0.000000  0.000000  1
  Tm  Tm1  1  0.002693  0.395828  0.000000  1
  Tm  Tm2  1  0.606866  0.604172  0.000000  1
  Tm  Tm3  1  0.767457  0.000000  0.500000  1
  Sc  Sc4  1  0.231667  0.229853  0.500000  1
  Sc  Sc5  1  0.001815  0.770147  0.500000  1
  Mn  Mn6  1  0.007682  0.000000  0.000000  1
  Sb  Sb7  1  0.665689  0.337550  0.500000  1
  Sb  Sb8  1  0.328138  0.662449  0.500000  1
