# generated using pymatgen
data_Os3Ru(RhW)2
_symmetry_space_group_name_H-M   'P 1'
_cell_length_a   5.53899236
_cell_length_b   5.55488975
_cell_length_c   4.39374700
_cell_angle_alpha   90.00000000
_cell_angle_beta   90.00000000
_cell_angle_gamma   119.98947268
_symmetry_Int_Tables_number   1
_chemical_formula_structural   Os3Ru(RhW)2
_chemical_formula_sum   'Os3 Ru1 Rh2 W2'
_cell_volume   117.08949894
_cell_formula_units_Z   1
loop_
 _symmetry_equiv_pos_site_id
 _symmetry_equiv_pos_as_xyz
  1  'x, y, z'
loop_
 _atom_site_type_symbol
 _atom_site_label
 _atom_site_symmetry_multiplicity
 _atom_site_fract_x
 _atom_site_fract_y
 _atom_site_fract_z
 _atom_site_occupancy
  Os  Os0  1  0.168959  0.333065  0.250000  1
  Os  Os1  1  0.666508  0.827202  0.250000  1
  Os  Os2  1  0.833368  0.666229  0.750000  1
  Ru  Ru3  1  0.838050  0.172925  0.750000  1
  Rh  Rh4  1  0.166440  0.837285  0.250000  1
  Rh  Rh5  1  0.329334  0.164730  0.750000  1
  W  W6  1  0.331507  0.663849  0.750000  1
  W  W7  1  0.665834  0.334715  0.250000  1
