# generated using pymatgen
data_Dy5Er2P12Ir17
_symmetry_space_group_name_H-M   'P 1'
_cell_length_a   12.72044800
_cell_length_b   13.00988936
_cell_length_c   3.98656300
_cell_angle_alpha   90.00000000
_cell_angle_beta   90.00000000
_cell_angle_gamma   119.26673776
_symmetry_Int_Tables_number   1
_chemical_formula_structural   Dy5Er2P12Ir17
_chemical_formula_sum   'Dy5 Er2 P12 Ir17'
_cell_volume   575.52873912
_cell_formula_units_Z   1
loop_
 _symmetry_equiv_pos_site_id
 _symmetry_equiv_pos_as_xyz
  1  'x, y, z'
loop_
 _atom_site_type_symbol
 _atom_site_label
 _atom_site_symmetry_multiplicity
 _atom_site_fract_x
 _atom_site_fract_y
 _atom_site_fract_z
 _atom_site_occupancy
  Dy  Dy0  1  0.329808  0.661967  0.500000  1
  Dy  Dy1  1  0.667841  0.338033  0.500000  1
  Dy  Dy2  1  0.002545  0.816595  0.000000  1
  Dy  Dy3  1  0.185950  0.183405  0.000000  1
  Dy  Dy4  1  0.810806  0.000000  0.000000  1
  Er  Er5  1  0.995984  0.443816  0.500000  1
  Er  Er6  1  0.552168  0.556184  0.500000  1
  P  P7  1  0.009878  0.658285  0.500000  1
  P  P8  1  0.351593  0.341715  0.500000  1
  P  P9  1  0.644131  0.000000  0.500000  1
  P  P10  1  0.516413  0.690836  0.000000  1
  P  P11  1  0.309085  0.824420  0.000000  1
  P  P12  1  0.166905  0.480473  0.000000  1
  P  P13  1  0.484664  0.175580  0.000000  1
  P  P14  1  0.686433  0.519527  0.000000  1
  P  P15  1  0.825577  0.309164  0.000000  1
  P  P16  1  0.999399  0.174731  0.500000  1
  P  P17  1  0.824668  0.825269  0.500000  1
  P  P18  1  0.181787  0.000000  0.500000  1
  Ir  Ir19  1  0.504224  0.865947  0.000000  1
  Ir  Ir20  1  0.121867  0.645670  0.000000  1
  Ir  Ir21  1  0.357668  0.501571  0.000000  1
  Ir  Ir22  1  0.476198  0.354330  0.000000  1
  Ir  Ir23  1  0.856098  0.498429  0.000000  1
  Ir  Ir24  1  0.638277  0.134053  0.000000  1
  Ir  Ir25  1  0.465164  0.000000  0.500000  1
  Ir  Ir26  1  0.996445  0.271971  0.000000  1
  Ir  Ir27  1  0.724473  0.728029  0.000000  1
  Ir  Ir28  1  0.287220  0.000000  0.000000  1
  Ir  Ir29  1  0.623983  0.810778  0.500000  1
  Ir  Ir30  1  0.208849  0.828667  0.500000  1
  Ir  Ir31  1  0.180673  0.364306  0.500000  1
  Ir  Ir32  1  0.380183  0.171333  0.500000  1
  Ir  Ir33  1  0.816366  0.635694  0.500000  1
  Ir  Ir34  1  0.813204  0.189222  0.500000  1
  Ir  Ir35  1  0.003474  0.000000  0.500000  1
