# generated using pymatgen
data_Tb16Sc4Ir11Pt
_symmetry_space_group_name_H-M   'P 1'
_cell_length_a   10.84531262
_cell_length_b   10.84531262
_cell_length_c   6.28367857
_cell_angle_alpha   90.03461680
_cell_angle_beta   90.03461680
_cell_angle_gamma   89.88861859
_symmetry_Int_Tables_number   1
_chemical_formula_structural   Tb16Sc4Ir11Pt
_chemical_formula_sum   'Tb16 Sc4 Ir11 Pt1'
_cell_volume   739.08967109
_cell_formula_units_Z   1
loop_
 _symmetry_equiv_pos_site_id
 _symmetry_equiv_pos_as_xyz
  1  'x, y, z'
loop_
 _atom_site_type_symbol
 _atom_site_label
 _atom_site_symmetry_multiplicity
 _atom_site_fract_x
 _atom_site_fract_y
 _atom_site_fract_z
 _atom_site_occupancy
  Tb  Tb0  1  0.287209  0.086248  0.378508  1
  Tb  Tb1  1  0.287703  0.913542  0.877883  1
  Tb  Tb2  1  0.710662  0.085267  0.874900  1
  Tb  Tb3  1  0.711426  0.911136  0.379308  1
  Tb  Tb4  1  0.586040  0.787164  0.878979  1
  Tb  Tb5  1  0.583691  0.213264  0.379131  1
  Tb  Tb6  1  0.413549  0.787315  0.378404  1
  Tb  Tb7  1  0.413541  0.212796  0.878590  1
  Tb  Tb8  1  0.212836  0.413960  0.621021  1
  Tb  Tb9  1  0.212685  0.586451  0.121596  1
  Tb  Tb10  1  0.786736  0.416309  0.120869  1
  Tb  Tb11  1  0.787204  0.586459  0.621410  1
  Tb  Tb12  1  0.913752  0.712791  0.121492  1
  Tb  Tb13  1  0.914733  0.289338  0.625100  1
  Tb  Tb14  1  0.086458  0.712297  0.622117  1
  Tb  Tb15  1  0.088864  0.288574  0.120692  1
  Sc  Sc16  1  0.001957  0.997896  0.502434  1
  Sc  Sc17  1  0.002104  0.998043  0.997566  1
  Sc  Sc18  1  0.499785  0.500129  0.999833  1
  Sc  Sc19  1  0.499871  0.500215  0.500167  1
  Ir  Ir20  1  0.853434  0.854311  0.750010  1
  Ir  Ir21  1  0.145689  0.146566  0.749990  1
  Ir  Ir22  1  0.146332  0.853668  0.250000  1
  Ir  Ir23  1  0.647254  0.352746  0.750000  1
  Ir  Ir24  1  0.646683  0.646813  0.250186  1
  Ir  Ir25  1  0.353187  0.353317  0.249814  1
  Ir  Ir26  1  0.353192  0.646808  0.750000  1
  Ir  Ir27  1  0.500478  0.000147  0.123100  1
  Ir  Ir28  1  0.500239  0.000186  0.622192  1
  Ir  Ir29  1  0.999814  0.499761  0.877808  1
  Ir  Ir30  1  0.999853  0.499522  0.376900  1
  Pt  Pt31  1  0.853037  0.146963  0.250000  1
