# generated using pymatgen
data_TbIn2Pd3
_symmetry_space_group_name_H-M   'P 1'
_cell_length_a   4.63369700
_cell_length_b   9.84799100
_cell_length_c   10.36541300
_cell_angle_alpha   90.00000000
_cell_angle_beta   90.00000000
_cell_angle_gamma   90.00000000
_symmetry_Int_Tables_number   1
_chemical_formula_structural   TbIn2Pd3
_chemical_formula_sum   'Tb4 In8 Pd12'
_cell_volume   473.00081111
_cell_formula_units_Z   4
loop_
 _symmetry_equiv_pos_site_id
 _symmetry_equiv_pos_as_xyz
  1  'x, y, z'
loop_
 _atom_site_type_symbol
 _atom_site_label
 _atom_site_symmetry_multiplicity
 _atom_site_fract_x
 _atom_site_fract_y
 _atom_site_fract_z
 _atom_site_occupancy
  Tb  Tb0  1  0.250000  0.445655  0.724759  1
  Tb  Tb1  1  0.250000  0.054345  0.224759  1
  Tb  Tb2  1  0.750000  0.554345  0.275241  1
  Tb  Tb3  1  0.750000  0.945655  0.775241  1
  In  In4  1  0.250000  0.886246  0.513809  1
  In  In5  1  0.250000  0.613754  0.013809  1
  In  In6  1  0.750000  0.113754  0.486191  1
  In  In7  1  0.750000  0.386246  0.986191  1
  In  In8  1  0.250000  0.163132  0.894576  1
  In  In9  1  0.250000  0.336868  0.394576  1
  In  In10  1  0.750000  0.836868  0.105424  1
  In  In11  1  0.750000  0.663132  0.605424  1
  Pd  Pd12  1  0.250000  0.143794  0.624303  1
  Pd  Pd13  1  0.250000  0.356206  0.124303  1
  Pd  Pd14  1  0.750000  0.856206  0.375697  1
  Pd  Pd15  1  0.750000  0.643794  0.875697  1
  Pd  Pd16  1  0.250000  0.743843  0.740720  1
  Pd  Pd17  1  0.250000  0.756157  0.240720  1
  Pd  Pd18  1  0.750000  0.256157  0.259280  1
  Pd  Pd19  1  0.750000  0.243843  0.759280  1
  Pd  Pd20  1  0.250000  0.896513  0.973336  1
  Pd  Pd21  1  0.250000  0.603487  0.473336  1
  Pd  Pd22  1  0.750000  0.103487  0.026664  1
  Pd  Pd23  1  0.750000  0.396513  0.526664  1
