# generated using pymatgen
data_La4Gd8CoTc3
_symmetry_space_group_name_H-M   'P 1'
_cell_length_a   6.51366600
_cell_length_b   7.35212928
_cell_length_c   9.48489400
_cell_angle_alpha   90.00000000
_cell_angle_beta   90.00000000
_cell_angle_gamma   89.68334190
_symmetry_Int_Tables_number   1
_chemical_formula_structural   La4Gd8CoTc3
_chemical_formula_sum   'La4 Gd8 Co1 Tc3'
_cell_volume   454.21813512
_cell_formula_units_Z   1
loop_
 _symmetry_equiv_pos_site_id
 _symmetry_equiv_pos_as_xyz
  1  'x, y, z'
loop_
 _atom_site_type_symbol
 _atom_site_label
 _atom_site_symmetry_multiplicity
 _atom_site_fract_x
 _atom_site_fract_y
 _atom_site_fract_z
 _atom_site_occupancy
  La  La0  1  0.871131  0.552619  0.250000  1
  La  La1  1  0.624005  0.052327  0.250000  1
  La  La2  1  0.136236  0.446578  0.750000  1
  La  La3  1  0.377321  0.939006  0.750000  1
  Gd  Gd4  1  0.329240  0.671791  0.067864  1
  Gd  Gd5  1  0.164030  0.173077  0.435840  1
  Gd  Gd6  1  0.664849  0.332200  0.567555  1
  Gd  Gd7  1  0.834204  0.827188  0.933838  1
  Gd  Gd8  1  0.664849  0.332200  0.932445  1
  Gd  Gd9  1  0.834204  0.827188  0.566162  1
  Gd  Gd10  1  0.329240  0.671791  0.432136  1
  Gd  Gd11  1  0.164030  0.173077  0.064160  1
  Co  Co12  1  0.547625  0.624633  0.750000  1
  Tc  Tc13  1  0.029246  0.874782  0.250000  1
  Tc  Tc14  1  0.459947  0.376668  0.250000  1
  Tc  Tc15  1  0.969843  0.124875  0.750000  1
