# generated using pymatgen
data_ErTm5(Zr2Sb3)2
_symmetry_space_group_name_H-M   'P 1'
_cell_length_a   8.75791045
_cell_length_b   8.75302214
_cell_length_c   5.95911500
_cell_angle_alpha   90.00000000
_cell_angle_beta   90.00000000
_cell_angle_gamma   119.98154500
_symmetry_Int_Tables_number   1
_chemical_formula_structural   ErTm5(Zr2Sb3)2
_chemical_formula_sum   'Er1 Tm5 Zr4 Sb6'
_cell_volume   395.68688815
_cell_formula_units_Z   1
loop_
 _symmetry_equiv_pos_site_id
 _symmetry_equiv_pos_as_xyz
  1  'x, y, z'
loop_
 _atom_site_type_symbol
 _atom_site_label
 _atom_site_symmetry_multiplicity
 _atom_site_fract_x
 _atom_site_fract_y
 _atom_site_fract_z
 _atom_site_occupancy
  Er  Er0  1  0.000000  0.749894  0.250000  1
  Tm  Tm1  1  0.749586  0.749705  0.750000  1
  Tm  Tm2  1  0.250414  0.000119  0.750000  1
  Tm  Tm3  1  0.000000  0.250080  0.750000  1
  Tm  Tm4  1  0.250358  0.250362  0.250000  1
  Tm  Tm5  1  0.749642  0.000004  0.250000  1
  Zr  Zr6  1  0.666730  0.333364  0.000013  1
  Zr  Zr7  1  0.333270  0.666635  0.000013  1
  Zr  Zr8  1  0.333270  0.666635  0.499987  1
  Zr  Zr9  1  0.666730  0.333364  0.499987  1
  Sb  Sb10  1  0.391148  0.391145  0.750000  1
  Sb  Sb11  1  0.608852  0.999997  0.750000  1
  Sb  Sb12  1  0.000000  0.608781  0.750000  1
  Sb  Sb13  1  0.608450  0.608765  0.250000  1
  Sb  Sb14  1  0.391550  0.000315  0.250000  1
  Sb  Sb15  1  0.000000  0.390837  0.250000  1
