# generated using pymatgen
data_Tb3ErNi5Ir3
_symmetry_space_group_name_H-M   'P 1'
_cell_length_a   5.06556100
_cell_length_b   5.15574217
_cell_length_c   9.09651179
_cell_angle_alpha   74.25555687
_cell_angle_beta   90.00000000
_cell_angle_gamma   119.42306273
_symmetry_Int_Tables_number   1
_chemical_formula_structural   Tb3ErNi5Ir3
_chemical_formula_sum   'Tb3 Er1 Ni5 Ir3'
_cell_volume   196.63080200
_cell_formula_units_Z   1
loop_
 _symmetry_equiv_pos_site_id
 _symmetry_equiv_pos_as_xyz
  1  'x, y, z'
loop_
 _atom_site_type_symbol
 _atom_site_label
 _atom_site_symmetry_multiplicity
 _atom_site_fract_x
 _atom_site_fract_y
 _atom_site_fract_z
 _atom_site_occupancy
  Tb  Tb0  1  0.814209  0.128421  0.564686  1
  Tb  Tb1  1  0.188700  0.877400  0.435363  1
  Tb  Tb2  1  0.685692  0.871385  0.936175  1
  Er  Er3  1  0.311790  0.123581  0.063905  1
  Ni  Ni4  1  0.250047  0.000094  0.751098  1
  Ni  Ni5  1  0.750147  0.500898  0.248822  1
  Ni  Ni6  1  0.250031  0.498624  0.751219  1
  Ni  Ni7  1  0.250750  0.500898  0.248822  1
  Ni  Ni8  1  0.748593  0.498624  0.751219  1
  Ir  Ir9  1  0.003368  0.506738  0.996128  1
  Ir  Ir10  1  0.496666  0.493334  0.504153  1
  Ir  Ir11  1  0.750001  0.000004  0.248415  1
