# generated using pymatgen
data_Sr3MoBr2O5
_symmetry_space_group_name_H-M   'P 1'
_cell_length_a   7.30703823
_cell_length_b   7.30703809
_cell_length_c   11.44216100
_cell_angle_alpha   90.00000000
_cell_angle_beta   90.00000000
_cell_angle_gamma   133.49051835
_symmetry_Int_Tables_number   1
_chemical_formula_structural   Sr3MoBr2O5
_chemical_formula_sum   'Sr6 Mo2 Br4 O10'
_cell_volume   443.22189151
_cell_formula_units_Z   2
loop_
 _symmetry_equiv_pos_site_id
 _symmetry_equiv_pos_as_xyz
  1  'x, y, z'
loop_
 _atom_site_type_symbol
 _atom_site_label
 _atom_site_symmetry_multiplicity
 _atom_site_fract_x
 _atom_site_fract_y
 _atom_site_fract_z
 _atom_site_occupancy
  Sr  Sr0  1  0.660408  0.339592  0.534096  1
  Sr  Sr1  1  0.339592  0.660408  0.034096  1
  Sr  Sr2  1  0.660408  0.339592  0.965904  1
  Sr  Sr3  1  0.891575  0.108425  0.750000  1
  Sr  Sr4  1  0.339592  0.660408  0.465904  1
  Sr  Sr5  1  0.108425  0.891575  0.250000  1
  Mo  Mo6  1  0.761702  0.238298  0.250000  1
  Mo  Mo7  1  0.238298  0.761702  0.750000  1
  Br  Br8  1  0.499937  0.500063  0.250000  1
  Br  Br9  1  0.000000  0.000000  0.500000  1
  Br  Br10  1  0.500063  0.499937  0.750000  1
  Br  Br11  1  0.000000  0.000000  0.000000  1
  O  O12  1  0.495418  0.046434  0.365658  1
  O  O13  1  0.046434  0.495418  0.634342  1
  O  O14  1  0.504582  0.953566  0.865658  1
  O  O15  1  0.504582  0.953566  0.634342  1
  O  O16  1  0.108795  0.891205  0.750000  1
  O  O17  1  0.046434  0.495418  0.865658  1
  O  O18  1  0.495418  0.046434  0.134342  1
  O  O19  1  0.953566  0.504582  0.365658  1
  O  O20  1  0.891205  0.108795  0.250000  1
  O  O21  1  0.953566  0.504582  0.134342  1
