# generated using pymatgen
data_ErTh4Si4Ag
_symmetry_space_group_name_H-M   'P 1'
_cell_length_a   7.57437500
_cell_length_b   7.57437500
_cell_length_c   4.21386000
_cell_angle_alpha   90.00000000
_cell_angle_beta   90.00000000
_cell_angle_gamma   90.00000000
_symmetry_Int_Tables_number   1
_chemical_formula_structural   ErTh4Si4Ag
_chemical_formula_sum   'Er1 Th4 Si4 Ag1'
_cell_volume   241.75402212
_cell_formula_units_Z   1
loop_
 _symmetry_equiv_pos_site_id
 _symmetry_equiv_pos_as_xyz
  1  'x, y, z'
loop_
 _atom_site_type_symbol
 _atom_site_label
 _atom_site_symmetry_multiplicity
 _atom_site_fract_x
 _atom_site_fract_y
 _atom_site_fract_z
 _atom_site_occupancy
  Er  Er0  1  0.000000  0.000000  0.000000  1
  Th  Th1  1  0.669896  0.193082  0.500000  1
  Th  Th2  1  0.330104  0.806918  0.500000  1
  Th  Th3  1  0.193082  0.330104  0.500000  1
  Th  Th4  1  0.806918  0.669896  0.500000  1
  Si  Si5  1  0.100909  0.624587  0.000000  1
  Si  Si6  1  0.899091  0.375413  0.000000  1
  Si  Si7  1  0.624587  0.899091  0.000000  1
  Si  Si8  1  0.375413  0.100909  0.000000  1
  Ag  Ag9  1  0.500000  0.500000  0.000000  1
