# generated using pymatgen
data_Tb7Ho9Cd4(OsPt)2
_symmetry_space_group_name_H-M   'P 1'
_cell_length_a   9.65194580
_cell_length_b   9.65194599
_cell_length_c   9.70646800
_cell_angle_alpha   59.81296228
_cell_angle_beta   59.81296161
_cell_angle_gamma   59.71201388
_symmetry_Int_Tables_number   1
_chemical_formula_structural   Tb7Ho9Cd4(OsPt)2
_chemical_formula_sum   'Tb7 Ho9 Cd4 Os2 Pt2'
_cell_volume   636.19991698
_cell_formula_units_Z   1
loop_
 _symmetry_equiv_pos_site_id
 _symmetry_equiv_pos_as_xyz
  1  'x, y, z'
loop_
 _atom_site_type_symbol
 _atom_site_label
 _atom_site_symmetry_multiplicity
 _atom_site_fract_x
 _atom_site_fract_y
 _atom_site_fract_z
 _atom_site_occupancy
  Tb  Tb0  1  0.808642  0.808642  0.191358  1
  Tb  Tb1  1  0.938617  0.556353  0.566391  1
  Tb  Tb2  1  0.556353  0.938617  0.938639  1
  Tb  Tb3  1  0.556353  0.938617  0.566391  1
  Tb  Tb4  1  0.938617  0.556353  0.938639  1
  Tb  Tb5  1  0.563519  0.563519  0.936481  1
  Tb  Tb6  1  0.940236  0.940236  0.559764  1
  Ho  Ho7  1  0.349407  0.349407  0.352194  1
  Ho  Ho8  1  0.349407  0.349407  0.948993  1
  Ho  Ho9  1  0.345673  0.955194  0.349566  1
  Ho  Ho10  1  0.955194  0.345673  0.349566  1
  Ho  Ho11  1  0.814881  0.188018  0.190200  1
  Ho  Ho12  1  0.188018  0.814881  0.806901  1
  Ho  Ho13  1  0.188018  0.814881  0.190200  1
  Ho  Ho14  1  0.814881  0.188018  0.806901  1
  Ho  Ho15  1  0.187984  0.187984  0.812016  1
  Cd  Cd16  1  0.580062  0.580062  0.581431  1
  Cd  Cd17  1  0.580062  0.580062  0.258444  1
  Cd  Cd18  1  0.580950  0.255983  0.581533  1
  Cd  Cd19  1  0.255983  0.580950  0.581533  1
  Os  Os20  1  0.143957  0.143957  0.137744  1
  Os  Os21  1  0.143957  0.143957  0.574343  1
  Pt  Pt22  1  0.145431  0.573799  0.140386  1
  Pt  Pt23  1  0.573799  0.145431  0.140386  1
