# generated using pymatgen
data_La2Pr2ZrP12Ru19
_symmetry_space_group_name_H-M   'P 1'
_cell_length_a   12.63435502
_cell_length_b   12.63797524
_cell_length_c   4.01824900
_cell_angle_alpha   90.00000000
_cell_angle_beta   90.00000000
_cell_angle_gamma   119.99740824
_symmetry_Int_Tables_number   1
_chemical_formula_structural   La2Pr2ZrP12Ru19
_chemical_formula_sum   'La2 Pr2 Zr1 P12 Ru19'
_cell_volume   555.66033345
_cell_formula_units_Z   1
loop_
 _symmetry_equiv_pos_site_id
 _symmetry_equiv_pos_as_xyz
  1  'x, y, z'
loop_
 _atom_site_type_symbol
 _atom_site_label
 _atom_site_symmetry_multiplicity
 _atom_site_fract_x
 _atom_site_fract_y
 _atom_site_fract_z
 _atom_site_occupancy
  La  La0  1  0.816803  0.001082  0.500000  1
  La  La1  1  0.666247  0.333066  0.000000  1
  Pr  Pr2  1  0.999389  0.814859  0.500000  1
  Pr  Pr3  1  0.185322  0.184431  0.500000  1
  Zr  Zr4  1  0.332891  0.666837  0.000000  1
  P  P5  1  0.186758  0.996638  0.000000  1
  P  P6  1  0.004590  0.191543  0.000000  1
  P  P7  1  0.809693  0.811910  0.000000  1
  P  P8  1  0.519350  0.697521  0.500000  1
  P  P9  1  0.302455  0.822034  0.500000  1
  P  P10  1  0.178570  0.481286  0.500000  1
  P  P11  1  0.474210  0.168779  0.500000  1
  P  P12  1  0.694275  0.524993  0.500000  1
  P  P13  1  0.831113  0.305530  0.500000  1
  P  P14  1  0.625511  0.001551  0.000000  1
  P  P15  1  0.998312  0.624611  0.000000  1
  P  P16  1  0.375398  0.373607  0.000000  1
  Ru  Ru17  1  0.444567  0.998024  0.000000  1
  Ru  Ru18  1  0.002279  0.447361  0.000000  1
  Ru  Ru19  1  0.552929  0.554589  0.000000  1
  Ru  Ru20  1  0.284786  0.995970  0.500000  1
  Ru  Ru21  1  0.004683  0.289965  0.500000  1
  Ru  Ru22  1  0.710782  0.714196  0.500000  1
  Ru  Ru23  1  0.615155  0.804055  0.000000  1
  Ru  Ru24  1  0.195400  0.810907  0.000000  1
  Ru  Ru25  1  0.189573  0.385104  0.000000  1
  Ru  Ru26  1  0.377359  0.181651  0.000000  1
  Ru  Ru27  1  0.804113  0.621886  0.000000  1
  Ru  Ru28  1  0.818295  0.196046  0.000000  1
  Ru  Ru29  1  0.499811  0.869854  0.500000  1
  Ru  Ru30  1  0.130121  0.630340  0.500000  1
  Ru  Ru31  1  0.369972  0.500127  0.500000  1
  Ru  Ru32  1  0.488622  0.366840  0.500000  1
  Ru  Ru33  1  0.878145  0.511080  0.500000  1
  Ru  Ru34  1  0.632748  0.121761  0.500000  1
  Ru  Ru35  1  0.999774  0.999969  0.000000  1
