# generated using pymatgen
data_DyHo11(TcOs)2
_symmetry_space_group_name_H-M   'P 1'
_cell_length_a   6.27700900
_cell_length_b   7.40603200
_cell_length_c   9.05699900
_cell_angle_alpha   90.00000000
_cell_angle_beta   90.00000000
_cell_angle_gamma   89.99753765
_symmetry_Int_Tables_number   1
_chemical_formula_structural   DyHo11(TcOs)2
_chemical_formula_sum   'Dy1 Ho11 Tc2 Os2'
_cell_volume   421.03931956
_cell_formula_units_Z   1
loop_
 _symmetry_equiv_pos_site_id
 _symmetry_equiv_pos_as_xyz
  1  'x, y, z'
loop_
 _atom_site_type_symbol
 _atom_site_label
 _atom_site_symmetry_multiplicity
 _atom_site_fract_x
 _atom_site_fract_y
 _atom_site_fract_z
 _atom_site_occupancy
  Dy  Dy0  1  0.875362  0.539719  0.250000  1
  Ho  Ho1  1  0.337023  0.675363  0.062425  1
  Ho  Ho2  1  0.163084  0.175331  0.437539  1
  Ho  Ho3  1  0.665230  0.324293  0.563001  1
  Ho  Ho4  1  0.834718  0.824387  0.937015  1
  Ho  Ho5  1  0.665230  0.324293  0.936999  1
  Ho  Ho6  1  0.834718  0.824387  0.562985  1
  Ho  Ho7  1  0.337023  0.675363  0.437575  1
  Ho  Ho8  1  0.163084  0.175331  0.062461  1
  Ho  Ho9  1  0.624680  0.039691  0.250000  1
  Ho  Ho10  1  0.130506  0.459264  0.750000  1
  Ho  Ho11  1  0.369481  0.959249  0.750000  1
  Tc  Tc12  1  0.038907  0.884428  0.250000  1
  Tc  Tc13  1  0.460944  0.384341  0.250000  1
  Os  Os14  1  0.959539  0.117277  0.750000  1
  Os  Os15  1  0.540470  0.617280  0.750000  1
