# generated using pymatgen
data_Nd3Dy3CoBr10
_symmetry_space_group_name_H-M   'P 1'
_cell_length_a   7.46429619
_cell_length_b   9.33302235
_cell_length_c   9.45323087
_cell_angle_alpha   107.97698228
_cell_angle_beta   95.88475662
_cell_angle_gamma   104.14507093
_symmetry_Int_Tables_number   1
_chemical_formula_structural   Nd3Dy3CoBr10
_chemical_formula_sum   'Nd3 Dy3 Co1 Br10'
_cell_volume   595.99905290
_cell_formula_units_Z   1
loop_
 _symmetry_equiv_pos_site_id
 _symmetry_equiv_pos_as_xyz
  1  'x, y, z'
loop_
 _atom_site_type_symbol
 _atom_site_label
 _atom_site_symmetry_multiplicity
 _atom_site_fract_x
 _atom_site_fract_y
 _atom_site_fract_z
 _atom_site_occupancy
  Nd  Nd0  1  0.036883  0.715721  0.407149  1
  Nd  Nd1  1  0.962814  0.283603  0.587895  1
  Nd  Nd2  1  0.869384  0.948851  0.746792  1
  Dy  Dy3  1  0.127908  0.049541  0.260843  1
  Dy  Dy4  1  0.347943  0.124824  0.672778  1
  Dy  Dy5  1  0.651810  0.876113  0.328340  1
  Co  Co6  1  0.000007  0.999464  0.499702  1
  Br  Br7  1  0.452382  0.822259  0.581046  1
  Br  Br8  1  0.540552  0.175875  0.416436  1
  Br  Br9  1  0.913091  0.627414  0.668438  1
  Br  Br10  1  0.091026  0.363454  0.323944  1
  Br  Br11  1  0.246690  0.081146  0.951327  1
  Br  Br12  1  0.763972  0.922161  0.058621  1
  Br  Br13  1  0.345985  0.437905  0.765755  1
  Br  Br14  1  0.651308  0.562445  0.233084  1
  Br  Br15  1  0.758872  0.246556  0.840771  1
  Br  Br16  1  0.239373  0.762669  0.157079  1
