# generated using pymatgen
data_Ho10Ru5Au
_symmetry_space_group_name_H-M   'P 1'
_cell_length_a   10.90253106
_cell_length_b   10.82040400
_cell_length_c   6.38488907
_cell_angle_alpha   90.00000000
_cell_angle_beta   89.78551878
_cell_angle_gamma   90.00000000
_symmetry_Int_Tables_number   1
_chemical_formula_structural   Ho10Ru5Au
_chemical_formula_sum   'Ho20 Ru10 Au2'
_cell_volume   753.21874977
_cell_formula_units_Z   2
loop_
 _symmetry_equiv_pos_site_id
 _symmetry_equiv_pos_as_xyz
  1  'x, y, z'
loop_
 _atom_site_type_symbol
 _atom_site_label
 _atom_site_symmetry_multiplicity
 _atom_site_fract_x
 _atom_site_fract_y
 _atom_site_fract_z
 _atom_site_occupancy
  Ho  Ho0  1  0.291781  0.086783  0.372829  1
  Ho  Ho1  1  0.291781  0.913217  0.872829  1
  Ho  Ho2  1  0.696019  0.091457  0.865651  1
  Ho  Ho3  1  0.696019  0.908543  0.365651  1
  Ho  Ho4  1  0.576427  0.790302  0.873358  1
  Ho  Ho5  1  0.576427  0.209698  0.373358  1
  Ho  Ho6  1  0.409970  0.790876  0.374985  1
  Ho  Ho7  1  0.409970  0.209124  0.874985  1
  Ho  Ho8  1  0.210390  0.412885  0.623742  1
  Ho  Ho9  1  0.210390  0.587115  0.123742  1
  Ho  Ho10  1  0.791327  0.422248  0.125366  1
  Ho  Ho11  1  0.791327  0.577752  0.625366  1
  Ho  Ho12  1  0.919131  0.705162  0.139702  1
  Ho  Ho13  1  0.919131  0.294838  0.639702  1
  Ho  Ho14  1  0.094903  0.701972  0.623845  1
  Ho  Ho15  1  0.094903  0.298028  0.123845  1
  Ho  Ho16  1  0.009506  0.997074  0.499542  1
  Ho  Ho17  1  0.009506  0.002926  0.999542  1
  Ho  Ho18  1  0.500491  0.498666  0.001115  1
  Ho  Ho19  1  0.500491  0.501334  0.501115  1
  Ru  Ru20  1  0.151956  0.152178  0.749011  1
  Ru  Ru21  1  0.151956  0.847822  0.249011  1
  Ru  Ru22  1  0.655356  0.345736  0.748941  1
  Ru  Ru23  1  0.655356  0.654264  0.248941  1
  Ru  Ru24  1  0.347742  0.347363  0.250236  1
  Ru  Ru25  1  0.347742  0.652637  0.750236  1
  Ru  Ru26  1  0.498837  0.000321  0.120899  1
  Ru  Ru27  1  0.498837  0.999679  0.620899  1
  Ru  Ru28  1  0.001799  0.499825  0.878881  1
  Ru  Ru29  1  0.001799  0.500175  0.378881  1
  Au  Au30  1  0.844366  0.155200  0.251896  1
  Au  Au31  1  0.844366  0.844800  0.751896  1
