# generated using pymatgen
data_Ta2Ti4Re6Si5B
_symmetry_space_group_name_H-M   'P 1'
_cell_length_a   7.48965871
_cell_length_b   7.48971944
_cell_length_c   7.48966063
_cell_angle_alpha   126.27538913
_cell_angle_beta   128.66958250
_cell_angle_gamma   77.49655412
_symmetry_Int_Tables_number   1
_chemical_formula_structural   Ta2Ti4Re6Si5B
_chemical_formula_sum   'Ta2 Ti4 Re6 Si5 B1'
_cell_volume   256.49730583
_cell_formula_units_Z   1
loop_
 _symmetry_equiv_pos_site_id
 _symmetry_equiv_pos_as_xyz
  1  'x, y, z'
loop_
 _atom_site_type_symbol
 _atom_site_label
 _atom_site_symmetry_multiplicity
 _atom_site_fract_x
 _atom_site_fract_y
 _atom_site_fract_z
 _atom_site_occupancy
  Ta  Ta0  1  0.750026  0.893925  0.643899  1
  Ta  Ta1  1  0.250005  0.900907  0.150902  1
  Ti  Ti2  1  0.553667  0.101379  0.047713  1
  Ti  Ti3  1  0.449802  0.493907  0.544105  1
  Ti  Ti4  1  0.946344  0.494082  0.047739  1
  Ti  Ti5  1  0.050156  0.094242  0.544086  1
  Re  Re6  1  0.510476  0.244519  0.755016  1
  Re  Re7  1  0.989502  0.244519  0.234043  1
  Re  Re8  1  0.114341  0.749005  0.611867  1
  Re  Re9  1  0.862830  0.497495  0.611806  1
  Re  Re10  1  0.637138  0.749005  0.134663  1
  Re  Re11  1  0.385689  0.497495  0.134665  1
  Si  Si12  1  0.249964  0.496319  0.746355  1
  Si  Si13  1  0.330092  0.827418  0.497829  1
  Si  Si14  1  0.670383  0.167747  0.497777  1
  Si  Si15  1  0.829589  0.827418  0.997326  1
  Si  Si16  1  0.169971  0.167747  0.997364  1
  B  B17  1  0.750024  0.495071  0.245046  1
