# generated using pymatgen
data_Zr10BeSiBi5Pb
_symmetry_space_group_name_H-M   'P 1'
_cell_length_a   8.80175191
_cell_length_b   8.80067077
_cell_length_c   5.92980004
_cell_angle_alpha   90.05044976
_cell_angle_beta   89.97477651
_cell_angle_gamma   119.99594010
_symmetry_Int_Tables_number   1
_chemical_formula_structural   Zr10BeSiBi5Pb
_chemical_formula_sum   'Zr10 Be1 Si1 Bi5 Pb1'
_cell_volume   397.80769146
_cell_formula_units_Z   1
loop_
 _symmetry_equiv_pos_site_id
 _symmetry_equiv_pos_as_xyz
  1  'x, y, z'
loop_
 _atom_site_type_symbol
 _atom_site_label
 _atom_site_symmetry_multiplicity
 _atom_site_fract_x
 _atom_site_fract_y
 _atom_site_fract_z
 _atom_site_occupancy
  Zr  Zr0  1  0.666116  0.333293  0.500863  1
  Zr  Zr1  1  0.333884  0.667178  0.500863  1
  Zr  Zr2  1  0.333409  0.666818  0.999278  1
  Zr  Zr3  1  0.666591  0.333408  0.999278  1
  Zr  Zr4  1  0.748448  0.748676  0.255742  1
  Zr  Zr5  1  0.251552  0.000228  0.255742  1
  Zr  Zr6  1  0.000000  0.250847  0.255162  1
  Zr  Zr7  1  0.251432  0.251770  0.744521  1
  Zr  Zr8  1  0.748568  0.000338  0.744521  1
  Zr  Zr9  1  0.000000  0.748821  0.744202  1
  Be  Be10  1  0.000000  0.000125  0.498895  1
  Si  Si11  1  0.000000  0.999926  0.001029  1
  Bi  Bi12  1  0.391729  0.392532  0.248644  1
  Bi  Bi13  1  0.608271  0.000801  0.248644  1
  Bi  Bi14  1  0.000000  0.605548  0.248868  1
  Bi  Bi15  1  0.607808  0.608020  0.751343  1
  Bi  Bi16  1  0.392192  0.000212  0.751343  1
  Pb  Pb17  1  0.000000  0.391461  0.751061  1
