# generated using pymatgen
data_Yb2Er2P7Ir8
_symmetry_space_group_name_H-M   'P 1'
_cell_length_a   3.94166100
_cell_length_b   12.64211775
_cell_length_c   13.08747800
_cell_angle_alpha   99.11081439
_cell_angle_beta   90.00000000
_cell_angle_gamma   90.00000000
_symmetry_Int_Tables_number   1
_chemical_formula_structural   Yb2Er2P7Ir8
_chemical_formula_sum   'Yb4 Er4 P14 Ir16'
_cell_volume   643.93365495
_cell_formula_units_Z   2
loop_
 _symmetry_equiv_pos_site_id
 _symmetry_equiv_pos_as_xyz
  1  'x, y, z'
loop_
 _atom_site_type_symbol
 _atom_site_label
 _atom_site_symmetry_multiplicity
 _atom_site_fract_x
 _atom_site_fract_y
 _atom_site_fract_z
 _atom_site_occupancy
  Yb  Yb0  1  0.750000  0.282874  0.894971  1
  Yb  Yb1  1  0.250000  0.717126  0.105029  1
  Yb  Yb2  1  0.750000  0.103587  0.213438  1
  Yb  Yb3  1  0.250000  0.896413  0.786562  1
  Er  Er4  1  0.750000  0.207670  0.559799  1
  Er  Er5  1  0.250000  0.792330  0.440201  1
  Er  Er6  1  0.750000  0.520487  0.707303  1
  Er  Er7  1  0.250000  0.479513  0.292697  1
  P  P8  1  0.750000  0.742751  0.920543  1
  P  P9  1  0.250000  0.257249  0.079457  1
  P  P10  1  0.750000  0.907230  0.587993  1
  P  P11  1  0.250000  0.092770  0.412007  1
  P  P12  1  0.750000  0.526937  0.129585  1
  P  P13  1  0.250000  0.473063  0.870415  1
  P  P14  1  0.750000  0.841116  0.280050  1
  P  P15  1  0.250000  0.158884  0.719950  1
  P  P16  1  0.750000  0.608858  0.433820  1
  P  P17  1  0.250000  0.391142  0.566180  1
  P  P18  1  0.750000  0.312389  0.312430  1
  P  P19  1  0.250000  0.687611  0.687570  1
  P  P20  1  0.750000  0.054735  0.899804  1
  P  P21  1  0.250000  0.945265  0.100196  1
  Ir  Ir22  1  0.750000  0.341098  0.142645  1
  Ir  Ir23  1  0.250000  0.658902  0.857355  1
  Ir  Ir24  1  0.750000  0.728443  0.601058  1
  Ir  Ir25  1  0.250000  0.271557  0.398942  1
  Ir  Ir26  1  0.750000  0.917450  0.001739  1
  Ir  Ir27  1  0.250000  0.082550  0.998261  1
  Ir  Ir28  1  0.750000  0.422455  0.477760  1
  Ir  Ir29  1  0.250000  0.577545  0.522240  1
  Ir  Ir30  1  0.750000  0.063277  0.727647  1
  Ir  Ir31  1  0.250000  0.936723  0.272353  1
  Ir  Ir32  1  0.750000  0.551914  0.951197  1
  Ir  Ir33  1  0.250000  0.448086  0.048803  1
  Ir  Ir34  1  0.750000  0.659937  0.271370  1
  Ir  Ir35  1  0.250000  0.340063  0.728630  1
  Ir  Ir36  1  0.750000  0.986905  0.423640  1
  Ir  Ir37  1  0.250000  0.013095  0.576360  1
