# generated using pymatgen
data_DyHo2ScMn4O14
_symmetry_space_group_name_H-M   'P 1'
_cell_length_a   7.04801809
_cell_length_b   7.01570785
_cell_length_c   7.04291100
_cell_angle_alpha   59.87165617
_cell_angle_beta   60.02397180
_cell_angle_gamma   59.90416712
_symmetry_Int_Tables_number   1
_chemical_formula_structural   DyHo2ScMn4O14
_chemical_formula_sum   'Dy1 Ho2 Sc1 Mn4 O14'
_cell_volume   245.87598842
_cell_formula_units_Z   1
loop_
 _symmetry_equiv_pos_site_id
 _symmetry_equiv_pos_as_xyz
  1  'x, y, z'
loop_
 _atom_site_type_symbol
 _atom_site_label
 _atom_site_symmetry_multiplicity
 _atom_site_fract_x
 _atom_site_fract_y
 _atom_site_fract_z
 _atom_site_occupancy
  Dy  Dy0  1  0.125000  0.625000  0.625000  1
  Ho  Ho1  1  0.625000  0.625000  0.625000  1
  Ho  Ho2  1  0.625000  0.625000  0.125000  1
  Sc  Sc3  1  0.625000  0.125000  0.625000  1
  Mn  Mn4  1  0.125000  0.625000  0.125000  1
  Mn  Mn5  1  0.125000  0.125000  0.625000  1
  Mn  Mn6  1  0.625000  0.125000  0.125000  1
  Mn  Mn7  1  0.125000  0.125000  0.125000  1
  O  O8  1  0.742026  0.769018  0.744478  1
  O  O9  1  0.207362  0.793042  0.793096  1
  O  O10  1  0.207362  0.793042  0.206501  1
  O  O11  1  0.792805  0.792768  0.207214  1
  O  O12  1  0.793430  0.203267  0.793439  1
  O  O13  1  0.210019  0.202575  0.793703  1
  O  O14  1  0.456570  0.046733  0.040137  1
  O  O15  1  0.793430  0.203267  0.209863  1
  O  O16  1  0.042638  0.456958  0.043499  1
  O  O17  1  0.039981  0.047425  0.456297  1
  O  O18  1  0.457195  0.457232  0.042786  1
  O  O19  1  0.456570  0.046733  0.456561  1
  O  O20  1  0.042638  0.456958  0.456904  1
  O  O21  1  0.507974  0.480982  0.505522  1
