# generated using pymatgen
data_YHoPa(InPt)3
_symmetry_space_group_name_H-M   'P 1'
_cell_length_a   7.65150619
_cell_length_b   7.61985472
_cell_length_c   3.94810400
_cell_angle_alpha   90.00000000
_cell_angle_beta   90.00000000
_cell_angle_gamma   120.20147256
_symmetry_Int_Tables_number   1
_chemical_formula_structural   YHoPa(InPt)3
_chemical_formula_sum   'Y1 Ho1 Pa1 In3 Pt3'
_cell_volume   198.94249692
_cell_formula_units_Z   1
loop_
 _symmetry_equiv_pos_site_id
 _symmetry_equiv_pos_as_xyz
  1  'x, y, z'
loop_
 _atom_site_type_symbol
 _atom_site_label
 _atom_site_symmetry_multiplicity
 _atom_site_fract_x
 _atom_site_fract_y
 _atom_site_fract_z
 _atom_site_occupancy
  Y  Y0  1  0.593309  0.595597  0.500000  1
  Ho  Ho1  1  0.997788  0.404440  0.500000  1
  Pa  Pa2  1  0.410819  0.999967  0.500000  1
  In  In3  1  0.755436  0.000241  0.000000  1
  In  In4  1  0.256762  0.270454  0.000000  1
  In  In5  1  0.986585  0.729395  0.000000  1
  Pt  Pt6  1  0.017035  0.000520  0.500000  1
  Pt  Pt7  1  0.647349  0.310639  0.000000  1
  Pt  Pt8  1  0.334918  0.688747  0.000000  1
