# generated using pymatgen
data_Tb3Sn2Pd2RhPb
_symmetry_space_group_name_H-M   'P 1'
_cell_length_a   7.79956200
_cell_length_b   7.75169123
_cell_length_c   3.83877700
_cell_angle_alpha   90.00000000
_cell_angle_beta   90.00000000
_cell_angle_gamma   120.20448732
_symmetry_Int_Tables_number   1
_chemical_formula_structural   Tb3Sn2Pd2RhPb
_chemical_formula_sum   'Tb3 Sn2 Pd2 Rh1 Pb1'
_cell_volume   200.58184303
_cell_formula_units_Z   1
loop_
 _symmetry_equiv_pos_site_id
 _symmetry_equiv_pos_as_xyz
  1  'x, y, z'
loop_
 _atom_site_type_symbol
 _atom_site_label
 _atom_site_symmetry_multiplicity
 _atom_site_fract_x
 _atom_site_fract_y
 _atom_site_fract_z
 _atom_site_occupancy
  Tb  Tb0  1  0.397388  0.000000  0.500000  1
  Tb  Tb1  1  0.002920  0.402822  0.500000  1
  Tb  Tb2  1  0.600098  0.597178  0.500000  1
  Sn  Sn3  1  0.000919  0.739367  0.000000  1
  Sn  Sn4  1  0.261552  0.260633  0.000000  1
  Pd  Pd5  1  0.325961  0.661057  0.000000  1
  Pd  Pd6  1  0.664906  0.338943  0.000000  1
  Rh  Rh7  1  0.008768  0.000000  0.500000  1
  Pb  Pb8  1  0.737487  0.000000  0.000000  1
