# generated using pymatgen
data_RbFeTe3O8
_symmetry_space_group_name_H-M   'P 1'
_cell_length_a   5.65602790
_cell_length_b   7.68711201
_cell_length_c   11.02204128
_cell_angle_alpha   99.53685189
_cell_angle_beta   89.51096974
_cell_angle_gamma   108.76056021
_symmetry_Int_Tables_number   1
_chemical_formula_structural   RbFeTe3O8
_chemical_formula_sum   'Rb2 Fe2 Te6 O16'
_cell_volume   446.97589468
_cell_formula_units_Z   2
loop_
 _symmetry_equiv_pos_site_id
 _symmetry_equiv_pos_as_xyz
  1  'x, y, z'
loop_
 _atom_site_type_symbol
 _atom_site_label
 _atom_site_symmetry_multiplicity
 _atom_site_fract_x
 _atom_site_fract_y
 _atom_site_fract_z
 _atom_site_occupancy
  Rb  Rb0  1  0.832440  0.113419  0.165941  1
  Rb  Rb1  1  0.167560  0.886581  0.834059  1
  Fe  Fe2  1  0.500000  0.500000  0.000000  1
  Fe  Fe3  1  0.000000  0.500000  0.500000  1
  Te  Te4  1  0.222584  0.979882  0.414968  1
  Te  Te5  1  0.777416  0.020118  0.585032  1
  Te  Te6  1  0.057524  0.659233  0.144757  1
  Te  Te7  1  0.942476  0.340767  0.855243  1
  Te  Te8  1  0.519991  0.532050  0.337953  1
  Te  Te9  1  0.480009  0.467950  0.662047  1
  O  O10  1  0.174043  0.725570  0.420583  1
  O  O11  1  0.825957  0.274430  0.579417  1
  O  O12  1  0.236873  0.916299  0.223043  1
  O  O13  1  0.763127  0.083701  0.776957  1
  O  O14  1  0.879300  0.965509  0.394398  1
  O  O15  1  0.120700  0.034491  0.605602  1
  O  O16  1  0.266145  0.660592  0.008112  1
  O  O17  1  0.733855  0.339408  0.991888  1
  O  O18  1  0.804320  0.724003  0.070304  1
  O  O19  1  0.195680  0.275997  0.929696  1
  O  O20  1  0.396943  0.437162  0.171015  1
  O  O21  1  0.603057  0.562838  0.828985  1
  O  O22  1  0.242585  0.375179  0.412827  1
  O  O23  1  0.757415  0.624821  0.587173  1
  O  O24  1  0.743414  0.395711  0.350678  1
  O  O25  1  0.256586  0.604289  0.649322  1
