# generated using pymatgen
data_ErTh3Mg2(ZnRh2)2
_symmetry_space_group_name_H-M   'P 1'
_cell_length_a   4.03426900
_cell_length_b   7.21854713
_cell_length_c   8.60891655
_cell_angle_alpha   90.78390467
_cell_angle_beta   90.00000000
_cell_angle_gamma   90.00000000
_symmetry_Int_Tables_number   1
_chemical_formula_structural   ErTh3Mg2(ZnRh2)2
_chemical_formula_sum   'Er1 Th3 Mg2 Zn2 Rh4'
_cell_volume   250.68162329
_cell_formula_units_Z   1
loop_
 _symmetry_equiv_pos_site_id
 _symmetry_equiv_pos_as_xyz
  1  'x, y, z'
loop_
 _atom_site_type_symbol
 _atom_site_label
 _atom_site_symmetry_multiplicity
 _atom_site_fract_x
 _atom_site_fract_y
 _atom_site_fract_z
 _atom_site_occupancy
  Er  Er0  1  0.250000  0.049686  0.313227  1
  Th  Th1  1  0.250000  0.548445  0.191534  1
  Th  Th2  1  0.750000  0.450265  0.817703  1
  Th  Th3  1  0.750000  0.948861  0.675158  1
  Mg  Mg4  1  0.750000  0.365693  0.445254  1
  Mg  Mg5  1  0.750000  0.885488  0.058640  1
  Zn  Zn6  1  0.250000  0.624425  0.558564  1
  Zn  Zn7  1  0.250000  0.128107  0.941714  1
  Rh  Rh8  1  0.250000  0.736979  0.870090  1
  Rh  Rh9  1  0.750000  0.271236  0.122110  1
  Rh  Rh10  1  0.750000  0.755605  0.372641  1
  Rh  Rh11  1  0.250000  0.235208  0.633366  1
