# generated using pymatgen
data_Rb12SiMo3Se16
_symmetry_space_group_name_H-M   'P 1'
_cell_length_a   10.01926277
_cell_length_b   10.06341484
_cell_length_c   11.60917400
_cell_angle_alpha   90.00000000
_cell_angle_beta   90.00000000
_cell_angle_gamma   89.75576044
_symmetry_Int_Tables_number   1
_chemical_formula_structural   Rb12SiMo3Se16
_chemical_formula_sum   'Rb12 Si1 Mo3 Se16'
_cell_volume   1170.51913442
_cell_formula_units_Z   1
loop_
 _symmetry_equiv_pos_site_id
 _symmetry_equiv_pos_as_xyz
  1  'x, y, z'
loop_
 _atom_site_type_symbol
 _atom_site_label
 _atom_site_symmetry_multiplicity
 _atom_site_fract_x
 _atom_site_fract_y
 _atom_site_fract_z
 _atom_site_occupancy
  Rb  Rb0  1  0.040223  0.800710  0.447736  1
  Rb  Rb1  1  0.455664  0.289306  0.540538  1
  Rb  Rb2  1  0.557264  0.713745  0.048524  1
  Rb  Rb3  1  0.946184  0.201192  0.962278  1
  Rb  Rb4  1  0.946184  0.201192  0.537722  1
  Rb  Rb5  1  0.557264  0.713745  0.451476  1
  Rb  Rb6  1  0.455664  0.289306  0.959462  1
  Rb  Rb7  1  0.040223  0.800710  0.052264  1
  Rb  Rb8  1  0.140148  0.588031  0.750000  1
  Rb  Rb9  1  0.363645  0.084121  0.250000  1
  Rb  Rb10  1  0.643856  0.913725  0.750000  1
  Rb  Rb11  1  0.856213  0.410137  0.250000  1
  Si  Si12  1  0.778830  0.983526  0.250000  1
  Mo  Mo13  1  0.720256  0.484394  0.750000  1
  Mo  Mo14  1  0.279461  0.515800  0.250000  1
  Mo  Mo15  1  0.219608  0.015657  0.750000  1
  Se  Se16  1  0.796547  0.753629  0.250000  1
  Se  Se17  1  0.702822  0.250047  0.750000  1
  Se  Se18  1  0.298024  0.749097  0.250000  1
  Se  Se19  1  0.202740  0.250500  0.750000  1
  Se  Se20  1  0.002247  0.922298  0.750000  1
  Se  Se21  1  0.496663  0.423036  0.250000  1
  Se  Se22  1  0.502456  0.578810  0.750000  1
  Se  Se23  1  0.990909  0.075325  0.250000  1
  Se  Se24  1  0.334259  0.947763  0.582491  1
  Se  Se25  1  0.166257  0.450489  0.419178  1
  Se  Se26  1  0.835185  0.549791  0.918289  1
  Se  Se27  1  0.667753  0.047939  0.084792  1
  Se  Se28  1  0.667753  0.047939  0.415208  1
  Se  Se29  1  0.835185  0.549791  0.581711  1
  Se  Se30  1  0.166257  0.450489  0.080822  1
  Se  Se31  1  0.334259  0.947763  0.917509  1
