# generated using pymatgen
data_Sr3(Al3Rh)4
_symmetry_space_group_name_H-M   'P 1'
_cell_length_a   8.86260700
_cell_length_b   8.86260655
_cell_length_c   9.61338700
_cell_angle_alpha   90.00000000
_cell_angle_beta   90.00000000
_cell_angle_gamma   120.00000540
_symmetry_Int_Tables_number   1
_chemical_formula_structural   Sr3(Al3Rh)4
_chemical_formula_sum   'Sr6 Al24 Rh8'
_cell_volume   653.92809263
_cell_formula_units_Z   2
loop_
 _symmetry_equiv_pos_site_id
 _symmetry_equiv_pos_as_xyz
  1  'x, y, z'
loop_
 _atom_site_type_symbol
 _atom_site_label
 _atom_site_symmetry_multiplicity
 _atom_site_fract_x
 _atom_site_fract_y
 _atom_site_fract_z
 _atom_site_occupancy
  Sr  Sr0  1  0.807056  0.192944  0.750000  1
  Sr  Sr1  1  0.192944  0.807056  0.250000  1
  Sr  Sr2  1  0.385888  0.192944  0.750000  1
  Sr  Sr3  1  0.614112  0.807056  0.250000  1
  Sr  Sr4  1  0.807056  0.614112  0.750000  1
  Sr  Sr5  1  0.192944  0.385888  0.250000  1
  Al  Al6  1  0.666667  0.333333  0.007095  1
  Al  Al7  1  0.333333  0.666667  0.992905  1
  Al  Al8  1  0.333333  0.666667  0.507095  1
  Al  Al9  1  0.666667  0.333333  0.492905  1
  Al  Al10  1  0.838117  0.161883  0.421591  1
  Al  Al11  1  0.161883  0.838117  0.578409  1
  Al  Al12  1  0.323765  0.161883  0.421591  1
  Al  Al13  1  0.161883  0.838117  0.921591  1
  Al  Al14  1  0.676235  0.838117  0.578409  1
  Al  Al15  1  0.838117  0.161883  0.078409  1
  Al  Al16  1  0.838117  0.676235  0.421591  1
  Al  Al17  1  0.676235  0.838117  0.921591  1
  Al  Al18  1  0.161883  0.323765  0.578409  1
  Al  Al19  1  0.323765  0.161883  0.078409  1
  Al  Al20  1  0.161883  0.323765  0.921591  1
  Al  Al21  1  0.838117  0.676235  0.078409  1
  Al  Al22  1  0.436500  0.563500  0.750000  1
  Al  Al23  1  0.563500  0.436500  0.250000  1
  Al  Al24  1  0.127000  0.563500  0.750000  1
  Al  Al25  1  0.873000  0.436500  0.250000  1
  Al  Al26  1  0.436500  0.873000  0.750000  1
  Al  Al27  1  0.563500  0.127000  0.250000  1
  Al  Al28  1  0.000000  0.000000  0.750000  1
  Al  Al29  1  0.000000  0.000000  0.250000  1
  Rh  Rh30  1  0.500000  0.500000  0.000000  1
  Rh  Rh31  1  0.000000  0.500000  0.000000  1
  Rh  Rh32  1  0.500000  0.500000  0.500000  1
  Rh  Rh33  1  0.500000  0.000000  0.000000  1
  Rh  Rh34  1  0.000000  0.500000  0.500000  1
  Rh  Rh35  1  0.500000  0.000000  0.500000  1
  Rh  Rh36  1  0.000000  0.000000  0.000000  1
  Rh  Rh37  1  0.000000  0.000000  0.500000  1
