# generated using pymatgen
data_Tb5Dy13Ho2(CoSb2)4
_symmetry_space_group_name_H-M   'P 1'
_cell_length_a   7.91261819
_cell_length_b   8.77081704
_cell_length_c   12.20959425
_cell_angle_alpha   90.00975955
_cell_angle_beta   89.99968548
_cell_angle_gamma   90.02997136
_symmetry_Int_Tables_number   1
_chemical_formula_structural   Tb5Dy13Ho2(CoSb2)4
_chemical_formula_sum   'Tb5 Dy13 Ho2 Co4 Sb8'
_cell_volume   847.34725607
_cell_formula_units_Z   1
loop_
 _symmetry_equiv_pos_site_id
 _symmetry_equiv_pos_as_xyz
  1  'x, y, z'
loop_
 _atom_site_type_symbol
 _atom_site_label
 _atom_site_symmetry_multiplicity
 _atom_site_fract_x
 _atom_site_fract_y
 _atom_site_fract_z
 _atom_site_occupancy
  Tb  Tb0  1  0.622419  0.750391  0.305901  1
  Tb  Tb1  1  0.121823  0.250228  0.193728  1
  Tb  Tb2  1  0.378443  0.249626  0.694053  1
  Tb  Tb3  1  0.877892  0.749824  0.806186  1
  Tb  Tb4  1  0.320456  0.464482  0.434997  1
  Dy  Dy5  1  0.154715  0.749921  0.203157  1
  Dy  Dy6  1  0.655001  0.249826  0.296600  1
  Dy  Dy7  1  0.845111  0.250026  0.796728  1
  Dy  Dy8  1  0.345202  0.750179  0.703375  1
  Dy  Dy9  1  0.453622  0.749979  0.997887  1
  Dy  Dy10  1  0.952768  0.249749  0.502099  1
  Dy  Dy11  1  0.546734  0.250058  0.002045  1
  Dy  Dy12  1  0.045669  0.750297  0.497971  1
  Dy  Dy13  1  0.821556  0.964242  0.065128  1
  Dy  Dy14  1  0.321648  0.035596  0.435032  1
  Dy  Dy15  1  0.178357  0.464316  0.934931  1
  Dy  Dy16  1  0.678646  0.535940  0.565285  1
  Dy  Dy17  1  0.178492  0.035680  0.934864  1
  Ho  Ho18  1  0.677913  0.963852  0.565296  1
  Ho  Ho19  1  0.822172  0.535760  0.065028  1
  Co  Co20  1  0.433923  0.750392  0.490494  1
  Co  Co21  1  0.933084  0.250134  0.009537  1
  Co  Co22  1  0.567895  0.249462  0.509835  1
  Co  Co23  1  0.066363  0.749782  0.990483  1
  Sb  Sb24  1  0.928591  0.991739  0.327144  1
  Sb  Sb25  1  0.428262  0.008369  0.172729  1
  Sb  Sb26  1  0.071867  0.491643  0.672716  1
  Sb  Sb27  1  0.571618  0.508367  0.827276  1
  Sb  Sb28  1  0.071411  0.008319  0.672743  1
  Sb  Sb29  1  0.571904  0.991573  0.827257  1
  Sb  Sb30  1  0.927667  0.508478  0.326980  1
  Sb  Sb31  1  0.428775  0.491767  0.172512  1
