# generated using pymatgen
data_Pr7PaZn8Ir5Rh3
_symmetry_space_group_name_H-M   'P 1'
_cell_length_a   4.01703600
_cell_length_b   7.37221223
_cell_length_c   16.68447125
_cell_angle_alpha   89.51531340
_cell_angle_beta   90.00000000
_cell_angle_gamma   90.00000000
_symmetry_Int_Tables_number   1
_chemical_formula_structural   Pr7PaZn8Ir5Rh3
_chemical_formula_sum   'Pr7 Pa1 Zn8 Ir5 Rh3'
_cell_volume   494.08362587
_cell_formula_units_Z   1
loop_
 _symmetry_equiv_pos_site_id
 _symmetry_equiv_pos_as_xyz
  1  'x, y, z'
loop_
 _atom_site_type_symbol
 _atom_site_label
 _atom_site_symmetry_multiplicity
 _atom_site_fract_x
 _atom_site_fract_y
 _atom_site_fract_z
 _atom_site_occupancy
  Pr  Pr0  1  0.750000  0.949916  0.282523  1
  Pr  Pr1  1  0.750000  0.826012  0.060903  1
  Pr  Pr2  1  0.250000  0.049200  0.716284  1
  Pr  Pr3  1  0.250000  0.167845  0.941340  1
  Pr  Pr4  1  0.250000  0.547956  0.783976  1
  Pr  Pr5  1  0.750000  0.333856  0.439538  1
  Pr  Pr6  1  0.250000  0.669627  0.560260  1
  Pa  Pa7  1  0.750000  0.446546  0.215237  1
  Zn  Zn8  1  0.250000  0.002895  0.439261  1
  Zn  Zn9  1  0.750000  0.502577  0.940137  1
  Zn  Zn10  1  0.750000  0.004248  0.560028  1
  Zn  Zn11  1  0.250000  0.623720  0.350613  1
  Zn  Zn12  1  0.750000  0.377294  0.650269  1
  Zn  Zn13  1  0.750000  0.879285  0.849856  1
  Zn  Zn14  1  0.250000  0.498527  0.058076  1
  Zn  Zn15  1  0.250000  0.119769  0.151506  1
  Ir  Ir16  1  0.250000  0.244841  0.564863  1
  Ir  Ir17  1  0.750000  0.265258  0.072346  1
  Ir  Ir18  1  0.250000  0.265003  0.300988  1
  Ir  Ir19  1  0.250000  0.746366  0.934456  1
  Ir  Ir20  1  0.250000  0.707324  0.190628  1
  Rh  Rh21  1  0.750000  0.253481  0.815550  1
  Rh  Rh22  1  0.750000  0.753766  0.686420  1
  Rh  Rh23  1  0.750000  0.764686  0.434942  1
