# generated using pymatgen
data_Ho4Lu16Bi11Au
_symmetry_space_group_name_H-M   'P 1'
_cell_length_a   8.09620182
_cell_length_b   9.36544200
_cell_length_c   11.83882742
_cell_angle_alpha   90.00000000
_cell_angle_beta   90.37605341
_cell_angle_gamma   90.00000000
_symmetry_Int_Tables_number   1
_chemical_formula_structural   Ho4Lu16Bi11Au
_chemical_formula_sum   'Ho4 Lu16 Bi11 Au1'
_cell_volume   897.65393641
_cell_formula_units_Z   1
loop_
 _symmetry_equiv_pos_site_id
 _symmetry_equiv_pos_as_xyz
  1  'x, y, z'
loop_
 _atom_site_type_symbol
 _atom_site_label
 _atom_site_symmetry_multiplicity
 _atom_site_fract_x
 _atom_site_fract_y
 _atom_site_fract_z
 _atom_site_occupancy
  Ho  Ho0  1  0.314356  0.250000  0.218254  1
  Ho  Ho1  1  0.811552  0.250000  0.283778  1
  Ho  Ho2  1  0.674119  0.750000  0.789402  1
  Ho  Ho3  1  0.192037  0.750000  0.720144  1
  Lu  Lu4  1  0.356479  0.750000  0.204938  1
  Lu  Lu5  1  0.851743  0.750000  0.282471  1
  Lu  Lu6  1  0.648281  0.250000  0.781555  1
  Lu  Lu7  1  0.150071  0.250000  0.718969  1
  Lu  Lu8  1  0.682241  0.573288  0.055761  1
  Lu  Lu9  1  0.192161  0.932916  0.438020  1
  Lu  Lu10  1  0.310263  0.047958  0.940467  1
  Lu  Lu11  1  0.807333  0.432855  0.560380  1
  Lu  Lu12  1  0.310263  0.452042  0.940467  1
  Lu  Lu13  1  0.807333  0.067145  0.560380  1
  Lu  Lu14  1  0.682241  0.926712  0.055761  1
  Lu  Lu15  1  0.192161  0.567084  0.438020  1
  Lu  Lu16  1  0.477773  0.250000  0.490060  1
  Lu  Lu17  1  0.981885  0.250000  0.009462  1
  Lu  Lu18  1  0.522575  0.750000  0.509757  1
  Lu  Lu19  1  0.038542  0.750000  0.991721  1
  Bi  Bi20  1  0.901872  0.750000  0.543723  1
  Bi  Bi21  1  0.597946  0.250000  0.041378  1
  Bi  Bi22  1  0.098946  0.250000  0.459303  1
  Bi  Bi23  1  0.564233  0.994802  0.326392  1
  Bi  Bi24  1  0.061043  0.503261  0.176021  1
  Bi  Bi25  1  0.435948  0.495427  0.673519  1
  Bi  Bi26  1  0.935896  0.003271  0.824898  1
  Bi  Bi27  1  0.435948  0.004573  0.673519  1
  Bi  Bi28  1  0.935896  0.496729  0.824898  1
  Bi  Bi29  1  0.564233  0.505198  0.326392  1
  Bi  Bi30  1  0.061043  0.996739  0.176021  1
  Au  Au31  1  0.403588  0.750000  0.964169  1
