# generated using pymatgen
data_TbEr4Bi(SbO7)2
_symmetry_space_group_name_H-M   'P 1'
_cell_length_a   6.46797779
_cell_length_b   6.46797838
_cell_length_c   7.53603939
_cell_angle_alpha   90.11805775
_cell_angle_beta   89.88194319
_cell_angle_gamma   108.95560742
_symmetry_Int_Tables_number   1
_chemical_formula_structural   TbEr4Bi(SbO7)2
_chemical_formula_sum   'Tb1 Er4 Bi1 Sb2 O14'
_cell_volume   298.17046985
_cell_formula_units_Z   1
loop_
 _symmetry_equiv_pos_site_id
 _symmetry_equiv_pos_as_xyz
  1  'x, y, z'
loop_
 _atom_site_type_symbol
 _atom_site_label
 _atom_site_symmetry_multiplicity
 _atom_site_fract_x
 _atom_site_fract_y
 _atom_site_fract_z
 _atom_site_occupancy
  Tb  Tb0  1  0.500000  0.500000  0.000000  1
  Er  Er1  1  0.532112  0.000917  0.751697  1
  Er  Er2  1  0.000917  0.532112  0.248303  1
  Er  Er3  1  0.467888  0.999083  0.248303  1
  Er  Er4  1  0.999083  0.467888  0.751697  1
  Bi  Bi5  1  0.500000  0.500000  0.500000  1
  Sb  Sb6  1  0.000000  0.000000  0.500000  1
  Sb  Sb7  1  0.000000  0.000000  0.000000  1
  O  O8  1  0.678676  0.934942  0.469219  1
  O  O9  1  0.934942  0.678676  0.530781  1
  O  O10  1  0.677541  0.928995  0.029882  1
  O  O11  1  0.928995  0.677541  0.970118  1
  O  O12  1  0.321324  0.065058  0.530781  1
  O  O13  1  0.065058  0.321324  0.469219  1
  O  O14  1  0.322459  0.071005  0.970118  1
  O  O15  1  0.071005  0.322459  0.029882  1
  O  O16  1  0.929298  0.070702  0.750100  1
  O  O17  1  0.070702  0.929298  0.249900  1
  O  O18  1  0.364050  0.635950  0.757981  1
  O  O19  1  0.635950  0.364050  0.242019  1
  O  O20  1  0.641697  0.358303  0.756695  1
  O  O21  1  0.358303  0.641697  0.243305  1
