# generated using pymatgen
data_Be3ReNiW
_symmetry_space_group_name_H-M   'P 1'
_cell_length_a   4.48709553
_cell_length_b   4.45450296
_cell_length_c   7.31756728
_cell_angle_alpha   89.66044036
_cell_angle_beta   90.16854339
_cell_angle_gamma   119.76001748
_symmetry_Int_Tables_number   1
_chemical_formula_structural   Be3ReNiW
_chemical_formula_sum   'Be6 Re2 Ni2 W2'
_cell_volume   126.96951099
_cell_formula_units_Z   2
loop_
 _symmetry_equiv_pos_site_id
 _symmetry_equiv_pos_as_xyz
  1  'x, y, z'
loop_
 _atom_site_type_symbol
 _atom_site_label
 _atom_site_symmetry_multiplicity
 _atom_site_fract_x
 _atom_site_fract_y
 _atom_site_fract_z
 _atom_site_occupancy
  Be  Be0  1  0.000923  0.002588  0.998808  1
  Be  Be1  1  0.999077  0.001665  0.498808  1
  Be  Be2  1  0.657689  0.825395  0.750190  1
  Be  Be3  1  0.342311  0.167706  0.250190  1
  Be  Be4  1  0.828526  0.168303  0.249894  1
  Be  Be5  1  0.171474  0.339776  0.749894  1
  Re  Re6  1  0.659290  0.327015  0.938833  1
  Re  Re7  1  0.340710  0.667726  0.438833  1
  Ni  Ni8  1  0.837743  0.668321  0.249268  1
  Ni  Ni9  1  0.162257  0.830576  0.749268  1
  W  W10  1  0.337550  0.669241  0.063007  1
  W  W11  1  0.662450  0.331690  0.563007  1
