# generated using pymatgen
data_Dy2YBi2Rh3Pb
_symmetry_space_group_name_H-M   'P 1'
_cell_length_a   7.64420300
_cell_length_b   7.68625973
_cell_length_c   3.95709700
_cell_angle_alpha   90.00000000
_cell_angle_beta   90.00000000
_cell_angle_gamma   119.81915855
_symmetry_Int_Tables_number   1
_chemical_formula_structural   Dy2YBi2Rh3Pb
_chemical_formula_sum   'Dy2 Y1 Bi2 Rh3 Pb1'
_cell_volume   201.71728776
_cell_formula_units_Z   1
loop_
 _symmetry_equiv_pos_site_id
 _symmetry_equiv_pos_as_xyz
  1  'x, y, z'
loop_
 _atom_site_type_symbol
 _atom_site_label
 _atom_site_symmetry_multiplicity
 _atom_site_fract_x
 _atom_site_fract_y
 _atom_site_fract_z
 _atom_site_occupancy
  Dy  Dy0  1  0.402381  0.398252  0.000000  1
  Dy  Dy1  1  0.004129  0.601748  0.000000  1
  Y  Y2  1  0.593798  0.000000  0.000000  1
  Bi  Bi3  1  0.736341  0.734838  0.500000  1
  Bi  Bi4  1  0.001503  0.265162  0.500000  1
  Rh  Rh5  1  0.668284  0.336619  0.500000  1
  Rh  Rh6  1  0.995951  0.000000  0.000000  1
  Rh  Rh7  1  0.331664  0.663381  0.500000  1
  Pb  Pb8  1  0.265949  0.000000  0.500000  1
