# generated using pymatgen
data_Nd5P12Ru13Rh6
_symmetry_space_group_name_H-M   'P 1'
_cell_length_a   12.68010700
_cell_length_b   12.68010694
_cell_length_c   4.00389700
_cell_angle_alpha   90.00000000
_cell_angle_beta   90.00000000
_cell_angle_gamma   119.99999756
_symmetry_Int_Tables_number   1
_chemical_formula_structural   Nd5P12Ru13Rh6
_chemical_formula_sum   'Nd5 P12 Ru13 Rh6'
_cell_volume   557.51861625
_cell_formula_units_Z   1
loop_
 _symmetry_equiv_pos_site_id
 _symmetry_equiv_pos_as_xyz
  1  'x, y, z'
loop_
 _atom_site_type_symbol
 _atom_site_label
 _atom_site_symmetry_multiplicity
 _atom_site_fract_x
 _atom_site_fract_y
 _atom_site_fract_z
 _atom_site_occupancy
  Nd  Nd0  1  0.183073  0.183021  0.500000  1
  Nd  Nd1  1  0.816979  0.000053  0.500000  1
  Nd  Nd2  1  0.999947  0.816927  0.500000  1
  Nd  Nd3  1  0.333333  0.666667  0.000000  1
  Nd  Nd4  1  0.666667  0.333333  0.000000  1
  P  P5  1  0.815476  0.812479  0.000000  1
  P  P6  1  0.187521  0.002997  0.000000  1
  P  P7  1  0.997003  0.184524  0.000000  1
  P  P8  1  0.170998  0.480634  0.500000  1
  P  P9  1  0.519366  0.690364  0.500000  1
  P  P10  1  0.309636  0.829002  0.500000  1
  P  P11  1  0.697296  0.521934  0.500000  1
  P  P12  1  0.824637  0.302704  0.500000  1
  P  P13  1  0.478066  0.175363  0.500000  1
  P  P14  1  0.373930  0.370116  0.000000  1
  P  P15  1  0.629884  0.003813  0.000000  1
  P  P16  1  0.996187  0.626070  0.000000  1
  Ru  Ru17  1  0.711494  0.712707  0.500000  1
  Ru  Ru18  1  0.287293  0.998787  0.500000  1
  Ru  Ru19  1  0.001213  0.288506  0.500000  1
  Ru  Ru20  1  0.802764  0.619931  0.000000  1
  Ru  Ru21  1  0.817166  0.197236  0.000000  1
  Ru  Ru22  1  0.380069  0.182834  0.000000  1
  Ru  Ru23  1  0.361916  0.488516  0.500000  1
  Ru  Ru24  1  0.511484  0.873399  0.500000  1
  Ru  Ru25  1  0.126601  0.638084  0.500000  1
  Ru  Ru26  1  0.878163  0.509240  0.500000  1
  Ru  Ru27  1  0.631077  0.121837  0.500000  1
  Ru  Ru28  1  0.490760  0.368923  0.500000  1
  Ru  Ru29  1  0.000000  0.000000  0.000000  1
  Rh  Rh30  1  0.548514  0.555441  0.000000  1
  Rh  Rh31  1  0.444559  0.993073  0.000000  1
  Rh  Rh32  1  0.006927  0.451486  0.000000  1
  Rh  Rh33  1  0.184521  0.375769  0.000000  1
  Rh  Rh34  1  0.624231  0.808752  0.000000  1
  Rh  Rh35  1  0.191248  0.815479  0.000000  1
