# generated using pymatgen
data_Tm6Al24ZnFe7
_symmetry_space_group_name_H-M   'P 1'
_cell_length_a   8.67951199
_cell_length_b   8.67951265
_cell_length_c   9.30808172
_cell_angle_alpha   90.09821269
_cell_angle_beta   89.90177870
_cell_angle_gamma   119.86264523
_symmetry_Int_Tables_number   1
_chemical_formula_structural   Tm6Al24ZnFe7
_chemical_formula_sum   'Tm6 Al24 Zn1 Fe7'
_cell_volume   608.10706661
_cell_formula_units_Z   1
loop_
 _symmetry_equiv_pos_site_id
 _symmetry_equiv_pos_as_xyz
  1  'x, y, z'
loop_
 _atom_site_type_symbol
 _atom_site_label
 _atom_site_symmetry_multiplicity
 _atom_site_fract_x
 _atom_site_fract_y
 _atom_site_fract_z
 _atom_site_occupancy
  Tm  Tm0  1  0.192805  0.387694  0.248853  1
  Tm  Tm1  1  0.807195  0.612306  0.751147  1
  Tm  Tm2  1  0.612306  0.807195  0.248853  1
  Tm  Tm3  1  0.387694  0.192805  0.751147  1
  Tm  Tm4  1  0.195527  0.804473  0.254780  1
  Tm  Tm5  1  0.804473  0.195527  0.745220  1
  Al  Al6  1  0.326222  0.673778  0.014887  1
  Al  Al7  1  0.673778  0.326222  0.985113  1
  Al  Al8  1  0.666390  0.333610  0.515687  1
  Al  Al9  1  0.333610  0.666390  0.484313  1
  Al  Al10  1  0.160641  0.322272  0.573199  1
  Al  Al11  1  0.839359  0.677728  0.426801  1
  Al  Al12  1  0.677728  0.839359  0.573199  1
  Al  Al13  1  0.853033  0.681352  0.078884  1
  Al  Al14  1  0.322272  0.160641  0.426801  1
  Al  Al15  1  0.146967  0.318648  0.921116  1
  Al  Al16  1  0.161871  0.838129  0.575652  1
  Al  Al17  1  0.318648  0.146967  0.078884  1
  Al  Al18  1  0.838129  0.161871  0.424348  1
  Al  Al19  1  0.681352  0.853033  0.921116  1
  Al  Al20  1  0.839093  0.160907  0.076688  1
  Al  Al21  1  0.160907  0.839093  0.923312  1
  Al  Al22  1  0.558494  0.116006  0.249396  1
  Al  Al23  1  0.441506  0.883994  0.750604  1
  Al  Al24  1  0.883994  0.441506  0.249396  1
  Al  Al25  1  0.116006  0.558494  0.750604  1
  Al  Al26  1  0.562312  0.437688  0.259521  1
  Al  Al27  1  0.437688  0.562312  0.740479  1
  Al  Al28  1  0.999514  0.000486  0.250634  1
  Al  Al29  1  0.000486  0.999514  0.749366  1
  Zn  Zn30  1  0.500000  0.500000  0.000000  1
  Fe  Fe31  1  0.500000  0.000000  0.000000  1
  Fe  Fe32  1  0.000000  0.500000  0.000000  1
  Fe  Fe33  1  0.500000  0.000000  0.500000  1
  Fe  Fe34  1  0.000000  0.500000  0.500000  1
  Fe  Fe35  1  0.500000  0.500000  0.500000  1
  Fe  Fe36  1  0.000000  0.000000  0.000000  1
  Fe  Fe37  1  0.000000  0.000000  0.500000  1
