# generated using pymatgen
data_Li2CdSbPd4
_symmetry_space_group_name_H-M   'P 1'
_cell_length_a   7.77767034
_cell_length_b   7.77767148
_cell_length_c   7.77767138
_cell_angle_alpha   33.68355537
_cell_angle_beta   33.68354331
_cell_angle_gamma   33.68355406
_symmetry_Int_Tables_number   1
_chemical_formula_structural   Li2CdSbPd4
_chemical_formula_sum   'Li2 Cd1 Sb1 Pd4'
_cell_volume   128.92893596
_cell_formula_units_Z   1
loop_
 _symmetry_equiv_pos_site_id
 _symmetry_equiv_pos_as_xyz
  1  'x, y, z'
loop_
 _atom_site_type_symbol
 _atom_site_label
 _atom_site_symmetry_multiplicity
 _atom_site_fract_x
 _atom_site_fract_y
 _atom_site_fract_z
 _atom_site_occupancy
  Li  Li0  1  0.252180  0.252180  0.252180  1
  Li  Li1  1  0.747820  0.747820  0.747820  1
  Cd  Cd2  1  0.000000  0.000000  0.000000  1
  Sb  Sb3  1  0.500000  0.500000  0.500000  1
  Pd  Pd4  1  0.621867  0.621867  0.621867  1
  Pd  Pd5  1  0.128440  0.128440  0.128440  1
  Pd  Pd6  1  0.871560  0.871560  0.871560  1
  Pd  Pd7  1  0.378133  0.378133  0.378133  1
