# generated using pymatgen
data_Sm8Lu8Sc4Si15As
_symmetry_space_group_name_H-M   'P 1'
_cell_length_a   7.36707490
_cell_length_b   7.56496167
_cell_length_c   14.33404973
_cell_angle_alpha   90.01391937
_cell_angle_beta   88.08520367
_cell_angle_gamma   90.20339383
_symmetry_Int_Tables_number   1
_chemical_formula_structural   Sm8Lu8Sc4Si15As
_chemical_formula_sum   'Sm8 Lu8 Sc4 Si15 As1'
_cell_volume   798.40898445
_cell_formula_units_Z   1
loop_
 _symmetry_equiv_pos_site_id
 _symmetry_equiv_pos_as_xyz
  1  'x, y, z'
loop_
 _atom_site_type_symbol
 _atom_site_label
 _atom_site_symmetry_multiplicity
 _atom_site_fract_x
 _atom_site_fract_y
 _atom_site_fract_z
 _atom_site_occupancy
  Sm  Sm0  1  0.013836  0.176118  0.096200  1
  Sm  Sm1  1  0.988757  0.826151  0.902457  1
  Sm  Sm2  1  0.487259  0.675482  0.901842  1
  Sm  Sm3  1  0.998277  0.821383  0.599232  1
  Sm  Sm4  1  0.512336  0.324816  0.095801  1
  Sm  Sm5  1  0.999812  0.178486  0.403192  1
  Sm  Sm6  1  0.500625  0.317903  0.400950  1
  Sm  Sm7  1  0.504376  0.678695  0.599951  1
  Lu  Lu8  1  0.169198  0.501432  0.751463  1
  Lu  Lu9  1  0.829101  0.496349  0.252574  1
  Lu  Lu10  1  0.326793  0.002975  0.250354  1
  Lu  Lu11  1  0.673278  0.999979  0.749068  1
  Lu  Lu12  1  0.350587  0.167603  0.624247  1
  Lu  Lu13  1  0.652473  0.830979  0.378239  1
  Lu  Lu14  1  0.150052  0.667994  0.379531  1
  Lu  Lu15  1  0.667178  0.821952  0.120769  1
  Sc  Sc16  1  0.844269  0.332983  0.623770  1
  Sc  Sc17  1  0.333422  0.176985  0.874420  1
  Sc  Sc18  1  0.833977  0.324077  0.875116  1
  Sc  Sc19  1  0.167058  0.676418  0.122888  1
  Si  Si20  1  0.044591  0.123546  0.752861  1
  Si  Si21  1  0.955763  0.879797  0.246751  1
  Si  Si22  1  0.450626  0.616400  0.246429  1
  Si  Si23  1  0.548443  0.381585  0.753021  1
  Si  Si24  1  0.291549  0.876369  0.753333  1
  Si  Si25  1  0.710192  0.124008  0.246968  1
  Si  Si26  1  0.208824  0.377454  0.246658  1
  Si  Si27  1  0.792688  0.620916  0.752294  1
  Si  Si28  1  0.802496  0.535550  0.459925  1
  Si  Si29  1  0.313377  0.961427  0.458852  1
  Si  Si30  1  0.851088  0.530860  0.037167  1
  Si  Si31  1  0.691148  0.044106  0.543744  1
  Si  Si32  1  0.154710  0.464901  0.960639  1
  Si  Si33  1  0.650825  0.037876  0.957228  1
  Si  Si34  1  0.341772  0.965959  0.036460  1
  As  As35  1  0.189244  0.460488  0.545607  1
