# generated using pymatgen
data_Dy6Ho4In8Pt3Au
_symmetry_space_group_name_H-M   'P 1'
_cell_length_a   3.63650200
_cell_length_b   8.18126216
_cell_length_c   18.29646102
_cell_angle_alpha   90.02770569
_cell_angle_beta   90.00000000
_cell_angle_gamma   90.00000000
_symmetry_Int_Tables_number   1
_chemical_formula_structural   Dy6Ho4In8Pt3Au
_chemical_formula_sum   'Dy6 Ho4 In8 Pt3 Au1'
_cell_volume   544.34117244
_cell_formula_units_Z   1
loop_
 _symmetry_equiv_pos_site_id
 _symmetry_equiv_pos_as_xyz
  1  'x, y, z'
loop_
 _atom_site_type_symbol
 _atom_site_label
 _atom_site_symmetry_multiplicity
 _atom_site_fract_x
 _atom_site_fract_y
 _atom_site_fract_z
 _atom_site_occupancy
  Dy  Dy0  1  0.000000  0.252470  0.217310  1
  Dy  Dy1  1  0.000000  0.755588  0.779820  1
  Dy  Dy2  1  0.000000  0.256003  0.720704  1
  Dy  Dy3  1  0.000000  0.731665  0.279139  1
  Dy  Dy4  1  0.000000  0.999521  0.999211  1
  Dy  Dy5  1  0.000000  0.499240  0.500467  1
  Ho  Ho6  1  0.000000  0.120360  0.419618  1
  Ho  Ho7  1  0.000000  0.883836  0.586088  1
  Ho  Ho8  1  0.000000  0.384105  0.914366  1
  Ho  Ho9  1  0.000000  0.616281  0.083872  1
  In  In10  1  0.500000  0.423283  0.352498  1
  In  In11  1  0.500000  0.575418  0.648610  1
  In  In12  1  0.500000  0.075469  0.851546  1
  In  In13  1  0.500000  0.923008  0.147256  1
  In  In14  1  0.500000  0.291628  0.065890  1
  In  In15  1  0.500000  0.707940  0.932926  1
  In  In16  1  0.500000  0.208412  0.567722  1
  In  In17  1  0.500000  0.791199  0.433907  1
  Pt  Pt18  1  0.500000  0.974393  0.696855  1
  Pt  Pt19  1  0.500000  0.474629  0.803476  1
  Pt  Pt20  1  0.500000  0.527326  0.196274  1
  Au  Au21  1  0.500000  0.028229  0.302446  1
