# generated using pymatgen
data_La5MgHgRu3
_symmetry_space_group_name_H-M   'P 1'
_cell_length_a   8.72112052
_cell_length_b   8.72112124
_cell_length_c   8.80176308
_cell_angle_alpha   109.50231663
_cell_angle_beta   109.47529998
_cell_angle_gamma   109.06160824
_symmetry_Int_Tables_number   1
_chemical_formula_structural   La5MgHgRu3
_chemical_formula_sum   'La10 Mg2 Hg2 Ru6'
_cell_volume   517.69876395
_cell_formula_units_Z   2
loop_
 _symmetry_equiv_pos_site_id
 _symmetry_equiv_pos_as_xyz
  1  'x, y, z'
loop_
 _atom_site_type_symbol
 _atom_site_label
 _atom_site_symmetry_multiplicity
 _atom_site_fract_x
 _atom_site_fract_y
 _atom_site_fract_z
 _atom_site_occupancy
  La  La0  1  0.788292  0.000800  0.002756  1
  La  La1  1  0.252985  0.314817  0.069449  1
  La  La2  1  0.712109  0.709605  0.211614  1
  La  La3  1  0.185453  0.935453  0.250000  1
  La  La4  1  0.997991  0.500496  0.288387  1
  La  La5  1  0.745369  0.183536  0.430551  1
  La  La6  1  0.498045  0.785536  0.497245  1
  La  La7  1  0.933259  0.751810  0.686801  1
  La  La8  1  0.317785  0.567785  0.750000  1
  La  La9  1  0.565009  0.246458  0.813198  1
  Mg  Mg10  1  0.088328  0.091626  0.590448  1
  Mg  Mg11  1  0.001178  0.497880  0.909552  1
  Hg  Hg12  1  0.405279  0.997946  0.997678  1
  Hg  Hg13  1  0.500269  0.407601  0.502322  1
  Ru  Ru14  1  0.381030  0.740466  0.135146  1
  Ru  Ru15  1  0.643611  0.393611  0.250000  1
  Ru  Ru16  1  0.105320  0.245884  0.364854  1
  Ru  Ru17  1  0.252291  0.868467  0.608702  1
  Ru  Ru18  1  0.866635  0.116636  0.750000  1
  Ru  Ru19  1  0.759766  0.643590  0.891299  1
