# generated using pymatgen
data_Er2ZnCoIr
_symmetry_space_group_name_H-M   'P 1'
_cell_length_a   5.39780594
_cell_length_b   5.39780622
_cell_length_c   5.39780631
_cell_angle_alpha   134.99046670
_cell_angle_beta   117.14229887
_cell_angle_gamma   80.60783222
_symmetry_Int_Tables_number   1
_chemical_formula_structural   Er2ZnCoIr
_chemical_formula_sum   'Er2 Zn1 Co1 Ir1'
_cell_volume   95.75314980
_cell_formula_units_Z   1
loop_
 _symmetry_equiv_pos_site_id
 _symmetry_equiv_pos_as_xyz
  1  'x, y, z'
loop_
 _atom_site_type_symbol
 _atom_site_label
 _atom_site_symmetry_multiplicity
 _atom_site_fract_x
 _atom_site_fract_y
 _atom_site_fract_z
 _atom_site_occupancy
  Er  Er0  1  0.709767  0.207414  0.502353  1
  Er  Er1  1  0.294940  0.792585  0.502353  1
  Zn  Zn2  1  0.013830  0.000000  0.013830  1
  Co  Co3  1  0.272570  0.499999  0.772569  1
  Ir  Ir4  1  0.708890  0.499999  0.208891  1
