# generated using pymatgen
data_DyEr3Al18ZnRh5
_symmetry_space_group_name_H-M   'P 1'
_cell_length_a   7.57750121
_cell_length_b   7.57778179
_cell_length_c   9.43052107
_cell_angle_alpha   90.00104061
_cell_angle_beta   90.01376443
_cell_angle_gamma   119.49764320
_symmetry_Int_Tables_number   1
_chemical_formula_structural   DyEr3Al18ZnRh5
_chemical_formula_sum   'Dy1 Er3 Al18 Zn1 Rh5'
_cell_volume   471.31435081
_cell_formula_units_Z   1
loop_
 _symmetry_equiv_pos_site_id
 _symmetry_equiv_pos_as_xyz
  1  'x, y, z'
loop_
 _atom_site_type_symbol
 _atom_site_label
 _atom_site_symmetry_multiplicity
 _atom_site_fract_x
 _atom_site_fract_y
 _atom_site_fract_z
 _atom_site_occupancy
  Dy  Dy0  1  0.995289  0.675382  0.749131  1
  Er  Er1  1  0.004688  0.324642  0.250747  1
  Er  Er2  1  0.675316  0.995328  0.749264  1
  Er  Er3  1  0.324656  0.004662  0.250742  1
  Al  Al4  1  0.134581  0.134656  0.756725  1
  Al  Al5  1  0.865477  0.865486  0.243287  1
  Al  Al6  1  0.001580  0.344154  0.579750  1
  Al  Al7  1  0.998429  0.655706  0.420084  1
  Al  Al8  1  0.001421  0.664307  0.073090  1
  Al  Al9  1  0.335837  0.998711  0.927108  1
  Al  Al10  1  0.998580  0.335580  0.927083  1
  Al  Al11  1  0.664297  0.001415  0.072974  1
  Al  Al12  1  0.655721  0.998422  0.420183  1
  Al  Al13  1  0.344425  0.001693  0.579758  1
  Al  Al14  1  0.332280  0.332281  0.051622  1
  Al  Al15  1  0.667611  0.667720  0.948459  1
  Al  Al16  1  0.658849  0.658956  0.557664  1
  Al  Al17  1  0.341033  0.341042  0.442265  1
  Al  Al18  1  0.339178  0.552232  0.751552  1
  Al  Al19  1  0.660901  0.447727  0.248447  1
  Al  Al20  1  0.552115  0.338985  0.751551  1
  Al  Al21  1  0.447729  0.660899  0.248455  1
  Zn  Zn22  1  0.999991  0.000018  0.499991  1
  Rh  Rh23  1  0.672168  0.327729  0.499947  1
  Rh  Rh24  1  0.327831  0.672234  0.499944  1
  Rh  Rh25  1  0.328367  0.671655  0.000046  1
  Rh  Rh26  1  0.671636  0.328300  0.000064  1
  Rh  Rh27  1  0.000015  0.000077  0.000066  1
