# generated using pymatgen
data_Cd4IrRu2RhO14
_symmetry_space_group_name_H-M   'P 1'
_cell_length_a   7.26829205
_cell_length_b   7.23630997
_cell_length_c   7.27314700
_cell_angle_alpha   59.83145697
_cell_angle_beta   59.97789697
_cell_angle_gamma   59.81883802
_symmetry_Int_Tables_number   1
_chemical_formula_structural   Cd4IrRu2RhO14
_chemical_formula_sum   'Cd4 Ir1 Ru2 Rh1 O14'
_cell_volume   269.73158927
_cell_formula_units_Z   1
loop_
 _symmetry_equiv_pos_site_id
 _symmetry_equiv_pos_as_xyz
  1  'x, y, z'
loop_
 _atom_site_type_symbol
 _atom_site_label
 _atom_site_symmetry_multiplicity
 _atom_site_fract_x
 _atom_site_fract_y
 _atom_site_fract_z
 _atom_site_occupancy
  Cd  Cd0  1  0.125000  0.625000  0.125000  1
  Cd  Cd1  1  0.125000  0.125000  0.625000  1
  Cd  Cd2  1  0.625000  0.125000  0.125000  1
  Cd  Cd3  1  0.125000  0.125000  0.125000  1
  Ir  Ir4  1  0.125000  0.625000  0.625000  1
  Ru  Ru5  1  0.625000  0.625000  0.125000  1
  Ru  Ru6  1  0.625000  0.625000  0.625000  1
  Rh  Rh7  1  0.625000  0.125000  0.625000  1
  O  O8  1  0.690203  0.683138  0.313330  1
  O  O9  1  0.944208  0.563825  0.547623  1
  O  O10  1  0.552660  0.945481  0.953407  1
  O  O11  1  0.957609  0.950687  0.545852  1
  O  O12  1  0.944208  0.563825  0.944343  1
  O  O13  1  0.552660  0.945481  0.548452  1
  O  O14  1  0.305792  0.686175  0.305657  1
  O  O15  1  0.305792  0.686175  0.702377  1
  O  O16  1  0.697340  0.304519  0.296593  1
  O  O17  1  0.697340  0.304519  0.701548  1
  O  O18  1  0.559797  0.566862  0.936670  1
  O  O19  1  0.292391  0.299313  0.704148  1
  O  O20  1  0.251200  0.252948  0.247927  1
  O  O21  1  0.998800  0.997052  0.002073  1
