# generated using pymatgen
data_Eu4LuTa3O14
_symmetry_space_group_name_H-M   'P 1'
_cell_length_a   7.57374189
_cell_length_b   7.57374185
_cell_length_c   7.57374182
_cell_angle_alpha   60.12196757
_cell_angle_beta   60.12196895
_cell_angle_gamma   60.12196963
_symmetry_Int_Tables_number   1
_chemical_formula_structural   Eu4LuTa3O14
_chemical_formula_sum   'Eu4 Lu1 Ta3 O14'
_cell_volume   308.04551204
_cell_formula_units_Z   1
loop_
 _symmetry_equiv_pos_site_id
 _symmetry_equiv_pos_as_xyz
  1  'x, y, z'
loop_
 _atom_site_type_symbol
 _atom_site_label
 _atom_site_symmetry_multiplicity
 _atom_site_fract_x
 _atom_site_fract_y
 _atom_site_fract_z
 _atom_site_occupancy
  Eu  Eu0  1  0.625000  0.125000  0.125000  1
  Eu  Eu1  1  0.125000  0.625000  0.125000  1
  Eu  Eu2  1  0.125000  0.125000  0.625000  1
  Eu  Eu3  1  0.125000  0.125000  0.125000  1
  Lu  Lu4  1  0.625000  0.625000  0.625000  1
  Ta  Ta5  1  0.125000  0.625000  0.625000  1
  Ta  Ta6  1  0.625000  0.125000  0.625000  1
  Ta  Ta7  1  0.625000  0.625000  0.125000  1
  O  O8  1  0.247971  0.247971  0.247971  1
  O  O9  1  0.002029  0.002029  0.002029  1
  O  O10  1  0.708055  0.708055  0.275942  1
  O  O11  1  0.312135  0.312135  0.699918  1
  O  O12  1  0.708055  0.275942  0.708055  1
  O  O13  1  0.312135  0.699918  0.312135  1
  O  O14  1  0.275942  0.708055  0.708055  1
  O  O15  1  0.699918  0.312135  0.312135  1
  O  O16  1  0.541945  0.541945  0.974058  1
  O  O17  1  0.937865  0.937865  0.550082  1
  O  O18  1  0.541945  0.974058  0.541945  1
  O  O19  1  0.937865  0.550082  0.937865  1
  O  O20  1  0.974058  0.541945  0.541945  1
  O  O21  1  0.550082  0.937865  0.937865  1
