# generated using pymatgen
data_Y3Hf3Ga6PdPt5
_symmetry_space_group_name_H-M   'P 1'
_cell_length_a   7.29495200
_cell_length_b   7.29495098
_cell_length_c   7.34349600
_cell_angle_alpha   90.00000000
_cell_angle_beta   90.00000000
_cell_angle_gamma   120.00001368
_symmetry_Int_Tables_number   1
_chemical_formula_structural   Y3Hf3Ga6PdPt5
_chemical_formula_sum   'Y3 Hf3 Ga6 Pd1 Pt5'
_cell_volume   338.43732302
_cell_formula_units_Z   1
loop_
 _symmetry_equiv_pos_site_id
 _symmetry_equiv_pos_as_xyz
  1  'x, y, z'
loop_
 _atom_site_type_symbol
 _atom_site_label
 _atom_site_symmetry_multiplicity
 _atom_site_fract_x
 _atom_site_fract_y
 _atom_site_fract_z
 _atom_site_occupancy
  Y  Y0  1  0.588151  0.998919  0.750000  1
  Y  Y1  1  0.410767  0.411849  0.750000  1
  Y  Y2  1  0.001081  0.589233  0.750000  1
  Hf  Hf3  1  0.390154  0.389096  0.250000  1
  Hf  Hf4  1  0.998940  0.609846  0.250000  1
  Hf  Hf5  1  0.610904  0.001060  0.250000  1
  Ga  Ga6  1  0.263346  0.999281  0.008098  1
  Ga  Ga7  1  0.263346  0.999281  0.491902  1
  Ga  Ga8  1  0.000719  0.264065  0.491902  1
  Ga  Ga9  1  0.000719  0.264065  0.008098  1
  Ga  Ga10  1  0.735935  0.736654  0.008098  1
  Ga  Ga11  1  0.735935  0.736654  0.491902  1
  Pd  Pd12  1  0.000000  0.000000  0.750000  1
  Pt  Pt13  1  0.666667  0.333333  0.468984  1
  Pt  Pt14  1  0.666667  0.333333  0.031016  1
  Pt  Pt15  1  0.333333  0.666667  0.034120  1
  Pt  Pt16  1  0.333333  0.666667  0.465880  1
  Pt  Pt17  1  0.000000  0.000000  0.250000  1
