# generated using pymatgen
data_Tb3Ho2Tm3In3Ir
_symmetry_space_group_name_H-M   'P 1'
_cell_length_a   10.34808500
_cell_length_b   10.34808433
_cell_length_c   7.11310300
_cell_angle_alpha   90.00000000
_cell_angle_beta   90.00000000
_cell_angle_gamma   119.99999896
_symmetry_Int_Tables_number   1
_chemical_formula_structural   Tb3Ho2Tm3In3Ir
_chemical_formula_sum   'Tb6 Ho4 Tm6 In6 Ir2'
_cell_volume   659.64409666
_cell_formula_units_Z   2
loop_
 _symmetry_equiv_pos_site_id
 _symmetry_equiv_pos_as_xyz
  1  'x, y, z'
loop_
 _atom_site_type_symbol
 _atom_site_label
 _atom_site_symmetry_multiplicity
 _atom_site_fract_x
 _atom_site_fract_y
 _atom_site_fract_z
 _atom_site_occupancy
  Tb  Tb0  1  0.533387  0.066773  0.506033  1
  Tb  Tb1  1  0.933227  0.466613  0.506033  1
  Tb  Tb2  1  0.533387  0.466613  0.506033  1
  Tb  Tb3  1  0.466613  0.933227  0.006033  1
  Tb  Tb4  1  0.066773  0.533387  0.006033  1
  Tb  Tb5  1  0.466613  0.533387  0.006033  1
  Ho  Ho6  1  0.666667  0.333333  0.889498  1
  Ho  Ho7  1  0.333333  0.666667  0.389498  1
  Ho  Ho8  1  0.000000  0.000000  0.492485  1
  Ho  Ho9  1  0.000000  0.000000  0.992485  1
  Tm  Tm10  1  0.176900  0.353798  0.711280  1
  Tm  Tm11  1  0.646202  0.823100  0.711280  1
  Tm  Tm12  1  0.176900  0.823100  0.711280  1
  Tm  Tm13  1  0.823100  0.646202  0.211280  1
  Tm  Tm14  1  0.353798  0.176900  0.211280  1
  Tm  Tm15  1  0.823100  0.176900  0.211280  1
  In  In16  1  0.837575  0.675151  0.755178  1
  In  In17  1  0.324849  0.162425  0.755178  1
  In  In18  1  0.837575  0.162425  0.755178  1
  In  In19  1  0.162425  0.324849  0.255178  1
  In  In20  1  0.675151  0.837575  0.255178  1
  In  In21  1  0.162425  0.837575  0.255178  1
  Ir  Ir22  1  0.666667  0.333333  0.279568  1
  Ir  Ir23  1  0.333333  0.666667  0.779568  1
