# generated using pymatgen
data_DyLu6Sn23Os6
_symmetry_space_group_name_H-M   'P 1'
_cell_length_a   9.81281700
_cell_length_b   9.81281742
_cell_length_c   10.07032000
_cell_angle_alpha   90.00000000
_cell_angle_beta   90.00000000
_cell_angle_gamma   120.00000196
_symmetry_Int_Tables_number   1
_chemical_formula_structural   DyLu6Sn23Os6
_chemical_formula_sum   'Dy1 Lu6 Sn23 Os6'
_cell_volume   839.77184948
_cell_formula_units_Z   1
loop_
 _symmetry_equiv_pos_site_id
 _symmetry_equiv_pos_as_xyz
  1  'x, y, z'
loop_
 _atom_site_type_symbol
 _atom_site_label
 _atom_site_symmetry_multiplicity
 _atom_site_fract_x
 _atom_site_fract_y
 _atom_site_fract_z
 _atom_site_occupancy
  Dy  Dy0  1  0.000000  0.000000  0.000000  1
  Lu  Lu1  1  0.488820  0.511180  0.300065  1
  Lu  Lu2  1  0.511180  0.488820  0.699935  1
  Lu  Lu3  1  0.488820  0.977642  0.300065  1
  Lu  Lu4  1  0.511180  0.022358  0.699935  1
  Lu  Lu5  1  0.022358  0.511180  0.300065  1
  Lu  Lu6  1  0.977642  0.488820  0.699935  1
  Sn  Sn7  1  0.349843  0.000000  0.000000  1
  Sn  Sn8  1  0.650157  0.000000  0.000000  1
  Sn  Sn9  1  0.000000  0.349843  0.000000  1
  Sn  Sn10  1  0.000000  0.650157  0.000000  1
  Sn  Sn11  1  0.650157  0.650157  0.000000  1
  Sn  Sn12  1  0.349843  0.349843  0.000000  1
  Sn  Sn13  1  0.333333  0.666667  0.830522  1
  Sn  Sn14  1  0.666667  0.333333  0.169478  1
  Sn  Sn15  1  0.000000  0.000000  0.500000  1
  Sn  Sn16  1  0.778364  0.221636  0.466028  1
  Sn  Sn17  1  0.221636  0.778364  0.533972  1
  Sn  Sn18  1  0.778364  0.556727  0.466028  1
  Sn  Sn19  1  0.221636  0.443273  0.533972  1
  Sn  Sn20  1  0.443273  0.221636  0.466028  1
  Sn  Sn21  1  0.556727  0.778364  0.533972  1
  Sn  Sn22  1  0.333333  0.666667  0.138216  1
  Sn  Sn23  1  0.666667  0.333333  0.861784  1
  Sn  Sn24  1  0.118755  0.881245  0.278291  1
  Sn  Sn25  1  0.881245  0.118755  0.721709  1
  Sn  Sn26  1  0.118755  0.237512  0.278291  1
  Sn  Sn27  1  0.881245  0.762488  0.721709  1
  Sn  Sn28  1  0.762488  0.881245  0.278291  1
  Sn  Sn29  1  0.237512  0.118755  0.721709  1
  Os  Os30  1  0.828647  0.171353  0.203307  1
  Os  Os31  1  0.171353  0.828647  0.796693  1
  Os  Os32  1  0.828647  0.657292  0.203307  1
  Os  Os33  1  0.171353  0.342708  0.796693  1
  Os  Os34  1  0.342708  0.171353  0.203307  1
  Os  Os35  1  0.657292  0.828647  0.796693  1
