# generated using pymatgen
data_DyHoS2
_symmetry_space_group_name_H-M   'P 1'
_cell_length_a   3.87463502
_cell_length_b   3.87463435
_cell_length_c   6.80760890
_cell_angle_alpha   89.99999824
_cell_angle_beta   106.53381184
_cell_angle_gamma   60.00000877
_symmetry_Int_Tables_number   1
_chemical_formula_structural   DyHoS2
_chemical_formula_sum   'Dy1 Ho1 S2'
_cell_volume   83.59371553
_cell_formula_units_Z   1
loop_
 _symmetry_equiv_pos_site_id
 _symmetry_equiv_pos_as_xyz
  1  'x, y, z'
loop_
 _atom_site_type_symbol
 _atom_site_label
 _atom_site_symmetry_multiplicity
 _atom_site_fract_x
 _atom_site_fract_y
 _atom_site_fract_z
 _atom_site_occupancy
  Dy  Dy0  1  0.999999  0.500000  0.500000  1
  Ho  Ho1  1  0.000000  0.000000  0.000000  1
  S  S2  1  0.498288  0.250855  0.247432  1
  S  S3  1  0.501712  0.749143  0.752568  1
