# generated using pymatgen
data_Y2AlGa2Cu7
_symmetry_space_group_name_H-M   'P 1'
_cell_length_a   4.16901000
_cell_length_b   5.06583374
_cell_length_c   8.86031992
_cell_angle_alpha   90.31921505
_cell_angle_beta   90.00000000
_cell_angle_gamma   90.00000000
_symmetry_Int_Tables_number   1
_chemical_formula_structural   Y2AlGa2Cu7
_chemical_formula_sum   'Y2 Al1 Ga2 Cu7'
_cell_volume   187.12272425
_cell_formula_units_Z   1
loop_
 _symmetry_equiv_pos_site_id
 _symmetry_equiv_pos_as_xyz
  1  'x, y, z'
loop_
 _atom_site_type_symbol
 _atom_site_label
 _atom_site_symmetry_multiplicity
 _atom_site_fract_x
 _atom_site_fract_y
 _atom_site_fract_z
 _atom_site_occupancy
  Y  Y0  1  0.000000  0.998705  0.999891  1
  Y  Y1  1  0.000000  0.501255  0.500111  1
  Al  Al2  1  0.500000  0.249988  0.250004  1
  Ga  Ga3  1  0.500000  0.514405  0.995221  1
  Ga  Ga4  1  0.500000  0.985516  0.504778  1
  Cu  Cu5  1  0.000000  0.001759  0.330786  1
  Cu  Cu6  1  0.000000  0.497849  0.830548  1
  Cu  Cu7  1  0.000000  0.498206  0.169207  1
  Cu  Cu8  1  0.000000  0.002121  0.669460  1
  Cu  Cu9  1  0.500000  0.750005  0.750016  1
  Cu  Cu10  1  0.500000  0.749989  0.249994  1
  Cu  Cu11  1  0.500000  0.250002  0.749984  1
