# generated using pymatgen
data_PrHoCo7Tc5P7
_symmetry_space_group_name_H-M   'P 1'
_cell_length_a   9.23080034
_cell_length_b   9.14354976
_cell_length_c   3.75691800
_cell_angle_alpha   90.00000000
_cell_angle_beta   90.00000000
_cell_angle_gamma   119.57118924
_symmetry_Int_Tables_number   1
_chemical_formula_structural   PrHoCo7Tc5P7
_chemical_formula_sum   'Pr1 Ho1 Co7 Tc5 P7'
_cell_volume   275.78900333
_cell_formula_units_Z   1
loop_
 _symmetry_equiv_pos_site_id
 _symmetry_equiv_pos_as_xyz
  1  'x, y, z'
loop_
 _atom_site_type_symbol
 _atom_site_label
 _atom_site_symmetry_multiplicity
 _atom_site_fract_x
 _atom_site_fract_y
 _atom_site_fract_z
 _atom_site_occupancy
  Pr  Pr0  1  0.670664  0.337213  0.500000  1
  Ho  Ho1  1  0.330045  0.665987  0.000000  1
  Co  Co2  1  0.117129  0.839216  0.000000  1
  Co  Co3  1  0.733535  0.883165  0.000000  1
  Co  Co4  1  0.942412  0.372428  0.000000  1
  Co  Co5  1  0.638104  0.575014  0.000000  1
  Co  Co6  1  0.419977  0.058857  0.000000  1
  Co  Co7  1  0.049656  0.613884  0.500000  1
  Co  Co8  1  0.151119  0.272470  0.000000  1
  Tc  Tc9  1  0.384967  0.437091  0.500000  1
  Tc  Tc10  1  0.564500  0.951115  0.500000  1
  Tc  Tc11  1  0.205770  0.086254  0.500000  1
  Tc  Tc12  1  0.881446  0.782637  0.500000  1
  Tc  Tc13  1  0.909625  0.122102  0.500000  1
  P  P14  1  0.001394  0.999786  0.000000  1
  P  P15  1  0.600527  0.714370  0.500000  1
  P  P16  1  0.702206  0.110833  0.000000  1
  P  P17  1  0.893741  0.593481  0.000000  1
  P  P18  1  0.406649  0.297623  0.000000  1
  P  P19  1  0.283055  0.879190  0.500000  1
  P  P20  1  0.113479  0.407283  0.500000  1
