# generated using pymatgen
data_Tm4B12IrRu
_symmetry_space_group_name_H-M   'P 1'
_cell_length_a   3.61712000
_cell_length_b   9.11138930
_cell_length_c   11.43005267
_cell_angle_alpha   90.06159675
_cell_angle_beta   90.00000000
_cell_angle_gamma   90.00000000
_symmetry_Int_Tables_number   1
_chemical_formula_structural   Tm4B12IrRu
_chemical_formula_sum   'Tm8 B24 Ir2 Ru2'
_cell_volume   376.69989637
_cell_formula_units_Z   2
loop_
 _symmetry_equiv_pos_site_id
 _symmetry_equiv_pos_as_xyz
  1  'x, y, z'
loop_
 _atom_site_type_symbol
 _atom_site_label
 _atom_site_symmetry_multiplicity
 _atom_site_fract_x
 _atom_site_fract_y
 _atom_site_fract_z
 _atom_site_occupancy
  Tm  Tm0  1  0.000000  0.318363  0.412037  1
  Tm  Tm1  1  0.000000  0.681637  0.587963  1
  Tm  Tm2  1  0.000000  0.822715  0.084914  1
  Tm  Tm3  1  0.000000  0.177285  0.915086  1
  Tm  Tm4  1  0.000000  0.946057  0.372848  1
  Tm  Tm5  1  0.000000  0.053943  0.627152  1
  Tm  Tm6  1  0.000000  0.442381  0.125738  1
  Tm  Tm7  1  0.000000  0.557619  0.874262  1
  B  B8  1  0.500000  0.552888  0.434126  1
  B  B9  1  0.500000  0.447112  0.565874  1
  B  B10  1  0.500000  0.053978  0.066425  1
  B  B11  1  0.500000  0.946022  0.933575  1
  B  B12  1  0.500000  0.750877  0.420665  1
  B  B13  1  0.500000  0.249123  0.579335  1
  B  B14  1  0.500000  0.248368  0.079630  1
  B  B15  1  0.500000  0.751632  0.920370  1
  B  B16  1  0.500000  0.793447  0.265316  1
  B  B17  1  0.500000  0.206553  0.734684  1
  B  B18  1  0.500000  0.292442  0.234728  1
  B  B19  1  0.500000  0.707558  0.765272  1
  B  B20  1  0.500000  0.631660  0.183789  1
  B  B21  1  0.500000  0.368340  0.816211  1
  B  B22  1  0.500000  0.132123  0.315247  1
  B  B23  1  0.500000  0.867877  0.684753  1
  B  B24  1  0.500000  0.982999  0.212896  1
  B  B25  1  0.500000  0.017001  0.787104  1
  B  B26  1  0.500000  0.481106  0.286524  1
  B  B27  1  0.500000  0.518894  0.713476  1
  B  B28  1  0.500000  0.609151  0.030220  1
  B  B29  1  0.500000  0.390849  0.969780  1
  B  B30  1  0.500000  0.109083  0.470411  1
  B  B31  1  0.500000  0.890917  0.529589  1
  Ir  Ir32  1  0.000000  0.637516  0.322273  1
  Ir  Ir33  1  0.000000  0.362484  0.677727  1
  Ru  Ru34  1  0.000000  0.137950  0.178977  1
  Ru  Ru35  1  0.000000  0.862050  0.821023  1
