# generated using pymatgen
data_Lu2Zr2Al17SiRh6
_symmetry_space_group_name_H-M   'P 1'
_cell_length_a   7.49198337
_cell_length_b   7.47530922
_cell_length_c   9.28688300
_cell_angle_alpha   90.00000000
_cell_angle_beta   90.00000000
_cell_angle_gamma   119.63671889
_symmetry_Int_Tables_number   1
_chemical_formula_structural   Lu2Zr2Al17SiRh6
_chemical_formula_sum   'Lu2 Zr2 Al17 Si1 Rh6'
_cell_volume   452.06904122
_cell_formula_units_Z   1
loop_
 _symmetry_equiv_pos_site_id
 _symmetry_equiv_pos_as_xyz
  1  'x, y, z'
loop_
 _atom_site_type_symbol
 _atom_site_label
 _atom_site_symmetry_multiplicity
 _atom_site_fract_x
 _atom_site_fract_y
 _atom_site_fract_z
 _atom_site_occupancy
  Lu  Lu0  1  0.675951  0.992006  0.250000  1
  Lu  Lu1  1  0.329965  0.006063  0.750000  1
  Zr  Zr2  1  0.992966  0.676185  0.250000  1
  Zr  Zr3  1  0.005078  0.328900  0.750000  1
  Al  Al4  1  0.876507  0.877767  0.750000  1
  Al  Al5  1  0.998474  0.337952  0.074893  1
  Al  Al6  1  0.001099  0.663774  0.925384  1
  Al  Al7  1  0.001099  0.663774  0.574616  1
  Al  Al8  1  0.334657  0.998648  0.420927  1
  Al  Al9  1  0.998474  0.337952  0.425107  1
  Al  Al10  1  0.667328  0.001537  0.577369  1
  Al  Al11  1  0.667328  0.001537  0.922631  1
  Al  Al12  1  0.334657  0.998648  0.079073  1
  Al  Al13  1  0.330205  0.332410  0.559777  1
  Al  Al14  1  0.666198  0.664145  0.444908  1
  Al  Al15  1  0.666198  0.664145  0.055092  1
  Al  Al16  1  0.330205  0.332410  0.940223  1
  Al  Al17  1  0.330712  0.549056  0.250000  1
  Al  Al18  1  0.666618  0.451687  0.750000  1
  Al  Al19  1  0.556143  0.339440  0.250000  1
  Al  Al20  1  0.445381  0.658469  0.750000  1
  Si  Si21  1  0.128212  0.127117  0.250000  1
  Rh  Rh22  1  0.670166  0.325424  0.000070  1
  Rh  Rh23  1  0.327299  0.671960  0.001255  1
  Rh  Rh24  1  0.327299  0.671960  0.498745  1
  Rh  Rh25  1  0.670166  0.325424  0.499930  1
  Rh  Rh26  1  0.000807  0.000804  0.006428  1
  Rh  Rh27  1  0.000807  0.000804  0.493572  1
