# generated using pymatgen
data_TbTm(ScAu)2
_symmetry_space_group_name_H-M   'P 1'
_cell_length_a   4.75631600
_cell_length_b   6.97026100
_cell_length_c   8.56056800
_cell_angle_alpha   90.00000000
_cell_angle_beta   90.00000000
_cell_angle_gamma   90.00000000
_symmetry_Int_Tables_number   1
_chemical_formula_structural   TbTm(ScAu)2
_chemical_formula_sum   'Tb2 Tm2 Sc4 Au4'
_cell_volume   283.80648991
_cell_formula_units_Z   2
loop_
 _symmetry_equiv_pos_site_id
 _symmetry_equiv_pos_as_xyz
  1  'x, y, z'
loop_
 _atom_site_type_symbol
 _atom_site_label
 _atom_site_symmetry_multiplicity
 _atom_site_fract_x
 _atom_site_fract_y
 _atom_site_fract_z
 _atom_site_occupancy
  Tb  Tb0  1  0.750000  0.517245  0.820929  1
  Tb  Tb1  1  0.750000  0.017245  0.679071  1
  Tm  Tm2  1  0.250000  0.482582  0.180622  1
  Tm  Tm3  1  0.250000  0.982582  0.319378  1
  Sc  Sc4  1  0.250000  0.854031  0.925318  1
  Sc  Sc5  1  0.250000  0.354031  0.574682  1
  Sc  Sc6  1  0.750000  0.145897  0.078902  1
  Sc  Sc7  1  0.750000  0.645897  0.421098  1
  Au  Au8  1  0.250000  0.246119  0.899919  1
  Au  Au9  1  0.250000  0.746119  0.600081  1
  Au  Au10  1  0.750000  0.754126  0.104803  1
  Au  Au11  1  0.750000  0.254126  0.395197  1
