# generated using pymatgen
data_Hf4BeNbSn3
_symmetry_space_group_name_H-M   'P 1'
_cell_length_a   5.69248200
_cell_length_b   8.50507424
_cell_length_c   8.50507400
_cell_angle_alpha   119.99999129
_cell_angle_beta   90.00000000
_cell_angle_gamma   90.00000000
_symmetry_Int_Tables_number   1
_chemical_formula_structural   Hf4BeNbSn3
_chemical_formula_sum   'Hf8 Be2 Nb2 Sn6'
_cell_volume   356.60591407
_cell_formula_units_Z   2
loop_
 _symmetry_equiv_pos_site_id
 _symmetry_equiv_pos_as_xyz
  1  'x, y, z'
loop_
 _atom_site_type_symbol
 _atom_site_label
 _atom_site_symmetry_multiplicity
 _atom_site_fract_x
 _atom_site_fract_y
 _atom_site_fract_z
 _atom_site_occupancy
  Hf  Hf0  1  0.752219  0.749520  0.749520  1
  Hf  Hf1  1  0.247781  0.250480  0.250480  1
  Hf  Hf2  1  0.752219  0.000000  0.250480  1
  Hf  Hf3  1  0.247781  0.000000  0.749520  1
  Hf  Hf4  1  0.752219  0.250480  0.000000  1
  Hf  Hf5  1  0.247781  0.749520  0.000000  1
  Hf  Hf6  1  0.500000  0.333333  0.666667  1
  Hf  Hf7  1  0.500000  0.666667  0.333333  1
  Be  Be8  1  0.000000  0.000000  0.000000  1
  Be  Be9  1  0.500000  0.000000  0.000000  1
  Nb  Nb10  1  0.000000  0.666667  0.333333  1
  Nb  Nb11  1  0.000000  0.333333  0.666667  1
  Sn  Sn12  1  0.755247  0.393228  0.393228  1
  Sn  Sn13  1  0.244753  0.606772  0.606772  1
  Sn  Sn14  1  0.755247  0.000000  0.606772  1
  Sn  Sn15  1  0.244753  0.000000  0.393228  1
  Sn  Sn16  1  0.755247  0.606772  0.000000  1
  Sn  Sn17  1  0.244753  0.393228  0.000000  1
