# generated using pymatgen
data_Ce3Ho5(TcB6)4
_symmetry_space_group_name_H-M   'P 1'
_cell_length_a   3.71956800
_cell_length_b   9.17102052
_cell_length_c   11.56123157
_cell_angle_alpha   90.08080474
_cell_angle_beta   90.00000000
_cell_angle_gamma   90.00000000
_symmetry_Int_Tables_number   1
_chemical_formula_structural   Ce3Ho5(TcB6)4
_chemical_formula_sum   'Ce3 Ho5 Tc4 B24'
_cell_volume   394.37904950
_cell_formula_units_Z   1
loop_
 _symmetry_equiv_pos_site_id
 _symmetry_equiv_pos_as_xyz
  1  'x, y, z'
loop_
 _atom_site_type_symbol
 _atom_site_label
 _atom_site_symmetry_multiplicity
 _atom_site_fract_x
 _atom_site_fract_y
 _atom_site_fract_z
 _atom_site_occupancy
  Ce  Ce0  1  0.000000  0.322574  0.414189  1
  Ce  Ce1  1  0.000000  0.677005  0.586651  1
  Ce  Ce2  1  0.000000  0.824470  0.085474  1
  Ho  Ho3  1  0.000000  0.176543  0.913988  1
  Ho  Ho4  1  0.000000  0.944502  0.371812  1
  Ho  Ho5  1  0.000000  0.056272  0.629049  1
  Ho  Ho6  1  0.000000  0.442891  0.128063  1
  Ho  Ho7  1  0.000000  0.555834  0.871426  1
  Tc  Tc8  1  0.000000  0.638917  0.320593  1
  Tc  Tc9  1  0.000000  0.361939  0.678608  1
  Tc  Tc10  1  0.000000  0.138919  0.179681  1
  Tc  Tc11  1  0.000000  0.860741  0.820836  1
  B  B12  1  0.500000  0.554421  0.431440  1
  B  B13  1  0.500000  0.445416  0.568561  1
  B  B14  1  0.500000  0.054290  0.067406  1
  B  B15  1  0.500000  0.946439  0.932181  1
  B  B16  1  0.500000  0.748933  0.418405  1
  B  B17  1  0.500000  0.250662  0.581996  1
  B  B18  1  0.500000  0.248614  0.080430  1
  B  B19  1  0.500000  0.751836  0.918514  1
  B  B20  1  0.500000  0.791762  0.266005  1
  B  B21  1  0.500000  0.207502  0.734588  1
  B  B22  1  0.500000  0.291574  0.233092  1
  B  B23  1  0.500000  0.708511  0.766402  1
  B  B24  1  0.500000  0.631684  0.185549  1
  B  B25  1  0.500000  0.367671  0.814837  1
  B  B26  1  0.500000  0.131964  0.313917  1
  B  B27  1  0.500000  0.868733  0.686367  1
  B  B28  1  0.500000  0.984273  0.212194  1
  B  B29  1  0.500000  0.017332  0.787666  1
  B  B30  1  0.500000  0.483877  0.286847  1
  B  B31  1  0.500000  0.515748  0.713344  1
  B  B32  1  0.500000  0.603812  0.028776  1
  B  B33  1  0.500000  0.394222  0.970484  1
  B  B34  1  0.500000  0.106005  0.470936  1
  B  B35  1  0.500000  0.894114  0.529693  1
