# generated using pymatgen
data_Zr2InSnIr2
_symmetry_space_group_name_H-M   'P 1'
_cell_length_a   7.54194811
_cell_length_b   7.54983668
_cell_length_c   7.13121517
_cell_angle_alpha   90.01051803
_cell_angle_beta   90.01281220
_cell_angle_gamma   120.11055443
_symmetry_Int_Tables_number   1
_chemical_formula_structural   Zr2InSnIr2
_chemical_formula_sum   'Zr6 In3 Sn3 Ir6'
_cell_volume   351.26133015
_cell_formula_units_Z   3
loop_
 _symmetry_equiv_pos_site_id
 _symmetry_equiv_pos_as_xyz
  1  'x, y, z'
loop_
 _atom_site_type_symbol
 _atom_site_label
 _atom_site_symmetry_multiplicity
 _atom_site_fract_x
 _atom_site_fract_y
 _atom_site_fract_z
 _atom_site_occupancy
  Zr  Zr0  1  0.402428  0.012193  0.247958  1
  Zr  Zr1  1  0.596972  0.606251  0.752117  1
  Zr  Zr2  1  0.603514  0.600525  0.247530  1
  Zr  Zr3  1  0.996700  0.390893  0.248187  1
  Zr  Zr4  1  0.008952  0.397586  0.752184  1
  Zr  Zr5  1  0.395258  0.999838  0.751934  1
  In  In6  1  0.279557  0.279235  0.499759  1
  In  In7  1  0.262073  0.263193  0.000277  1
  In  In8  1  0.735794  0.001466  0.999638  1
  Sn  Sn9  1  0.000236  0.719116  0.499900  1
  Sn  Sn10  1  0.722434  0.999983  0.500349  1
  Sn  Sn11  1  0.000406  0.738768  0.000213  1
  Ir  Ir12  1  0.669189  0.331822  0.514375  1
  Ir  Ir13  1  0.668712  0.337287  0.986791  1
  Ir  Ir14  1  0.329263  0.666380  0.013216  1
  Ir  Ir15  1  0.334737  0.669337  0.485500  1
  Ir  Ir16  1  0.997195  0.993202  0.731632  1
  Ir  Ir17  1  0.996582  0.992925  0.268441  1
