# generated using pymatgen
data_Y20AlBi7Te4
_symmetry_space_group_name_H-M   'P 1'
_cell_length_a   8.15819791
_cell_length_b   9.44822909
_cell_length_c   11.93083700
_cell_angle_alpha   90.12852438
_cell_angle_beta   89.96076198
_cell_angle_gamma   89.90033826
_symmetry_Int_Tables_number   1
_chemical_formula_structural   Y20AlBi7Te4
_chemical_formula_sum   'Y20 Al1 Bi7 Te4'
_cell_volume   919.63123082
_cell_formula_units_Z   1
loop_
 _symmetry_equiv_pos_site_id
 _symmetry_equiv_pos_as_xyz
  1  'x, y, z'
loop_
 _atom_site_type_symbol
 _atom_site_label
 _atom_site_symmetry_multiplicity
 _atom_site_fract_x
 _atom_site_fract_y
 _atom_site_fract_z
 _atom_site_occupancy
  Y  Y0  1  0.362049  0.758427  0.217573  1
  Y  Y1  1  0.843074  0.757178  0.286487  1
  Y  Y2  1  0.646826  0.250177  0.786206  1
  Y  Y3  1  0.146999  0.249005  0.713366  1
  Y  Y4  1  0.690557  0.560999  0.058246  1
  Y  Y5  1  0.194267  0.940758  0.440792  1
  Y  Y6  1  0.310137  0.061312  0.942449  1
  Y  Y7  1  0.809753  0.438758  0.557443  1
  Y  Y8  1  0.310701  0.438075  0.941855  1
  Y  Y9  1  0.808236  0.060318  0.555598  1
  Y  Y10  1  0.688194  0.939459  0.062355  1
  Y  Y11  1  0.191924  0.561371  0.441179  1
  Y  Y12  1  0.477379  0.242586  0.484551  1
  Y  Y13  1  0.975778  0.250800  0.011457  1
  Y  Y14  1  0.526975  0.756146  0.506503  1
  Y  Y15  1  0.025500  0.749663  0.989624  1
  Y  Y16  1  0.324691  0.243835  0.219028  1
  Y  Y17  1  0.812321  0.240362  0.283419  1
  Y  Y18  1  0.678460  0.750280  0.782696  1
  Y  Y19  1  0.180180  0.750182  0.717903  1
  Al  Al20  1  0.563272  0.997422  0.327499  1
  Bi  Bi21  1  0.068947  0.504492  0.176609  1
  Bi  Bi22  1  0.431948  0.496070  0.671730  1
  Bi  Bi23  1  0.931093  0.003650  0.825581  1
  Bi  Bi24  1  0.431783  0.004103  0.675225  1
  Bi  Bi25  1  0.930868  0.496067  0.825446  1
  Bi  Bi26  1  0.568734  0.502347  0.325977  1
  Bi  Bi27  1  0.066743  0.996032  0.174327  1
  Te  Te28  1  0.407424  0.749319  0.960150  1
  Te  Te29  1  0.910608  0.749017  0.539993  1
  Te  Te30  1  0.593604  0.250454  0.040371  1
  Te  Te31  1  0.090979  0.251334  0.458361  1
