# generated using pymatgen
data_CsNp(OF2)2
_symmetry_space_group_name_H-M   'P 1'
_cell_length_a   7.48825267
_cell_length_b   7.48825243
_cell_length_c   9.21638900
_cell_angle_alpha   60.69200960
_cell_angle_beta   60.69201066
_cell_angle_gamma   56.78795219
_symmetry_Int_Tables_number   1
_chemical_formula_structural   CsNp(OF2)2
_chemical_formula_sum   'Cs2 Np2 O4 F8'
_cell_volume   359.25737835
_cell_formula_units_Z   2
loop_
 _symmetry_equiv_pos_site_id
 _symmetry_equiv_pos_as_xyz
  1  'x, y, z'
loop_
 _atom_site_type_symbol
 _atom_site_label
 _atom_site_symmetry_multiplicity
 _atom_site_fract_x
 _atom_site_fract_y
 _atom_site_fract_z
 _atom_site_occupancy
  Cs  Cs0  1  0.731198  0.268802  0.750000  1
  Cs  Cs1  1  0.268802  0.731198  0.250000  1
  Np  Np2  1  0.000000  0.500000  0.000000  1
  Np  Np3  1  0.500000  0.000000  0.500000  1
  O  O4  1  0.042077  0.665513  0.775089  1
  O  O5  1  0.334487  0.957923  0.724911  1
  O  O6  1  0.957923  0.334487  0.224911  1
  O  O7  1  0.665513  0.042077  0.275089  1
  F  F8  1  0.239225  0.560270  0.009098  1
  F  F9  1  0.439730  0.760775  0.490902  1
  F  F10  1  0.760775  0.439730  0.990902  1
  F  F11  1  0.560270  0.239225  0.509098  1
  F  F12  1  0.265376  0.206467  0.933366  1
  F  F13  1  0.793533  0.734624  0.566634  1
  F  F14  1  0.734624  0.793533  0.066634  1
  F  F15  1  0.206467  0.265376  0.433366  1
