# generated using pymatgen
data_Pr4YSi4
_symmetry_space_group_name_H-M   'P 1'
_cell_length_a   7.84321400
_cell_length_b   7.84321400
_cell_length_c   15.35424900
_cell_angle_alpha   90.00000000
_cell_angle_beta   90.00000000
_cell_angle_gamma   90.00000000
_symmetry_Int_Tables_number   1
_chemical_formula_structural   Pr4YSi4
_chemical_formula_sum   'Pr16 Y4 Si16'
_cell_volume   944.53207130
_cell_formula_units_Z   4
loop_
 _symmetry_equiv_pos_site_id
 _symmetry_equiv_pos_as_xyz
  1  'x, y, z'
loop_
 _atom_site_type_symbol
 _atom_site_label
 _atom_site_symmetry_multiplicity
 _atom_site_fract_x
 _atom_site_fract_y
 _atom_site_fract_z
 _atom_site_occupancy
  Pr  Pr0  1  0.377987  0.013344  0.445424  1
  Pr  Pr1  1  0.486656  0.877987  0.695424  1
  Pr  Pr2  1  0.513344  0.122013  0.195424  1
  Pr  Pr3  1  0.877987  0.486656  0.304576  1
  Pr  Pr4  1  0.122013  0.513344  0.804576  1
  Pr  Pr5  1  0.622013  0.986656  0.945424  1
  Pr  Pr6  1  0.013344  0.377987  0.554576  1
  Pr  Pr7  1  0.986656  0.622013  0.054576  1
  Pr  Pr8  1  0.125189  0.975496  0.878863  1
  Pr  Pr9  1  0.524504  0.625189  0.128863  1
  Pr  Pr10  1  0.475496  0.374811  0.628863  1
  Pr  Pr11  1  0.625189  0.524504  0.871137  1
  Pr  Pr12  1  0.374811  0.475496  0.371137  1
  Pr  Pr13  1  0.874811  0.024504  0.378863  1
  Pr  Pr14  1  0.975496  0.125189  0.121137  1
  Pr  Pr15  1  0.024504  0.874811  0.621137  1
  Y  Y16  1  0.309958  0.309958  0.000000  1
  Y  Y17  1  0.190042  0.809958  0.250000  1
  Y  Y18  1  0.809958  0.190042  0.750000  1
  Y  Y19  1  0.690042  0.690042  0.500000  1
  Si  Si20  1  0.188236  0.171115  0.708970  1
  Si  Si21  1  0.328885  0.688236  0.958970  1
  Si  Si22  1  0.671115  0.311764  0.458970  1
  Si  Si23  1  0.688236  0.328885  0.041030  1
  Si  Si24  1  0.311764  0.671115  0.541030  1
  Si  Si25  1  0.811764  0.828885  0.208970  1
  Si  Si26  1  0.171115  0.188236  0.291030  1
  Si  Si27  1  0.828885  0.811764  0.791030  1
  Si  Si28  1  0.286924  0.921459  0.063590  1
  Si  Si29  1  0.578541  0.786924  0.313590  1
  Si  Si30  1  0.421459  0.213076  0.813590  1
  Si  Si31  1  0.786924  0.578541  0.686410  1
  Si  Si32  1  0.213076  0.421459  0.186410  1
  Si  Si33  1  0.713076  0.078541  0.563590  1
  Si  Si34  1  0.921459  0.286924  0.936410  1
  Si  Si35  1  0.078541  0.713076  0.436410  1
