# generated using pymatgen
data_Tb12MgIn(CoSi)2
_symmetry_space_group_name_H-M   'P 1'
_cell_length_a   8.51634909
_cell_length_b   8.51634875
_cell_length_c   8.51634907
_cell_angle_alpha   113.42648852
_cell_angle_beta   110.61234799
_cell_angle_gamma   104.50026867
_symmetry_Int_Tables_number   1
_chemical_formula_structural   Tb12MgIn(CoSi)2
_chemical_formula_sum   'Tb12 Mg1 In1 Co2 Si2'
_cell_volume   472.51990081
_cell_formula_units_Z   1
loop_
 _symmetry_equiv_pos_site_id
 _symmetry_equiv_pos_as_xyz
  1  'x, y, z'
loop_
 _atom_site_type_symbol
 _atom_site_label
 _atom_site_symmetry_multiplicity
 _atom_site_fract_x
 _atom_site_fract_y
 _atom_site_fract_z
 _atom_site_occupancy
  Tb  Tb0  1  0.438793  0.239620  0.199174  1
  Tb  Tb1  1  0.561207  0.760380  0.800826  1
  Tb  Tb2  1  0.040448  0.239620  0.800826  1
  Tb  Tb3  1  0.959552  0.760380  0.199174  1
  Tb  Tb4  1  0.187993  0.288728  0.476721  1
  Tb  Tb5  1  0.812007  0.711272  0.523279  1
  Tb  Tb6  1  0.187993  0.711272  0.899265  1
  Tb  Tb7  1  0.812007  0.288728  0.100735  1
  Tb  Tb8  1  0.303600  0.614661  0.311062  1
  Tb  Tb9  1  0.696400  0.385339  0.688938  1
  Tb  Tb10  1  0.303600  0.992539  0.688938  1
  Tb  Tb11  1  0.696400  0.007461  0.311062  1
  Mg  Mg12  1  0.000000  0.000000  0.000000  1
  In  In13  1  0.500000  0.500000  0.000000  1
  Co  Co14  1  0.107164  0.607164  0.500000  1
  Co  Co15  1  0.892836  0.392836  0.500000  1
  Si  Si16  1  0.358626  0.000000  0.358626  1
  Si  Si17  1  0.641374  0.000000  0.641374  1
