# generated using pymatgen
data_DyHo5(Tm2Sb3)2
_symmetry_space_group_name_H-M   'P 1'
_cell_length_a   6.23943500
_cell_length_b   8.93002448
_cell_length_c   8.92789500
_cell_angle_alpha   119.99135065
_cell_angle_beta   90.00000000
_cell_angle_gamma   90.00000000
_symmetry_Int_Tables_number   1
_chemical_formula_structural   DyHo5(Tm2Sb3)2
_chemical_formula_sum   'Dy1 Ho5 Tm4 Sb6'
_cell_volume   430.83945179
_cell_formula_units_Z   1
loop_
 _symmetry_equiv_pos_site_id
 _symmetry_equiv_pos_as_xyz
  1  'x, y, z'
loop_
 _atom_site_type_symbol
 _atom_site_label
 _atom_site_symmetry_multiplicity
 _atom_site_fract_x
 _atom_site_fract_y
 _atom_site_fract_z
 _atom_site_occupancy
  Dy  Dy0  1  0.250001  0.999997  0.753293  1
  Ho  Ho1  1  0.749999  0.246721  0.000036  1
  Ho  Ho2  1  0.750001  0.753245  0.753279  1
  Ho  Ho3  1  0.750001  0.999999  0.246694  1
  Ho  Ho4  1  0.249999  0.753282  0.999985  1
  Ho  Ho5  1  0.250001  0.246756  0.246744  1
  Tm  Tm6  1  0.499981  0.333324  0.666664  1
  Tm  Tm7  1  0.499984  0.666669  0.333321  1
  Tm  Tm8  1  0.000014  0.666673  0.333321  1
  Tm  Tm9  1  0.000017  0.333328  0.666664  1
  Sb  Sb10  1  0.749999  0.610523  0.999991  1
  Sb  Sb11  1  0.750001  0.389481  0.389479  1
  Sb  Sb12  1  0.750001  0.999993  0.610501  1
  Sb  Sb13  1  0.249999  0.389612  0.000122  1
  Sb  Sb14  1  0.250001  0.610386  0.610501  1
  Sb  Sb15  1  0.250001  0.000010  0.389405  1
