# generated using pymatgen
data_Tb2Gd4IrCl10
_symmetry_space_group_name_H-M   'P 1'
_cell_length_a   7.19804259
_cell_length_b   8.92435680
_cell_length_c   8.99745715
_cell_angle_alpha   108.91667588
_cell_angle_beta   97.46905800
_cell_angle_gamma   105.30736940
_symmetry_Int_Tables_number   1
_chemical_formula_structural   Tb2Gd4IrCl10
_chemical_formula_sum   'Tb2 Gd4 Ir1 Cl10'
_cell_volume   512.43398896
_cell_formula_units_Z   1
loop_
 _symmetry_equiv_pos_site_id
 _symmetry_equiv_pos_as_xyz
  1  'x, y, z'
loop_
 _atom_site_type_symbol
 _atom_site_label
 _atom_site_symmetry_multiplicity
 _atom_site_fract_x
 _atom_site_fract_y
 _atom_site_fract_z
 _atom_site_occupancy
  Tb  Tb0  1  0.136032  0.053290  0.747327  1
  Tb  Tb1  1  0.863968  0.946710  0.252673  1
  Gd  Gd2  1  0.970020  0.309489  0.102182  1
  Gd  Gd3  1  0.029980  0.690511  0.897818  1
  Gd  Gd4  1  0.626432  0.854082  0.805793  1
  Gd  Gd5  1  0.373568  0.145918  0.194207  1
  Ir  Ir6  1  0.000000  0.000000  0.000000  1
  Cl  Cl7  1  0.543997  0.173267  0.918743  1
  Cl  Cl8  1  0.456003  0.826733  0.081257  1
  Cl  Cl9  1  0.759635  0.921128  0.545201  1
  Cl  Cl10  1  0.240365  0.078872  0.454799  1
  Cl  Cl11  1  0.086788  0.365817  0.831752  1
  Cl  Cl12  1  0.913212  0.634183  0.168248  1
  Cl  Cl13  1  0.208944  0.749251  0.651309  1
  Cl  Cl14  1  0.791056  0.250749  0.348691  1
  Cl  Cl15  1  0.647926  0.543366  0.724353  1
  Cl  Cl16  1  0.352074  0.456634  0.275647  1
