# generated using pymatgen
data_Tm10Si5P
_symmetry_space_group_name_H-M   'P 1'
_cell_length_a   8.27970600
_cell_length_b   8.28557461
_cell_length_c   6.19353700
_cell_angle_alpha   90.00000000
_cell_angle_beta   90.00000000
_cell_angle_gamma   119.97656464
_symmetry_Int_Tables_number   1
_chemical_formula_structural   Tm10Si5P
_chemical_formula_sum   'Tm10 Si5 P1'
_cell_volume   368.05220751
_cell_formula_units_Z   1
loop_
 _symmetry_equiv_pos_site_id
 _symmetry_equiv_pos_as_xyz
  1  'x, y, z'
loop_
 _atom_site_type_symbol
 _atom_site_label
 _atom_site_symmetry_multiplicity
 _atom_site_fract_x
 _atom_site_fract_y
 _atom_site_fract_z
 _atom_site_occupancy
  Tm  Tm0  1  0.001070  0.757010  0.750000  1
  Tm  Tm1  1  0.000930  0.244124  0.250000  1
  Tm  Tm2  1  0.756806  0.755876  0.250000  1
  Tm  Tm3  1  0.755067  0.000000  0.750000  1
  Tm  Tm4  1  0.244060  0.242990  0.750000  1
  Tm  Tm5  1  0.243598  0.000000  0.250000  1
  Tm  Tm6  1  0.333735  0.667469  0.500521  1
  Tm  Tm7  1  0.666267  0.332531  0.999479  1
  Tm  Tm8  1  0.666267  0.332531  0.500521  1
  Tm  Tm9  1  0.333735  0.667469  0.999479  1
  Si  Si10  1  0.394347  0.393762  0.250000  1
  Si  Si11  1  0.000585  0.606238  0.250000  1
  Si  Si12  1  0.000067  0.393516  0.750000  1
  Si  Si13  1  0.606551  0.606484  0.750000  1
  Si  Si14  1  0.607038  0.000000  0.250000  1
  P  P15  1  0.389875  0.000000  0.750000  1
