# generated using pymatgen
data_Li6Y2UN6
_symmetry_space_group_name_H-M   'P 1'
_cell_length_a   6.01402900
_cell_length_b   6.01402934
_cell_length_c   5.49109900
_cell_angle_alpha   90.00000000
_cell_angle_beta   90.00000000
_cell_angle_gamma   120.00000362
_symmetry_Int_Tables_number   1
_chemical_formula_structural   Li6Y2UN6
_chemical_formula_sum   'Li6 Y2 U1 N6'
_cell_volume   171.99703103
_cell_formula_units_Z   1
loop_
 _symmetry_equiv_pos_site_id
 _symmetry_equiv_pos_as_xyz
  1  'x, y, z'
loop_
 _atom_site_type_symbol
 _atom_site_label
 _atom_site_symmetry_multiplicity
 _atom_site_fract_x
 _atom_site_fract_y
 _atom_site_fract_z
 _atom_site_occupancy
  Li  Li0  1  0.981592  0.652007  0.606057  1
  Li  Li1  1  0.347993  0.329585  0.606057  1
  Li  Li2  1  0.670415  0.018408  0.606057  1
  Li  Li3  1  0.006351  0.337581  0.391825  1
  Li  Li4  1  0.662419  0.668770  0.391825  1
  Li  Li5  1  0.331230  0.993649  0.391825  1
  Y  Y6  1  0.000000  0.000000  0.998573  1
  Y  Y7  1  0.333333  0.666667  0.993740  1
  U  U8  1  0.666667  0.333333  0.005454  1
  N  N9  1  0.977356  0.644185  0.227389  1
  N  N10  1  0.355815  0.333171  0.227389  1
  N  N11  1  0.666829  0.022644  0.227389  1
  N  N12  1  0.974853  0.333503  0.775473  1
  N  N13  1  0.666497  0.641350  0.775473  1
  N  N14  1  0.358650  0.025147  0.775473  1
