# generated using pymatgen
data_LiV(GaCo2)2
_symmetry_space_group_name_H-M   'P 1'
_cell_length_a   6.95359536
_cell_length_b   6.95359526
_cell_length_c   6.95359591
_cell_angle_alpha   33.79093503
_cell_angle_beta   33.79093740
_cell_angle_gamma   33.79093338
_symmetry_Int_Tables_number   1
_chemical_formula_structural   LiV(GaCo2)2
_chemical_formula_sum   'Li1 V1 Ga2 Co4'
_cell_volume   92.67115000
_cell_formula_units_Z   1
loop_
 _symmetry_equiv_pos_site_id
 _symmetry_equiv_pos_as_xyz
  1  'x, y, z'
loop_
 _atom_site_type_symbol
 _atom_site_label
 _atom_site_symmetry_multiplicity
 _atom_site_fract_x
 _atom_site_fract_y
 _atom_site_fract_z
 _atom_site_occupancy
  Li  Li0  1  0.000000  0.000000  0.000000  1
  V  V1  1  0.500000  0.500000  0.500000  1
  Ga  Ga2  1  0.253238  0.253238  0.253238  1
  Ga  Ga3  1  0.746762  0.746762  0.746762  1
  Co  Co4  1  0.621525  0.621525  0.621525  1
  Co  Co5  1  0.127791  0.127791  0.127791  1
  Co  Co6  1  0.872209  0.872209  0.872209  1
  Co  Co7  1  0.378475  0.378475  0.378475  1
