# generated using pymatgen
data_Tm2FeCoGe2C
_symmetry_space_group_name_H-M   'P 1'
_cell_length_a   5.64156590
_cell_length_b   5.64156535
_cell_length_c   6.75518033
_cell_angle_alpha   125.08836199
_cell_angle_beta   125.08836084
_cell_angle_gamma   40.27510853
_symmetry_Int_Tables_number   1
_chemical_formula_structural   Tm2FeCoGe2C
_chemical_formula_sum   'Tm2 Fe1 Co1 Ge2 C1'
_cell_volume   109.89080984
_cell_formula_units_Z   1
loop_
 _symmetry_equiv_pos_site_id
 _symmetry_equiv_pos_as_xyz
  1  'x, y, z'
loop_
 _atom_site_type_symbol
 _atom_site_label
 _atom_site_symmetry_multiplicity
 _atom_site_fract_x
 _atom_site_fract_y
 _atom_site_fract_z
 _atom_site_occupancy
  Tm  Tm0  1  0.557473  0.557473  0.287186  1
  Tm  Tm1  1  0.442446  0.442446  0.712731  1
  Fe  Fe2  1  0.193849  0.193849  0.082950  1
  Co  Co3  1  0.804888  0.804888  0.914964  1
  Ge  Ge4  1  0.839384  0.839384  0.300892  1
  Ge  Ge5  1  0.159741  0.159741  0.698849  1
  C  C6  1  0.002218  0.002218  0.002428  1
