# generated using pymatgen
data_Li8Dy3Y5Sn7Bi
_symmetry_space_group_name_H-M   'P 1'
_cell_length_a   9.40711700
_cell_length_b   9.40648160
_cell_length_c   7.30347513
_cell_angle_alpha   90.10450035
_cell_angle_beta   89.99789499
_cell_angle_gamma   120.00124165
_symmetry_Int_Tables_number   1
_chemical_formula_structural   Li8Dy3Y5Sn7Bi
_chemical_formula_sum   'Li8 Dy3 Y5 Sn7 Bi1'
_cell_volume   559.67713480
_cell_formula_units_Z   1
loop_
 _symmetry_equiv_pos_site_id
 _symmetry_equiv_pos_as_xyz
  1  'x, y, z'
loop_
 _atom_site_type_symbol
 _atom_site_label
 _atom_site_symmetry_multiplicity
 _atom_site_fract_x
 _atom_site_fract_y
 _atom_site_fract_z
 _atom_site_occupancy
  Li  Li0  1  0.166593  0.333269  0.285691  1
  Li  Li1  1  0.167926  0.833613  0.288934  1
  Li  Li2  1  0.665678  0.833653  0.289024  1
  Li  Li3  1  0.833373  0.666685  0.787850  1
  Li  Li4  1  0.829140  0.164672  0.791331  1
  Li  Li5  1  0.335570  0.164668  0.791261  1
  Li  Li6  1  0.335315  0.670644  0.668367  1
  Li  Li7  1  0.666228  0.332388  0.170367  1
  Dy  Dy8  1  0.021642  0.514676  0.996705  1
  Dy  Dy9  1  0.997266  0.994496  0.497459  1
  Dy  Dy10  1  0.997824  0.995609  0.002564  1
  Y  Y11  1  0.512759  0.025563  0.493709  1
  Y  Y12  1  0.517664  0.490512  0.491147  1
  Y  Y13  1  0.973009  0.490572  0.491161  1
  Y  Y14  1  0.487256  0.974476  0.994627  1
  Y  Y15  1  0.492997  0.514759  0.996488  1
  Sn  Sn16  1  0.166141  0.832682  0.729897  1
  Sn  Sn17  1  0.666593  0.832781  0.729726  1
  Sn  Sn18  1  0.833517  0.666914  0.230072  1
  Sn  Sn19  1  0.833900  0.167252  0.229663  1
  Sn  Sn20  1  0.333232  0.167195  0.229701  1
  Sn  Sn21  1  0.332583  0.665392  0.261339  1
  Sn  Sn22  1  0.667161  0.334130  0.762327  1
  Bi  Bi23  1  0.166631  0.333397  0.732585  1
