# generated using pymatgen
data_Pr8Lu12Si15Au
_symmetry_space_group_name_H-M   'P 1'
_cell_length_a   7.40618407
_cell_length_b   7.74735813
_cell_length_c   14.69660900
_cell_angle_alpha   90.00000000
_cell_angle_beta   90.00000000
_cell_angle_gamma   90.63449185
_symmetry_Int_Tables_number   1
_chemical_formula_structural   Pr8Lu12Si15Au
_chemical_formula_sum   'Pr8 Lu12 Si15 Au1'
_cell_volume   843.21562134
_cell_formula_units_Z   1
loop_
 _symmetry_equiv_pos_site_id
 _symmetry_equiv_pos_as_xyz
  1  'x, y, z'
loop_
 _atom_site_type_symbol
 _atom_site_label
 _atom_site_symmetry_multiplicity
 _atom_site_fract_x
 _atom_site_fract_y
 _atom_site_fract_z
 _atom_site_occupancy
  Pr  Pr0  1  0.016556  0.179094  0.400409  1
  Pr  Pr1  1  0.515826  0.324751  0.400494  1
  Pr  Pr2  1  0.489091  0.667020  0.907709  1
  Pr  Pr3  1  0.489091  0.667020  0.592291  1
  Pr  Pr4  1  0.982674  0.824491  0.593813  1
  Pr  Pr5  1  0.982674  0.824491  0.906187  1
  Pr  Pr6  1  0.515826  0.324751  0.099506  1
  Pr  Pr7  1  0.016556  0.179094  0.099591  1
  Lu  Lu8  1  0.324466  0.181987  0.622155  1
  Lu  Lu9  1  0.675276  0.825693  0.374512  1
  Lu  Lu10  1  0.653424  0.983377  0.750000  1
  Lu  Lu11  1  0.176224  0.675606  0.376331  1
  Lu  Lu12  1  0.826537  0.320490  0.878624  1
  Lu  Lu13  1  0.826537  0.320490  0.621376  1
  Lu  Lu14  1  0.840441  0.495443  0.250000  1
  Lu  Lu15  1  0.340625  0.007181  0.250000  1
  Lu  Lu16  1  0.324466  0.181987  0.877845  1
  Lu  Lu17  1  0.176224  0.675606  0.123669  1
  Lu  Lu18  1  0.675276  0.825693  0.125488  1
  Lu  Lu19  1  0.162968  0.508780  0.750000  1
  Si  Si20  1  0.468481  0.619105  0.250000  1
  Si  Si21  1  0.025734  0.122804  0.750000  1
  Si  Si22  1  0.536980  0.382519  0.750000  1
  Si  Si23  1  0.150703  0.468118  0.539494  1
  Si  Si24  1  0.973391  0.879852  0.250000  1
  Si  Si25  1  0.717176  0.124586  0.250000  1
  Si  Si26  1  0.845903  0.534845  0.040861  1
  Si  Si27  1  0.349833  0.966089  0.038702  1
  Si  Si28  1  0.150703  0.468118  0.960506  1
  Si  Si29  1  0.648546  0.033607  0.537888  1
  Si  Si30  1  0.349833  0.966089  0.461298  1
  Si  Si31  1  0.845903  0.534845  0.459139  1
  Si  Si32  1  0.778634  0.614247  0.750000  1
  Si  Si33  1  0.220086  0.379860  0.250000  1
  Si  Si34  1  0.648546  0.033607  0.962112  1
  Au  Au35  1  0.278793  0.878669  0.750000  1
