# generated using pymatgen
data_Lu2Ga9IrPtRh
_symmetry_space_group_name_H-M   'P 1'
_cell_length_a   7.59456202
_cell_length_b   7.59456338
_cell_length_c   9.44441102
_cell_angle_alpha   90.00351465
_cell_angle_beta   90.00351127
_cell_angle_gamma   119.87335526
_symmetry_Int_Tables_number   1
_chemical_formula_structural   Lu2Ga9IrPtRh
_chemical_formula_sum   'Lu4 Ga18 Ir2 Pt2 Rh2'
_cell_volume   472.34994128
_cell_formula_units_Z   2
loop_
 _symmetry_equiv_pos_site_id
 _symmetry_equiv_pos_as_xyz
  1  'x, y, z'
loop_
 _atom_site_type_symbol
 _atom_site_label
 _atom_site_symmetry_multiplicity
 _atom_site_fract_x
 _atom_site_fract_y
 _atom_site_fract_z
 _atom_site_occupancy
  Lu  Lu0  1  0.996721  0.673482  0.249970  1
  Lu  Lu1  1  0.003279  0.326518  0.750030  1
  Lu  Lu2  1  0.673482  0.996721  0.249970  1
  Lu  Lu3  1  0.326518  0.003279  0.750030  1
  Ga  Ga4  1  0.336222  0.550304  0.250547  1
  Ga  Ga5  1  0.663778  0.449696  0.749453  1
  Ga  Ga6  1  0.550304  0.336222  0.250547  1
  Ga  Ga7  1  0.449696  0.663778  0.749453  1
  Ga  Ga8  1  0.997649  0.338820  0.082601  1
  Ga  Ga9  1  0.002351  0.661180  0.917399  1
  Ga  Ga10  1  0.002398  0.660805  0.582466  1
  Ga  Ga11  1  0.339195  0.997602  0.417534  1
  Ga  Ga12  1  0.997602  0.339195  0.417534  1
  Ga  Ga13  1  0.660805  0.002398  0.582466  1
  Ga  Ga14  1  0.661180  0.002351  0.917399  1
  Ga  Ga15  1  0.338820  0.997649  0.082601  1
  Ga  Ga16  1  0.336044  0.336044  0.570590  1
  Ga  Ga17  1  0.663956  0.663956  0.429410  1
  Ga  Ga18  1  0.664497  0.664497  0.070609  1
  Ga  Ga19  1  0.335503  0.335503  0.929391  1
  Ga  Ga20  1  0.135721  0.135721  0.250008  1
  Ga  Ga21  1  0.864279  0.864279  0.749992  1
  Ir  Ir22  1  0.671490  0.328510  0.000000  1
  Ir  Ir23  1  0.328510  0.671490  0.000000  1
  Pt  Pt24  1  0.000000  0.000000  0.000000  1
  Pt  Pt25  1  0.000000  0.000000  0.500000  1
  Rh  Rh26  1  0.328849  0.671151  0.500000  1
  Rh  Rh27  1  0.671151  0.328849  0.500000  1
