# generated using pymatgen
data_Tb2Y2Al24Pd7Au2
_symmetry_space_group_name_H-M   'P 1'
_cell_length_a   7.58579780
_cell_length_b   7.58697776
_cell_length_c   13.19004406
_cell_angle_alpha   84.51514542
_cell_angle_beta   101.01450233
_cell_angle_gamma   119.84103983
_symmetry_Int_Tables_number   1
_chemical_formula_structural   Tb2Y2Al24Pd7Au2
_chemical_formula_sum   'Tb2 Y2 Al24 Pd7 Au2'
_cell_volume   646.34662939
_cell_formula_units_Z   1
loop_
 _symmetry_equiv_pos_site_id
 _symmetry_equiv_pos_as_xyz
  1  'x, y, z'
loop_
 _atom_site_type_symbol
 _atom_site_label
 _atom_site_symmetry_multiplicity
 _atom_site_fract_x
 _atom_site_fract_y
 _atom_site_fract_z
 _atom_site_occupancy
  Tb  Tb0  1  0.767851  0.501701  0.809706  1
  Tb  Tb1  1  0.232149  0.498299  0.190294  1
  Y  Y2  1  0.438174  0.830374  0.809158  1
  Y  Y3  1  0.561826  0.169626  0.190842  1
  Al  Al4  1  0.482670  0.165558  0.945133  1
  Al  Al5  1  0.517330  0.834442  0.054867  1
  Al  Al6  1  0.015995  0.160982  0.562409  1
  Al  Al7  1  0.984005  0.839018  0.437591  1
  Al  Al8  1  0.353178  0.839921  0.560139  1
  Al  Al9  1  0.646822  0.160079  0.439861  1
  Al  Al10  1  0.616399  0.840228  0.326660  1
  Al  Al11  1  0.383601  0.159772  0.673340  1
  Al  Al12  1  0.052869  0.492891  0.673630  1
  Al  Al13  1  0.947131  0.507109  0.326370  1
  Al  Al14  1  0.737329  0.846503  0.672016  1
  Al  Al15  1  0.262671  0.153497  0.327984  1
  Al  Al16  1  0.147871  0.500782  0.944860  1
  Al  Al17  1  0.852129  0.499218  0.055140  1
  Al  Al18  1  0.817851  0.832953  0.954914  1
  Al  Al19  1  0.182149  0.167047  0.045086  1
  Al  Al20  1  0.304675  0.500254  0.436845  1
  Al  Al21  1  0.695325  0.499746  0.563155  1
  Al  Al22  1  0.103656  0.835726  0.183505  1
  Al  Al23  1  0.896344  0.164274  0.816495  1
  Al  Al24  1  0.305059  0.365357  0.818059  1
  Al  Al25  1  0.694941  0.634643  0.181941  1
  Al  Al26  1  0.103267  0.957600  0.816004  1
  Al  Al27  1  0.896733  0.042400  0.183996  1
  Pd  Pd28  1  0.170805  0.828576  0.999764  1
  Pd  Pd29  1  0.829195  0.171424  0.000236  1
  Pd  Pd30  1  0.294943  0.833177  0.362948  1
  Pd  Pd31  1  0.705057  0.166823  0.637052  1
  Pd  Pd32  1  0.045284  0.825158  0.636575  1
  Pd  Pd33  1  0.954716  0.174842  0.363425  1
  Pd  Pd34  1  0.500000  0.500000  0.000000  1
  Au  Au35  1  0.388860  0.508438  0.637484  1
  Au  Au36  1  0.611140  0.491562  0.362516  1
