# generated using pymatgen
data_Yb3SmCdRu
_symmetry_space_group_name_H-M   'P 1'
_cell_length_a   9.86717010
_cell_length_b   9.86717017
_cell_length_c   9.86717100
_cell_angle_alpha   60.00000057
_cell_angle_beta   60.00000034
_cell_angle_gamma   60.00000433
_symmetry_Int_Tables_number   1
_chemical_formula_structural   Yb3SmCdRu
_chemical_formula_sum   'Yb12 Sm4 Cd4 Ru4'
_cell_volume   679.30202207
_cell_formula_units_Z   4
loop_
 _symmetry_equiv_pos_site_id
 _symmetry_equiv_pos_as_xyz
  1  'x, y, z'
loop_
 _atom_site_type_symbol
 _atom_site_label
 _atom_site_symmetry_multiplicity
 _atom_site_fract_x
 _atom_site_fract_y
 _atom_site_fract_z
 _atom_site_occupancy
  Yb  Yb0  1  0.950653  0.549347  0.549347  1
  Yb  Yb1  1  0.549347  0.950653  0.950653  1
  Yb  Yb2  1  0.549347  0.950653  0.549347  1
  Yb  Yb3  1  0.950653  0.549347  0.950653  1
  Yb  Yb4  1  0.549347  0.549347  0.950653  1
  Yb  Yb5  1  0.950653  0.950653  0.549347  1
  Yb  Yb6  1  0.806843  0.193157  0.193157  1
  Yb  Yb7  1  0.193157  0.806843  0.806843  1
  Yb  Yb8  1  0.193157  0.806843  0.193157  1
  Yb  Yb9  1  0.806843  0.193157  0.806843  1
  Yb  Yb10  1  0.193157  0.193157  0.806843  1
  Yb  Yb11  1  0.806843  0.806843  0.193157  1
  Sm  Sm12  1  0.341537  0.341537  0.341537  1
  Sm  Sm13  1  0.341537  0.341537  0.975386  1
  Sm  Sm14  1  0.341537  0.975386  0.341537  1
  Sm  Sm15  1  0.975386  0.341537  0.341537  1
  Cd  Cd16  1  0.580446  0.580446  0.580446  1
  Cd  Cd17  1  0.580446  0.580446  0.258661  1
  Cd  Cd18  1  0.580446  0.258661  0.580446  1
  Cd  Cd19  1  0.258661  0.580446  0.580446  1
  Ru  Ru20  1  0.137238  0.137238  0.137238  1
  Ru  Ru21  1  0.137238  0.137238  0.588286  1
  Ru  Ru22  1  0.137238  0.588286  0.137238  1
  Ru  Ru23  1  0.588286  0.137238  0.137238  1
