# generated using pymatgen
data_Dy2Si3PbO10
_symmetry_space_group_name_H-M   'P 1'
_cell_length_a   12.28958500
_cell_length_b   5.47887766
_cell_length_c   6.94008163
_cell_angle_alpha   72.37187083
_cell_angle_beta   90.00000000
_cell_angle_gamma   90.00000000
_symmetry_Int_Tables_number   1
_chemical_formula_structural   Dy2Si3PbO10
_chemical_formula_sum   'Dy4 Si6 Pb2 O20'
_cell_volume   445.35413371
_cell_formula_units_Z   2
loop_
 _symmetry_equiv_pos_site_id
 _symmetry_equiv_pos_as_xyz
  1  'x, y, z'
loop_
 _atom_site_type_symbol
 _atom_site_label
 _atom_site_symmetry_multiplicity
 _atom_site_fract_x
 _atom_site_fract_y
 _atom_site_fract_z
 _atom_site_occupancy
  Dy  Dy0  1  0.597298  0.168146  0.313439  1
  Dy  Dy1  1  0.902702  0.168146  0.313439  1
  Dy  Dy2  1  0.097298  0.831854  0.686561  1
  Dy  Dy3  1  0.402702  0.831854  0.686561  1
  Si  Si4  1  0.061622  0.700094  0.215509  1
  Si  Si5  1  0.250000  0.422287  0.485814  1
  Si  Si6  1  0.750000  0.577713  0.514186  1
  Si  Si7  1  0.438378  0.700094  0.215509  1
  Si  Si8  1  0.561622  0.299906  0.784491  1
  Si  Si9  1  0.938378  0.299906  0.784491  1
  Pb  Pb10  1  0.750000  0.803990  0.017052  1
  Pb  Pb11  1  0.250000  0.196010  0.982948  1
  O  O12  1  0.453267  0.893273  0.356108  1
  O  O13  1  0.141442  0.454867  0.342039  1
  O  O14  1  0.858558  0.545133  0.657961  1
  O  O15  1  0.358558  0.454867  0.342039  1
  O  O16  1  0.376686  0.851998  0.003180  1
  O  O17  1  0.876686  0.148002  0.996820  1
  O  O18  1  0.053146  0.429182  0.816097  1
  O  O19  1  0.953267  0.106727  0.643892  1
  O  O20  1  0.546733  0.106727  0.643892  1
  O  O21  1  0.250000  0.634183  0.609175  1
  O  O22  1  0.123314  0.851998  0.003180  1
  O  O23  1  0.553146  0.570818  0.183903  1
  O  O24  1  0.250000  0.128206  0.645659  1
  O  O25  1  0.641442  0.545133  0.657961  1
  O  O26  1  0.750000  0.871794  0.354341  1
  O  O27  1  0.946854  0.570818  0.183903  1
  O  O28  1  0.750000  0.365817  0.390825  1
  O  O29  1  0.446854  0.429182  0.816097  1
  O  O30  1  0.623314  0.148002  0.996820  1
  O  O31  1  0.046733  0.893273  0.356108  1
