# generated using pymatgen
data_PrSm6Dy(Si3Rh)4
_symmetry_space_group_name_H-M   'P 1'
_cell_length_a   8.24285601
_cell_length_b   8.24278985
_cell_length_c   8.17914100
_cell_angle_alpha   90.00000000
_cell_angle_beta   90.00000000
_cell_angle_gamma   119.99972057
_symmetry_Int_Tables_number   1
_chemical_formula_structural   PrSm6Dy(Si3Rh)4
_chemical_formula_sum   'Pr1 Sm6 Dy1 Si12 Rh4'
_cell_volume   481.27299218
_cell_formula_units_Z   1
loop_
 _symmetry_equiv_pos_site_id
 _symmetry_equiv_pos_as_xyz
  1  'x, y, z'
loop_
 _atom_site_type_symbol
 _atom_site_label
 _atom_site_symmetry_multiplicity
 _atom_site_fract_x
 _atom_site_fract_y
 _atom_site_fract_z
 _atom_site_occupancy
  Pr  Pr0  1  0.000062  0.000031  0.250000  1
  Sm  Sm1  1  0.000270  0.000136  0.750000  1
  Sm  Sm2  1  0.507069  0.493083  0.250000  1
  Sm  Sm3  1  0.507069  0.013988  0.250000  1
  Sm  Sm4  1  0.986398  0.493199  0.250000  1
  Sm  Sm5  1  0.492134  0.507607  0.750000  1
  Sm  Sm6  1  0.492134  0.984526  0.750000  1
  Dy  Dy7  1  0.013168  0.506583  0.750000  1
  Si  Si8  1  0.166779  0.832122  0.504066  1
  Si  Si9  1  0.166779  0.334659  0.504066  1
  Si  Si10  1  0.665717  0.832859  0.502110  1
  Si  Si11  1  0.832838  0.167884  0.501166  1
  Si  Si12  1  0.832838  0.664954  0.501166  1
  Si  Si13  1  0.335310  0.167655  0.500623  1
  Si  Si14  1  0.832838  0.167884  0.998834  1
  Si  Si15  1  0.832838  0.664954  0.998834  1
  Si  Si16  1  0.335310  0.167655  0.999377  1
  Si  Si17  1  0.166779  0.832122  0.995934  1
  Si  Si18  1  0.166779  0.334659  0.995934  1
  Si  Si19  1  0.665717  0.832859  0.997890  1
  Rh  Rh20  1  0.332556  0.666278  0.473734  1
  Rh  Rh21  1  0.668031  0.334014  0.533211  1
  Rh  Rh22  1  0.668031  0.334014  0.966789  1
  Rh  Rh23  1  0.332556  0.666278  0.026266  1
