# generated using pymatgen
data_Sm8As(Pd5Pt7)2
_symmetry_space_group_name_H-M   'P 1'
_cell_length_a   8.44074900
_cell_length_b   8.44476500
_cell_length_c   8.44476500
_cell_angle_alpha   90.00000000
_cell_angle_beta   90.00000000
_cell_angle_gamma   90.00000000
_symmetry_Int_Tables_number   1
_chemical_formula_structural   Sm8As(Pd5Pt7)2
_chemical_formula_sum   'Sm8 As1 Pd10 Pt14'
_cell_volume   601.94404607
_cell_formula_units_Z   1
loop_
 _symmetry_equiv_pos_site_id
 _symmetry_equiv_pos_as_xyz
  1  'x, y, z'
loop_
 _atom_site_type_symbol
 _atom_site_label
 _atom_site_symmetry_multiplicity
 _atom_site_fract_x
 _atom_site_fract_y
 _atom_site_fract_z
 _atom_site_occupancy
  Sm  Sm0  1  0.253730  0.253789  0.253789  1
  Sm  Sm1  1  0.746270  0.746211  0.746211  1
  Sm  Sm2  1  0.746270  0.746211  0.253789  1
  Sm  Sm3  1  0.746270  0.253789  0.746211  1
  Sm  Sm4  1  0.253730  0.253789  0.746211  1
  Sm  Sm5  1  0.253730  0.746211  0.253789  1
  Sm  Sm6  1  0.253730  0.746211  0.746211  1
  Sm  Sm7  1  0.746270  0.253789  0.253789  1
  As  As8  1  0.000000  0.000000  0.000000  1
  Pd  Pd9  1  0.500000  0.252242  0.500000  1
  Pd  Pd10  1  0.500000  0.747758  0.500000  1
  Pd  Pd11  1  0.500000  0.500000  0.252242  1
  Pd  Pd12  1  0.500000  0.500000  0.747758  1
  Pd  Pd13  1  0.289002  0.000000  0.000000  1
  Pd  Pd14  1  0.710998  0.000000  0.000000  1
  Pd  Pd15  1  0.000000  0.288213  0.000000  1
  Pd  Pd16  1  0.000000  0.711787  0.000000  1
  Pd  Pd17  1  0.000000  0.000000  0.288213  1
  Pd  Pd18  1  0.000000  0.000000  0.711787  1
  Pt  Pt19  1  0.258607  0.500000  0.000000  1
  Pt  Pt20  1  0.741393  0.500000  0.000000  1
  Pt  Pt21  1  0.000000  0.257796  0.500000  1
  Pt  Pt22  1  0.500000  0.258464  0.000000  1
  Pt  Pt23  1  0.000000  0.742204  0.500000  1
  Pt  Pt24  1  0.500000  0.741536  0.000000  1
  Pt  Pt25  1  0.500000  0.000000  0.258464  1
  Pt  Pt26  1  0.258607  0.000000  0.500000  1
  Pt  Pt27  1  0.500000  0.000000  0.741536  1
  Pt  Pt28  1  0.741393  0.000000  0.500000  1
  Pt  Pt29  1  0.000000  0.500000  0.257796  1
  Pt  Pt30  1  0.000000  0.500000  0.742204  1
  Pt  Pt31  1  0.250511  0.500000  0.500000  1
  Pt  Pt32  1  0.749489  0.500000  0.500000  1
