# generated using pymatgen
data_La5Pr11MgIn3Rh4
_symmetry_space_group_name_H-M   'P 1'
_cell_length_a   10.04421792
_cell_length_b   10.12048300
_cell_length_c   10.11629860
_cell_angle_alpha   59.76020974
_cell_angle_beta   60.14220317
_cell_angle_gamma   60.19298418
_symmetry_Int_Tables_number   1
_chemical_formula_structural   La5Pr11MgIn3Rh4
_chemical_formula_sum   'La5 Pr11 Mg1 In3 Rh4'
_cell_volume   727.64942044
_cell_formula_units_Z   1
loop_
 _symmetry_equiv_pos_site_id
 _symmetry_equiv_pos_as_xyz
  1  'x, y, z'
loop_
 _atom_site_type_symbol
 _atom_site_label
 _atom_site_symmetry_multiplicity
 _atom_site_fract_x
 _atom_site_fract_y
 _atom_site_fract_z
 _atom_site_occupancy
  La  La0  1  0.347542  0.346327  0.346559  1
  La  La1  1  0.350579  0.347688  0.955104  1
  La  La2  1  0.350645  0.954751  0.347882  1
  La  La3  1  0.952968  0.350262  0.350152  1
  La  La4  1  0.811101  0.189545  0.189234  1
  Pr  Pr5  1  0.183877  0.812964  0.812883  1
  Pr  Pr6  1  0.189495  0.809817  0.187699  1
  Pr  Pr7  1  0.807383  0.191693  0.806494  1
  Pr  Pr8  1  0.189200  0.187868  0.809991  1
  Pr  Pr9  1  0.807361  0.806700  0.191437  1
  Pr  Pr10  1  0.939960  0.563612  0.563624  1
  Pr  Pr11  1  0.562216  0.937779  0.937751  1
  Pr  Pr12  1  0.562013  0.939803  0.563802  1
  Pr  Pr13  1  0.938144  0.563469  0.936734  1
  Pr  Pr14  1  0.562077  0.563820  0.939573  1
  Pr  Pr15  1  0.937941  0.936760  0.563603  1
  Mg  Mg16  1  0.274018  0.574462  0.574521  1
  In  In17  1  0.581462  0.580993  0.580976  1
  In  In18  1  0.578034  0.582625  0.257686  1
  In  In19  1  0.577995  0.257678  0.582671  1
  Rh  Rh20  1  0.136879  0.144444  0.144531  1
  Rh  Rh21  1  0.143230  0.142001  0.569987  1
  Rh  Rh22  1  0.143133  0.569980  0.142191  1
  Rh  Rh23  1  0.572746  0.144961  0.144914  1
