# generated using pymatgen
data_Ho3Tm17HgBi11
_symmetry_space_group_name_H-M   'P 1'
_cell_length_a   8.14899391
_cell_length_b   9.41795200
_cell_length_c   11.90074258
_cell_angle_alpha   90.00000000
_cell_angle_beta   90.29594108
_cell_angle_gamma   90.00000000
_symmetry_Int_Tables_number   1
_chemical_formula_structural   Ho3Tm17HgBi11
_chemical_formula_sum   'Ho3 Tm17 Hg1 Bi11'
_cell_volume   913.33212620
_cell_formula_units_Z   1
loop_
 _symmetry_equiv_pos_site_id
 _symmetry_equiv_pos_as_xyz
  1  'x, y, z'
loop_
 _atom_site_type_symbol
 _atom_site_label
 _atom_site_symmetry_multiplicity
 _atom_site_fract_x
 _atom_site_fract_y
 _atom_site_fract_z
 _atom_site_occupancy
  Ho  Ho0  1  0.811636  0.250000  0.280611  1
  Ho  Ho1  1  0.685868  0.750000  0.781484  1
  Ho  Ho2  1  0.187753  0.750000  0.717234  1
  Tm  Tm3  1  0.352803  0.750000  0.217518  1
  Tm  Tm4  1  0.851668  0.750000  0.283341  1
  Tm  Tm5  1  0.645209  0.250000  0.789014  1
  Tm  Tm6  1  0.146023  0.250000  0.716268  1
  Tm  Tm7  1  0.692331  0.555094  0.059817  1
  Tm  Tm8  1  0.192328  0.934143  0.440267  1
  Tm  Tm9  1  0.313031  0.070063  0.943071  1
  Tm  Tm10  1  0.807801  0.434430  0.560188  1
  Tm  Tm11  1  0.313031  0.429937  0.943071  1
  Tm  Tm12  1  0.807801  0.065570  0.560188  1
  Tm  Tm13  1  0.692331  0.944906  0.059817  1
  Tm  Tm14  1  0.192328  0.565857  0.440267  1
  Tm  Tm15  1  0.476802  0.250000  0.489682  1
  Tm  Tm16  1  0.967409  0.250000  0.009769  1
  Tm  Tm17  1  0.523120  0.750000  0.510101  1
  Tm  Tm18  1  0.021241  0.750000  0.989371  1
  Tm  Tm19  1  0.319739  0.250000  0.213528  1
  Hg  Hg20  1  0.594555  0.250000  0.040486  1
  Bi  Bi21  1  0.404514  0.750000  0.958001  1
  Bi  Bi22  1  0.903856  0.750000  0.541877  1
  Bi  Bi23  1  0.096541  0.250000  0.456786  1
  Bi  Bi24  1  0.564246  0.996681  0.325596  1
  Bi  Bi25  1  0.065270  0.504078  0.175126  1
  Bi  Bi26  1  0.434842  0.495770  0.673680  1
  Bi  Bi27  1  0.935781  0.003931  0.824722  1
  Bi  Bi28  1  0.434842  0.004230  0.673680  1
  Bi  Bi29  1  0.935781  0.496069  0.824722  1
  Bi  Bi30  1  0.564246  0.503319  0.325596  1
  Bi  Bi31  1  0.065270  0.995922  0.175126  1
