# generated using pymatgen
data_Tb3Cd3Hg2Au
_symmetry_space_group_name_H-M   'P 1'
_cell_length_a   8.18112900
_cell_length_b   8.18112964
_cell_length_c   3.76457400
_cell_angle_alpha   90.00000000
_cell_angle_beta   90.00000000
_cell_angle_gamma   120.00000144
_symmetry_Int_Tables_number   1
_chemical_formula_structural   Tb3Cd3Hg2Au
_chemical_formula_sum   'Tb3 Cd3 Hg2 Au1'
_cell_volume   218.20916094
_cell_formula_units_Z   1
loop_
 _symmetry_equiv_pos_site_id
 _symmetry_equiv_pos_as_xyz
  1  'x, y, z'
loop_
 _atom_site_type_symbol
 _atom_site_label
 _atom_site_symmetry_multiplicity
 _atom_site_fract_x
 _atom_site_fract_y
 _atom_site_fract_z
 _atom_site_occupancy
  Tb  Tb0  1  0.610273  0.014721  0.000000  1
  Tb  Tb1  1  0.985279  0.595553  0.000000  1
  Tb  Tb2  1  0.404447  0.389727  0.000000  1
  Cd  Cd3  1  0.275830  0.996422  0.500000  1
  Cd  Cd4  1  0.003578  0.279408  0.500000  1
  Cd  Cd5  1  0.720592  0.724170  0.500000  1
  Hg  Hg6  1  0.333333  0.666667  0.500000  1
  Hg  Hg7  1  0.000000  0.000000  0.000000  1
  Au  Au8  1  0.666667  0.333333  0.500000  1
