# generated using pymatgen
data_Ho3TmFe4(CoO5)4
_symmetry_space_group_name_H-M   'P 1'
_cell_length_a   5.76282700
_cell_length_b   7.24171860
_cell_length_c   8.48607070
_cell_angle_alpha   89.95352999
_cell_angle_beta   90.00000000
_cell_angle_gamma   90.00000000
_symmetry_Int_Tables_number   1
_chemical_formula_structural   Ho3TmFe4(CoO5)4
_chemical_formula_sum   'Ho3 Tm1 Fe4 Co4 O20'
_cell_volume   354.14713244
_cell_formula_units_Z   1
loop_
 _symmetry_equiv_pos_site_id
 _symmetry_equiv_pos_as_xyz
  1  'x, y, z'
loop_
 _atom_site_type_symbol
 _atom_site_label
 _atom_site_symmetry_multiplicity
 _atom_site_fract_x
 _atom_site_fract_y
 _atom_site_fract_z
 _atom_site_occupancy
  Ho  Ho0  1  0.500000  0.633536  0.669245  1
  Ho  Ho1  1  0.500000  0.134122  0.830342  1
  Ho  Ho2  1  0.500000  0.865919  0.169652  1
  Tm  Tm3  1  0.500000  0.365304  0.330561  1
  Fe  Fe4  1  0.000000  0.109291  0.147904  1
  Fe  Fe5  1  0.000000  0.890956  0.852559  1
  Fe  Fe6  1  0.000000  0.391116  0.647015  1
  Fe  Fe7  1  0.000000  0.608365  0.352301  1
  Co  Co8  1  0.251037  0.000556  0.499743  1
  Co  Co9  1  0.748963  0.000556  0.499743  1
  Co  Co10  1  0.748945  0.499800  0.000347  1
  Co  Co11  1  0.251055  0.499800  0.000347  1
  O  O12  1  0.235079  0.999959  0.000283  1
  O  O13  1  0.764921  0.999959  0.000283  1
  O  O14  1  0.763617  0.498559  0.498878  1
  O  O15  1  0.236383  0.498559  0.498878  1
  O  O16  1  0.000000  0.353511  0.068986  1
  O  O17  1  0.000000  0.646748  0.930930  1
  O  O18  1  0.000000  0.146526  0.569062  1
  O  O19  1  0.000000  0.853260  0.430202  1
  O  O20  1  0.261078  0.108563  0.297854  1
  O  O21  1  0.739498  0.893785  0.702257  1
  O  O22  1  0.260502  0.893785  0.702257  1
  O  O23  1  0.739747  0.393676  0.797673  1
  O  O24  1  0.738922  0.108563  0.297854  1
  O  O25  1  0.261266  0.605142  0.202929  1
  O  O26  1  0.738734  0.605142  0.202929  1
  O  O27  1  0.260253  0.393676  0.797673  1
  O  O28  1  0.500000  0.340509  0.058623  1
  O  O29  1  0.500000  0.658979  0.943333  1
  O  O30  1  0.500000  0.160483  0.556303  1
  O  O31  1  0.500000  0.841297  0.443057  1
