# generated using pymatgen
data_Er10Ga3BiPtPb
_symmetry_space_group_name_H-M   'P 1'
_cell_length_a   8.70417079
_cell_length_b   8.69048112
_cell_length_c   8.58196805
_cell_angle_alpha   124.56735226
_cell_angle_beta   124.61619480
_cell_angle_gamma   83.08533726
_symmetry_Int_Tables_number   1
_chemical_formula_structural   Er10Ga3BiPtPb
_chemical_formula_sum   'Er10 Ga3 Bi1 Pt1 Pb1'
_cell_volume   419.95206181
_cell_formula_units_Z   1
loop_
 _symmetry_equiv_pos_site_id
 _symmetry_equiv_pos_as_xyz
  1  'x, y, z'
loop_
 _atom_site_type_symbol
 _atom_site_label
 _atom_site_symmetry_multiplicity
 _atom_site_fract_x
 _atom_site_fract_y
 _atom_site_fract_z
 _atom_site_occupancy
  Er  Er0  1  0.000607  0.005129  0.001916  1
  Er  Er1  1  0.501309  0.496786  0.001916  1
  Er  Er2  1  0.795287  0.293091  0.807873  1
  Er  Er3  1  0.295785  0.496143  0.509156  1
  Er  Er4  1  0.999081  0.798135  0.514714  1
  Er  Er5  1  0.713371  0.513013  0.509156  1
  Er  Er6  1  0.015633  0.216579  0.514714  1
  Er  Er7  1  0.512586  0.014782  0.807873  1
  Er  Er8  1  0.200573  0.698096  0.168142  1
  Er  Er9  1  0.467569  0.970046  0.168142  1
  Ga  Ga10  1  0.860706  0.360706  0.221412  1
  Ga  Ga11  1  0.355291  0.145278  0.500612  1
  Ga  Ga12  1  0.645321  0.855334  0.500612  1
  Bi  Bi13  1  0.754249  0.754249  0.008499  1
  Pt  Pt14  1  0.128415  0.628415  0.756830  1
  Pb  Pb15  1  0.254216  0.254216  0.008433  1
