# generated using pymatgen
data_CeLu2Mg(Co4P3)2
_symmetry_space_group_name_H-M   'P 1'
_cell_length_a   3.71730300
_cell_length_b   10.64412700
_cell_length_c   12.20953200
_cell_angle_alpha   90.00000000
_cell_angle_beta   90.00000000
_cell_angle_gamma   90.00000000
_symmetry_Int_Tables_number   1
_chemical_formula_structural   CeLu2Mg(Co4P3)2
_chemical_formula_sum   'Ce2 Lu4 Mg2 Co16 P12'
_cell_volume   483.09998869
_cell_formula_units_Z   2
loop_
 _symmetry_equiv_pos_site_id
 _symmetry_equiv_pos_as_xyz
  1  'x, y, z'
loop_
 _atom_site_type_symbol
 _atom_site_label
 _atom_site_symmetry_multiplicity
 _atom_site_fract_x
 _atom_site_fract_y
 _atom_site_fract_z
 _atom_site_occupancy
  Ce  Ce0  1  0.000000  0.500000  0.531945  1
  Ce  Ce1  1  0.500000  0.000000  0.468055  1
  Lu  Lu2  1  0.500000  0.820773  0.204627  1
  Lu  Lu3  1  0.500000  0.179227  0.204627  1
  Lu  Lu4  1  0.000000  0.679227  0.795373  1
  Lu  Lu5  1  0.000000  0.320773  0.795373  1
  Mg  Mg6  1  0.500000  0.500000  0.154142  1
  Mg  Mg7  1  0.000000  0.000000  0.845858  1
  Co  Co8  1  0.500000  0.500000  0.703780  1
  Co  Co9  1  0.000000  0.000000  0.296220  1
  Co  Co10  1  0.000000  0.500000  0.987365  1
  Co  Co11  1  0.500000  0.000000  0.012635  1
  Co  Co12  1  0.500000  0.332707  0.995783  1
  Co  Co13  1  0.500000  0.667293  0.995783  1
  Co  Co14  1  0.000000  0.167293  0.004217  1
  Co  Co15  1  0.000000  0.832707  0.004217  1
  Co  Co16  1  0.500000  0.297186  0.431549  1
  Co  Co17  1  0.500000  0.702814  0.431549  1
  Co  Co18  1  0.000000  0.202814  0.568451  1
  Co  Co19  1  0.000000  0.797186  0.568451  1
  Co  Co20  1  0.500000  0.877521  0.708674  1
  Co  Co21  1  0.500000  0.122479  0.708674  1
  Co  Co22  1  0.000000  0.622479  0.291326  1
  Co  Co23  1  0.000000  0.377521  0.291326  1
  P  P24  1  0.500000  0.500000  0.883016  1
  P  P25  1  0.000000  0.000000  0.116984  1
  P  P26  1  0.500000  0.500000  0.354390  1
  P  P27  1  0.000000  0.000000  0.645610  1
  P  P28  1  0.500000  0.306582  0.617744  1
  P  P29  1  0.500000  0.693418  0.617744  1
  P  P30  1  0.000000  0.193418  0.382256  1
  P  P31  1  0.000000  0.806582  0.382256  1
  P  P32  1  0.500000  0.838127  0.892811  1
  P  P33  1  0.500000  0.161873  0.892811  1
  P  P34  1  0.000000  0.661873  0.107189  1
  P  P35  1  0.000000  0.338127  0.107189  1
