# generated using pymatgen
data_Sm5Gd(BO3)6
_symmetry_space_group_name_H-M   'P 1'
_cell_length_a   6.71530322
_cell_length_b   6.72058083
_cell_length_c   9.79150776
_cell_angle_alpha   70.26615152
_cell_angle_beta   70.27801042
_cell_angle_gamma   60.08510719
_symmetry_Int_Tables_number   1
_chemical_formula_structural   Sm5Gd(BO3)6
_chemical_formula_sum   'Sm5 Gd1 B6 O18'
_cell_volume   352.70249348
_cell_formula_units_Z   1
loop_
 _symmetry_equiv_pos_site_id
 _symmetry_equiv_pos_as_xyz
  1  'x, y, z'
loop_
 _atom_site_type_symbol
 _atom_site_label
 _atom_site_symmetry_multiplicity
 _atom_site_fract_x
 _atom_site_fract_y
 _atom_site_fract_z
 _atom_site_occupancy
  Sm  Sm0  1  0.000032  0.500003  0.500001  1
  Sm  Sm1  1  0.500021  0.999979  0.000048  1
  Sm  Sm2  1  0.829222  0.342288  0.000957  1
  Sm  Sm3  1  0.657412  0.170887  0.499035  1
  Sm  Sm4  1  0.170832  0.657724  0.998980  1
  Gd  Gd5  1  0.343021  0.828866  0.500937  1
  B  B6  1  0.083711  0.152104  0.253387  1
  B  B7  1  0.846633  0.916627  0.247240  1
  B  B8  1  0.917323  0.847395  0.746623  1
  B  B9  1  0.152919  0.082952  0.752525  1
  B  B10  1  0.320194  0.679993  0.250406  1
  B  B11  1  0.679134  0.320950  0.749822  1
  O  O12  1  0.036893  0.214313  0.393403  1
  O  O13  1  0.784333  0.964151  0.107043  1
  O  O14  1  0.965212  0.784602  0.606640  1
  O  O15  1  0.215355  0.035893  0.892759  1
  O  O16  1  0.130518  0.308411  0.113588  1
  O  O17  1  0.689598  0.869382  0.386835  1
  O  O18  1  0.869604  0.691522  0.886423  1
  O  O19  1  0.309061  0.129619  0.612951  1
  O  O20  1  0.477205  0.617672  0.110920  1
  O  O21  1  0.382547  0.523265  0.389657  1
  O  O22  1  0.522412  0.382662  0.889267  1
  O  O23  1  0.615842  0.479213  0.610565  1
  O  O24  1  0.084041  0.704457  0.247861  1
  O  O25  1  0.296133  0.915331  0.253103  1
  O  O26  1  0.915586  0.295740  0.752102  1
  O  O27  1  0.704409  0.084722  0.747283  1
  O  O28  1  0.871194  0.128335  0.250327  1
  O  O29  1  0.129605  0.870942  0.749315  1
