# generated using pymatgen
data_Zr6Sc2Nb2Al12Co7
_symmetry_space_group_name_H-M   'P 1'
_cell_length_a   8.67580200
_cell_length_b   8.66701889
_cell_length_c   8.66701973
_cell_angle_alpha   60.05346232
_cell_angle_beta   59.96647610
_cell_angle_gamma   59.96647503
_symmetry_Int_Tables_number   1
_chemical_formula_structural   Zr6Sc2Nb2Al12Co7
_chemical_formula_sum   'Zr6 Sc2 Nb2 Al12 Co7'
_cell_volume   460.77498922
_cell_formula_units_Z   1
loop_
 _symmetry_equiv_pos_site_id
 _symmetry_equiv_pos_as_xyz
  1  'x, y, z'
loop_
 _atom_site_type_symbol
 _atom_site_label
 _atom_site_symmetry_multiplicity
 _atom_site_fract_x
 _atom_site_fract_y
 _atom_site_fract_z
 _atom_site_occupancy
  Zr  Zr0  1  0.690639  0.691731  0.310240  1
  Zr  Zr1  1  0.307390  0.691731  0.310240  1
  Zr  Zr2  1  0.692834  0.307166  0.307166  1
  Zr  Zr3  1  0.307390  0.310240  0.691731  1
  Zr  Zr4  1  0.690639  0.310240  0.691731  1
  Zr  Zr5  1  0.314602  0.685398  0.685398  1
  Sc  Sc6  1  0.350352  0.882793  0.882793  1
  Sc  Sc7  1  0.884063  0.882793  0.882793  1
  Nb  Nb8  1  0.880904  0.880868  0.357323  1
  Nb  Nb9  1  0.880904  0.357323  0.880868  1
  Al  Al10  1  0.120382  0.122617  0.636618  1
  Al  Al11  1  0.120382  0.636618  0.122617  1
  Al  Al12  1  0.637534  0.120928  0.120928  1
  Al  Al13  1  0.120612  0.120928  0.120928  1
  Al  Al14  1  0.663529  0.666173  0.006766  1
  Al  Al15  1  0.663529  0.006766  0.666173  1
  Al  Al16  1  0.006731  0.664686  0.664686  1
  Al  Al17  1  0.663896  0.664686  0.664686  1
  Al  Al18  1  0.334738  0.334473  0.996052  1
  Al  Al19  1  0.334738  0.996052  0.334473  1
  Al  Al20  1  0.996703  0.334341  0.334341  1
  Al  Al21  1  0.334615  0.334341  0.334341  1
  Co  Co22  1  0.990771  0.009229  0.009229  1
  Co  Co23  1  0.997540  0.999304  0.492613  1
  Co  Co24  1  0.510543  0.999304  0.492613  1
  Co  Co25  1  0.996577  0.503423  0.503423  1
  Co  Co26  1  0.510543  0.492613  0.999304  1
  Co  Co27  1  0.997540  0.492613  0.999304  1
  Co  Co28  1  0.499382  0.000618  0.000618  1
