# generated using pymatgen
data_Yb3Pr(Ho3Ru2)2
_symmetry_space_group_name_H-M   'P 1'
_cell_length_a   6.43103039
_cell_length_b   7.27251316
_cell_length_c   8.53976507
_cell_angle_alpha   96.97583070
_cell_angle_beta   112.17649509
_cell_angle_gamma   90.08622473
_symmetry_Int_Tables_number   1
_chemical_formula_structural   Yb3Pr(Ho3Ru2)2
_chemical_formula_sum   'Yb3 Pr1 Ho6 Ru4'
_cell_volume   366.63183064
_cell_formula_units_Z   1
loop_
 _symmetry_equiv_pos_site_id
 _symmetry_equiv_pos_as_xyz
  1  'x, y, z'
loop_
 _atom_site_type_symbol
 _atom_site_label
 _atom_site_symmetry_multiplicity
 _atom_site_fract_x
 _atom_site_fract_y
 _atom_site_fract_z
 _atom_site_occupancy
  Yb  Yb0  1  0.793226  0.579733  0.813789  1
  Yb  Yb1  1  0.019781  0.081448  0.812316  1
  Yb  Yb2  1  0.203832  0.419053  0.182654  1
  Pr  Pr3  1  0.978335  0.918588  0.186009  1
  Ho  Ho4  1  0.635519  0.816651  0.433421  1
  Ho  Ho5  1  0.201034  0.683984  0.566912  1
  Ho  Ho6  1  0.363824  0.183286  0.568259  1
  Ho  Ho7  1  0.801818  0.313834  0.435130  1
  Ho  Ho8  1  0.425730  0.749348  0.998121  1
  Ho  Ho9  1  0.568534  0.249721  0.997976  1
  Ru  Ru10  1  0.817057  0.575034  0.228991  1
  Ru  Ru11  1  0.589007  0.925927  0.774443  1
  Ru  Ru12  1  0.185669  0.427446  0.770116  1
  Ru  Ru13  1  0.416634  0.075947  0.231864  1
