# generated using pymatgen
data_Tb14Er6Co3Bi8Os
_symmetry_space_group_name_H-M   'P 1'
_cell_length_a   8.00973932
_cell_length_b   8.93809157
_cell_length_c   12.47279329
_cell_angle_alpha   89.94715572
_cell_angle_beta   90.34737229
_cell_angle_gamma   90.04300996
_symmetry_Int_Tables_number   1
_chemical_formula_structural   Tb14Er6Co3Bi8Os
_chemical_formula_sum   'Tb14 Er6 Co3 Bi8 Os1'
_cell_volume   892.93247739
_cell_formula_units_Z   1
loop_
 _symmetry_equiv_pos_site_id
 _symmetry_equiv_pos_as_xyz
  1  'x, y, z'
loop_
 _atom_site_type_symbol
 _atom_site_label
 _atom_site_symmetry_multiplicity
 _atom_site_fract_x
 _atom_site_fract_y
 _atom_site_fract_z
 _atom_site_occupancy
  Tb  Tb0  1  0.847834  0.750334  0.800364  1
  Tb  Tb1  1  0.151212  0.249603  0.198113  1
  Tb  Tb2  1  0.349856  0.249873  0.698026  1
  Tb  Tb3  1  0.652855  0.750116  0.295160  1
  Tb  Tb4  1  0.379301  0.750000  0.694052  1
  Tb  Tb5  1  0.617788  0.250027  0.310922  1
  Tb  Tb6  1  0.881389  0.249297  0.810976  1
  Tb  Tb7  1  0.117953  0.750699  0.186970  1
  Tb  Tb8  1  0.944977  0.750055  0.504305  1
  Tb  Tb9  1  0.050685  0.249949  0.496390  1
  Tb  Tb10  1  0.452213  0.249521  0.997366  1
  Tb  Tb11  1  0.546722  0.750473  0.002350  1
  Tb  Tb12  1  0.822586  0.464563  0.062781  1
  Tb  Tb13  1  0.176438  0.533562  0.936988  1
  Er  Er14  1  0.675392  0.041536  0.564486  1
  Er  Er15  1  0.326014  0.964622  0.437321  1
  Er  Er16  1  0.173947  0.966347  0.937216  1
  Er  Er17  1  0.325931  0.535288  0.437423  1
  Er  Er18  1  0.825000  0.035569  0.062469  1
  Er  Er19  1  0.675350  0.458538  0.564431  1
  Co  Co20  1  0.435187  0.250006  0.491006  1
  Co  Co21  1  0.059159  0.248702  0.992168  1
  Co  Co22  1  0.939042  0.751357  0.006990  1
  Bi  Bi23  1  0.572836  0.491397  0.827231  1
  Bi  Bi24  1  0.426669  0.507597  0.173447  1
  Bi  Bi25  1  0.071544  0.507363  0.674193  1
  Bi  Bi26  1  0.427690  0.992534  0.173246  1
  Bi  Bi27  1  0.930847  0.492485  0.326004  1
  Bi  Bi28  1  0.571840  0.008463  0.827467  1
  Bi  Bi29  1  0.930708  0.007592  0.325757  1
  Bi  Bi30  1  0.071734  0.992530  0.674476  1
  Os  Os31  1  0.569304  0.750004  0.509907  1
