# generated using pymatgen
data_Tb10Sn6Ge
_symmetry_space_group_name_H-M   'P 1'
_cell_length_a   6.62738401
_cell_length_b   9.16032154
_cell_length_c   9.16037301
_cell_angle_alpha   119.99982049
_cell_angle_beta   90.00021877
_cell_angle_gamma   89.99956872
_symmetry_Int_Tables_number   1
_chemical_formula_structural   Tb10Sn6Ge
_chemical_formula_sum   'Tb10 Sn6 Ge1'
_cell_volume   481.61214383
_cell_formula_units_Z   1
loop_
 _symmetry_equiv_pos_site_id
 _symmetry_equiv_pos_as_xyz
  1  'x, y, z'
loop_
 _atom_site_type_symbol
 _atom_site_label
 _atom_site_symmetry_multiplicity
 _atom_site_fract_x
 _atom_site_fract_y
 _atom_site_fract_z
 _atom_site_occupancy
  Tb  Tb0  1  0.500000  0.333325  0.666651  1
  Tb  Tb1  1  0.500000  0.666675  0.333349  1
  Tb  Tb2  1  0.000000  0.666651  0.333302  1
  Tb  Tb3  1  0.000000  0.333349  0.666698  1
  Tb  Tb4  1  0.747181  0.252922  0.000000  1
  Tb  Tb5  1  0.747160  0.747079  0.747069  1
  Tb  Tb6  1  0.747160  0.000009  0.252931  1
  Tb  Tb7  1  0.252818  0.747078  0.000000  1
  Tb  Tb8  1  0.252839  0.252921  0.252932  1
  Tb  Tb9  1  0.252839  0.999990  0.747068  1
  Sn  Sn10  1  0.748693  0.608795  0.000000  1
  Sn  Sn11  1  0.748754  0.391201  0.391203  1
  Sn  Sn12  1  0.748754  0.999998  0.608797  1
  Sn  Sn13  1  0.251306  0.391204  0.000000  1
  Sn  Sn14  1  0.251247  0.608799  0.608798  1
  Sn  Sn15  1  0.251247  0.000001  0.391202  1
  Ge  Ge16  1  0.499999  0.000001  0.000000  1
