# generated using pymatgen
data_Zr5Tc24
_symmetry_space_group_name_H-M   'P 1'
_cell_length_a   8.44198836
_cell_length_b   8.44198758
_cell_length_c   8.44198800
_cell_angle_alpha   109.47122165
_cell_angle_beta   109.47121976
_cell_angle_gamma   109.47121999
_symmetry_Int_Tables_number   1
_chemical_formula_structural   Zr5Tc24
_chemical_formula_sum   'Zr5 Tc24'
_cell_volume   463.14000967
_cell_formula_units_Z   1
loop_
 _symmetry_equiv_pos_site_id
 _symmetry_equiv_pos_as_xyz
  1  'x, y, z'
loop_
 _atom_site_type_symbol
 _atom_site_label
 _atom_site_symmetry_multiplicity
 _atom_site_fract_x
 _atom_site_fract_y
 _atom_site_fract_z
 _atom_site_occupancy
  Zr  Zr0  1  0.000000  0.000000  0.000000  1
  Zr  Zr1  1  0.000000  0.376991  0.000000  1
  Zr  Zr2  1  0.376991  0.000000  0.000000  1
  Zr  Zr3  1  0.000000  0.000000  0.376991  1
  Zr  Zr4  1  0.623008  0.623008  0.623008  1
  Tc  Tc5  1  0.000000  0.606325  0.326344  1
  Tc  Tc6  1  0.606325  0.000000  0.326344  1
  Tc  Tc7  1  0.326344  0.000000  0.606325  1
  Tc  Tc8  1  0.279981  0.673656  0.673656  1
  Tc  Tc9  1  0.673656  0.279981  0.673656  1
  Tc  Tc10  1  0.000000  0.326344  0.606325  1
  Tc  Tc11  1  0.393674  0.720018  0.393674  1
  Tc  Tc12  1  0.720018  0.393674  0.393674  1
  Tc  Tc13  1  0.326344  0.606325  0.000000  1
  Tc  Tc14  1  0.606325  0.326344  0.000000  1
  Tc  Tc15  1  0.673656  0.673656  0.279981  1
  Tc  Tc16  1  0.393674  0.393674  0.720018  1
  Tc  Tc17  1  0.625478  0.000000  0.805531  1
  Tc  Tc18  1  0.000000  0.625478  0.805531  1
  Tc  Tc19  1  0.805531  0.000000  0.625478  1
  Tc  Tc20  1  0.819948  0.194469  0.194469  1
  Tc  Tc21  1  0.194469  0.819948  0.194469  1
  Tc  Tc22  1  0.000000  0.805531  0.625478  1
  Tc  Tc23  1  0.374521  0.180051  0.374521  1
  Tc  Tc24  1  0.180051  0.374521  0.374521  1
  Tc  Tc25  1  0.805531  0.625478  0.000000  1
  Tc  Tc26  1  0.625478  0.805531  0.000000  1
  Tc  Tc27  1  0.194469  0.194469  0.819948  1
  Tc  Tc28  1  0.374521  0.374521  0.180051  1
