# generated using pymatgen
data_Hf4Zr2MnSb2
_symmetry_space_group_name_H-M   'P 1'
_cell_length_a   7.80400185
_cell_length_b   7.80400166
_cell_length_c   3.66268800
_cell_angle_alpha   90.00000000
_cell_angle_beta   90.00000000
_cell_angle_gamma   121.09058165
_symmetry_Int_Tables_number   1
_chemical_formula_structural   Hf4Zr2MnSb2
_chemical_formula_sum   'Hf4 Zr2 Mn1 Sb2'
_cell_volume   191.02356652
_cell_formula_units_Z   1
loop_
 _symmetry_equiv_pos_site_id
 _symmetry_equiv_pos_as_xyz
  1  'x, y, z'
loop_
 _atom_site_type_symbol
 _atom_site_label
 _atom_site_symmetry_multiplicity
 _atom_site_fract_x
 _atom_site_fract_y
 _atom_site_fract_z
 _atom_site_occupancy
  Hf  Hf0  1  0.234613  0.992874  0.500000  1
  Hf  Hf1  1  0.992874  0.234613  0.500000  1
  Hf  Hf2  1  0.764224  0.764224  0.500000  1
  Hf  Hf3  1  0.386453  0.386453  0.000000  1
  Zr  Zr4  1  0.601692  0.999095  0.000000  1
  Zr  Zr5  1  0.999095  0.601692  0.000000  1
  Mn  Mn6  1  0.023841  0.023841  0.000000  1
  Sb  Sb7  1  0.333758  0.663451  0.500000  1
  Sb  Sb8  1  0.663451  0.333758  0.500000  1
