# generated using pymatgen
data_KCr6InS6
_symmetry_space_group_name_H-M   'P 1'
_cell_length_a   8.72530600
_cell_length_b   8.72530494
_cell_length_c   4.08583300
_cell_angle_alpha   90.00000000
_cell_angle_beta   90.00000000
_cell_angle_gamma   119.99999645
_symmetry_Int_Tables_number   1
_chemical_formula_structural   KCr6InS6
_chemical_formula_sum   'K1 Cr6 In1 S6'
_cell_volume   269.38446039
_cell_formula_units_Z   1
loop_
 _symmetry_equiv_pos_site_id
 _symmetry_equiv_pos_as_xyz
  1  'x, y, z'
loop_
 _atom_site_type_symbol
 _atom_site_label
 _atom_site_symmetry_multiplicity
 _atom_site_fract_x
 _atom_site_fract_y
 _atom_site_fract_z
 _atom_site_occupancy
  K  K0  1  0.000000  0.000000  0.500000  1
  Cr  Cr1  1  0.502061  0.820466  0.500000  1
  Cr  Cr2  1  0.179534  0.681594  0.500000  1
  Cr  Cr3  1  0.318406  0.497939  0.500000  1
  Cr  Cr4  1  0.164506  0.513142  0.000000  1
  Cr  Cr5  1  0.486858  0.651364  0.000000  1
  Cr  Cr6  1  0.348636  0.835494  0.000000  1
  In  In7  1  0.666667  0.333333  0.000000  1
  S  S8  1  0.625447  0.633636  0.500000  1
  S  S9  1  0.366364  0.991811  0.500000  1
  S  S10  1  0.008189  0.374553  0.500000  1
  S  S11  1  0.038209  0.696076  0.000000  1
  S  S12  1  0.303924  0.342134  0.000000  1
  S  S13  1  0.657866  0.961791  0.000000  1
