# generated using pymatgen
data_Dy20Tc3Bi8Au
_symmetry_space_group_name_H-M   'P 1'
_cell_length_a   8.00286002
_cell_length_b   9.13786600
_cell_length_c   12.37035069
_cell_angle_alpha   90.00000000
_cell_angle_beta   90.16131270
_cell_angle_gamma   90.00000000
_symmetry_Int_Tables_number   1
_chemical_formula_structural   Dy20Tc3Bi8Au
_chemical_formula_sum   'Dy20 Tc3 Bi8 Au1'
_cell_volume   904.62856344
_cell_formula_units_Z   1
loop_
 _symmetry_equiv_pos_site_id
 _symmetry_equiv_pos_as_xyz
  1  'x, y, z'
loop_
 _atom_site_type_symbol
 _atom_site_label
 _atom_site_symmetry_multiplicity
 _atom_site_fract_x
 _atom_site_fract_y
 _atom_site_fract_z
 _atom_site_occupancy
  Dy  Dy0  1  0.828311  0.750000  0.778220  1
  Dy  Dy1  1  0.160695  0.250000  0.211157  1
  Dy  Dy2  1  0.341919  0.250000  0.709775  1
  Dy  Dy3  1  0.652877  0.750000  0.295896  1
  Dy  Dy4  1  0.376285  0.750000  0.694571  1
  Dy  Dy5  1  0.620656  0.250000  0.305976  1
  Dy  Dy6  1  0.876863  0.250000  0.805427  1
  Dy  Dy7  1  0.133957  0.750000  0.201196  1
  Dy  Dy8  1  0.948159  0.750000  0.501769  1
  Dy  Dy9  1  0.053996  0.250000  0.496093  1
  Dy  Dy10  1  0.452245  0.250000  0.997198  1
  Dy  Dy11  1  0.544932  0.750000  0.002927  1
  Dy  Dy12  1  0.675736  0.040554  0.563562  1
  Dy  Dy13  1  0.324449  0.960414  0.437399  1
  Dy  Dy14  1  0.178476  0.968339  0.932754  1
  Dy  Dy15  1  0.324449  0.539586  0.437399  1
  Dy  Dy16  1  0.821889  0.054672  0.065998  1
  Dy  Dy17  1  0.675736  0.459446  0.563562  1
  Dy  Dy18  1  0.821889  0.445328  0.065998  1
  Dy  Dy19  1  0.178476  0.531661  0.932754  1
  Tc  Tc20  1  0.581786  0.750000  0.517408  1
  Tc  Tc21  1  0.419927  0.250000  0.487856  1
  Tc  Tc22  1  0.082060  0.250000  0.987877  1
  Bi  Bi23  1  0.572164  0.492231  0.828697  1
  Bi  Bi24  1  0.429514  0.507946  0.171509  1
  Bi  Bi25  1  0.070737  0.507657  0.671845  1
  Bi  Bi26  1  0.429514  0.992054  0.171509  1
  Bi  Bi27  1  0.928106  0.493541  0.326027  1
  Bi  Bi28  1  0.572164  0.007769  0.828697  1
  Bi  Bi29  1  0.928106  0.006459  0.326027  1
  Bi  Bi30  1  0.070737  0.992343  0.671845  1
  Au  Au31  1  0.923192  0.750000  0.011067  1
