# generated using pymatgen
data_Ti10(C2N)3
_symmetry_space_group_name_H-M   'P 1'
_cell_length_a   8.07727731
_cell_length_b   8.06784836
_cell_length_c   10.09301304
_cell_angle_alpha   62.79556888
_cell_angle_beta   62.78828138
_cell_angle_gamma   44.44082408
_symmetry_Int_Tables_number   1
_chemical_formula_structural   Ti10(C2N)3
_chemical_formula_sum   'Ti20 C12 N6'
_cell_volume   400.43004937
_cell_formula_units_Z   2
loop_
 _symmetry_equiv_pos_site_id
 _symmetry_equiv_pos_as_xyz
  1  'x, y, z'
loop_
 _atom_site_type_symbol
 _atom_site_label
 _atom_site_symmetry_multiplicity
 _atom_site_fract_x
 _atom_site_fract_y
 _atom_site_fract_z
 _atom_site_occupancy
  Ti  Ti0  1  0.225524  0.480924  0.947500  1
  Ti  Ti1  1  0.720863  0.964444  0.960395  1
  Ti  Ti2  1  0.561631  0.329695  0.650133  1
  Ti  Ti3  1  0.439547  0.668534  0.349521  1
  Ti  Ti4  1  0.279990  0.034968  0.039895  1
  Ti  Ti5  1  0.083457  0.812976  0.643809  1
  Ti  Ti6  1  0.124549  0.370782  0.749925  1
  Ti  Ti7  1  0.917426  0.185679  0.357498  1
  Ti  Ti8  1  0.965381  0.722501  0.457670  1
  Ti  Ti9  1  0.774432  0.520110  0.051229  1
  Ti  Ti10  1  0.627301  0.875846  0.748541  1
  Ti  Ti11  1  0.812545  0.084586  0.143518  1
  Ti  Ti12  1  0.477336  0.225400  0.446235  1
  Ti  Ti13  1  0.669717  0.437103  0.850538  1
  Ti  Ti14  1  0.520707  0.775833  0.553302  1
  Ti  Ti15  1  0.330951  0.562423  0.149056  1
  Ti  Ti16  1  0.371335  0.123913  0.251267  1
  Ti  Ti17  1  0.186762  0.916825  0.856084  1
  Ti  Ti18  1  0.033452  0.278746  0.543336  1
  Ti  Ti19  1  0.876734  0.628739  0.250246  1
  C  C20  1  0.275404  0.527819  0.549336  1
  C  C21  1  0.475155  0.725538  0.951168  1
  C  C22  1  0.323415  0.075808  0.650604  1
  C  C23  1  0.175116  0.425663  0.350272  1
  C  C24  1  0.975402  0.223918  0.952414  1
  C  C25  1  0.825409  0.576106  0.649547  1
  C  C26  1  0.024203  0.776586  0.048647  1
  C  C27  1  0.677978  0.925297  0.349006  1
  C  C28  1  0.725523  0.470708  0.449826  1
  C  C29  1  0.525554  0.274342  0.049700  1
  C  C30  1  0.374274  0.622631  0.750542  1
  C  C31  1  0.220509  0.975394  0.449714  1
  N  N32  1  0.074947  0.320733  0.150035  1
  N  N33  1  0.922365  0.678864  0.851259  1
  N  N34  1  0.575565  0.825613  0.148285  1
  N  N35  1  0.778011  0.024981  0.549225  1
  N  N36  1  0.425381  0.173305  0.851451  1
  N  N37  1  0.626147  0.376667  0.249267  1
