# generated using pymatgen
data_HoU(SeO)2
_symmetry_space_group_name_H-M   'P 1'
_cell_length_a   3.85029700
_cell_length_b   3.85029700
_cell_length_c   6.98946900
_cell_angle_alpha   90.00000000
_cell_angle_beta   90.00000000
_cell_angle_gamma   90.00000000
_symmetry_Int_Tables_number   1
_chemical_formula_structural   HoU(SeO)2
_chemical_formula_sum   'Ho1 U1 Se2 O2'
_cell_volume   103.61738909
_cell_formula_units_Z   1
loop_
 _symmetry_equiv_pos_site_id
 _symmetry_equiv_pos_as_xyz
  1  'x, y, z'
loop_
 _atom_site_type_symbol
 _atom_site_label
 _atom_site_symmetry_multiplicity
 _atom_site_fract_x
 _atom_site_fract_y
 _atom_site_fract_z
 _atom_site_occupancy
  Ho  Ho0  1  0.000000  0.500000  0.805447  1
  U  U1  1  0.500000  0.000000  0.169671  1
  Se  Se2  1  0.500000  0.000000  0.634735  1
  Se  Se3  1  0.000000  0.500000  0.369881  1
  O  O4  1  0.500000  0.500000  0.010133  1
  O  O5  1  0.000000  0.000000  0.010133  1
