# generated using pymatgen
data_Tb2Lu6Hf11Si16Ag
_symmetry_space_group_name_H-M   'P 1'
_cell_length_a   7.24910959
_cell_length_b   7.24636206
_cell_length_c   13.18188078
_cell_angle_alpha   89.86882705
_cell_angle_beta   90.10964980
_cell_angle_gamma   89.95132353
_symmetry_Int_Tables_number   1
_chemical_formula_structural   Tb2Lu6Hf11Si16Ag
_chemical_formula_sum   'Tb2 Lu6 Hf11 Si16 Ag1'
_cell_volume   692.43654822
_cell_formula_units_Z   1
loop_
 _symmetry_equiv_pos_site_id
 _symmetry_equiv_pos_as_xyz
  1  'x, y, z'
loop_
 _atom_site_type_symbol
 _atom_site_label
 _atom_site_symmetry_multiplicity
 _atom_site_fract_x
 _atom_site_fract_y
 _atom_site_fract_z
 _atom_site_occupancy
  Tb  Tb0  1  0.345966  0.995760  0.789312  1
  Tb  Tb1  1  0.654206  0.006829  0.283637  1
  Lu  Lu2  1  0.996175  0.347579  0.211857  1
  Lu  Lu3  1  0.005008  0.653306  0.716241  1
  Lu  Lu4  1  0.154936  0.497191  0.465238  1
  Lu  Lu5  1  0.497957  0.846894  0.032825  1
  Lu  Lu6  1  0.847093  0.497684  0.967299  1
  Lu  Lu7  1  0.496571  0.154881  0.535304  1
  Hf  Hf8  1  0.825292  0.824276  0.500005  1
  Hf  Hf9  1  0.322351  0.677478  0.248874  1
  Hf  Hf10  1  0.678772  0.323434  0.750598  1
  Hf  Hf11  1  0.144866  0.998228  0.374852  1
  Hf  Hf12  1  0.857596  0.001730  0.878678  1
  Hf  Hf13  1  0.505001  0.644795  0.626112  1
  Hf  Hf14  1  0.357871  0.492343  0.876745  1
  Hf  Hf15  1  0.492779  0.356875  0.122902  1
  Hf  Hf16  1  0.644270  0.504165  0.373747  1
  Hf  Hf17  1  0.998681  0.145388  0.625289  1
  Hf  Hf18  1  0.001825  0.855846  0.120504  1
  Si  Si19  1  0.354362  0.298490  0.317234  1
  Si  Si20  1  0.645157  0.702051  0.820269  1
  Si  Si21  1  0.207178  0.858543  0.569837  1
  Si  Si22  1  0.131176  0.772413  0.926272  1
  Si  Si23  1  0.778087  0.133895  0.073243  1
  Si  Si24  1  0.860096  0.209038  0.431526  1
  Si  Si25  1  0.296441  0.358320  0.681784  1
  Si  Si26  1  0.704293  0.641395  0.178802  1
  Si  Si27  1  0.293796  0.052850  0.188034  1
  Si  Si28  1  0.705557  0.950161  0.686170  1
  Si  Si29  1  0.448943  0.797385  0.436408  1
  Si  Si30  1  0.206839  0.561741  0.063901  1
  Si  Si31  1  0.565493  0.208238  0.936457  1
  Si  Si32  1  0.798827  0.450923  0.564116  1
  Si  Si33  1  0.051409  0.297942  0.811107  1
  Si  Si34  1  0.951460  0.702997  0.313328  1
  Ag  Ag35  1  0.173670  0.178934  0.001490  1
