# generated using pymatgen
data_Ce3Th(TcOs)4
_symmetry_space_group_name_H-M   'P 1'
_cell_length_a   5.18419333
_cell_length_b   5.56914521
_cell_length_c   9.29264033
_cell_angle_alpha   89.99999958
_cell_angle_beta   89.97378911
_cell_angle_gamma   122.48831807
_symmetry_Int_Tables_number   1
_chemical_formula_structural   Ce3Th(TcOs)4
_chemical_formula_sum   'Ce3 Th1 Tc4 Os4'
_cell_volume   226.30512293
_cell_formula_units_Z   1
loop_
 _symmetry_equiv_pos_site_id
 _symmetry_equiv_pos_as_xyz
  1  'x, y, z'
loop_
 _atom_site_type_symbol
 _atom_site_label
 _atom_site_symmetry_multiplicity
 _atom_site_fract_x
 _atom_site_fract_y
 _atom_site_fract_z
 _atom_site_occupancy
  Ce  Ce0  1  0.330741  0.665371  0.436195  1
  Ce  Ce1  1  0.665593  0.332796  0.564184  1
  Ce  Ce2  1  0.663057  0.331528  0.932188  1
  Th  Th3  1  0.332191  0.666096  0.066294  1
  Tc  Tc4  1  0.340951  0.170475  0.251658  1
  Tc  Tc5  1  0.171736  0.831954  0.748966  1
  Tc  Tc6  1  0.171736  0.339783  0.748966  1
  Tc  Tc7  1  0.661633  0.830817  0.749057  1
  Os  Os8  1  0.999847  0.999924  0.498438  1
  Os  Os9  1  0.003654  0.001827  0.001060  1
  Os  Os10  1  0.829430  0.167705  0.251495  1
  Os  Os11  1  0.829430  0.661724  0.251495  1
