# generated using pymatgen
data_Th2Co3Ru3C5
_symmetry_space_group_name_H-M   'P 1'
_cell_length_a   8.57164200
_cell_length_b   9.02892900
_cell_length_c   4.15654200
_cell_angle_alpha   90.00000000
_cell_angle_beta   90.00000000
_cell_angle_gamma   90.00000000
_symmetry_Int_Tables_number   1
_chemical_formula_structural   Th2Co3Ru3C5
_chemical_formula_sum   'Th4 Co6 Ru6 C10'
_cell_volume   321.68620353
_cell_formula_units_Z   2
loop_
 _symmetry_equiv_pos_site_id
 _symmetry_equiv_pos_as_xyz
  1  'x, y, z'
loop_
 _atom_site_type_symbol
 _atom_site_label
 _atom_site_symmetry_multiplicity
 _atom_site_fract_x
 _atom_site_fract_y
 _atom_site_fract_z
 _atom_site_occupancy
  Th  Th0  1  0.327486  0.821471  0.000000  1
  Th  Th1  1  0.672514  0.178529  0.000000  1
  Th  Th2  1  0.827486  0.678529  0.000000  1
  Th  Th3  1  0.172514  0.321471  0.000000  1
  Co  Co4  1  0.213225  0.063084  0.499999  1
  Co  Co5  1  0.786775  0.936916  0.499999  1
  Co  Co6  1  0.713225  0.436916  0.499999  1
  Co  Co7  1  0.286775  0.563084  0.499999  1
  Co  Co8  1  0.000000  0.500000  0.499999  1
  Co  Co9  1  0.500000  0.000000  0.499999  1
  Ru  Ru10  1  0.000000  0.000000  0.000000  1
  Ru  Ru11  1  0.500000  0.500000  0.000000  1
  Ru  Ru12  1  0.428737  0.282195  0.499999  1
  Ru  Ru13  1  0.571263  0.717805  0.499999  1
  Ru  Ru14  1  0.071263  0.782195  0.499999  1
  Ru  Ru15  1  0.928737  0.217805  0.499999  1
  C  C16  1  0.127108  0.609528  0.173501  1
  C  C17  1  0.872891  0.390471  0.173501  1
  C  C18  1  0.627108  0.890471  0.826499  1
  C  C19  1  0.372891  0.109528  0.826499  1
  C  C20  1  0.872891  0.390471  0.826499  1
  C  C21  1  0.127108  0.609528  0.826499  1
  C  C22  1  0.627108  0.890471  0.173501  1
  C  C23  1  0.372891  0.109528  0.173501  1
  C  C24  1  0.000000  0.000000  0.499999  1
  C  C25  1  0.500000  0.500000  0.499999  1
