# generated using pymatgen
data_Pr4RhAu3
_symmetry_space_group_name_H-M   'P 1'
_cell_length_a   4.78390900
_cell_length_b   5.88255554
_cell_length_c   7.47446476
_cell_angle_alpha   88.41514513
_cell_angle_beta   90.00000000
_cell_angle_gamma   90.00000000
_symmetry_Int_Tables_number   1
_chemical_formula_structural   Pr4RhAu3
_chemical_formula_sum   'Pr4 Rh1 Au3'
_cell_volume   210.26301043
_cell_formula_units_Z   1
loop_
 _symmetry_equiv_pos_site_id
 _symmetry_equiv_pos_as_xyz
  1  'x, y, z'
loop_
 _atom_site_type_symbol
 _atom_site_label
 _atom_site_symmetry_multiplicity
 _atom_site_fract_x
 _atom_site_fract_y
 _atom_site_fract_z
 _atom_site_occupancy
  Pr  Pr0  1  0.250000  0.365736  0.678212  1
  Pr  Pr1  1  0.250000  0.138894  0.190751  1
  Pr  Pr2  1  0.750000  0.651611  0.325356  1
  Pr  Pr3  1  0.750000  0.856001  0.803649  1
  Rh  Rh4  1  0.250000  0.840300  0.540789  1
  Au  Au5  1  0.250000  0.650350  0.041284  1
  Au  Au6  1  0.750000  0.148791  0.458810  1
  Au  Au7  1  0.750000  0.348316  0.961149  1
