# generated using pymatgen
data_NdTa2WO9
_symmetry_space_group_name_H-M   'P 1'
_cell_length_a   7.59583500
_cell_length_b   5.43731929
_cell_length_c   8.33025869
_cell_angle_alpha   87.61233384
_cell_angle_beta   90.00000000
_cell_angle_gamma   90.00000000
_symmetry_Int_Tables_number   1
_chemical_formula_structural   NdTa2WO9
_chemical_formula_sum   'Nd2 Ta4 W2 O18'
_cell_volume   343.74915411
_cell_formula_units_Z   2
loop_
 _symmetry_equiv_pos_site_id
 _symmetry_equiv_pos_as_xyz
  1  'x, y, z'
loop_
 _atom_site_type_symbol
 _atom_site_label
 _atom_site_symmetry_multiplicity
 _atom_site_fract_x
 _atom_site_fract_y
 _atom_site_fract_z
 _atom_site_occupancy
  Nd  Nd0  1  0.250000  0.965614  0.435018  1
  Nd  Nd1  1  0.750000  0.034386  0.564982  1
  Ta  Ta2  1  0.493440  0.527625  0.697889  1
  Ta  Ta3  1  0.006560  0.527625  0.697889  1
  Ta  Ta4  1  0.993440  0.472375  0.302111  1
  Ta  Ta5  1  0.506560  0.472375  0.302111  1
  W  W6  1  0.000000  0.000000  0.000000  1
  W  W7  1  0.500000  0.000000  0.000000  1
  O  O8  1  0.250000  0.922755  0.981332  1
  O  O9  1  0.940927  0.847068  0.785356  1
  O  O10  1  0.559073  0.847068  0.785356  1
  O  O11  1  0.961097  0.733482  0.469058  1
  O  O12  1  0.538903  0.733482  0.469058  1
  O  O13  1  0.250000  0.651346  0.662400  1
  O  O14  1  0.951350  0.682171  0.124496  1
  O  O15  1  0.548650  0.682171  0.124496  1
  O  O16  1  0.250000  0.563349  0.311536  1
  O  O17  1  0.750000  0.436651  0.688464  1
  O  O18  1  0.048650  0.317829  0.875504  1
  O  O19  1  0.451350  0.317829  0.875504  1
  O  O20  1  0.750000  0.348654  0.337600  1
  O  O21  1  0.038903  0.266518  0.530942  1
  O  O22  1  0.461097  0.266518  0.530942  1
  O  O23  1  0.059073  0.152932  0.214644  1
  O  O24  1  0.440927  0.152932  0.214644  1
  O  O25  1  0.750000  0.077245  0.018668  1
