# generated using pymatgen
data_Pr4Zn10SiPb
_symmetry_space_group_name_H-M   'P 1'
_cell_length_a   8.55288314
_cell_length_b   8.55288292
_cell_length_c   9.03094000
_cell_angle_alpha   90.00000000
_cell_angle_beta   90.00000000
_cell_angle_gamma   149.49772845
_symmetry_Int_Tables_number   1
_chemical_formula_structural   Pr4Zn10SiPb
_chemical_formula_sum   'Pr4 Zn10 Si1 Pb1'
_cell_volume   335.31742752
_cell_formula_units_Z   1
loop_
 _symmetry_equiv_pos_site_id
 _symmetry_equiv_pos_as_xyz
  1  'x, y, z'
loop_
 _atom_site_type_symbol
 _atom_site_label
 _atom_site_symmetry_multiplicity
 _atom_site_fract_x
 _atom_site_fract_y
 _atom_site_fract_z
 _atom_site_occupancy
  Pr  Pr0  1  0.202362  0.797638  0.250000  1
  Pr  Pr1  1  0.794153  0.205847  0.750000  1
  Pr  Pr2  1  0.000783  0.999217  0.482572  1
  Pr  Pr3  1  0.000783  0.999217  0.017428  1
  Zn  Zn4  1  0.813856  0.186144  0.390307  1
  Zn  Zn5  1  0.185256  0.814744  0.606639  1
  Zn  Zn6  1  0.813856  0.186144  0.109693  1
  Zn  Zn7  1  0.185256  0.814744  0.893361  1
  Zn  Zn8  1  0.650318  0.349682  0.474219  1
  Zn  Zn9  1  0.342324  0.657676  0.511034  1
  Zn  Zn10  1  0.650318  0.349682  0.025781  1
  Zn  Zn11  1  0.342324  0.657676  0.988966  1
  Zn  Zn12  1  0.405750  0.594250  0.250000  1
  Zn  Zn13  1  0.608242  0.391758  0.750000  1
  Si  Si14  1  0.557959  0.442041  0.250000  1
  Pb  Pb15  1  0.446461  0.553539  0.750000  1
