# generated using pymatgen
data_Dy7YNb12Si15Ge
_symmetry_space_group_name_H-M   'P 1'
_cell_length_a   6.88870821
_cell_length_b   7.08470965
_cell_length_c   13.46653605
_cell_angle_alpha   90.05076023
_cell_angle_beta   89.92266400
_cell_angle_gamma   90.01736463
_symmetry_Int_Tables_number   1
_chemical_formula_structural   Dy7YNb12Si15Ge
_chemical_formula_sum   'Dy7 Y1 Nb12 Si15 Ge1'
_cell_volume   657.22663876
_cell_formula_units_Z   1
loop_
 _symmetry_equiv_pos_site_id
 _symmetry_equiv_pos_as_xyz
  1  'x, y, z'
loop_
 _atom_site_type_symbol
 _atom_site_label
 _atom_site_symmetry_multiplicity
 _atom_site_fract_x
 _atom_site_fract_y
 _atom_site_fract_z
 _atom_site_occupancy
  Dy  Dy0  1  0.001595  0.170947  0.403943  1
  Dy  Dy1  1  0.500345  0.673230  0.596380  1
  Dy  Dy2  1  0.997383  0.828481  0.904688  1
  Dy  Dy3  1  0.497250  0.671311  0.904558  1
  Dy  Dy4  1  0.997145  0.829352  0.595881  1
  Dy  Dy5  1  0.503170  0.327338  0.403419  1
  Dy  Dy6  1  0.002574  0.171641  0.095485  1
  Y  Y7  1  0.502656  0.328721  0.095677  1
  Nb  Nb8  1  0.664895  0.008593  0.750165  1
  Nb  Nb9  1  0.164751  0.490600  0.751910  1
  Nb  Nb10  1  0.334803  0.991387  0.249809  1
  Nb  Nb11  1  0.835157  0.508882  0.249852  1
  Nb  Nb12  1  0.836617  0.324459  0.625907  1
  Nb  Nb13  1  0.338443  0.174874  0.874661  1
  Nb  Nb14  1  0.161469  0.675166  0.125406  1
  Nb  Nb15  1  0.661129  0.825363  0.374029  1
  Nb  Nb16  1  0.159983  0.677525  0.372889  1
  Nb  Nb17  1  0.660798  0.824756  0.125374  1
  Nb  Nb18  1  0.838344  0.324854  0.874654  1
  Nb  Nb19  1  0.340925  0.171479  0.626801  1
  Si  Si20  1  0.797338  0.625711  0.750156  1
  Si  Si21  1  0.296335  0.873166  0.750555  1
  Si  Si22  1  0.203011  0.374293  0.249748  1
  Si  Si23  1  0.703215  0.125713  0.249638  1
  Si  Si24  1  0.543064  0.376466  0.750395  1
  Si  Si25  1  0.043174  0.123965  0.750089  1
  Si  Si26  1  0.456477  0.623778  0.249888  1
  Si  Si27  1  0.955844  0.876728  0.249066  1
  Si  Si28  1  0.663708  0.037815  0.540106  1
  Si  Si29  1  0.163038  0.462462  0.959597  1
  Si  Si30  1  0.336573  0.962564  0.040505  1
  Si  Si31  1  0.832799  0.538359  0.458660  1
  Si  Si32  1  0.336322  0.962098  0.459571  1
  Si  Si33  1  0.837045  0.537681  0.040687  1
  Si  Si34  1  0.663255  0.037472  0.959549  1
  Ge  Ge35  1  0.169370  0.462771  0.540305  1
