# generated using pymatgen
data_TbEr3Nb2(B2Ru5)2
_symmetry_space_group_name_H-M   'P 1'
_cell_length_a   9.66355637
_cell_length_b   9.66355637
_cell_length_c   3.12900100
_cell_angle_alpha   90.00000000
_cell_angle_beta   90.00000000
_cell_angle_gamma   90.14151478
_symmetry_Int_Tables_number   1
_chemical_formula_structural   TbEr3Nb2(B2Ru5)2
_chemical_formula_sum   'Tb1 Er3 Nb2 B4 Ru10'
_cell_volume   292.19874470
_cell_formula_units_Z   1
loop_
 _symmetry_equiv_pos_site_id
 _symmetry_equiv_pos_as_xyz
  1  'x, y, z'
loop_
 _atom_site_type_symbol
 _atom_site_label
 _atom_site_symmetry_multiplicity
 _atom_site_fract_x
 _atom_site_fract_y
 _atom_site_fract_z
 _atom_site_occupancy
  Tb  Tb0  1  0.825618  0.674382  0.000000  1
  Er  Er1  1  0.174776  0.325224  0.000000  1
  Er  Er2  1  0.325623  0.825797  0.000000  1
  Er  Er3  1  0.674203  0.174377  0.000000  1
  Nb  Nb4  1  0.499820  0.499950  0.000000  1
  Nb  Nb5  1  0.000050  0.000180  0.000000  1
  B  B6  1  0.619641  0.880359  0.000000  1
  B  B7  1  0.379032  0.120968  0.000000  1
  B  B8  1  0.121430  0.620106  0.000000  1
  B  B9  1  0.879894  0.378570  0.000000  1
  Ru  Ru10  1  0.569754  0.718880  0.500000  1
  Ru  Ru11  1  0.428743  0.281920  0.500000  1
  Ru  Ru12  1  0.073004  0.781987  0.500000  1
  Ru  Ru13  1  0.928290  0.217766  0.500000  1
  Ru  Ru14  1  0.282234  0.571710  0.500000  1
  Ru  Ru15  1  0.718013  0.426996  0.500000  1
  Ru  Ru16  1  0.218080  0.071257  0.500000  1
  Ru  Ru17  1  0.781120  0.930246  0.500000  1
  Ru  Ru18  1  0.499522  0.000478  0.500000  1
  Ru  Ru19  1  0.001154  0.498846  0.500000  1
