# generated using pymatgen
data_LaReF7
_symmetry_space_group_name_H-M   'P 1'
_cell_length_a   5.84450000
_cell_length_b   9.35665092
_cell_length_c   12.55988944
_cell_angle_alpha   62.08916552
_cell_angle_beta   90.00000000
_cell_angle_gamma   90.00000000
_symmetry_Int_Tables_number   1
_chemical_formula_structural   LaReF7
_chemical_formula_sum   'La4 Re4 F28'
_cell_volume   606.94204258
_cell_formula_units_Z   4
loop_
 _symmetry_equiv_pos_site_id
 _symmetry_equiv_pos_as_xyz
  1  'x, y, z'
loop_
 _atom_site_type_symbol
 _atom_site_label
 _atom_site_symmetry_multiplicity
 _atom_site_fract_x
 _atom_site_fract_y
 _atom_site_fract_z
 _atom_site_occupancy
  La  La0  1  0.758143  0.810518  0.265265  1
  La  La1  1  0.258143  0.189482  0.234735  1
  La  La2  1  0.241857  0.189482  0.734735  1
  La  La3  1  0.741857  0.810518  0.765265  1
  Re  Re4  1  0.243903  0.726216  0.543096  1
  Re  Re5  1  0.743903  0.273784  0.956904  1
  Re  Re6  1  0.756097  0.273784  0.456904  1
  Re  Re7  1  0.256097  0.726216  0.043096  1
  F  F8  1  0.964137  0.714871  0.457187  1
  F  F9  1  0.464137  0.285129  0.042813  1
  F  F10  1  0.035863  0.285129  0.542813  1
  F  F11  1  0.535863  0.714871  0.957187  1
  F  F12  1  0.055402  0.708764  0.922618  1
  F  F13  1  0.555402  0.291236  0.577382  1
  F  F14  1  0.944598  0.291236  0.077382  1
  F  F15  1  0.444598  0.708764  0.422618  1
  F  F16  1  0.734830  0.512788  0.860997  1
  F  F17  1  0.234830  0.487212  0.639003  1
  F  F18  1  0.265170  0.487212  0.139003  1
  F  F19  1  0.765170  0.512788  0.360997  1
  F  F20  1  0.740050  0.035017  0.050697  1
  F  F21  1  0.240050  0.964983  0.449303  1
  F  F22  1  0.259950  0.964983  0.949303  1
  F  F23  1  0.759950  0.035017  0.550697  1
  F  F24  1  0.048707  0.742663  0.666670  1
  F  F25  1  0.548707  0.257337  0.833330  1
  F  F26  1  0.951293  0.257337  0.333330  1
  F  F27  1  0.451293  0.742663  0.166670  1
  F  F28  1  0.015488  0.268959  0.863992  1
  F  F29  1  0.515488  0.731041  0.636008  1
  F  F30  1  0.984512  0.731041  0.136008  1
  F  F31  1  0.484512  0.268959  0.363992  1
  F  F32  1  0.086884  0.968220  0.232198  1
  F  F33  1  0.586884  0.031780  0.267802  1
  F  F34  1  0.913116  0.031780  0.767802  1
  F  F35  1  0.413116  0.968220  0.732198  1
