# generated using pymatgen
data_Zr12Al9Pt3C4
_symmetry_space_group_name_H-M   'P 1'
_cell_length_a   8.72814556
_cell_length_b   8.72814575
_cell_length_c   8.72813753
_cell_angle_alpha   59.88796769
_cell_angle_beta   59.88802661
_cell_angle_gamma   59.88802908
_symmetry_Int_Tables_number   1
_chemical_formula_structural   Zr12Al9Pt3C4
_chemical_formula_sum   'Zr12 Al9 Pt3 C4'
_cell_volume   468.97062230
_cell_formula_units_Z   1
loop_
 _symmetry_equiv_pos_site_id
 _symmetry_equiv_pos_as_xyz
  1  'x, y, z'
loop_
 _atom_site_type_symbol
 _atom_site_label
 _atom_site_symmetry_multiplicity
 _atom_site_fract_x
 _atom_site_fract_y
 _atom_site_fract_z
 _atom_site_occupancy
  Zr  Zr0  1  0.439298  0.439297  0.063661  1
  Zr  Zr1  1  0.061353  0.439392  0.061353  1
  Zr  Zr2  1  0.439393  0.061353  0.061353  1
  Zr  Zr3  1  0.061353  0.061353  0.439392  1
  Zr  Zr4  1  0.439298  0.063661  0.439297  1
  Zr  Zr5  1  0.063661  0.439297  0.439298  1
  Zr  Zr6  1  0.810702  0.810703  0.186339  1
  Zr  Zr7  1  0.188647  0.810608  0.188647  1
  Zr  Zr8  1  0.810607  0.188647  0.188647  1
  Zr  Zr9  1  0.188647  0.188647  0.810608  1
  Zr  Zr10  1  0.810702  0.186339  0.810703  1
  Zr  Zr11  1  0.186339  0.810703  0.810702  1
  Al  Al12  1  0.836442  0.836442  0.507086  1
  Al  Al13  1  0.836442  0.507086  0.836442  1
  Al  Al14  1  0.507086  0.836442  0.836442  1
  Al  Al15  1  0.831782  0.831783  0.831783  1
  Al  Al16  1  0.413558  0.413558  0.742914  1
  Al  Al17  1  0.413558  0.742914  0.413558  1
  Al  Al18  1  0.742914  0.413558  0.413558  1
  Al  Al19  1  0.418218  0.418217  0.418217  1
  Al  Al20  1  0.625000  0.625000  0.625000  1
  Pt  Pt21  1  0.625000  0.625000  0.125000  1
  Pt  Pt22  1  0.625000  0.125000  0.625000  1
  Pt  Pt23  1  0.125000  0.625000  0.625000  1
  C  C24  1  0.125000  0.125000  0.625000  1
  C  C25  1  0.125000  0.625000  0.125000  1
  C  C26  1  0.625000  0.125000  0.125000  1
  C  C27  1  0.125000  0.125000  0.125000  1
