# generated using pymatgen
data_RbNd3BiSb3Au4
_symmetry_space_group_name_H-M   'P 1'
_cell_length_a   4.73677800
_cell_length_b   4.73677843
_cell_length_c   17.92013000
_cell_angle_alpha   90.00000000
_cell_angle_beta   90.00000000
_cell_angle_gamma   120.00001096
_symmetry_Int_Tables_number   1
_chemical_formula_structural   RbNd3BiSb3Au4
_chemical_formula_sum   'Rb1 Nd3 Bi1 Sb3 Au4'
_cell_volume   348.20727550
_cell_formula_units_Z   1
loop_
 _symmetry_equiv_pos_site_id
 _symmetry_equiv_pos_as_xyz
  1  'x, y, z'
loop_
 _atom_site_type_symbol
 _atom_site_label
 _atom_site_symmetry_multiplicity
 _atom_site_fract_x
 _atom_site_fract_y
 _atom_site_fract_z
 _atom_site_occupancy
  Rb  Rb0  1  0.000000  0.000000  0.244953  1
  Nd  Nd1  1  0.000000  0.000000  0.520231  1
  Nd  Nd2  1  0.000000  0.000000  0.981846  1
  Nd  Nd3  1  0.000000  0.000000  0.750778  1
  Bi  Bi4  1  0.333333  0.666667  0.394317  1
  Sb  Sb5  1  0.666667  0.333333  0.621982  1
  Sb  Sb6  1  0.666667  0.333333  0.878478  1
  Sb  Sb7  1  0.333333  0.666667  0.098230  1
  Au  Au8  1  0.666667  0.333333  0.438386  1
  Au  Au9  1  0.333333  0.666667  0.667691  1
  Au  Au10  1  0.333333  0.666667  0.833032  1
  Au  Au11  1  0.666667  0.333333  0.070080  1
