# generated using pymatgen
data_La3Nd3(MoO7)2
_symmetry_space_group_name_H-M   'P 1'
_cell_length_a   6.69037505
_cell_length_b   6.70080350
_cell_length_c   7.80970800
_cell_angle_alpha   90.00000000
_cell_angle_beta   90.00000000
_cell_angle_gamma   109.18851702
_symmetry_Int_Tables_number   1
_chemical_formula_structural   La3Nd3(MoO7)2
_chemical_formula_sum   'La3 Nd3 Mo2 O14'
_cell_volume   330.66448749
_cell_formula_units_Z   1
loop_
 _symmetry_equiv_pos_site_id
 _symmetry_equiv_pos_as_xyz
  1  'x, y, z'
loop_
 _atom_site_type_symbol
 _atom_site_label
 _atom_site_symmetry_multiplicity
 _atom_site_fract_x
 _atom_site_fract_y
 _atom_site_fract_z
 _atom_site_occupancy
  La  La0  1  0.498346  0.498683  0.501086  1
  La  La1  1  0.498346  0.498683  0.998914  1
  La  La2  1  0.998915  0.531813  0.250000  1
  Nd  Nd3  1  0.000418  0.462931  0.750000  1
  Nd  Nd4  1  0.536575  0.999427  0.750000  1
  Nd  Nd5  1  0.462404  0.000041  0.250000  1
  Mo  Mo6  1  0.999869  0.999419  0.500853  1
  Mo  Mo7  1  0.999869  0.999419  0.999147  1
  O  O8  1  0.934599  0.063352  0.750000  1
  O  O9  1  0.064876  0.940337  0.250000  1
  O  O10  1  0.365400  0.635092  0.250000  1
  O  O11  1  0.635438  0.363791  0.750000  1
  O  O12  1  0.369334  0.631404  0.750000  1
  O  O13  1  0.627146  0.367337  0.250000  1
  O  O14  1  0.312629  0.067077  0.971770  1
  O  O15  1  0.688190  0.933537  0.471326  1
  O  O16  1  0.312629  0.067077  0.528230  1
  O  O17  1  0.688190  0.933537  0.028674  1
  O  O18  1  0.073019  0.313764  0.476483  1
  O  O19  1  0.930395  0.689756  0.969040  1
  O  O20  1  0.930395  0.689756  0.530960  1
  O  O21  1  0.073019  0.313764  0.023517  1
