# generated using pymatgen
data_Dy5HoAl18(Si3Ru4)2
_symmetry_space_group_name_H-M   'P 1'
_cell_length_a   8.69222402
_cell_length_b   8.66964848
_cell_length_c   9.54874800
_cell_angle_alpha   90.00000000
_cell_angle_beta   90.00000000
_cell_angle_gamma   120.07885278
_symmetry_Int_Tables_number   1
_chemical_formula_structural   Dy5HoAl18(Si3Ru4)2
_chemical_formula_sum   'Dy5 Ho1 Al18 Si6 Ru8'
_cell_volume   622.67845016
_cell_formula_units_Z   1
loop_
 _symmetry_equiv_pos_site_id
 _symmetry_equiv_pos_as_xyz
  1  'x, y, z'
loop_
 _atom_site_type_symbol
 _atom_site_label
 _atom_site_symmetry_multiplicity
 _atom_site_fract_x
 _atom_site_fract_y
 _atom_site_fract_z
 _atom_site_occupancy
  Dy  Dy0  1  0.193077  0.386133  0.250000  1
  Dy  Dy1  1  0.806906  0.613707  0.750000  1
  Dy  Dy2  1  0.610942  0.808490  0.250000  1
  Dy  Dy3  1  0.389227  0.191544  0.750000  1
  Dy  Dy4  1  0.197576  0.808473  0.250000  1
  Ho  Ho5  1  0.802188  0.191793  0.750000  1
  Al  Al6  1  0.164788  0.329643  0.579966  1
  Al  Al7  1  0.835166  0.670383  0.419996  1
  Al  Al8  1  0.670296  0.834798  0.578453  1
  Al  Al9  1  0.835166  0.670383  0.080004  1
  Al  Al10  1  0.329680  0.165249  0.421510  1
  Al  Al11  1  0.164788  0.329643  0.920034  1
  Al  Al12  1  0.164454  0.834721  0.578428  1
  Al  Al13  1  0.329680  0.165249  0.078490  1
  Al  Al14  1  0.835552  0.165250  0.421568  1
  Al  Al15  1  0.670296  0.834798  0.921547  1
  Al  Al16  1  0.835552  0.165250  0.078432  1
  Al  Al17  1  0.164454  0.834721  0.921572  1
  Al  Al18  1  0.873443  0.433659  0.250000  1
  Al  Al19  1  0.126434  0.566193  0.750000  1
  Al  Al20  1  0.560196  0.433646  0.250000  1
  Al  Al21  1  0.439784  0.566376  0.750000  1
  Al  Al22  1  0.999430  0.998883  0.250000  1
  Al  Al23  1  0.000487  0.001203  0.750000  1
  Si  Si24  1  0.332001  0.663961  0.039021  1
  Si  Si25  1  0.668095  0.335932  0.960878  1
  Si  Si26  1  0.668095  0.335932  0.539122  1
  Si  Si27  1  0.332001  0.663961  0.460979  1
  Si  Si28  1  0.563067  0.126172  0.250000  1
  Si  Si29  1  0.437117  0.873970  0.750000  1
  Ru  Ru30  1  0.500107  0.000091  0.999855  1
  Ru  Ru31  1  0.999895  0.499888  0.999874  1
  Ru  Ru32  1  0.500107  0.000091  0.500145  1
  Ru  Ru33  1  0.500045  0.499965  0.999929  1
  Ru  Ru34  1  0.999895  0.499888  0.500126  1
  Ru  Ru35  1  0.500045  0.499965  0.500071  1
  Ru  Ru36  1  0.999985  0.000001  0.999909  1
  Ru  Ru37  1  0.999985  0.000001  0.500091  1
