# generated using pymatgen
data_Pr2Dy2ScSi4
_symmetry_space_group_name_H-M   'P 1'
_cell_length_a   7.39109800
_cell_length_b   7.78887500
_cell_length_c   14.74435200
_cell_angle_alpha   90.00000000
_cell_angle_beta   90.00000000
_cell_angle_gamma   90.00000000
_symmetry_Int_Tables_number   1
_chemical_formula_structural   Pr2Dy2ScSi4
_chemical_formula_sum   'Pr8 Dy8 Sc4 Si16'
_cell_volume   848.80784594
_cell_formula_units_Z   4
loop_
 _symmetry_equiv_pos_site_id
 _symmetry_equiv_pos_as_xyz
  1  'x, y, z'
loop_
 _atom_site_type_symbol
 _atom_site_label
 _atom_site_symmetry_multiplicity
 _atom_site_fract_x
 _atom_site_fract_y
 _atom_site_fract_z
 _atom_site_occupancy
  Pr  Pr0  1  0.018541  0.180282  0.401478  1
  Pr  Pr1  1  0.518541  0.319718  0.401478  1
  Pr  Pr2  1  0.481459  0.680282  0.901478  1
  Pr  Pr3  1  0.481459  0.680282  0.598522  1
  Pr  Pr4  1  0.981459  0.819718  0.598522  1
  Pr  Pr5  1  0.981459  0.819718  0.901478  1
  Pr  Pr6  1  0.518541  0.319718  0.098522  1
  Pr  Pr7  1  0.018541  0.180282  0.098522  1
  Dy  Dy8  1  0.322866  0.178469  0.625180  1
  Dy  Dy9  1  0.677134  0.821531  0.374820  1
  Dy  Dy10  1  0.177134  0.678469  0.374820  1
  Dy  Dy11  1  0.822866  0.321531  0.874820  1
  Dy  Dy12  1  0.822866  0.321531  0.625180  1
  Dy  Dy13  1  0.322866  0.178469  0.874820  1
  Dy  Dy14  1  0.177134  0.678469  0.125180  1
  Dy  Dy15  1  0.677134  0.821531  0.125180  1
  Sc  Sc16  1  0.655493  0.987573  0.750000  1
  Sc  Sc17  1  0.844507  0.487573  0.250000  1
  Sc  Sc18  1  0.344507  0.012427  0.250000  1
  Sc  Sc19  1  0.155493  0.512427  0.750000  1
  Si  Si20  1  0.279186  0.874322  0.750000  1
  Si  Si21  1  0.477503  0.603168  0.250000  1
  Si  Si22  1  0.022497  0.103168  0.750000  1
  Si  Si23  1  0.522497  0.396832  0.750000  1
  Si  Si24  1  0.147586  0.467880  0.539265  1
  Si  Si25  1  0.977503  0.896832  0.250000  1
  Si  Si26  1  0.720814  0.125678  0.250000  1
  Si  Si27  1  0.852414  0.532120  0.039265  1
  Si  Si28  1  0.352414  0.967880  0.039265  1
  Si  Si29  1  0.147586  0.467880  0.960735  1
  Si  Si30  1  0.647586  0.032120  0.539265  1
  Si  Si31  1  0.352414  0.967880  0.460735  1
  Si  Si32  1  0.852414  0.532120  0.460735  1
  Si  Si33  1  0.779186  0.625678  0.750000  1
  Si  Si34  1  0.220814  0.374322  0.250000  1
  Si  Si35  1  0.647586  0.032120  0.960735  1
