# generated using pymatgen
data_YEr3Pa4(ReB6)4
_symmetry_space_group_name_H-M   'P 1'
_cell_length_a   3.70964400
_cell_length_b   9.16722236
_cell_length_c   11.51588745
_cell_angle_alpha   90.03216055
_cell_angle_beta   90.00000000
_cell_angle_gamma   90.00000000
_symmetry_Int_Tables_number   1
_chemical_formula_structural   YEr3Pa4(ReB6)4
_chemical_formula_sum   'Y1 Er3 Pa4 Re4 B24'
_cell_volume   391.62223645
_cell_formula_units_Z   1
loop_
 _symmetry_equiv_pos_site_id
 _symmetry_equiv_pos_as_xyz
  1  'x, y, z'
loop_
 _atom_site_type_symbol
 _atom_site_label
 _atom_site_symmetry_multiplicity
 _atom_site_fract_x
 _atom_site_fract_y
 _atom_site_fract_z
 _atom_site_occupancy
  Y  Y0  1  0.000000  0.945659  0.375033  1
  Er  Er1  1  0.000000  0.054646  0.625646  1
  Er  Er2  1  0.000000  0.445458  0.125226  1
  Er  Er3  1  0.000000  0.554737  0.874582  1
  Pa  Pa4  1  0.000000  0.323852  0.413168  1
  Pa  Pa5  1  0.000000  0.676296  0.587131  1
  Pa  Pa6  1  0.000000  0.823226  0.086598  1
  Pa  Pa7  1  0.000000  0.176902  0.913113  1
  Re  Re8  1  0.000000  0.638110  0.321409  1
  Re  Re9  1  0.000000  0.360876  0.678621  1
  Re  Re10  1  0.000000  0.139749  0.178119  1
  Re  Re11  1  0.000000  0.860781  0.821695  1
  B  B12  1  0.500000  0.552377  0.433224  1
  B  B13  1  0.500000  0.447122  0.566962  1
  B  B14  1  0.500000  0.053132  0.066493  1
  B  B15  1  0.500000  0.947057  0.933194  1
  B  B16  1  0.500000  0.747471  0.420405  1
  B  B17  1  0.500000  0.251788  0.579960  1
  B  B18  1  0.500000  0.248892  0.079548  1
  B  B19  1  0.500000  0.751292  0.920270  1
  B  B20  1  0.500000  0.793217  0.265801  1
  B  B21  1  0.500000  0.206136  0.733935  1
  B  B22  1  0.500000  0.294281  0.233471  1
  B  B23  1  0.500000  0.705979  0.766441  1
  B  B24  1  0.500000  0.633370  0.184913  1
  B  B25  1  0.500000  0.366393  0.814931  1
  B  B26  1  0.500000  0.134621  0.314457  1
  B  B27  1  0.500000  0.866061  0.685508  1
  B  B28  1  0.500000  0.983304  0.213190  1
  B  B29  1  0.500000  0.016982  0.786235  1
  B  B30  1  0.500000  0.482704  0.286019  1
  B  B31  1  0.500000  0.517045  0.713940  1
  B  B32  1  0.500000  0.611338  0.030680  1
  B  B33  1  0.500000  0.388706  0.969104  1
  B  B34  1  0.500000  0.114086  0.469071  1
  B  B35  1  0.500000  0.886356  0.531908  1
