# generated using pymatgen
data_Hf3Th2P7Ir9
_symmetry_space_group_name_H-M   'P 1'
_cell_length_a   9.80546300
_cell_length_b   9.80546270
_cell_length_c   4.02450500
_cell_angle_alpha   90.00000000
_cell_angle_beta   90.00000000
_cell_angle_gamma   119.99999763
_symmetry_Int_Tables_number   1
_chemical_formula_structural   Hf3Th2P7Ir9
_chemical_formula_sum   'Hf3 Th2 P7 Ir9'
_cell_volume   335.10376765
_cell_formula_units_Z   1
loop_
 _symmetry_equiv_pos_site_id
 _symmetry_equiv_pos_as_xyz
  1  'x, y, z'
loop_
 _atom_site_type_symbol
 _atom_site_label
 _atom_site_symmetry_multiplicity
 _atom_site_fract_x
 _atom_site_fract_y
 _atom_site_fract_z
 _atom_site_occupancy
  Hf  Hf0  1  0.791275  0.232663  0.500000  1
  Hf  Hf1  1  0.767337  0.558612  0.500000  1
  Hf  Hf2  1  0.441388  0.208725  0.500000  1
  Th  Th3  1  0.333333  0.666667  0.000000  1
  Th  Th4  1  0.000000  0.000000  0.500000  1
  P  P5  1  0.778721  0.030056  0.000000  1
  P  P6  1  0.969944  0.748665  0.000000  1
  P  P7  1  0.251335  0.221279  0.000000  1
  P  P8  1  0.383261  0.922828  0.500000  1
  P  P9  1  0.077172  0.460433  0.500000  1
  P  P10  1  0.539567  0.616739  0.500000  1
  P  P11  1  0.666667  0.333333  0.000000  1
  Ir  Ir12  1  0.029773  0.254392  0.000000  1
  Ir  Ir13  1  0.745608  0.775381  0.000000  1
  Ir  Ir14  1  0.224619  0.970227  0.000000  1
  Ir  Ir15  1  0.550681  0.054740  0.000000  1
  Ir  Ir16  1  0.945260  0.495941  0.000000  1
  Ir  Ir17  1  0.504059  0.449319  0.000000  1
  Ir  Ir18  1  0.609392  0.883886  0.500000  1
  Ir  Ir19  1  0.116114  0.725504  0.500000  1
  Ir  Ir20  1  0.274496  0.390608  0.500000  1
