# generated using pymatgen
data_Tm8Al3Fe
_symmetry_space_group_name_H-M   'P 1'
_cell_length_a   10.01924900
_cell_length_b   10.01924911
_cell_length_c   6.77191800
_cell_angle_alpha   90.00000000
_cell_angle_beta   90.00000000
_cell_angle_gamma   120.00000294
_symmetry_Int_Tables_number   1
_chemical_formula_structural   Tm8Al3Fe
_chemical_formula_sum   'Tm16 Al6 Fe2'
_cell_volume   588.72523824
_cell_formula_units_Z   2
loop_
 _symmetry_equiv_pos_site_id
 _symmetry_equiv_pos_as_xyz
  1  'x, y, z'
loop_
 _atom_site_type_symbol
 _atom_site_label
 _atom_site_symmetry_multiplicity
 _atom_site_fract_x
 _atom_site_fract_y
 _atom_site_fract_z
 _atom_site_occupancy
  Tm  Tm0  1  0.532803  0.065608  0.516549  1
  Tm  Tm1  1  0.934392  0.467197  0.516549  1
  Tm  Tm2  1  0.532803  0.467197  0.516549  1
  Tm  Tm3  1  0.467197  0.934392  0.016549  1
  Tm  Tm4  1  0.065608  0.532803  0.016549  1
  Tm  Tm5  1  0.467197  0.532803  0.016549  1
  Tm  Tm6  1  0.175806  0.351611  0.722014  1
  Tm  Tm7  1  0.648389  0.824194  0.722014  1
  Tm  Tm8  1  0.175806  0.824194  0.722014  1
  Tm  Tm9  1  0.824194  0.648389  0.222014  1
  Tm  Tm10  1  0.351611  0.175806  0.222014  1
  Tm  Tm11  1  0.824194  0.175806  0.222014  1
  Tm  Tm12  1  0.666667  0.333333  0.894787  1
  Tm  Tm13  1  0.333333  0.666667  0.394787  1
  Tm  Tm14  1  0.000000  0.000000  0.500477  1
  Tm  Tm15  1  0.000000  0.000000  0.000477  1
  Al  Al16  1  0.837208  0.674416  0.759109  1
  Al  Al17  1  0.325584  0.162792  0.759109  1
  Al  Al18  1  0.837208  0.162792  0.759109  1
  Al  Al19  1  0.162792  0.325584  0.259109  1
  Al  Al20  1  0.674416  0.837208  0.259109  1
  Al  Al21  1  0.162792  0.837208  0.259109  1
  Fe  Fe22  1  0.666667  0.333333  0.290722  1
  Fe  Fe23  1  0.333333  0.666667  0.790722  1
