# generated using pymatgen
data_Pr3NdCdPd4Au
_symmetry_space_group_name_H-M   'P 1'
_cell_length_a   7.80247067
_cell_length_b   7.80164267
_cell_length_c   3.94628500
_cell_angle_alpha   90.00000000
_cell_angle_beta   90.00000000
_cell_angle_gamma   89.95245704
_symmetry_Int_Tables_number   1
_chemical_formula_structural   Pr3NdCdPd4Au
_chemical_formula_sum   'Pr3 Nd1 Cd1 Pd4 Au1'
_cell_volume   240.21852562
_cell_formula_units_Z   1
loop_
 _symmetry_equiv_pos_site_id
 _symmetry_equiv_pos_as_xyz
  1  'x, y, z'
loop_
 _atom_site_type_symbol
 _atom_site_label
 _atom_site_symmetry_multiplicity
 _atom_site_fract_x
 _atom_site_fract_y
 _atom_site_fract_z
 _atom_site_occupancy
  Pr  Pr0  1  0.689241  0.162306  0.500000  1
  Pr  Pr1  1  0.310761  0.837593  0.500000  1
  Pr  Pr2  1  0.162232  0.310916  0.500000  1
  Nd  Nd3  1  0.837741  0.689147  0.500000  1
  Cd  Cd4  1  0.500181  0.500148  0.000000  1
  Pd  Pd5  1  0.136681  0.617706  0.000000  1
  Pd  Pd6  1  0.862829  0.382909  0.000000  1
  Pd  Pd7  1  0.618090  0.862476  0.000000  1
  Pd  Pd8  1  0.382443  0.137108  0.000000  1
  Au  Au9  1  0.999800  0.999691  0.000000  1
