# generated using pymatgen
data_Tm3P4Ir7
_symmetry_space_group_name_H-M   'P 1'
_cell_length_a   7.67627583
_cell_length_b   7.67627652
_cell_length_c   9.16271031
_cell_angle_alpha   57.18341551
_cell_angle_beta   57.18341418
_cell_angle_gamma   29.80478839
_symmetry_Int_Tables_number   1
_chemical_formula_structural   Tm3P4Ir7
_chemical_formula_sum   'Tm3 P4 Ir7'
_cell_volume   222.18864145
_cell_formula_units_Z   1
loop_
 _symmetry_equiv_pos_site_id
 _symmetry_equiv_pos_as_xyz
  1  'x, y, z'
loop_
 _atom_site_type_symbol
 _atom_site_label
 _atom_site_symmetry_multiplicity
 _atom_site_fract_x
 _atom_site_fract_y
 _atom_site_fract_z
 _atom_site_occupancy
  Tm  Tm0  1  0.500000  0.500000  0.500000  1
  Tm  Tm1  1  0.827270  0.827270  0.169584  1
  Tm  Tm2  1  0.172730  0.172730  0.830416  1
  P  P3  1  0.389581  0.389581  0.327241  1
  P  P4  1  0.610419  0.610419  0.672759  1
  P  P5  1  0.832793  0.832793  0.773012  1
  P  P6  1  0.167207  0.167207  0.226988  1
  Ir  Ir7  1  0.665165  0.665165  0.080680  1
  Ir  Ir8  1  0.006554  0.006554  0.225116  1
  Ir  Ir9  1  0.993446  0.993446  0.774884  1
  Ir  Ir10  1  0.500000  0.500000  0.000000  1
  Ir  Ir11  1  0.199913  0.199913  0.446950  1
  Ir  Ir12  1  0.800087  0.800087  0.553050  1
  Ir  Ir13  1  0.334835  0.334835  0.919320  1
