# generated using pymatgen
data_Ba4TbHo5(BiS8)2
_symmetry_space_group_name_H-M   'P 1'
_cell_length_a   4.07238600
_cell_length_b   12.35960812
_cell_length_c   14.67361314
_cell_angle_alpha   90.01595535
_cell_angle_beta   90.00000000
_cell_angle_gamma   90.00000000
_symmetry_Int_Tables_number   1
_chemical_formula_structural   Ba4TbHo5(BiS8)2
_chemical_formula_sum   'Ba4 Tb1 Ho5 Bi2 S16'
_cell_volume   738.56833671
_cell_formula_units_Z   1
loop_
 _symmetry_equiv_pos_site_id
 _symmetry_equiv_pos_as_xyz
  1  'x, y, z'
loop_
 _atom_site_type_symbol
 _atom_site_label
 _atom_site_symmetry_multiplicity
 _atom_site_fract_x
 _atom_site_fract_y
 _atom_site_fract_z
 _atom_site_occupancy
  Ba  Ba0  1  0.250000  0.759105  0.337754  1
  Ba  Ba1  1  0.250000  0.259244  0.161966  1
  Ba  Ba2  1  0.750000  0.241685  0.661704  1
  Ba  Ba3  1  0.750000  0.741383  0.838554  1
  Tb  Tb4  1  0.250000  0.920599  0.601898  1
  Ho  Ho5  1  0.750000  0.567115  0.611261  1
  Ho  Ho6  1  0.750000  0.067643  0.888975  1
  Ho  Ho7  1  0.250000  0.420814  0.898172  1
  Ho  Ho8  1  0.750000  0.577388  0.099639  1
  Ho  Ho9  1  0.750000  0.077603  0.400108  1
  Bi  Bi10  1  0.250000  0.433539  0.390603  1
  Bi  Bi11  1  0.250000  0.933548  0.109384  1
  S  S12  1  0.250000  0.207246  0.835639  1
  S  S13  1  0.250000  0.706051  0.664821  1
  S  S14  1  0.750000  0.786439  0.167151  1
  S  S15  1  0.750000  0.286486  0.332763  1
  S  S16  1  0.250000  0.123596  0.523063  1
  S  S17  1  0.250000  0.622494  0.976432  1
  S  S18  1  0.750000  0.876077  0.477189  1
  S  S19  1  0.750000  0.376357  0.021632  1
  S  S20  1  0.250000  0.023415  0.287223  1
  S  S21  1  0.250000  0.523334  0.212730  1
  S  S22  1  0.750000  0.977679  0.716939  1
  S  S23  1  0.750000  0.476983  0.784233  1
  S  S24  1  0.250000  0.420659  0.581034  1
  S  S25  1  0.250000  0.920673  0.919011  1
  S  S26  1  0.750000  0.586435  0.426969  1
  S  S27  1  0.750000  0.086411  0.073153  1
