# generated using pymatgen
data_Cs4TiCr7Se16
_symmetry_space_group_name_H-M   'P 1'
_cell_length_a   6.27173434
_cell_length_b   7.25777145
_cell_length_c   17.57228219
_cell_angle_alpha   90.08886350
_cell_angle_beta   89.90579137
_cell_angle_gamma   90.03070693
_symmetry_Int_Tables_number   1
_chemical_formula_structural   Cs4TiCr7Se16
_chemical_formula_sum   'Cs4 Ti1 Cr7 Se16'
_cell_volume   799.86729601
_cell_formula_units_Z   1
loop_
 _symmetry_equiv_pos_site_id
 _symmetry_equiv_pos_as_xyz
  1  'x, y, z'
loop_
 _atom_site_type_symbol
 _atom_site_label
 _atom_site_symmetry_multiplicity
 _atom_site_fract_x
 _atom_site_fract_y
 _atom_site_fract_z
 _atom_site_occupancy
  Cs  Cs0  1  0.360642  0.997904  0.998354  1
  Cs  Cs1  1  0.639358  0.502096  0.501646  1
  Cs  Cs2  1  0.033809  0.997218  0.502152  1
  Cs  Cs3  1  0.966191  0.502782  0.997848  1
  Ti  Ti4  1  0.500000  0.250000  0.250000  1
  Cr  Cr5  1  0.003384  0.003633  0.250679  1
  Cr  Cr6  1  0.004802  0.000489  0.749086  1
  Cr  Cr7  1  0.996616  0.496367  0.249321  1
  Cr  Cr8  1  0.995198  0.499511  0.750914  1
  Cr  Cr9  1  0.500000  0.750000  0.750000  1
  Cr  Cr10  1  0.500000  0.750000  0.250000  1
  Cr  Cr11  1  0.500000  0.250000  0.750000  1
  Se  Se12  1  0.836299  0.250391  0.334504  1
  Se  Se13  1  0.834436  0.749884  0.669380  1
  Se  Se14  1  0.164876  0.750066  0.170216  1
  Se  Se15  1  0.165855  0.250207  0.830954  1
  Se  Se16  1  0.163701  0.249609  0.165496  1
  Se  Se17  1  0.165564  0.750116  0.830620  1
  Se  Se18  1  0.835124  0.749934  0.329784  1
  Se  Se19  1  0.834145  0.249793  0.669046  1
  Se  Se20  1  0.675363  0.996274  0.167150  1
  Se  Se21  1  0.672979  0.000245  0.830179  1
  Se  Se22  1  0.324637  0.503726  0.332850  1
  Se  Se23  1  0.327021  0.499755  0.669821  1
  Se  Se24  1  0.336577  0.995886  0.333390  1
  Se  Se25  1  0.340880  0.999820  0.668997  1
  Se  Se26  1  0.663423  0.504114  0.166610  1
  Se  Se27  1  0.659120  0.500180  0.831003  1
