# generated using pymatgen
data_Hf4BeAl7
_symmetry_space_group_name_H-M   'P 1'
_cell_length_a   5.25153700
_cell_length_b   5.18918406
_cell_length_c   8.58440900
_cell_angle_alpha   90.00000000
_cell_angle_beta   90.00000000
_cell_angle_gamma   120.39828024
_symmetry_Int_Tables_number   1
_chemical_formula_structural   Hf4BeAl7
_chemical_formula_sum   'Hf4 Be1 Al7'
_cell_volume   201.77601493
_cell_formula_units_Z   1
loop_
 _symmetry_equiv_pos_site_id
 _symmetry_equiv_pos_as_xyz
  1  'x, y, z'
loop_
 _atom_site_type_symbol
 _atom_site_label
 _atom_site_symmetry_multiplicity
 _atom_site_fract_x
 _atom_site_fract_y
 _atom_site_fract_z
 _atom_site_occupancy
  Hf  Hf0  1  0.333950  0.667900  0.435845  1
  Hf  Hf1  1  0.665838  0.331676  0.933205  1
  Hf  Hf2  1  0.665838  0.331676  0.566795  1
  Hf  Hf3  1  0.333950  0.667900  0.064155  1
  Be  Be4  1  0.169299  0.338600  0.750000  1
  Al  Al5  1  0.829961  0.171393  0.250000  1
  Al  Al6  1  0.341433  0.171393  0.250000  1
  Al  Al7  1  0.646940  0.812950  0.750000  1
  Al  Al8  1  0.007795  0.015589  0.990816  1
  Al  Al9  1  0.007795  0.015589  0.509184  1
  Al  Al10  1  0.831193  0.662385  0.250000  1
  Al  Al11  1  0.166009  0.812950  0.750000  1
