# generated using pymatgen
data_Ta11Nb(MoRu)6
_symmetry_space_group_name_H-M   'P 1'
_cell_length_a   4.52664600
_cell_length_b   6.39505700
_cell_length_c   13.62211300
_cell_angle_alpha   90.00000000
_cell_angle_beta   90.00013479
_cell_angle_gamma   90.00000000
_symmetry_Int_Tables_number   1
_chemical_formula_structural   Ta11Nb(MoRu)6
_chemical_formula_sum   'Ta11 Nb1 Mo6 Ru6'
_cell_volume   394.33509561
_cell_formula_units_Z   1
loop_
 _symmetry_equiv_pos_site_id
 _symmetry_equiv_pos_as_xyz
  1  'x, y, z'
loop_
 _atom_site_type_symbol
 _atom_site_label
 _atom_site_symmetry_multiplicity
 _atom_site_fract_x
 _atom_site_fract_y
 _atom_site_fract_z
 _atom_site_occupancy
  Ta  Ta0  1  0.500000  0.750233  0.000000  1
  Ta  Ta1  1  0.999986  0.250088  0.166943  1
  Ta  Ta2  1  0.999984  0.749954  0.166544  1
  Ta  Ta3  1  0.499991  0.249960  0.333326  1
  Ta  Ta4  1  0.499993  0.750151  0.333296  1
  Ta  Ta5  1  0.000000  0.250046  0.500000  1
  Ta  Ta6  1  0.000000  0.749847  0.500000  1
  Ta  Ta7  1  0.500009  0.249960  0.666674  1
  Ta  Ta8  1  0.500007  0.750151  0.666704  1
  Ta  Ta9  1  0.000014  0.250088  0.833057  1
  Ta  Ta10  1  0.000016  0.749954  0.833456  1
  Nb  Nb11  1  0.500000  0.249949  0.000000  1
  Mo  Mo12  1  0.000000  0.499760  0.000000  1
  Mo  Mo13  1  0.499995  0.000008  0.166655  1
  Mo  Mo14  1  0.999984  0.500010  0.333387  1
  Mo  Mo15  1  0.500000  0.999991  0.500000  1
  Mo  Mo16  1  0.000016  0.500010  0.666613  1
  Mo  Mo17  1  0.500005  0.000008  0.833345  1
  Ru  Ru18  1  0.000000  0.998643  0.000000  1
  Ru  Ru19  1  0.499999  0.500636  0.167052  1
  Ru  Ru20  1  0.999987  0.999983  0.333305  1
  Ru  Ru21  1  0.500000  0.499952  0.500000  1
  Ru  Ru22  1  0.000013  0.999983  0.666695  1
  Ru  Ru23  1  0.500001  0.500636  0.832948  1
