# generated using pymatgen
data_BiRh3PbS2
_symmetry_space_group_name_H-M   'P 1'
_cell_length_a   7.13720804
_cell_length_b   7.13720808
_cell_length_c   8.18619923
_cell_angle_alpha   56.14470924
_cell_angle_beta   56.14470646
_cell_angle_gamma   72.25617631
_symmetry_Int_Tables_number   1
_chemical_formula_structural   BiRh3PbS2
_chemical_formula_sum   'Bi2 Rh6 Pb2 S4'
_cell_volume   287.57347157
_cell_formula_units_Z   2
loop_
 _symmetry_equiv_pos_site_id
 _symmetry_equiv_pos_as_xyz
  1  'x, y, z'
loop_
 _atom_site_type_symbol
 _atom_site_label
 _atom_site_symmetry_multiplicity
 _atom_site_fract_x
 _atom_site_fract_y
 _atom_site_fract_z
 _atom_site_occupancy
  Bi  Bi0  1  0.497026  0.497026  0.755160  1
  Bi  Bi1  1  0.993686  0.993686  0.752728  1
  Rh  Rh2  1  0.003940  0.504188  0.994186  1
  Rh  Rh3  1  0.243041  0.760017  0.994342  1
  Rh  Rh4  1  0.760017  0.243041  0.994342  1
  Rh  Rh5  1  0.504188  0.003940  0.994186  1
  Rh  Rh6  1  0.758931  0.758932  0.236772  1
  Rh  Rh7  1  0.241488  0.241488  0.763545  1
  Pb  Pb8  1  0.998622  0.998622  0.266580  1
  Pb  Pb9  1  0.494359  0.494359  0.257186  1
  S  S10  1  0.997998  0.457879  0.300948  1
  S  S11  1  0.457879  0.997998  0.300948  1
  S  S12  1  0.004989  0.543834  0.694540  1
  S  S13  1  0.543834  0.004989  0.694540  1
