# generated using pymatgen
data_Y4Co9Si5
_symmetry_space_group_name_H-M   'P 1'
_cell_length_a   11.31341610
_cell_length_b   11.31341612
_cell_length_c   11.31341626
_cell_angle_alpha   26.52254174
_cell_angle_beta   26.52254272
_cell_angle_gamma   26.52254084
_symmetry_Int_Tables_number   1
_chemical_formula_structural   Y4Co9Si5
_chemical_formula_sum   'Y4 Co9 Si5'
_cell_volume   254.52582192
_cell_formula_units_Z   1
loop_
 _symmetry_equiv_pos_site_id
 _symmetry_equiv_pos_as_xyz
  1  'x, y, z'
loop_
 _atom_site_type_symbol
 _atom_site_label
 _atom_site_symmetry_multiplicity
 _atom_site_fract_x
 _atom_site_fract_y
 _atom_site_fract_z
 _atom_site_occupancy
  Y  Y0  1  0.949442  0.949442  0.949442  1
  Y  Y1  1  0.851817  0.851817  0.851817  1
  Y  Y2  1  0.148183  0.148183  0.148183  1
  Y  Y3  1  0.050558  0.050558  0.050558  1
  Co  Co4  1  0.607704  0.607704  0.108182  1
  Co  Co5  1  0.891818  0.392296  0.392296  1
  Co  Co6  1  0.500000  0.000000  0.500000  1
  Co  Co7  1  0.392296  0.891818  0.392296  1
  Co  Co8  1  0.500000  0.500000  0.000000  1
  Co  Co9  1  0.108182  0.607704  0.607704  1
  Co  Co10  1  0.000000  0.500000  0.500000  1
  Co  Co11  1  0.392296  0.392296  0.891818  1
  Co  Co12  1  0.607704  0.108182  0.607704  1
  Si  Si13  1  0.278785  0.278785  0.278785  1
  Si  Si14  1  0.500000  0.500000  0.500000  1
  Si  Si15  1  0.387588  0.387588  0.387588  1
  Si  Si16  1  0.721215  0.721215  0.721215  1
  Si  Si17  1  0.612412  0.612412  0.612412  1
