# generated using pymatgen
data_La2CuSiPt7
_symmetry_space_group_name_H-M   'P 1'
_cell_length_a   4.21757900
_cell_length_b   9.33763839
_cell_length_c   9.33140507
_cell_angle_alpha   145.90748105
_cell_angle_beta   90.00000000
_cell_angle_gamma   90.00000000
_symmetry_Int_Tables_number   1
_chemical_formula_structural   La2CuSiPt7
_chemical_formula_sum   'La2 Cu1 Si1 Pt7'
_cell_volume   205.99034073
_cell_formula_units_Z   1
loop_
 _symmetry_equiv_pos_site_id
 _symmetry_equiv_pos_as_xyz
  1  'x, y, z'
loop_
 _atom_site_type_symbol
 _atom_site_label
 _atom_site_symmetry_multiplicity
 _atom_site_fract_x
 _atom_site_fract_y
 _atom_site_fract_z
 _atom_site_occupancy
  La  La0  1  0.500000  0.616737  0.371665  1
  La  La1  1  0.500000  0.376724  0.622228  1
  Cu  Cu2  1  0.500000  0.793301  0.197238  1
  Si  Si3  1  0.000000  0.218515  0.221764  1
  Pt  Pt4  1  0.000000  0.879516  0.107798  1
  Pt  Pt5  1  0.000000  0.991490  0.485553  1
  Pt  Pt6  1  0.000000  0.637867  0.638957  1
  Pt  Pt7  1  0.500000  0.193880  0.789958  1
  Pt  Pt8  1  0.000000  0.109027  0.886455  1
  Pt  Pt9  1  0.000000  0.498190  0.991807  1
  Pt  Pt10  1  0.500000  0.998337  0.000161  1
