# generated using pymatgen
data_Tb11Pr8LuSn16
_symmetry_space_group_name_H-M   'P 1'
_cell_length_a   8.11531903
_cell_length_b   8.34362003
_cell_length_c   15.71822100
_cell_angle_alpha   90.00000000
_cell_angle_beta   90.00000000
_cell_angle_gamma   89.99033625
_symmetry_Int_Tables_number   1
_chemical_formula_structural   Tb11Pr8LuSn16
_chemical_formula_sum   'Tb11 Pr8 Lu1 Sn16'
_cell_volume   1064.29862234
_cell_formula_units_Z   1
loop_
 _symmetry_equiv_pos_site_id
 _symmetry_equiv_pos_as_xyz
  1  'x, y, z'
loop_
 _atom_site_type_symbol
 _atom_site_label
 _atom_site_symmetry_multiplicity
 _atom_site_fract_x
 _atom_site_fract_y
 _atom_site_fract_z
 _atom_site_occupancy
  Tb  Tb0  1  0.349067  0.835431  0.875682  1
  Tb  Tb1  1  0.848776  0.664373  0.624419  1
  Tb  Tb2  1  0.650657  0.164211  0.375478  1
  Tb  Tb3  1  0.151438  0.335344  0.124477  1
  Tb  Tb4  1  0.650657  0.164211  0.124522  1
  Tb  Tb5  1  0.151438  0.335344  0.375523  1
  Tb  Tb6  1  0.349067  0.835431  0.624318  1
  Tb  Tb7  1  0.848776  0.664373  0.875581  1
  Tb  Tb8  1  0.182363  0.501299  0.750000  1
  Tb  Tb9  1  0.682212  0.998658  0.750000  1
  Tb  Tb10  1  0.817874  0.498886  0.250000  1
  Pr  Pr11  1  0.508672  0.323794  0.903723  1
  Pr  Pr12  1  0.008482  0.176346  0.596237  1
  Pr  Pr13  1  0.491156  0.676499  0.403608  1
  Pr  Pr14  1  0.991745  0.823989  0.096438  1
  Pr  Pr15  1  0.491156  0.676499  0.096392  1
  Pr  Pr16  1  0.991745  0.823989  0.403562  1
  Pr  Pr17  1  0.508672  0.323794  0.596277  1
  Pr  Pr18  1  0.008482  0.176346  0.903763  1
  Lu  Lu19  1  0.317531  0.001720  0.250000  1
  Sn  Sn20  1  0.313935  0.041034  0.042334  1
  Sn  Sn21  1  0.813969  0.458771  0.458309  1
  Sn  Sn22  1  0.685943  0.958591  0.541510  1
  Sn  Sn23  1  0.185955  0.541216  0.958440  1
  Sn  Sn24  1  0.685943  0.958591  0.958490  1
  Sn  Sn25  1  0.185955  0.541216  0.541560  1
  Sn  Sn26  1  0.313935  0.041034  0.457666  1
  Sn  Sn27  1  0.813969  0.458771  0.041691  1
  Sn  Sn28  1  0.546979  0.623240  0.750000  1
  Sn  Sn29  1  0.047093  0.876886  0.750000  1
  Sn  Sn30  1  0.452498  0.375949  0.250000  1
  Sn  Sn31  1  0.954847  0.122428  0.250000  1
  Sn  Sn32  1  0.315261  0.144333  0.750000  1
  Sn  Sn33  1  0.815427  0.355441  0.750000  1
  Sn  Sn34  1  0.683730  0.855824  0.250000  1
  Sn  Sn35  1  0.184595  0.646139  0.250000  1
