# generated using pymatgen
data_Tb5Sm2Sn23Rh6
_symmetry_space_group_name_H-M   'P 1'
_cell_length_a   9.88428412
_cell_length_b   9.88428362
_cell_length_c   10.13474802
_cell_angle_alpha   90.00694840
_cell_angle_beta   89.99305126
_cell_angle_gamma   119.98328965
_symmetry_Int_Tables_number   1
_chemical_formula_structural   Tb5Sm2Sn23Rh6
_chemical_formula_sum   'Tb5 Sm2 Sn23 Rh6'
_cell_volume   857.64410391
_cell_formula_units_Z   1
loop_
 _symmetry_equiv_pos_site_id
 _symmetry_equiv_pos_as_xyz
  1  'x, y, z'
loop_
 _atom_site_type_symbol
 _atom_site_label
 _atom_site_symmetry_multiplicity
 _atom_site_fract_x
 _atom_site_fract_y
 _atom_site_fract_z
 _atom_site_occupancy
  Tb  Tb0  1  0.521300  0.478700  0.692758  1
  Tb  Tb1  1  0.478707  0.957446  0.307384  1
  Tb  Tb2  1  0.521332  0.042601  0.692641  1
  Tb  Tb3  1  0.042554  0.521293  0.307384  1
  Tb  Tb4  1  0.957399  0.478668  0.692641  1
  Sm  Sm5  1  0.000016  0.999984  0.999989  1
  Sm  Sm6  1  0.478390  0.521610  0.307414  1
  Sn  Sn7  1  0.351286  0.999927  0.999970  1
  Sn  Sn8  1  0.648715  0.000046  0.999988  1
  Sn  Sn9  1  0.999954  0.351285  0.999988  1
  Sn  Sn10  1  0.000073  0.648714  0.999970  1
  Sn  Sn11  1  0.648789  0.648751  0.999827  1
  Sn  Sn12  1  0.351249  0.351211  0.999827  1
  Sn  Sn13  1  0.333328  0.666672  0.819337  1
  Sn  Sn14  1  0.666766  0.333234  0.180570  1
  Sn  Sn15  1  0.000023  0.999977  0.500015  1
  Sn  Sn16  1  0.778761  0.221239  0.455739  1
  Sn  Sn17  1  0.221248  0.778752  0.544319  1
  Sn  Sn18  1  0.779253  0.557524  0.455984  1
  Sn  Sn19  1  0.220954  0.442445  0.544654  1
  Sn  Sn20  1  0.442476  0.220747  0.455984  1
  Sn  Sn21  1  0.557555  0.779046  0.544654  1
  Sn  Sn22  1  0.332974  0.667026  0.117567  1
  Sn  Sn23  1  0.666682  0.333318  0.881989  1
  Sn  Sn24  1  0.119236  0.880764  0.280245  1
  Sn  Sn25  1  0.880775  0.119225  0.719759  1
  Sn  Sn26  1  0.118662  0.237962  0.280208  1
  Sn  Sn27  1  0.880840  0.761617  0.719765  1
  Sn  Sn28  1  0.762038  0.881338  0.280208  1
  Sn  Sn29  1  0.238383  0.119160  0.719765  1
  Rh  Rh30  1  0.831238  0.168762  0.198366  1
  Rh  Rh31  1  0.168712  0.831288  0.801595  1
  Rh  Rh32  1  0.831871  0.662842  0.198102  1
  Rh  Rh33  1  0.168725  0.337422  0.801646  1
  Rh  Rh34  1  0.337158  0.168129  0.198102  1
  Rh  Rh35  1  0.662578  0.831275  0.801646  1
