# generated using pymatgen
data_MnP2HS6
_symmetry_space_group_name_H-M   'P 1'
_cell_length_a   6.02881821
_cell_length_b   5.98605792
_cell_length_c   8.83981055
_cell_angle_alpha   98.59267270
_cell_angle_beta   103.82157502
_cell_angle_gamma   116.08617010
_symmetry_Int_Tables_number   1
_chemical_formula_structural   MnP2HS6
_chemical_formula_sum   'Mn1 P2 H1 S6'
_cell_volume   266.11926376
_cell_formula_units_Z   1
loop_
 _symmetry_equiv_pos_site_id
 _symmetry_equiv_pos_as_xyz
  1  'x, y, z'
loop_
 _atom_site_type_symbol
 _atom_site_label
 _atom_site_symmetry_multiplicity
 _atom_site_fract_x
 _atom_site_fract_y
 _atom_site_fract_z
 _atom_site_occupancy
  Mn  Mn0  1  0.302115  0.669325  0.045285  1
  P  P1  1  0.971001  0.987864  0.883809  1
  P  P2  1  0.041463  0.069361  0.149094  1
  H  H3  1  0.628260  0.136153  0.845020  1
  S  S4  1  0.253306  0.309127  0.854598  1
  S  S5  1  0.748398  0.788892  0.198389  1
  S  S6  1  0.584775  0.898563  0.767467  1
  S  S7  1  0.984063  0.657939  0.812350  1
  S  S8  1  0.103909  0.434664  0.223209  1
  S  S9  1  0.382709  0.048112  0.220779  1
