# generated using pymatgen
data_Zr6Nb4ZnCuSn6
_symmetry_space_group_name_H-M   'P 1'
_cell_length_a   8.55430700
_cell_length_b   8.55430660
_cell_length_c   5.75630100
_cell_angle_alpha   90.00000000
_cell_angle_beta   90.00000000
_cell_angle_gamma   119.99999768
_symmetry_Int_Tables_number   1
_chemical_formula_structural   Zr6Nb4ZnCuSn6
_chemical_formula_sum   'Zr6 Nb4 Zn1 Cu1 Sn6'
_cell_volume   364.79071984
_cell_formula_units_Z   1
loop_
 _symmetry_equiv_pos_site_id
 _symmetry_equiv_pos_as_xyz
  1  'x, y, z'
loop_
 _atom_site_type_symbol
 _atom_site_label
 _atom_site_symmetry_multiplicity
 _atom_site_fract_x
 _atom_site_fract_y
 _atom_site_fract_z
 _atom_site_occupancy
  Zr  Zr0  1  0.731306  0.731306  0.248410  1
  Zr  Zr1  1  0.268694  0.000000  0.248410  1
  Zr  Zr2  1  0.000000  0.268694  0.248410  1
  Zr  Zr3  1  0.268694  0.268694  0.751590  1
  Zr  Zr4  1  0.731306  0.000000  0.751590  1
  Zr  Zr5  1  0.000000  0.731306  0.751590  1
  Nb  Nb6  1  0.666667  0.333333  0.500000  1
  Nb  Nb7  1  0.333333  0.666667  0.500000  1
  Nb  Nb8  1  0.333333  0.666667  0.000000  1
  Nb  Nb9  1  0.666667  0.333333  0.000000  1
  Zn  Zn10  1  0.000000  0.000000  0.500000  1
  Cu  Cu11  1  0.000000  0.000000  0.000000  1
  Sn  Sn12  1  0.388072  0.388072  0.249440  1
  Sn  Sn13  1  0.611928  0.000000  0.249440  1
  Sn  Sn14  1  0.000000  0.611928  0.249440  1
  Sn  Sn15  1  0.611928  0.611928  0.750560  1
  Sn  Sn16  1  0.388072  0.000000  0.750560  1
  Sn  Sn17  1  0.000000  0.388072  0.750560  1
