# generated using pymatgen
data_SrY6PtBr12
_symmetry_space_group_name_H-M   'P 1'
_cell_length_a   9.28338182
_cell_length_b   9.28338109
_cell_length_c   9.28338240
_cell_angle_alpha   106.10223066
_cell_angle_beta   106.10223119
_cell_angle_gamma   106.10222311
_symmetry_Int_Tables_number   1
_chemical_formula_structural   SrY6PtBr12
_chemical_formula_sum   'Sr1 Y6 Pt1 Br12'
_cell_volume   681.95168888
_cell_formula_units_Z   1
loop_
 _symmetry_equiv_pos_site_id
 _symmetry_equiv_pos_as_xyz
  1  'x, y, z'
loop_
 _atom_site_type_symbol
 _atom_site_label
 _atom_site_symmetry_multiplicity
 _atom_site_fract_x
 _atom_site_fract_y
 _atom_site_fract_z
 _atom_site_occupancy
  Sr  Sr0  1  0.500000  0.500000  0.500000  1
  Y  Y1  1  0.101003  0.022254  0.312698  1
  Y  Y2  1  0.312698  0.101003  0.022254  1
  Y  Y3  1  0.022254  0.312698  0.101003  1
  Y  Y4  1  0.898997  0.977746  0.687302  1
  Y  Y5  1  0.687302  0.898997  0.977746  1
  Y  Y6  1  0.977746  0.687302  0.898997  1
  Pt  Pt7  1  0.000000  0.000000  0.000000  1
  Br  Br8  1  0.072989  0.675343  0.219170  1
  Br  Br9  1  0.219170  0.072989  0.675343  1
  Br  Br10  1  0.675343  0.219170  0.072989  1
  Br  Br11  1  0.927011  0.324657  0.780830  1
  Br  Br12  1  0.780830  0.927011  0.324657  1
  Br  Br13  1  0.324657  0.780830  0.927011  1
  Br  Br14  1  0.446983  0.141314  0.368058  1
  Br  Br15  1  0.368058  0.446983  0.141314  1
  Br  Br16  1  0.141314  0.368058  0.446983  1
  Br  Br17  1  0.553017  0.858686  0.631942  1
  Br  Br18  1  0.631942  0.553017  0.858686  1
  Br  Br19  1  0.858686  0.631942  0.553017  1
