# generated using pymatgen
data_Y5Ho5(Bi2Ru)2
_symmetry_space_group_name_H-M   'P 1'
_cell_length_a   7.97831905
_cell_length_b   9.00144300
_cell_length_c   12.51461008
_cell_angle_alpha   90.00000000
_cell_angle_beta   89.98701073
_cell_angle_gamma   90.00000000
_symmetry_Int_Tables_number   1
_chemical_formula_structural   Y5Ho5(Bi2Ru)2
_chemical_formula_sum   'Y10 Ho10 Bi8 Ru4'
_cell_volume   898.75402225
_cell_formula_units_Z   2
loop_
 _symmetry_equiv_pos_site_id
 _symmetry_equiv_pos_as_xyz
  1  'x, y, z'
loop_
 _atom_site_type_symbol
 _atom_site_label
 _atom_site_symmetry_multiplicity
 _atom_site_fract_x
 _atom_site_fract_y
 _atom_site_fract_z
 _atom_site_occupancy
  Y  Y0  1  0.840283  0.750000  0.792213  1
  Y  Y1  1  0.159717  0.250000  0.207787  1
  Y  Y2  1  0.340523  0.250000  0.708150  1
  Y  Y3  1  0.659477  0.750000  0.291850  1
  Y  Y4  1  0.374819  0.750000  0.690907  1
  Y  Y5  1  0.625181  0.250000  0.309093  1
  Y  Y6  1  0.874746  0.250000  0.809133  1
  Y  Y7  1  0.125254  0.750000  0.190867  1
  Y  Y8  1  0.946464  0.750000  0.504288  1
  Y  Y9  1  0.053536  0.250000  0.495712  1
  Ho  Ho10  1  0.445529  0.250000  0.995748  1
  Ho  Ho11  1  0.554471  0.750000  0.004252  1
  Ho  Ho12  1  0.673886  0.041818  0.564654  1
  Ho  Ho13  1  0.326114  0.958182  0.435346  1
  Ho  Ho14  1  0.174413  0.958258  0.935428  1
  Ho  Ho15  1  0.326114  0.541818  0.435346  1
  Ho  Ho16  1  0.825587  0.041742  0.064572  1
  Ho  Ho17  1  0.673886  0.458182  0.564654  1
  Ho  Ho18  1  0.825587  0.458258  0.064572  1
  Ho  Ho19  1  0.174413  0.541742  0.935428  1
  Bi  Bi20  1  0.567114  0.493185  0.827749  1
  Bi  Bi21  1  0.432886  0.506815  0.172251  1
  Bi  Bi22  1  0.067312  0.506864  0.672690  1
  Bi  Bi23  1  0.432886  0.993185  0.172251  1
  Bi  Bi24  1  0.932688  0.493136  0.327310  1
  Bi  Bi25  1  0.567114  0.006815  0.827749  1
  Bi  Bi26  1  0.932688  0.006864  0.327310  1
  Bi  Bi27  1  0.067312  0.993136  0.672690  1
  Ru  Ru28  1  0.573311  0.750000  0.509988  1
  Ru  Ru29  1  0.426689  0.250000  0.490012  1
  Ru  Ru30  1  0.074556  0.250000  0.989874  1
  Ru  Ru31  1  0.925444  0.750000  0.010126  1
