# generated using pymatgen
data_La3Mg2InGe2Rh
_symmetry_space_group_name_H-M   'P 1'
_cell_length_a   7.36825095
_cell_length_b   7.43911339
_cell_length_c   4.64845000
_cell_angle_alpha   90.00000000
_cell_angle_beta   90.00000000
_cell_angle_gamma   120.31865073
_symmetry_Int_Tables_number   1
_chemical_formula_structural   La3Mg2InGe2Rh
_chemical_formula_sum   'La3 Mg2 In1 Ge2 Rh1'
_cell_volume   219.94845535
_cell_formula_units_Z   1
loop_
 _symmetry_equiv_pos_site_id
 _symmetry_equiv_pos_as_xyz
  1  'x, y, z'
loop_
 _atom_site_type_symbol
 _atom_site_label
 _atom_site_symmetry_multiplicity
 _atom_site_fract_x
 _atom_site_fract_y
 _atom_site_fract_z
 _atom_site_occupancy
  La  La0  1  0.403160  0.003107  0.000000  1
  La  La1  1  0.000000  0.407137  0.000000  1
  La  La2  1  0.596840  0.599946  0.000000  1
  Mg  Mg3  1  0.767719  0.003598  0.500001  1
  Mg  Mg4  1  0.232281  0.235878  0.500001  1
  In  In5  1  0.000000  0.764115  0.500001  1
  Ge  Ge6  1  0.662054  0.330007  0.500001  1
  Ge  Ge7  1  0.337946  0.667952  0.500001  1
  Rh  Rh8  1  0.000000  0.988259  0.000000  1
