# generated using pymatgen
data_Pr4Nd2(GaSn)5
_symmetry_space_group_name_H-M   'P 1'
_cell_length_a   6.47857300
_cell_length_b   6.47857207
_cell_length_c   10.14661500
_cell_angle_alpha   90.00000000
_cell_angle_beta   90.00000000
_cell_angle_gamma   102.53954462
_symmetry_Int_Tables_number   1
_chemical_formula_structural   Pr4Nd2(GaSn)5
_chemical_formula_sum   'Pr4 Nd2 Ga5 Sn5'
_cell_volume   415.71413024
_cell_formula_units_Z   1
loop_
 _symmetry_equiv_pos_site_id
 _symmetry_equiv_pos_as_xyz
  1  'x, y, z'
loop_
 _atom_site_type_symbol
 _atom_site_label
 _atom_site_symmetry_multiplicity
 _atom_site_fract_x
 _atom_site_fract_y
 _atom_site_fract_z
 _atom_site_occupancy
  Pr  Pr0  1  0.200519  0.799898  0.494920  1
  Pr  Pr1  1  0.200519  0.799898  0.005080  1
  Pr  Pr2  1  0.799898  0.200519  0.494920  1
  Pr  Pr3  1  0.799898  0.200519  0.005080  1
  Nd  Nd4  1  0.648835  0.648835  0.250000  1
  Nd  Nd5  1  0.362398  0.362398  0.750000  1
  Ga  Ga6  1  0.031365  0.031365  0.250000  1
  Ga  Ga7  1  0.310584  0.310584  0.048804  1
  Ga  Ga8  1  0.686708  0.686708  0.956071  1
  Ga  Ga9  1  0.310584  0.310584  0.451196  1
  Ga  Ga10  1  0.686708  0.686708  0.543929  1
  Sn  Sn11  1  0.974731  0.974731  0.750000  1
  Sn  Sn12  1  0.483485  0.089467  0.250000  1
  Sn  Sn13  1  0.908641  0.505660  0.750000  1
  Sn  Sn14  1  0.505660  0.908641  0.750000  1
  Sn  Sn15  1  0.089467  0.483485  0.250000  1
