# generated using pymatgen
data_Ba12Al3VO19
_symmetry_space_group_name_H-M   'P 1'
_cell_length_a   7.81537034
_cell_length_b   7.84466748
_cell_length_c   10.52659959
_cell_angle_alpha   90.02416685
_cell_angle_beta   90.11776694
_cell_angle_gamma   96.00653027
_symmetry_Int_Tables_number   1
_chemical_formula_structural   Ba12Al3VO19
_chemical_formula_sum   'Ba12 Al3 V1 O19'
_cell_volume   641.83048789
_cell_formula_units_Z   1
loop_
 _symmetry_equiv_pos_site_id
 _symmetry_equiv_pos_as_xyz
  1  'x, y, z'
loop_
 _atom_site_type_symbol
 _atom_site_label
 _atom_site_symmetry_multiplicity
 _atom_site_fract_x
 _atom_site_fract_y
 _atom_site_fract_z
 _atom_site_occupancy
  Ba  Ba0  1  0.746058  0.269350  0.484030  1
  Ba  Ba1  1  0.250706  0.726216  0.016545  1
  Ba  Ba2  1  0.752103  0.273664  0.014380  1
  Ba  Ba3  1  0.249596  0.728459  0.487739  1
  Ba  Ba4  1  0.574409  0.579561  0.246584  1
  Ba  Ba5  1  0.063545  0.066729  0.765651  1
  Ba  Ba6  1  0.425155  0.430264  0.755477  1
  Ba  Ba7  1  0.930700  0.932416  0.236774  1
  Ba  Ba8  1  0.749607  0.739796  0.935244  1
  Ba  Ba9  1  0.257466  0.263648  0.423047  1
  Ba  Ba10  1  0.254430  0.255636  0.076221  1
  Ba  Ba11  1  0.744909  0.732796  0.566485  1
  Al  Al12  1  0.504996  0.006308  0.259985  1
  Al  Al13  1  0.995261  0.493225  0.740762  1
  Al  Al14  1  0.002237  0.502732  0.254735  1
  V  V15  1  0.497876  0.997674  0.742930  1
  O  O16  1  0.276092  0.963691  0.292458  1
  O  O17  1  0.765989  0.467466  0.760506  1
  O  O18  1  0.536268  0.235316  0.242429  1
  O  O19  1  0.041040  0.721544  0.706080  1
  O  O20  1  0.923755  0.619615  0.384335  1
  O  O21  1  0.427800  0.100812  0.876929  1
  O  O22  1  0.900025  0.581205  0.117971  1
  O  O23  1  0.378168  0.068514  0.616897  1
  O  O24  1  0.231026  0.539039  0.244299  1
  O  O25  1  0.719793  0.039381  0.717901  1
  O  O26  1  0.963540  0.274138  0.273286  1
  O  O27  1  0.458179  0.776801  0.758741  1
  O  O28  1  0.572312  0.894794  0.122506  1
  O  O29  1  0.062803  0.356700  0.614730  1
  O  O30  1  0.639375  0.941133  0.387567  1
  O  O31  1  0.106287  0.420247  0.877907  1
  O  O32  1  0.498302  0.499043  0.999220  1
  O  O33  1  0.003734  0.999314  0.998095  1
  O  O34  1  0.496460  0.502773  0.501552  1
