# generated using pymatgen
data_VCu6ClO8
_symmetry_space_group_name_H-M   'P 1'
_cell_length_a   6.43269227
_cell_length_b   6.43269220
_cell_length_c   6.43269300
_cell_angle_alpha   60.00000104
_cell_angle_beta   60.00000140
_cell_angle_gamma   59.99999464
_symmetry_Int_Tables_number   1
_chemical_formula_structural   VCu6ClO8
_chemical_formula_sum   'V1 Cu6 Cl1 O8'
_cell_volume   188.21895818
_cell_formula_units_Z   1
loop_
 _symmetry_equiv_pos_site_id
 _symmetry_equiv_pos_as_xyz
  1  'x, y, z'
loop_
 _atom_site_type_symbol
 _atom_site_label
 _atom_site_symmetry_multiplicity
 _atom_site_fract_x
 _atom_site_fract_y
 _atom_site_fract_z
 _atom_site_occupancy
  V  V0  1  0.000000  0.000000  0.000000  1
  Cu  Cu1  1  0.000000  0.000000  0.500000  1
  Cu  Cu2  1  0.500000  0.000000  0.000000  1
  Cu  Cu3  1  0.000000  0.500000  0.000000  1
  Cu  Cu4  1  0.500000  0.500000  0.000000  1
  Cu  Cu5  1  0.000000  0.500000  0.500000  1
  Cu  Cu6  1  0.500000  0.000000  0.500000  1
  Cl  Cl7  1  0.500000  0.500000  0.500000  1
  O  O8  1  0.138550  0.138550  0.584349  1
  O  O9  1  0.138550  0.584349  0.138550  1
  O  O10  1  0.584349  0.138550  0.138550  1
  O  O11  1  0.861450  0.415651  0.861450  1
  O  O12  1  0.138550  0.138550  0.138550  1
  O  O13  1  0.861450  0.861450  0.861450  1
  O  O14  1  0.861450  0.861450  0.415651  1
  O  O15  1  0.415651  0.861450  0.861450  1
