# generated using pymatgen
data_Zr6Zn20Cu2SiPd
_symmetry_space_group_name_H-M   'P 1'
_cell_length_a   8.74230417
_cell_length_b   8.76826551
_cell_length_c   8.74230466
_cell_angle_alpha   59.90172192
_cell_angle_beta   60.19657101
_cell_angle_gamma   59.90171612
_symmetry_Int_Tables_number   1
_chemical_formula_structural   Zr6Zn20Cu2SiPd
_chemical_formula_sum   'Zr6 Zn20 Cu2 Si1 Pd1'
_cell_volume   473.85218889
_cell_formula_units_Z   1
loop_
 _symmetry_equiv_pos_site_id
 _symmetry_equiv_pos_as_xyz
  1  'x, y, z'
loop_
 _atom_site_type_symbol
 _atom_site_label
 _atom_site_symmetry_multiplicity
 _atom_site_fract_x
 _atom_site_fract_y
 _atom_site_fract_z
 _atom_site_occupancy
  Zr  Zr0  1  0.710808  0.289192  0.289192  1
  Zr  Zr1  1  0.289192  0.710808  0.710808  1
  Zr  Zr2  1  0.286679  0.713321  0.286679  1
  Zr  Zr3  1  0.713321  0.286679  0.713321  1
  Zr  Zr4  1  0.289192  0.289192  0.710808  1
  Zr  Zr5  1  0.710808  0.710808  0.289192  1
  Zn  Zn6  1  0.120065  0.128349  0.120065  1
  Zn  Zn7  1  0.879935  0.871651  0.879935  1
  Zn  Zn8  1  0.128349  0.120065  0.631522  1
  Zn  Zn9  1  0.120065  0.631522  0.120065  1
  Zn  Zn10  1  0.871651  0.879935  0.368478  1
  Zn  Zn11  1  0.879935  0.368478  0.879935  1
  Zn  Zn12  1  0.631522  0.120065  0.128349  1
  Zn  Zn13  1  0.368478  0.879935  0.871651  1
  Zn  Zn14  1  0.500000  0.000000  0.000000  1
  Zn  Zn15  1  0.000000  0.500000  0.500000  1
  Zn  Zn16  1  0.000000  0.000000  0.500000  1
  Zn  Zn17  1  0.500000  0.500000  0.000000  1
  Zn  Zn18  1  0.339392  0.332863  0.339392  1
  Zn  Zn19  1  0.660608  0.667137  0.660608  1
  Zn  Zn20  1  0.332863  0.339392  0.988352  1
  Zn  Zn21  1  0.339392  0.988352  0.339392  1
  Zn  Zn22  1  0.667137  0.660608  0.011648  1
  Zn  Zn23  1  0.660608  0.011648  0.660608  1
  Zn  Zn24  1  0.988352  0.339392  0.332863  1
  Zn  Zn25  1  0.011648  0.660608  0.667137  1
  Cu  Cu26  1  0.000000  0.500000  0.000000  1
  Cu  Cu27  1  0.500000  0.000000  0.500000  1
  Si  Si28  1  0.500000  0.500000  0.500000  1
  Pd  Pd29  1  0.000000  0.000000  0.000000  1
