# generated using pymatgen
data_Tb3Ho7Si6O
_symmetry_space_group_name_H-M   'P 1'
_cell_length_a   8.39474100
_cell_length_b   8.39474028
_cell_length_c   6.31269100
_cell_angle_alpha   90.00000000
_cell_angle_beta   90.00000000
_cell_angle_gamma   119.99999101
_symmetry_Int_Tables_number   1
_chemical_formula_structural   Tb3Ho7Si6O
_chemical_formula_sum   'Tb3 Ho7 Si6 O1'
_cell_volume   385.26518793
_cell_formula_units_Z   1
loop_
 _symmetry_equiv_pos_site_id
 _symmetry_equiv_pos_as_xyz
  1  'x, y, z'
loop_
 _atom_site_type_symbol
 _atom_site_label
 _atom_site_symmetry_multiplicity
 _atom_site_fract_x
 _atom_site_fract_y
 _atom_site_fract_z
 _atom_site_occupancy
  Tb  Tb0  1  0.000000  0.236238  0.741713  1
  Tb  Tb1  1  0.763762  0.763762  0.741713  1
  Tb  Tb2  1  0.236238  0.000000  0.741713  1
  Ho  Ho3  1  0.333333  0.666667  0.499517  1
  Ho  Ho4  1  0.666667  0.333333  0.499517  1
  Ho  Ho5  1  0.666667  0.333333  0.000400  1
  Ho  Ho6  1  0.333333  0.666667  0.000400  1
  Ho  Ho7  1  0.000000  0.764216  0.260457  1
  Ho  Ho8  1  0.235784  0.235784  0.260457  1
  Ho  Ho9  1  0.764216  0.000000  0.260457  1
  Si  Si10  1  0.000000  0.397280  0.250047  1
  Si  Si11  1  0.602720  0.602720  0.250047  1
  Si  Si12  1  0.397280  0.000000  0.250047  1
  Si  Si13  1  0.000000  0.601528  0.749141  1
  Si  Si14  1  0.398472  0.398472  0.749141  1
  Si  Si15  1  0.601528  0.000000  0.749141  1
  O  O16  1  0.000000  0.000000  0.496092  1
