# generated using pymatgen
data_Er16Tl5HgIr2
_symmetry_space_group_name_H-M   'P 1'
_cell_length_a   10.26064896
_cell_length_b   10.26064869
_cell_length_c   7.15487900
_cell_angle_alpha   90.05630938
_cell_angle_beta   89.94369062
_cell_angle_gamma   120.03883086
_symmetry_Int_Tables_number   1
_chemical_formula_structural   Er16Tl5HgIr2
_chemical_formula_sum   'Er16 Tl5 Hg1 Ir2'
_cell_volume   652.09703758
_cell_formula_units_Z   1
loop_
 _symmetry_equiv_pos_site_id
 _symmetry_equiv_pos_as_xyz
  1  'x, y, z'
loop_
 _atom_site_type_symbol
 _atom_site_label
 _atom_site_symmetry_multiplicity
 _atom_site_fract_x
 _atom_site_fract_y
 _atom_site_fract_z
 _atom_site_occupancy
  Er  Er0  1  0.001440  0.998560  0.269856  1
  Er  Er1  1  0.999466  0.000534  0.768885  1
  Er  Er2  1  0.175851  0.824149  0.979905  1
  Er  Er3  1  0.823964  0.176036  0.488344  1
  Er  Er4  1  0.175991  0.352038  0.991704  1
  Er  Er5  1  0.647962  0.824009  0.991704  1
  Er  Er6  1  0.347828  0.169672  0.493853  1
  Er  Er7  1  0.830328  0.652172  0.493853  1
  Er  Er8  1  0.331298  0.668702  0.670841  1
  Er  Er9  1  0.666116  0.333884  0.171895  1
  Er  Er10  1  0.464688  0.535312  0.290945  1
  Er  Er11  1  0.535916  0.464084  0.788086  1
  Er  Er12  1  0.458739  0.926095  0.291687  1
  Er  Er13  1  0.073905  0.541261  0.291687  1
  Er  Er14  1  0.927268  0.462679  0.790344  1
  Er  Er15  1  0.537321  0.072732  0.790344  1
  Tl  Tl16  1  0.835976  0.164024  0.044133  1
  Tl  Tl17  1  0.164554  0.328043  0.542699  1
  Tl  Tl18  1  0.671957  0.835446  0.542699  1
  Tl  Tl19  1  0.327786  0.163707  0.043122  1
  Tl  Tl20  1  0.836293  0.672214  0.043122  1
  Hg  Hg21  1  0.165462  0.834538  0.548452  1
  Ir  Ir22  1  0.333568  0.666432  0.059213  1
  Ir  Ir23  1  0.666321  0.333679  0.558746  1
