# generated using pymatgen
data_YbPr4Ga2Bi
_symmetry_space_group_name_H-M   'P 1'
_cell_length_a   8.24691600
_cell_length_b   8.24691600
_cell_length_c   14.15043500
_cell_angle_alpha   90.00000000
_cell_angle_beta   90.00000000
_cell_angle_gamma   90.00000000
_symmetry_Int_Tables_number   1
_chemical_formula_structural   YbPr4Ga2Bi
_chemical_formula_sum   'Yb4 Pr16 Ga8 Bi4'
_cell_volume   962.39405774
_cell_formula_units_Z   4
loop_
 _symmetry_equiv_pos_site_id
 _symmetry_equiv_pos_as_xyz
  1  'x, y, z'
loop_
 _atom_site_type_symbol
 _atom_site_label
 _atom_site_symmetry_multiplicity
 _atom_site_fract_x
 _atom_site_fract_y
 _atom_site_fract_z
 _atom_site_occupancy
  Yb  Yb0  1  0.000000  0.500000  0.747943  1
  Yb  Yb1  1  0.000000  0.500000  0.247943  1
  Yb  Yb2  1  0.500000  0.000000  0.252057  1
  Yb  Yb3  1  0.500000  0.000000  0.752057  1
  Pr  Pr4  1  0.833846  0.834209  0.607760  1
  Pr  Pr5  1  0.166154  0.834209  0.107760  1
  Pr  Pr6  1  0.165791  0.833846  0.392240  1
  Pr  Pr7  1  0.834209  0.166154  0.392240  1
  Pr  Pr8  1  0.666154  0.665791  0.392240  1
  Pr  Pr9  1  0.665791  0.333846  0.607760  1
  Pr  Pr10  1  0.334209  0.666154  0.607760  1
  Pr  Pr11  1  0.665791  0.666154  0.107760  1
  Pr  Pr12  1  0.666154  0.334209  0.892240  1
  Pr  Pr13  1  0.834209  0.833846  0.892240  1
  Pr  Pr14  1  0.333846  0.334209  0.392240  1
  Pr  Pr15  1  0.166154  0.165791  0.607760  1
  Pr  Pr16  1  0.833846  0.165791  0.107760  1
  Pr  Pr17  1  0.333846  0.665791  0.892240  1
  Pr  Pr18  1  0.334209  0.333846  0.107760  1
  Pr  Pr19  1  0.165791  0.166154  0.892240  1
  Ga  Ga20  1  0.624604  0.375396  0.250000  1
  Ga  Ga21  1  0.124604  0.875396  0.750000  1
  Ga  Ga22  1  0.375396  0.375396  0.750000  1
  Ga  Ga23  1  0.375396  0.624604  0.250000  1
  Ga  Ga24  1  0.875396  0.875396  0.250000  1
  Ga  Ga25  1  0.624604  0.624604  0.750000  1
  Ga  Ga26  1  0.875396  0.124604  0.750000  1
  Ga  Ga27  1  0.124604  0.124604  0.250000  1
  Bi  Bi28  1  0.000000  0.500000  0.499599  1
  Bi  Bi29  1  0.500000  0.000000  0.500401  1
  Bi  Bi30  1  0.500000  0.000000  0.000401  1
  Bi  Bi31  1  0.000000  0.500000  0.999599  1
