# generated using pymatgen
data_Lu4Pd3RuO14
_symmetry_space_group_name_H-M   'P 1'
_cell_length_a   7.13672239
_cell_length_b   7.13672214
_cell_length_c   7.17437327
_cell_angle_alpha   60.17345150
_cell_angle_beta   60.17344947
_cell_angle_gamma   59.99999472
_symmetry_Int_Tables_number   1
_chemical_formula_structural   Lu4Pd3RuO14
_chemical_formula_sum   'Lu4 Pd3 Ru1 O14'
_cell_volume   259.05988901
_cell_formula_units_Z   1
loop_
 _symmetry_equiv_pos_site_id
 _symmetry_equiv_pos_as_xyz
  1  'x, y, z'
loop_
 _atom_site_type_symbol
 _atom_site_label
 _atom_site_symmetry_multiplicity
 _atom_site_fract_x
 _atom_site_fract_y
 _atom_site_fract_z
 _atom_site_occupancy
  Lu  Lu0  1  0.125000  0.125000  0.625000  1
  Lu  Lu1  1  0.125000  0.125000  0.125000  1
  Lu  Lu2  1  0.625000  0.125000  0.125000  1
  Lu  Lu3  1  0.125000  0.625000  0.125000  1
  Pd  Pd4  1  0.625000  0.625000  0.625000  1
  Pd  Pd5  1  0.125000  0.625000  0.625000  1
  Pd  Pd6  1  0.625000  0.125000  0.625000  1
  Ru  Ru7  1  0.625000  0.625000  0.125000  1
  O  O8  1  0.286968  0.715589  0.281853  1
  O  O9  1  0.279791  0.279791  0.721307  1
  O  O10  1  0.534411  0.963032  0.968147  1
  O  O11  1  0.530890  0.970209  0.528693  1
  O  O12  1  0.534411  0.534411  0.968147  1
  O  O13  1  0.279791  0.719110  0.721307  1
  O  O14  1  0.963032  0.534411  0.968147  1
  O  O15  1  0.715589  0.286968  0.281853  1
  O  O16  1  0.719110  0.279791  0.721307  1
  O  O17  1  0.715589  0.715589  0.281853  1
  O  O18  1  0.250231  0.250231  0.249308  1
  O  O19  1  0.970209  0.970209  0.528693  1
  O  O20  1  0.970209  0.530890  0.528693  1
  O  O21  1  0.999769  0.999769  0.000692  1
