# generated using pymatgen
data_K8Tb3TmF20
_symmetry_space_group_name_H-M   'P 1'
_cell_length_a   6.70387308
_cell_length_b   7.31219100
_cell_length_c   11.00828309
_cell_angle_alpha   90.00000000
_cell_angle_beta   90.10996379
_cell_angle_gamma   90.00000000
_symmetry_Int_Tables_number   1
_chemical_formula_structural   K8Tb3TmF20
_chemical_formula_sum   'K8 Tb3 Tm1 F20'
_cell_volume   539.62504713
_cell_formula_units_Z   1
loop_
 _symmetry_equiv_pos_site_id
 _symmetry_equiv_pos_as_xyz
  1  'x, y, z'
loop_
 _atom_site_type_symbol
 _atom_site_label
 _atom_site_symmetry_multiplicity
 _atom_site_fract_x
 _atom_site_fract_y
 _atom_site_fract_z
 _atom_site_occupancy
  K  K0  1  0.529983  0.498833  0.828813  1
  K  K1  1  0.471037  0.502710  0.171128  1
  K  K2  1  0.029375  0.502288  0.672487  1
  K  K3  1  0.471037  0.997290  0.171128  1
  K  K4  1  0.970299  0.498646  0.327536  1
  K  K5  1  0.529983  0.001167  0.828813  1
  K  K6  1  0.970299  0.001354  0.327536  1
  K  K7  1  0.029375  0.997712  0.672487  1
  Tb  Tb8  1  0.564655  0.750000  0.502255  1
  Tb  Tb9  1  0.435148  0.250000  0.497722  1
  Tb  Tb10  1  0.063172  0.250000  0.997970  1
  Tm  Tm11  1  0.936209  0.750000  0.001529  1
  F  F12  1  0.839308  0.750000  0.812231  1
  F  F13  1  0.162787  0.250000  0.191670  1
  F  F14  1  0.336793  0.250000  0.691732  1
  F  F15  1  0.662599  0.750000  0.308751  1
  F  F16  1  0.367472  0.750000  0.664495  1
  F  F17  1  0.632732  0.250000  0.335405  1
  F  F18  1  0.867231  0.250000  0.835158  1
  F  F19  1  0.127506  0.750000  0.160401  1
  F  F20  1  0.894778  0.750000  0.513852  1
  F  F21  1  0.105243  0.250000  0.486476  1
  F  F22  1  0.392924  0.250000  0.985994  1
  F  F23  1  0.613379  0.750000  0.014032  1
  F  F24  1  0.645515  0.034461  0.577900  1
  F  F25  1  0.354326  0.965426  0.422053  1
  F  F26  1  0.142329  0.961644  0.924090  1
  F  F27  1  0.354326  0.534574  0.422053  1
  F  F28  1  0.856169  0.030204  0.076157  1
  F  F29  1  0.645515  0.465539  0.577900  1
  F  F30  1  0.856169  0.469796  0.076157  1
  F  F31  1  0.142329  0.538356  0.924090  1
