# generated using pymatgen
data_Ba2NiAs2Pd
_symmetry_space_group_name_H-M   'P 1'
_cell_length_a   6.44306420
_cell_length_b   6.43614164
_cell_length_c   7.86403295
_cell_angle_alpha   89.49517083
_cell_angle_beta   89.01101599
_cell_angle_gamma   104.12152606
_symmetry_Int_Tables_number   1
_chemical_formula_structural   Ba2NiAs2Pd
_chemical_formula_sum   'Ba4 Ni2 As4 Pd2'
_cell_volume   316.17892605
_cell_formula_units_Z   2
loop_
 _symmetry_equiv_pos_site_id
 _symmetry_equiv_pos_as_xyz
  1  'x, y, z'
loop_
 _atom_site_type_symbol
 _atom_site_label
 _atom_site_symmetry_multiplicity
 _atom_site_fract_x
 _atom_site_fract_y
 _atom_site_fract_z
 _atom_site_occupancy
  Ba  Ba0  1  0.178431  0.810912  0.527337  1
  Ba  Ba1  1  0.679339  0.312025  0.971279  1
  Ba  Ba2  1  0.821569  0.189088  0.472663  1
  Ba  Ba3  1  0.320661  0.687975  0.028721  1
  Ni  Ni4  1  0.388930  0.388583  0.615484  1
  Ni  Ni5  1  0.611070  0.611417  0.384516  1
  As  As6  1  0.143117  0.231337  0.815025  1
  As  As7  1  0.628494  0.710868  0.665919  1
  As  As8  1  0.856883  0.768663  0.184975  1
  As  As9  1  0.371506  0.289132  0.334081  1
  Pd  Pd10  1  0.118413  0.120692  0.122274  1
  Pd  Pd11  1  0.881587  0.879308  0.877726  1
