# generated using pymatgen
data_Li8Tb3YIn4
_symmetry_space_group_name_H-M   'P 1'
_cell_length_a   4.85857277
_cell_length_b   6.87949366
_cell_length_c   9.72885387
_cell_angle_alpha   89.96855055
_cell_angle_beta   90.05082054
_cell_angle_gamma   90.00918928
_symmetry_Int_Tables_number   1
_chemical_formula_structural   Li8Tb3YIn4
_chemical_formula_sum   'Li8 Tb3 Y1 In4'
_cell_volume   325.18209494
_cell_formula_units_Z   1
loop_
 _symmetry_equiv_pos_site_id
 _symmetry_equiv_pos_as_xyz
  1  'x, y, z'
loop_
 _atom_site_type_symbol
 _atom_site_label
 _atom_site_symmetry_multiplicity
 _atom_site_fract_x
 _atom_site_fract_y
 _atom_site_fract_z
 _atom_site_occupancy
  Li  Li0  1  0.749009  0.499528  0.123950  1
  Li  Li1  1  0.748980  0.000310  0.124120  1
  Li  Li2  1  0.248774  0.999760  0.376024  1
  Li  Li3  1  0.248951  0.500433  0.376170  1
  Li  Li4  1  0.750805  0.000459  0.624192  1
  Li  Li5  1  0.750964  0.499646  0.624176  1
  Li  Li6  1  0.251129  0.999726  0.876012  1
  Li  Li7  1  0.250833  0.500205  0.876097  1
  Tb  Tb8  1  0.249039  0.749955  0.125939  1
  Tb  Tb9  1  0.749159  0.250188  0.373757  1
  Tb  Tb10  1  0.250302  0.750312  0.625770  1
  Y  Y11  1  0.750879  0.250096  0.873890  1
  In  In12  1  0.250583  0.249624  0.125123  1
  In  In13  1  0.748623  0.749784  0.374808  1
  In  In14  1  0.249954  0.249583  0.625338  1
  In  In15  1  0.752012  0.750395  0.874637  1
