# generated using pymatgen
data_NdDySc3Si7Pt9
_symmetry_space_group_name_H-M   'P 1'
_cell_length_a   10.07527100
_cell_length_b   10.07527020
_cell_length_c   4.00452700
_cell_angle_alpha   90.00000000
_cell_angle_beta   90.00000000
_cell_angle_gamma   119.99999935
_symmetry_Int_Tables_number   1
_chemical_formula_structural   NdDySc3Si7Pt9
_chemical_formula_sum   'Nd1 Dy1 Sc3 Si7 Pt9'
_cell_volume   352.04266426
_cell_formula_units_Z   1
loop_
 _symmetry_equiv_pos_site_id
 _symmetry_equiv_pos_as_xyz
  1  'x, y, z'
loop_
 _atom_site_type_symbol
 _atom_site_label
 _atom_site_symmetry_multiplicity
 _atom_site_fract_x
 _atom_site_fract_y
 _atom_site_fract_z
 _atom_site_occupancy
  Nd  Nd0  1  0.000000  0.000000  0.000000  1
  Dy  Dy1  1  0.333333  0.666667  0.500000  1
  Sc  Sc2  1  0.894776  0.454874  0.500000  1
  Sc  Sc3  1  0.560099  0.105224  0.500000  1
  Sc  Sc4  1  0.545126  0.439901  0.500000  1
  Si  Si5  1  0.248528  0.197380  0.500000  1
  Si  Si6  1  0.802620  0.051149  0.500000  1
  Si  Si7  1  0.948851  0.751472  0.500000  1
  Si  Si8  1  0.556550  0.647164  0.000000  1
  Si  Si9  1  0.352836  0.909383  0.000000  1
  Si  Si10  1  0.090617  0.443450  0.000000  1
  Si  Si11  1  0.666667  0.333333  0.000000  1
  Pt  Pt12  1  0.221102  0.935410  0.500000  1
  Pt  Pt13  1  0.064590  0.285693  0.500000  1
  Pt  Pt14  1  0.714307  0.778898  0.500000  1
  Pt  Pt15  1  0.314172  0.413136  0.000000  1
  Pt  Pt16  1  0.586864  0.901037  0.000000  1
  Pt  Pt17  1  0.098963  0.685828  0.000000  1
  Pt  Pt18  1  0.384809  0.171752  0.000000  1
  Pt  Pt19  1  0.828248  0.213056  0.000000  1
  Pt  Pt20  1  0.786944  0.615191  0.000000  1
