# generated using pymatgen
data_YLu2ThCoHg
_symmetry_space_group_name_H-M   'P 1'
_cell_length_a   9.48672115
_cell_length_b   9.48203820
_cell_length_c   9.48230406
_cell_angle_alpha   59.89233858
_cell_angle_beta   59.87232662
_cell_angle_gamma   59.87294828
_symmetry_Int_Tables_number   1
_chemical_formula_structural   YLu2ThCoHg
_chemical_formula_sum   'Y4 Lu8 Th4 Co4 Hg4'
_cell_volume   601.48489843
_cell_formula_units_Z   4
loop_
 _symmetry_equiv_pos_site_id
 _symmetry_equiv_pos_as_xyz
  1  'x, y, z'
loop_
 _atom_site_type_symbol
 _atom_site_label
 _atom_site_symmetry_multiplicity
 _atom_site_fract_x
 _atom_site_fract_y
 _atom_site_fract_z
 _atom_site_occupancy
  Y  Y0  1  0.564556  0.936521  0.564799  1
  Y  Y1  1  0.936951  0.564025  0.936665  1
  Y  Y2  1  0.564510  0.564770  0.936561  1
  Y  Y3  1  0.936963  0.936644  0.564012  1
  Lu  Lu4  1  0.813620  0.185898  0.185830  1
  Lu  Lu5  1  0.185379  0.815086  0.815310  1
  Lu  Lu6  1  0.185921  0.813939  0.185743  1
  Lu  Lu7  1  0.815400  0.185109  0.815180  1
  Lu  Lu8  1  0.185941  0.185824  0.814066  1
  Lu  Lu9  1  0.815527  0.815118  0.185045  1
  Lu  Lu10  1  0.939836  0.561612  0.561594  1
  Lu  Lu11  1  0.562246  0.938979  0.938940  1
  Th  Th12  1  0.346563  0.347242  0.347248  1
  Th  Th13  1  0.348250  0.348290  0.956277  1
  Th  Th14  1  0.348309  0.956255  0.348204  1
  Th  Th15  1  0.956101  0.348228  0.348169  1
  Co  Co16  1  0.144509  0.143280  0.143324  1
  Co  Co17  1  0.142212  0.144457  0.568692  1
  Co  Co18  1  0.142403  0.568691  0.144376  1
  Co  Co19  1  0.568705  0.142237  0.142303  1
  Hg  Hg20  1  0.588309  0.584822  0.584810  1
  Hg  Hg21  1  0.583348  0.587044  0.241695  1
  Hg  Hg22  1  0.583389  0.241744  0.587001  1
  Hg  Hg23  1  0.241051  0.584186  0.584156  1
