# generated using pymatgen
data_Pr2YEr3CoI10
_symmetry_space_group_name_H-M   'P 1'
_cell_length_a   7.76561333
_cell_length_b   9.76736890
_cell_length_c   9.79610734
_cell_angle_alpha   106.79254985
_cell_angle_beta   96.06336220
_cell_angle_gamma   105.20796884
_symmetry_Int_Tables_number   1
_chemical_formula_structural   Pr2YEr3CoI10
_chemical_formula_sum   'Pr2 Y1 Er3 Co1 I10'
_cell_volume   673.06920287
_cell_formula_units_Z   1
loop_
 _symmetry_equiv_pos_site_id
 _symmetry_equiv_pos_as_xyz
  1  'x, y, z'
loop_
 _atom_site_type_symbol
 _atom_site_label
 _atom_site_symmetry_multiplicity
 _atom_site_fract_x
 _atom_site_fract_y
 _atom_site_fract_z
 _atom_site_occupancy
  Pr  Pr0  1  0.884835  0.956983  0.231107  1
  Pr  Pr1  1  0.113633  0.042332  0.768190  1
  Y  Y2  1  0.342555  0.122052  0.160778  1
  Er  Er3  1  0.028862  0.720579  0.915862  1
  Er  Er4  1  0.970635  0.279365  0.083784  1
  Er  Er5  1  0.661166  0.878682  0.840360  1
  Co  Co6  1  0.999008  0.999598  0.999582  1
  I  I7  1  0.653395  0.554648  0.732061  1
  I  I8  1  0.345570  0.446942  0.268089  1
  I  I9  1  0.732666  0.911143  0.544546  1
  I  I10  1  0.265971  0.088375  0.456390  1
  I  I11  1  0.082183  0.378977  0.825367  1
  I  I12  1  0.917822  0.621054  0.174607  1
  I  I13  1  0.446570  0.815584  0.088160  1
  I  I14  1  0.553430  0.182908  0.910104  1
  I  I15  1  0.229345  0.739255  0.661233  1
  I  I16  1  0.772354  0.261523  0.339780  1
