# generated using pymatgen
data_Er12Co4IrPb
_symmetry_space_group_name_H-M   'P 1'
_cell_length_a   8.24183882
_cell_length_b   8.24183836
_cell_length_c   8.24183886
_cell_angle_alpha   111.10086096
_cell_angle_beta   110.62391673
_cell_angle_gamma   106.72370096
_symmetry_Int_Tables_number   1
_chemical_formula_structural   Er12Co4IrPb
_chemical_formula_sum   'Er12 Co4 Ir1 Pb1'
_cell_volume   430.22679049
_cell_formula_units_Z   1
loop_
 _symmetry_equiv_pos_site_id
 _symmetry_equiv_pos_as_xyz
  1  'x, y, z'
loop_
 _atom_site_type_symbol
 _atom_site_label
 _atom_site_symmetry_multiplicity
 _atom_site_fract_x
 _atom_site_fract_y
 _atom_site_fract_z
 _atom_site_occupancy
  Er  Er0  1  0.182346  0.284039  0.466385  1
  Er  Er1  1  0.817654  0.715961  0.533615  1
  Er  Er2  1  0.182346  0.715961  0.898307  1
  Er  Er3  1  0.817654  0.284039  0.101693  1
  Er  Er4  1  0.313825  0.621161  0.307336  1
  Er  Er5  1  0.686175  0.378839  0.692664  1
  Er  Er6  1  0.313825  0.006488  0.692664  1
  Er  Er7  1  0.686175  0.993512  0.307336  1
  Er  Er8  1  0.412898  0.215991  0.196907  1
  Er  Er9  1  0.587102  0.784009  0.803093  1
  Er  Er10  1  0.019083  0.215991  0.803093  1
  Er  Er11  1  0.980917  0.784009  0.196907  1
  Co  Co12  1  0.111722  0.611722  0.500000  1
  Co  Co13  1  0.888278  0.388278  0.500000  1
  Co  Co14  1  0.375547  0.000000  0.375547  1
  Co  Co15  1  0.624453  0.000000  0.624453  1
  Ir  Ir16  1  0.000000  0.000000  0.000000  1
  Pb  Pb17  1  0.500000  0.500000  0.000000  1
