# generated using pymatgen
data_Ho3Tm(RuO4)4
_symmetry_space_group_name_H-M   'P 1'
_cell_length_a   5.31832212
_cell_length_b   7.38551927
_cell_length_c   7.61142100
_cell_angle_alpha   80.30804782
_cell_angle_beta   90.57532443
_cell_angle_gamma   90.05850964
_symmetry_Int_Tables_number   1
_chemical_formula_structural   Ho3Tm(RuO4)4
_chemical_formula_sum   'Ho3 Tm1 Ru4 O16'
_cell_volume   294.68371086
_cell_formula_units_Z   1
loop_
 _symmetry_equiv_pos_site_id
 _symmetry_equiv_pos_as_xyz
  1  'x, y, z'
loop_
 _atom_site_type_symbol
 _atom_site_label
 _atom_site_symmetry_multiplicity
 _atom_site_fract_x
 _atom_site_fract_y
 _atom_site_fract_z
 _atom_site_occupancy
  Ho  Ho0  1  0.287886  0.391700  0.346344  1
  Ho  Ho1  1  0.216965  0.890542  0.352567  1
  Ho  Ho2  1  0.780089  0.110691  0.646602  1
  Tm  Tm3  1  0.710089  0.609744  0.652862  1
  Ru  Ru4  1  0.770364  0.199219  0.160850  1
  Ru  Ru5  1  0.732566  0.699998  0.160164  1
  Ru  Ru6  1  0.266203  0.300626  0.838899  1
  Ru  Ru7  1  0.229122  0.799403  0.838761  1
  O  O8  1  0.095052  0.304060  0.061506  1
  O  O9  1  0.405037  0.804585  0.060989  1
  O  O10  1  0.630167  0.444602  0.169037  1
  O  O11  1  0.875373  0.945456  0.166995  1
  O  O12  1  0.492895  0.119584  0.316658  1
  O  O13  1  0.983365  0.175768  0.390581  1
  O  O14  1  0.016785  0.620958  0.310744  1
  O  O15  1  0.526839  0.677216  0.389699  1
  O  O16  1  0.476604  0.328167  0.610852  1
  O  O17  1  0.980381  0.381782  0.690791  1
  O  O18  1  0.017757  0.819077  0.610322  1
  O  O19  1  0.510907  0.877753  0.686480  1
  O  O20  1  0.126862  0.055410  0.826836  1
  O  O21  1  0.374042  0.554731  0.832828  1
  O  O22  1  0.590629  0.194432  0.940708  1
  O  O23  1  0.904019  0.694498  0.937922  1
