# generated using pymatgen
data_TbMo2O7F
_symmetry_space_group_name_H-M   'P 1'
_cell_length_a   6.66910700
_cell_length_b   4.36676457
_cell_length_c   11.56474408
_cell_angle_alpha   89.50460905
_cell_angle_beta   90.00000000
_cell_angle_gamma   90.00000000
_symmetry_Int_Tables_number   1
_chemical_formula_structural   TbMo2O7F
_chemical_formula_sum   'Tb2 Mo4 O14 F2'
_cell_volume   336.78074727
_cell_formula_units_Z   2
loop_
 _symmetry_equiv_pos_site_id
 _symmetry_equiv_pos_as_xyz
  1  'x, y, z'
loop_
 _atom_site_type_symbol
 _atom_site_label
 _atom_site_symmetry_multiplicity
 _atom_site_fract_x
 _atom_site_fract_y
 _atom_site_fract_z
 _atom_site_occupancy
  Tb  Tb0  1  0.799238  0.000000  0.750000  1
  Tb  Tb1  1  0.200762  0.000000  0.250000  1
  Mo  Mo2  1  0.331973  0.902619  0.594341  1
  Mo  Mo3  1  0.331973  0.097381  0.905659  1
  Mo  Mo4  1  0.668027  0.097381  0.405659  1
  Mo  Mo5  1  0.668027  0.902619  0.094341  1
  O  O6  1  0.342132  0.506009  0.597011  1
  O  O7  1  0.342132  0.493991  0.902989  1
  O  O8  1  0.657868  0.493991  0.402989  1
  O  O9  1  0.657868  0.506009  0.097011  1
  O  O10  1  0.078457  0.983458  0.627893  1
  O  O11  1  0.078457  0.016542  0.872107  1
  O  O12  1  0.921543  0.016542  0.372107  1
  O  O13  1  0.921543  0.983458  0.127893  1
  O  O14  1  0.649380  0.999650  0.566080  1
  O  O15  1  0.649380  0.000350  0.933920  1
  O  O16  1  0.350620  0.000350  0.433920  1
  O  O17  1  0.350620  0.999650  0.066080  1
  O  O18  1  0.440080  0.000000  0.750000  1
  O  O19  1  0.559920  0.000000  0.250000  1
  F  F20  1  0.802783  0.500000  0.750000  1
  F  F21  1  0.197217  0.500000  0.250000  1
