# generated using pymatgen
data_LaSb3F18
_symmetry_space_group_name_H-M   'P 1'
_cell_length_a   9.73042800
_cell_length_b   9.73042814
_cell_length_c   8.87579500
_cell_angle_alpha   90.00000000
_cell_angle_beta   90.00000000
_cell_angle_gamma   119.99999952
_symmetry_Int_Tables_number   1
_chemical_formula_structural   LaSb3F18
_chemical_formula_sum   'La2 Sb6 F36'
_cell_volume   727.78280408
_cell_formula_units_Z   2
loop_
 _symmetry_equiv_pos_site_id
 _symmetry_equiv_pos_as_xyz
  1  'x, y, z'
loop_
 _atom_site_type_symbol
 _atom_site_label
 _atom_site_symmetry_multiplicity
 _atom_site_fract_x
 _atom_site_fract_y
 _atom_site_fract_z
 _atom_site_occupancy
  La  La0  1  0.333333  0.666667  0.576424  1
  La  La1  1  0.666667  0.333333  0.423576  1
  Sb  Sb2  1  0.980734  0.342678  0.770724  1
  Sb  Sb3  1  0.361944  0.019266  0.770724  1
  Sb  Sb4  1  0.657322  0.638056  0.770724  1
  Sb  Sb5  1  0.019266  0.657322  0.229276  1
  Sb  Sb6  1  0.638056  0.980734  0.229276  1
  Sb  Sb7  1  0.342678  0.361944  0.229276  1
  F  F8  1  0.478918  0.868073  0.391101  1
  F  F9  1  0.389155  0.521082  0.391101  1
  F  F10  1  0.131927  0.610845  0.391101  1
  F  F11  1  0.521082  0.131927  0.608899  1
  F  F12  1  0.610845  0.478918  0.608899  1
  F  F13  1  0.868073  0.389155  0.608899  1
  F  F14  1  0.105578  0.310501  0.912215  1
  F  F15  1  0.204923  0.894422  0.912215  1
  F  F16  1  0.689499  0.795077  0.912215  1
  F  F17  1  0.894422  0.689499  0.087785  1
  F  F18  1  0.795077  0.105578  0.087785  1
  F  F19  1  0.310501  0.204923  0.087785  1
  F  F20  1  0.853912  0.375412  0.909150  1
  F  F21  1  0.521501  0.146088  0.909150  1
  F  F22  1  0.624588  0.478499  0.909150  1
  F  F23  1  0.146088  0.624588  0.090850  1
  F  F24  1  0.478499  0.853912  0.090850  1
  F  F25  1  0.375412  0.521501  0.090850  1
  F  F26  1  0.240264  0.873011  0.606745  1
  F  F27  1  0.632748  0.759736  0.606745  1
  F  F28  1  0.126989  0.367252  0.606745  1
  F  F29  1  0.759736  0.126989  0.393255  1
  F  F30  1  0.367252  0.240264  0.393255  1
  F  F31  1  0.873011  0.632748  0.393255  1
  F  F32  1  0.842632  0.125867  0.730827  1
  F  F33  1  0.283234  0.157368  0.730827  1
  F  F34  1  0.874133  0.716766  0.730827  1
  F  F35  1  0.157368  0.874133  0.269173  1
  F  F36  1  0.716766  0.842632  0.269173  1
  F  F37  1  0.125867  0.283234  0.269173  1
  F  F38  1  0.126027  0.575193  0.768243  1
  F  F39  1  0.449166  0.873973  0.768243  1
  F  F40  1  0.424807  0.550834  0.768243  1
  F  F41  1  0.873973  0.424807  0.231757  1
  F  F42  1  0.550834  0.126027  0.231757  1
  F  F43  1  0.575193  0.449166  0.231757  1
