# generated using pymatgen
data_YMg(Si7Rh3)2
_symmetry_space_group_name_H-M   'P 1'
_cell_length_a   7.97718383
_cell_length_b   7.97718390
_cell_length_c   7.97718435
_cell_angle_alpha   56.97094861
_cell_angle_beta   56.97095140
_cell_angle_gamma   56.97094132
_symmetry_Int_Tables_number   1
_chemical_formula_structural   YMg(Si7Rh3)2
_chemical_formula_sum   'Y1 Mg1 Si14 Rh6'
_cell_volume   333.87615873
_cell_formula_units_Z   1
loop_
 _symmetry_equiv_pos_site_id
 _symmetry_equiv_pos_as_xyz
  1  'x, y, z'
loop_
 _atom_site_type_symbol
 _atom_site_label
 _atom_site_symmetry_multiplicity
 _atom_site_fract_x
 _atom_site_fract_y
 _atom_site_fract_z
 _atom_site_occupancy
  Y  Y0  1  0.500000  0.500000  0.500000  1
  Mg  Mg1  1  0.000000  0.000000  0.000000  1
  Si  Si2  1  0.749742  0.749742  0.749742  1
  Si  Si3  1  0.250258  0.250258  0.250258  1
  Si  Si4  1  0.852438  0.064203  0.674123  1
  Si  Si5  1  0.674123  0.852438  0.064203  1
  Si  Si6  1  0.064203  0.674123  0.852438  1
  Si  Si7  1  0.649912  0.828772  0.433646  1
  Si  Si8  1  0.433646  0.649912  0.828772  1
  Si  Si9  1  0.828772  0.433646  0.649912  1
  Si  Si10  1  0.171228  0.566354  0.350088  1
  Si  Si11  1  0.566354  0.350088  0.171228  1
  Si  Si12  1  0.350088  0.171228  0.566354  1
  Si  Si13  1  0.935797  0.325877  0.147562  1
  Si  Si14  1  0.325877  0.147562  0.935797  1
  Si  Si15  1  0.147562  0.935797  0.325877  1
  Rh  Rh16  1  0.071424  0.427455  0.750774  1
  Rh  Rh17  1  0.249226  0.928576  0.572545  1
  Rh  Rh18  1  0.572545  0.249226  0.928576  1
  Rh  Rh19  1  0.928576  0.572545  0.249226  1
  Rh  Rh20  1  0.427455  0.750774  0.071424  1
  Rh  Rh21  1  0.750774  0.071424  0.427455  1
