# generated using pymatgen
data_Y8Co17Si10Ir
_symmetry_space_group_name_H-M   'P 1'
_cell_length_a   5.21993541
_cell_length_b   5.21993456
_cell_length_c   21.95492074
_cell_angle_alpha   89.89578171
_cell_angle_beta   90.10421762
_cell_angle_gamma   120.40251208
_symmetry_Int_Tables_number   1
_chemical_formula_structural   Y8Co17Si10Ir
_chemical_formula_sum   'Y8 Co17 Si10 Ir1'
_cell_volume   515.95986650
_cell_formula_units_Z   1
loop_
 _symmetry_equiv_pos_site_id
 _symmetry_equiv_pos_as_xyz
  1  'x, y, z'
loop_
 _atom_site_type_symbol
 _atom_site_label
 _atom_site_symmetry_multiplicity
 _atom_site_fract_x
 _atom_site_fract_y
 _atom_site_fract_z
 _atom_site_occupancy
  Y  Y0  1  0.333323  0.666677  0.529888  1
  Y  Y1  1  0.665624  0.334376  0.474243  1
  Y  Y2  1  0.666745  0.333255  0.027743  1
  Y  Y3  1  0.333428  0.666572  0.971967  1
  Y  Y4  1  0.333126  0.666874  0.675251  1
  Y  Y5  1  0.667155  0.332845  0.325687  1
  Y  Y6  1  0.666752  0.333248  0.173972  1
  Y  Y7  1  0.333338  0.666662  0.825810  1
  Co  Co8  1  0.166376  0.332573  0.087850  1
  Co  Co9  1  0.833409  0.667413  0.911646  1
  Co  Co10  1  0.667427  0.833624  0.087850  1
  Co  Co11  1  0.833402  0.667600  0.589439  1
  Co  Co12  1  0.332587  0.166591  0.911646  1
  Co  Co13  1  0.165255  0.331200  0.412113  1
  Co  Co14  1  0.166078  0.833922  0.088145  1
  Co  Co15  1  0.332400  0.166598  0.589439  1
  Co  Co16  1  0.834101  0.165899  0.911178  1
  Co  Co17  1  0.668800  0.834745  0.412113  1
  Co  Co18  1  0.832820  0.167180  0.589870  1
  Co  Co19  1  0.167714  0.334782  0.247983  1
  Co  Co20  1  0.832680  0.664988  0.750249  1
  Co  Co21  1  0.665218  0.832286  0.247983  1
  Co  Co22  1  0.335012  0.167320  0.750249  1
  Co  Co23  1  0.167484  0.832516  0.249648  1
  Co  Co24  1  0.832703  0.167297  0.750377  1
  Si  Si25  1  0.999819  0.000181  0.999858  1
  Si  Si26  1  0.996909  0.003091  0.502670  1
  Si  Si27  1  0.332894  0.667106  0.167186  1
  Si  Si28  1  0.666142  0.333858  0.831909  1
  Si  Si29  1  0.666203  0.333797  0.668901  1
  Si  Si30  1  0.342992  0.657008  0.329055  1
  Si  Si31  1  0.000442  0.999558  0.168137  1
  Si  Si32  1  0.000758  0.999242  0.830951  1
  Si  Si33  1  0.000103  0.999897  0.669652  1
  Si  Si34  1  0.992043  0.007957  0.328450  1
  Ir  Ir35  1  0.168739  0.831261  0.410888  1
