# generated using pymatgen
data_Mg4U3NbRu8
_symmetry_space_group_name_H-M   'P 1'
_cell_length_a   6.27580407
_cell_length_b   6.27589306
_cell_length_c   6.72181801
_cell_angle_alpha   89.99773403
_cell_angle_beta   90.00513276
_cell_angle_gamma   89.98367639
_symmetry_Int_Tables_number   1
_chemical_formula_structural   Mg4U3NbRu8
_chemical_formula_sum   'Mg4 U3 Nb1 Ru8'
_cell_volume   264.74736216
_cell_formula_units_Z   1
loop_
 _symmetry_equiv_pos_site_id
 _symmetry_equiv_pos_as_xyz
  1  'x, y, z'
loop_
 _atom_site_type_symbol
 _atom_site_label
 _atom_site_symmetry_multiplicity
 _atom_site_fract_x
 _atom_site_fract_y
 _atom_site_fract_z
 _atom_site_occupancy
  Mg  Mg0  1  0.750071  0.250007  0.999994  1
  Mg  Mg1  1  0.249921  0.749997  0.999992  1
  Mg  Mg2  1  0.249974  0.749998  0.500016  1
  Mg  Mg3  1  0.750044  0.249993  0.500003  1
  U  U4  1  0.249995  0.249997  0.000020  1
  U  U5  1  0.749956  0.749995  0.000013  1
  U  U6  1  0.250011  0.250001  0.499993  1
  Nb  Nb7  1  0.749985  0.749999  0.499997  1
  Ru  Ru8  1  0.998810  0.998814  0.253398  1
  Ru  Ru9  1  0.998811  0.501187  0.253403  1
  Ru  Ru10  1  0.501189  0.998813  0.253417  1
  Ru  Ru11  1  0.501199  0.501198  0.253416  1
  Ru  Ru12  1  0.501206  0.998800  0.746579  1
  Ru  Ru13  1  0.501195  0.501202  0.746580  1
  Ru  Ru14  1  0.998813  0.998817  0.746590  1
  Ru  Ru15  1  0.998820  0.501189  0.746590  1
