# generated using pymatgen
data_Tb2DyHo(B6Os)2
_symmetry_space_group_name_H-M   'P 1'
_cell_length_a   3.65947100
_cell_length_b   9.17185509
_cell_length_c   11.55913712
_cell_angle_alpha   90.01646035
_cell_angle_beta   90.00000000
_cell_angle_gamma   90.00000000
_symmetry_Int_Tables_number   1
_chemical_formula_structural   Tb2DyHo(B6Os)2
_chemical_formula_sum   'Tb4 Dy2 Ho2 B24 Os4'
_cell_volume   387.97245436
_cell_formula_units_Z   2
loop_
 _symmetry_equiv_pos_site_id
 _symmetry_equiv_pos_as_xyz
  1  'x, y, z'
loop_
 _atom_site_type_symbol
 _atom_site_label
 _atom_site_symmetry_multiplicity
 _atom_site_fract_x
 _atom_site_fract_y
 _atom_site_fract_z
 _atom_site_occupancy
  Tb  Tb0  1  0.000000  0.322646  0.413727  1
  Tb  Tb1  1  0.000000  0.677354  0.586273  1
  Tb  Tb2  1  0.000000  0.822353  0.086163  1
  Tb  Tb3  1  0.000000  0.177647  0.913837  1
  Dy  Dy4  1  0.000000  0.944013  0.372756  1
  Dy  Dy5  1  0.000000  0.055987  0.627244  1
  Ho  Ho6  1  0.000000  0.444053  0.127054  1
  Ho  Ho7  1  0.000000  0.555947  0.872946  1
  B  B8  1  0.500000  0.554036  0.432723  1
  B  B9  1  0.500000  0.445964  0.567277  1
  B  B10  1  0.500000  0.054263  0.067137  1
  B  B11  1  0.500000  0.945737  0.932863  1
  B  B12  1  0.500000  0.747587  0.419634  1
  B  B13  1  0.500000  0.252413  0.580366  1
  B  B14  1  0.500000  0.248155  0.080265  1
  B  B15  1  0.500000  0.751845  0.919735  1
  B  B16  1  0.500000  0.790704  0.266589  1
  B  B17  1  0.500000  0.209296  0.733411  1
  B  B18  1  0.500000  0.291296  0.233170  1
  B  B19  1  0.500000  0.708704  0.766830  1
  B  B20  1  0.500000  0.631529  0.185361  1
  B  B21  1  0.500000  0.368471  0.814639  1
  B  B22  1  0.500000  0.132062  0.314309  1
  B  B23  1  0.500000  0.867938  0.685691  1
  B  B24  1  0.500000  0.983791  0.213032  1
  B  B25  1  0.500000  0.016209  0.786968  1
  B  B26  1  0.500000  0.483413  0.286585  1
  B  B27  1  0.500000  0.516587  0.713415  1
  B  B28  1  0.500000  0.607258  0.029747  1
  B  B29  1  0.500000  0.392742  0.970253  1
  B  B30  1  0.500000  0.108335  0.469978  1
  B  B31  1  0.500000  0.891665  0.530022  1
  Os  Os32  1  0.000000  0.637286  0.321052  1
  Os  Os33  1  0.000000  0.362714  0.678948  1
  Os  Os34  1  0.000000  0.137956  0.178601  1
  Os  Os35  1  0.000000  0.862044  0.821399  1
