# generated using pymatgen
data_Hf3CoSi4Ni3Mo
_symmetry_space_group_name_H-M   'P 1'
_cell_length_a   3.74781900
_cell_length_b   6.32440741
_cell_length_c   7.17400276
_cell_angle_alpha   89.49310945
_cell_angle_beta   90.00000000
_cell_angle_gamma   90.00000000
_symmetry_Int_Tables_number   1
_chemical_formula_structural   Hf3CoSi4Ni3Mo
_chemical_formula_sum   'Hf3 Co1 Si4 Ni3 Mo1'
_cell_volume   170.03682647
_cell_formula_units_Z   1
loop_
 _symmetry_equiv_pos_site_id
 _symmetry_equiv_pos_as_xyz
  1  'x, y, z'
loop_
 _atom_site_type_symbol
 _atom_site_label
 _atom_site_symmetry_multiplicity
 _atom_site_fract_x
 _atom_site_fract_y
 _atom_site_fract_z
 _atom_site_occupancy
  Hf  Hf0  1  0.250000  0.514071  0.189534  1
  Hf  Hf1  1  0.750000  0.983804  0.677193  1
  Hf  Hf2  1  0.750000  0.475462  0.817917  1
  Co  Co3  1  0.750000  0.367113  0.438943  1
  Si  Si4  1  0.250000  0.274770  0.596958  1
  Si  Si5  1  0.250000  0.774215  0.887888  1
  Si  Si6  1  0.750000  0.735373  0.378812  1
  Si  Si7  1  0.750000  0.211677  0.128766  1
  Ni  Ni8  1  0.250000  0.144409  0.933710  1
  Ni  Ni9  1  0.250000  0.648957  0.564288  1
  Ni  Ni10  1  0.750000  0.849683  0.063467  1
  Mo  Mo11  1  0.250000  0.020467  0.322524  1
