# generated using pymatgen
data_Tm4Cd3Ni2
_symmetry_space_group_name_H-M   'P 1'
_cell_length_a   3.59413800
_cell_length_b   7.34483120
_cell_length_c   8.01237353
_cell_angle_alpha   108.26735551
_cell_angle_beta   90.00000000
_cell_angle_gamma   90.00000000
_symmetry_Int_Tables_number   1
_chemical_formula_structural   Tm4Cd3Ni2
_chemical_formula_sum   'Tm4 Cd3 Ni2'
_cell_volume   200.85395686
_cell_formula_units_Z   1
loop_
 _symmetry_equiv_pos_site_id
 _symmetry_equiv_pos_as_xyz
  1  'x, y, z'
loop_
 _atom_site_type_symbol
 _atom_site_label
 _atom_site_symmetry_multiplicity
 _atom_site_fract_x
 _atom_site_fract_y
 _atom_site_fract_z
 _atom_site_occupancy
  Tm  Tm0  1  0.500000  0.915070  0.779726  1
  Tm  Tm1  1  0.500000  0.084930  0.220274  1
  Tm  Tm2  1  0.500000  0.394475  0.682111  1
  Tm  Tm3  1  0.500000  0.605525  0.317889  1
  Cd  Cd4  1  0.000000  0.704258  0.995672  1
  Cd  Cd5  1  0.000000  0.295742  0.004328  1
  Cd  Cd6  1  0.000000  0.000000  0.500000  1
  Ni  Ni7  1  0.000000  0.656997  0.609975  1
  Ni  Ni8  1  0.000000  0.343003  0.390025  1
