# generated using pymatgen
data_La3PtAu5
_symmetry_space_group_name_H-M   'P 1'
_cell_length_a   7.91514400
_cell_length_b   7.91514556
_cell_length_c   3.97308300
_cell_angle_alpha   90.00000000
_cell_angle_beta   90.00000000
_cell_angle_gamma   120.00000185
_symmetry_Int_Tables_number   1
_chemical_formula_structural   La3PtAu5
_chemical_formula_sum   'La3 Pt1 Au5'
_cell_volume   215.56387784
_cell_formula_units_Z   1
loop_
 _symmetry_equiv_pos_site_id
 _symmetry_equiv_pos_as_xyz
  1  'x, y, z'
loop_
 _atom_site_type_symbol
 _atom_site_label
 _atom_site_symmetry_multiplicity
 _atom_site_fract_x
 _atom_site_fract_y
 _atom_site_fract_z
 _atom_site_occupancy
  La  La0  1  0.400760  0.012782  0.000000  1
  La  La1  1  0.612020  0.599240  0.000000  1
  La  La2  1  0.987218  0.387980  0.000000  1
  Pt  Pt3  1  0.666667  0.333333  0.500000  1
  Au  Au4  1  0.729676  0.999807  0.500000  1
  Au  Au5  1  0.270131  0.270324  0.500000  1
  Au  Au6  1  0.000193  0.729869  0.500000  1
  Au  Au7  1  0.333333  0.666667  0.500000  1
  Au  Au8  1  0.000000  0.000000  0.000000  1
