# generated using pymatgen
data_SmGdNCl3
_symmetry_space_group_name_H-M   'P 1'
_cell_length_a   6.20615200
_cell_length_b   6.80917400
_cell_length_c   13.24966400
_cell_angle_alpha   90.00000000
_cell_angle_beta   90.00000000
_cell_angle_gamma   90.00000000
_symmetry_Int_Tables_number   1
_chemical_formula_structural   SmGdNCl3
_chemical_formula_sum   'Sm4 Gd4 N4 Cl12'
_cell_volume   559.91448816
_cell_formula_units_Z   4
loop_
 _symmetry_equiv_pos_site_id
 _symmetry_equiv_pos_as_xyz
  1  'x, y, z'
loop_
 _atom_site_type_symbol
 _atom_site_label
 _atom_site_symmetry_multiplicity
 _atom_site_fract_x
 _atom_site_fract_y
 _atom_site_fract_z
 _atom_site_occupancy
  Sm  Sm0  1  0.992904  0.325925  0.407585  1
  Sm  Sm1  1  0.492904  0.174075  0.092415  1
  Sm  Sm2  1  0.507096  0.325925  0.592415  1
  Sm  Sm3  1  0.007096  0.174075  0.907585  1
  Gd  Gd4  1  0.007486  0.670991  0.591016  1
  Gd  Gd5  1  0.507486  0.829009  0.908984  1
  Gd  Gd6  1  0.492514  0.670991  0.408984  1
  Gd  Gd7  1  0.992514  0.829009  0.091016  1
  N  N8  1  0.750000  0.512665  0.500000  1
  N  N9  1  0.250000  0.987335  0.000000  1
  N  N10  1  0.250000  0.493039  0.500000  1
  N  N11  1  0.750000  0.006961  0.000000  1
  Cl  Cl12  1  0.110096  0.133902  0.219928  1
  Cl  Cl13  1  0.610096  0.366098  0.280072  1
  Cl  Cl14  1  0.389904  0.133902  0.780072  1
  Cl  Cl15  1  0.889904  0.366098  0.719928  1
  Cl  Cl16  1  0.750000  0.502578  0.000000  1
  Cl  Cl17  1  0.250000  0.997422  0.500000  1
  Cl  Cl18  1  0.250000  0.498110  0.000000  1
  Cl  Cl19  1  0.750000  0.001890  0.500000  1
  Cl  Cl20  1  0.111533  0.635567  0.278860  1
  Cl  Cl21  1  0.611533  0.864433  0.221140  1
  Cl  Cl22  1  0.388467  0.635567  0.721140  1
  Cl  Cl23  1  0.888467  0.864433  0.778860  1
