# generated using pymatgen
data_DyNb6SnSe12
_symmetry_space_group_name_H-M   'P 1'
_cell_length_a   6.10377000
_cell_length_b   6.10376974
_cell_length_c   14.77931100
_cell_angle_alpha   90.00000000
_cell_angle_beta   90.00000000
_cell_angle_gamma   120.00001225
_symmetry_Int_Tables_number   1
_chemical_formula_structural   DyNb6SnSe12
_chemical_formula_sum   'Dy1 Nb6 Sn1 Se12'
_cell_volume   476.84921081
_cell_formula_units_Z   1
loop_
 _symmetry_equiv_pos_site_id
 _symmetry_equiv_pos_as_xyz
  1  'x, y, z'
loop_
 _atom_site_type_symbol
 _atom_site_label
 _atom_site_symmetry_multiplicity
 _atom_site_fract_x
 _atom_site_fract_y
 _atom_site_fract_z
 _atom_site_occupancy
  Dy  Dy0  1  0.000000  0.000000  0.500000  1
  Nb  Nb1  1  0.333333  0.666667  0.255544  1
  Nb  Nb2  1  0.666667  0.333333  0.744456  1
  Nb  Nb3  1  0.666667  0.333333  0.255544  1
  Nb  Nb4  1  0.333333  0.666667  0.744456  1
  Nb  Nb5  1  0.000000  0.000000  0.256445  1
  Nb  Nb6  1  0.000000  0.000000  0.743555  1
  Sn  Sn7  1  0.000000  0.000000  0.000000  1
  Se  Se8  1  0.336454  0.000000  0.143526  1
  Se  Se9  1  0.000000  0.336454  0.143526  1
  Se  Se10  1  0.663546  0.663546  0.143526  1
  Se  Se11  1  0.339294  0.339294  0.631142  1
  Se  Se12  1  0.660706  0.660706  0.368858  1
  Se  Se13  1  0.660706  0.000000  0.631142  1
  Se  Se14  1  0.000000  0.660706  0.631142  1
  Se  Se15  1  0.000000  0.663546  0.856474  1
  Se  Se16  1  0.336454  0.336454  0.856474  1
  Se  Se17  1  0.000000  0.339294  0.368858  1
  Se  Se18  1  0.339294  0.000000  0.368858  1
  Se  Se19  1  0.663546  0.000000  0.856474  1
