# generated using pymatgen
data_Tb8Er7Lu5Pt16
_symmetry_space_group_name_H-M   'P 1'
_cell_length_a   7.42013200
_cell_length_b   7.50546937
_cell_length_c   14.58803900
_cell_angle_alpha   89.98280089
_cell_angle_beta   89.99892669
_cell_angle_gamma   90.00512200
_symmetry_Int_Tables_number   1
_chemical_formula_structural   Tb8Er7Lu5Pt16
_chemical_formula_sum   'Tb8 Er7 Lu5 Pt16'
_cell_volume   812.43080537
_cell_formula_units_Z   1
loop_
 _symmetry_equiv_pos_site_id
 _symmetry_equiv_pos_as_xyz
  1  'x, y, z'
loop_
 _atom_site_type_symbol
 _atom_site_label
 _atom_site_symmetry_multiplicity
 _atom_site_fract_x
 _atom_site_fract_y
 _atom_site_fract_z
 _atom_site_occupancy
  Tb  Tb0  1  0.500598  0.677814  0.593580  1
  Tb  Tb1  1  0.000882  0.821396  0.906293  1
  Tb  Tb2  1  0.499013  0.321497  0.093315  1
  Tb  Tb3  1  0.999256  0.178727  0.407217  1
  Tb  Tb4  1  0.499033  0.321538  0.406705  1
  Tb  Tb5  1  0.999239  0.178579  0.093311  1
  Tb  Tb6  1  0.500981  0.678629  0.906399  1
  Tb  Tb7  1  0.001122  0.821437  0.593474  1
  Er  Er8  1  0.656207  0.168086  0.622550  1
  Er  Er9  1  0.156296  0.332121  0.876480  1
  Er  Er10  1  0.343702  0.832088  0.123197  1
  Er  Er11  1  0.843951  0.667638  0.377429  1
  Er  Er12  1  0.343255  0.831769  0.377641  1
  Er  Er13  1  0.843790  0.667970  0.123240  1
  Er  Er14  1  0.656272  0.168006  0.876470  1
  Lu  Lu15  1  0.156198  0.332411  0.623203  1
  Lu  Lu16  1  0.819561  0.510083  0.749658  1
  Lu  Lu17  1  0.318981  0.989947  0.749635  1
  Lu  Lu18  1  0.180799  0.489492  0.250077  1
  Lu  Lu19  1  0.680779  0.010402  0.250131  1
  Pt  Pt20  1  0.681276  0.966301  0.457346  1
  Pt  Pt21  1  0.182080  0.533266  0.042665  1
  Pt  Pt22  1  0.317924  0.033347  0.957325  1
  Pt  Pt23  1  0.819870  0.466081  0.543140  1
  Pt  Pt24  1  0.316464  0.035681  0.542894  1
  Pt  Pt25  1  0.817689  0.466391  0.957411  1
  Pt  Pt26  1  0.682051  0.966610  0.042557  1
  Pt  Pt27  1  0.182385  0.532396  0.458476  1
  Pt  Pt28  1  0.453255  0.385235  0.749174  1
  Pt  Pt29  1  0.954494  0.115478  0.749246  1
  Pt  Pt30  1  0.545847  0.613954  0.250130  1
  Pt  Pt31  1  0.045953  0.886179  0.250211  1
  Pt  Pt32  1  0.682107  0.856760  0.749828  1
  Pt  Pt33  1  0.181293  0.642945  0.749227  1
  Pt  Pt34  1  0.318584  0.143541  0.250141  1
  Pt  Pt35  1  0.818812  0.356202  0.250224  1
