# generated using pymatgen
data_Er8Tm12Si15As
_symmetry_space_group_name_H-M   'P 1'
_cell_length_a   7.62628591
_cell_length_b   7.58954208
_cell_length_c   13.84935652
_cell_angle_alpha   89.84596019
_cell_angle_beta   89.28717302
_cell_angle_gamma   90.01831856
_symmetry_Int_Tables_number   1
_chemical_formula_structural   Er8Tm12Si15As
_chemical_formula_sum   'Er8 Tm12 Si15 As1'
_cell_volume   801.53601940
_cell_formula_units_Z   1
loop_
 _symmetry_equiv_pos_site_id
 _symmetry_equiv_pos_as_xyz
  1  'x, y, z'
loop_
 _atom_site_type_symbol
 _atom_site_label
 _atom_site_symmetry_multiplicity
 _atom_site_fract_x
 _atom_site_fract_y
 _atom_site_fract_z
 _atom_site_occupancy
  Er  Er0  1  0.349796  0.999455  0.460912  1
  Er  Er1  1  0.501918  0.850204  0.713401  1
  Er  Er2  1  0.500919  0.149948  0.211950  1
  Er  Er3  1  0.848702  0.498025  0.287336  1
  Er  Er4  1  0.149690  0.502720  0.788290  1
  Er  Er5  1  0.654536  0.996945  0.964232  1
  Er  Er6  1  0.993908  0.353045  0.534514  1
  Er  Er7  1  0.999819  0.650158  0.038114  1
  Tm  Tm8  1  0.325578  0.325060  0.000263  1
  Tm  Tm9  1  0.175506  0.823633  0.249933  1
  Tm  Tm10  1  0.822035  0.175344  0.750245  1
  Tm  Tm11  1  0.673236  0.674676  0.499365  1
  Tm  Tm12  1  0.153546  0.001534  0.871704  1
  Tm  Tm13  1  0.504546  0.647834  0.123632  1
  Tm  Tm14  1  0.493090  0.349396  0.627666  1
  Tm  Tm15  1  0.651996  0.506097  0.878293  1
  Tm  Tm16  1  0.350993  0.496183  0.377069  1
  Tm  Tm17  1  0.850886  0.004608  0.372609  1
  Tm  Tm18  1  0.995801  0.147569  0.126464  1
  Tm  Tm19  1  0.998847  0.847952  0.623971  1
  Si  Si20  1  0.356425  0.707727  0.930066  1
  Si  Si21  1  0.641392  0.293670  0.431322  1
  Si  Si22  1  0.707714  0.356824  0.071431  1
  Si  Si23  1  0.294763  0.644460  0.571940  1
  Si  Si24  1  0.792851  0.855379  0.180779  1
  Si  Si25  1  0.143723  0.206995  0.319576  1
  Si  Si26  1  0.861056  0.796551  0.819779  1
  Si  Si27  1  0.298935  0.949329  0.062557  1
  Si  Si28  1  0.548521  0.798920  0.312523  1
  Si  Si29  1  0.468002  0.200315  0.821958  1
  Si  Si30  1  0.798775  0.546836  0.686501  1
  Si  Si31  1  0.200715  0.449776  0.187432  1
  Si  Si32  1  0.697632  0.048244  0.562799  1
  Si  Si33  1  0.955079  0.299566  0.936579  1
  Si  Si34  1  0.046276  0.701005  0.435193  1
  As  As35  1  0.192793  0.144018  0.669602  1
