# generated using pymatgen
data_Nd16Cd4Os3Pd
_symmetry_space_group_name_H-M   'P 1'
_cell_length_a   9.91986288
_cell_length_b   9.99123294
_cell_length_c   9.99123300
_cell_angle_alpha   60.00000310
_cell_angle_beta   59.76171887
_cell_angle_gamma   59.76172292
_symmetry_Int_Tables_number   1
_chemical_formula_structural   Nd16Cd4Os3Pd
_chemical_formula_sum   'Nd16 Cd4 Os3 Pd1'
_cell_volume   697.67840023
_cell_formula_units_Z   1
loop_
 _symmetry_equiv_pos_site_id
 _symmetry_equiv_pos_as_xyz
  1  'x, y, z'
loop_
 _atom_site_type_symbol
 _atom_site_label
 _atom_site_symmetry_multiplicity
 _atom_site_fract_x
 _atom_site_fract_y
 _atom_site_fract_z
 _atom_site_occupancy
  Nd  Nd0  1  0.343873  0.350852  0.350852  1
  Nd  Nd1  1  0.343873  0.350852  0.954423  1
  Nd  Nd2  1  0.343873  0.954423  0.350852  1
  Nd  Nd3  1  0.962092  0.345969  0.345969  1
  Nd  Nd4  1  0.815181  0.190821  0.190821  1
  Nd  Nd5  1  0.189804  0.810374  0.810374  1
  Nd  Nd6  1  0.189804  0.810374  0.189448  1
  Nd  Nd7  1  0.815181  0.190821  0.803176  1
  Nd  Nd8  1  0.189804  0.189448  0.810374  1
  Nd  Nd9  1  0.815181  0.803176  0.190821  1
  Nd  Nd10  1  0.937764  0.561222  0.561222  1
  Nd  Nd11  1  0.556578  0.938949  0.938949  1
  Nd  Nd12  1  0.556578  0.938949  0.565524  1
  Nd  Nd13  1  0.937764  0.561222  0.939792  1
  Nd  Nd14  1  0.556578  0.565524  0.938949  1
  Nd  Nd15  1  0.937764  0.939792  0.561222  1
  Cd  Cd16  1  0.579558  0.579923  0.579923  1
  Cd  Cd17  1  0.579558  0.579923  0.260598  1
  Cd  Cd18  1  0.579558  0.260598  0.579923  1
  Cd  Cd19  1  0.260608  0.579798  0.579798  1
  Os  Os20  1  0.144046  0.138098  0.138098  1
  Os  Os21  1  0.144046  0.138098  0.579758  1
  Os  Os22  1  0.144046  0.579758  0.138098  1
  Pd  Pd23  1  0.576891  0.141036  0.141036  1
