# generated using pymatgen
data_YbAg3(Pt2O7)2
_symmetry_space_group_name_H-M   'P 1'
_cell_length_a   7.16860214
_cell_length_b   7.16860152
_cell_length_c   7.24924819
_cell_angle_alpha   60.36732793
_cell_angle_beta   60.36732807
_cell_angle_gamma   59.99999419
_symmetry_Int_Tables_number   1
_chemical_formula_structural   YbAg3(Pt2O7)2
_chemical_formula_sum   'Yb1 Ag3 Pt4 O14'
_cell_volume   264.87194468
_cell_formula_units_Z   1
loop_
 _symmetry_equiv_pos_site_id
 _symmetry_equiv_pos_as_xyz
  1  'x, y, z'
loop_
 _atom_site_type_symbol
 _atom_site_label
 _atom_site_symmetry_multiplicity
 _atom_site_fract_x
 _atom_site_fract_y
 _atom_site_fract_z
 _atom_site_occupancy
  Yb  Yb0  1  0.625000  0.625000  0.125000  1
  Ag  Ag1  1  0.625000  0.125000  0.625000  1
  Ag  Ag2  1  0.125000  0.625000  0.625000  1
  Ag  Ag3  1  0.625000  0.625000  0.625000  1
  Pt  Pt4  1  0.125000  0.125000  0.625000  1
  Pt  Pt5  1  0.125000  0.625000  0.125000  1
  Pt  Pt6  1  0.625000  0.125000  0.125000  1
  Pt  Pt7  1  0.125000  0.125000  0.125000  1
  O  O8  1  0.489366  0.489366  0.531903  1
  O  O9  1  0.760634  0.760634  0.718097  1
  O  O10  1  0.457688  0.043692  0.454929  1
  O  O11  1  0.213621  0.790963  0.204451  1
  O  O12  1  0.459037  0.459037  0.045549  1
  O  O13  1  0.043692  0.457688  0.454929  1
  O  O14  1  0.459037  0.036379  0.045549  1
  O  O15  1  0.043692  0.043692  0.454929  1
  O  O16  1  0.036379  0.459037  0.045549  1
  O  O17  1  0.790963  0.213621  0.204451  1
  O  O18  1  0.206308  0.792312  0.795071  1
  O  O19  1  0.792312  0.206308  0.795071  1
  O  O20  1  0.206308  0.206308  0.795071  1
  O  O21  1  0.790963  0.790963  0.204451  1
