# generated using pymatgen
data_Sm4Y(TcO6)2
_symmetry_space_group_name_H-M   'P 1'
_cell_length_a   6.95040646
_cell_length_b   6.95040695
_cell_length_c   7.67485124
_cell_angle_alpha   73.67663790
_cell_angle_beta   73.67663529
_cell_angle_gamma   48.84449610
_symmetry_Int_Tables_number   1
_chemical_formula_structural   Sm4Y(TcO6)2
_chemical_formula_sum   'Sm4 Y1 Tc2 O12'
_cell_volume   265.52137135
_cell_formula_units_Z   1
loop_
 _symmetry_equiv_pos_site_id
 _symmetry_equiv_pos_as_xyz
  1  'x, y, z'
loop_
 _atom_site_type_symbol
 _atom_site_label
 _atom_site_symmetry_multiplicity
 _atom_site_fract_x
 _atom_site_fract_y
 _atom_site_fract_z
 _atom_site_occupancy
  Sm  Sm0  1  0.183244  0.183244  0.174664  1
  Sm  Sm1  1  0.816756  0.816756  0.825336  1
  Sm  Sm2  1  0.805860  0.805860  0.356275  1
  Sm  Sm3  1  0.194140  0.194140  0.643725  1
  Y  Y4  1  0.500000  0.500000  0.500000  1
  Tc  Tc5  1  0.712795  0.287205  0.000000  1
  Tc  Tc6  1  0.287205  0.712795  0.000000  1
  O  O7  1  0.998358  0.998358  0.171568  1
  O  O8  1  0.001642  0.001642  0.828432  1
  O  O9  1  0.499370  0.499370  0.797706  1
  O  O10  1  0.500630  0.500630  0.202294  1
  O  O11  1  0.597884  0.098915  0.572955  1
  O  O12  1  0.901085  0.402116  0.427045  1
  O  O13  1  0.402116  0.901085  0.427045  1
  O  O14  1  0.414303  0.909982  0.918183  1
  O  O15  1  0.090018  0.585697  0.081817  1
  O  O16  1  0.585697  0.090018  0.081817  1
  O  O17  1  0.909982  0.414303  0.918183  1
  O  O18  1  0.098915  0.597884  0.572955  1
