# generated using pymatgen
data_Dy20Cd3Ag3Ru2
_symmetry_space_group_name_H-M   'P 1'
_cell_length_a   9.60943400
_cell_length_b   9.60943267
_cell_length_c   9.67514800
_cell_angle_alpha   90.00000000
_cell_angle_beta   90.00000000
_cell_angle_gamma   119.99999770
_symmetry_Int_Tables_number   1
_chemical_formula_structural   Dy20Cd3Ag3Ru2
_chemical_formula_sum   'Dy20 Cd3 Ag3 Ru2'
_cell_volume   773.71998597
_cell_formula_units_Z   1
loop_
 _symmetry_equiv_pos_site_id
 _symmetry_equiv_pos_as_xyz
  1  'x, y, z'
loop_
 _atom_site_type_symbol
 _atom_site_label
 _atom_site_symmetry_multiplicity
 _atom_site_fract_x
 _atom_site_fract_y
 _atom_site_fract_z
 _atom_site_occupancy
  Dy  Dy0  1  0.000000  0.000000  0.477890  1
  Dy  Dy1  1  0.000000  0.000000  0.022110  1
  Dy  Dy2  1  0.210344  0.789656  0.440747  1
  Dy  Dy3  1  0.210344  0.420689  0.440747  1
  Dy  Dy4  1  0.579311  0.789656  0.440747  1
  Dy  Dy5  1  0.790719  0.209281  0.559734  1
  Dy  Dy6  1  0.790719  0.581437  0.559734  1
  Dy  Dy7  1  0.418563  0.209281  0.559734  1
  Dy  Dy8  1  0.790719  0.209281  0.940266  1
  Dy  Dy9  1  0.790719  0.581437  0.940266  1
  Dy  Dy10  1  0.418563  0.209281  0.940266  1
  Dy  Dy11  1  0.210344  0.789656  0.059253  1
  Dy  Dy12  1  0.210344  0.420689  0.059253  1
  Dy  Dy13  1  0.579311  0.789656  0.059253  1
  Dy  Dy14  1  0.540926  0.459074  0.250000  1
  Dy  Dy15  1  0.540926  0.081853  0.250000  1
  Dy  Dy16  1  0.918147  0.459074  0.250000  1
  Dy  Dy17  1  0.458922  0.541078  0.750000  1
  Dy  Dy18  1  0.458922  0.917844  0.750000  1
  Dy  Dy19  1  0.082156  0.541078  0.750000  1
  Cd  Cd20  1  0.111283  0.888717  0.750000  1
  Cd  Cd21  1  0.111283  0.222564  0.750000  1
  Cd  Cd22  1  0.777436  0.888717  0.750000  1
  Ag  Ag23  1  0.876570  0.123430  0.250000  1
  Ag  Ag24  1  0.876570  0.753142  0.250000  1
  Ag  Ag25  1  0.246858  0.123430  0.250000  1
  Ru  Ru26  1  0.333333  0.666667  0.250000  1
  Ru  Ru27  1  0.666667  0.333333  0.750000  1
