# generated using pymatgen
data_LiDy2Hf2Co19P12
_symmetry_space_group_name_H-M   'P 1'
_cell_length_a   3.62503200
_cell_length_b   10.18617616
_cell_length_c   11.69480990
_cell_angle_alpha   89.80054199
_cell_angle_beta   90.00000000
_cell_angle_gamma   90.00000000
_symmetry_Int_Tables_number   1
_chemical_formula_structural   LiDy2Hf2Co19P12
_chemical_formula_sum   'Li1 Dy2 Hf2 Co19 P12'
_cell_volume   431.83074780
_cell_formula_units_Z   1
loop_
 _symmetry_equiv_pos_site_id
 _symmetry_equiv_pos_as_xyz
  1  'x, y, z'
loop_
 _atom_site_type_symbol
 _atom_site_label
 _atom_site_symmetry_multiplicity
 _atom_site_fract_x
 _atom_site_fract_y
 _atom_site_fract_z
 _atom_site_occupancy
  Li  Li0  1  0.250000  0.702068  0.990616  1
  Dy  Dy1  1  0.750000  0.421143  0.297573  1
  Dy  Dy2  1  0.750000  0.078186  0.796342  1
  Hf  Hf3  1  0.250000  0.578987  0.701492  1
  Hf  Hf4  1  0.250000  0.921426  0.202242  1
  Co  Co5  1  0.250000  0.780841  0.496737  1
  Co  Co6  1  0.750000  0.288178  0.009000  1
  Co  Co7  1  0.750000  0.218602  0.505429  1
  Co  Co8  1  0.250000  0.410569  0.490987  1
  Co  Co9  1  0.250000  0.092343  0.990490  1
  Co  Co10  1  0.750000  0.593165  0.519278  1
  Co  Co11  1  0.750000  0.907633  0.018732  1
  Co  Co12  1  0.250000  0.225756  0.176882  1
  Co  Co13  1  0.250000  0.276457  0.676002  1
  Co  Co14  1  0.750000  0.775342  0.821733  1
  Co  Co15  1  0.750000  0.724547  0.327544  1
  Co  Co16  1  0.250000  0.879457  0.698351  1
  Co  Co17  1  0.250000  0.625209  0.199909  1
  Co  Co18  1  0.750000  0.115862  0.296926  1
  Co  Co19  1  0.750000  0.382372  0.798210  1
  Co  Co20  1  0.250000  0.464978  0.928847  1
  Co  Co21  1  0.250000  0.031032  0.426673  1
  Co  Co22  1  0.750000  0.538128  0.065283  1
  Co  Co23  1  0.750000  0.963923  0.565136  1
  P  P24  1  0.250000  0.425181  0.111939  1
  P  P25  1  0.250000  0.078674  0.609404  1
  P  P26  1  0.750000  0.577093  0.879536  1
  P  P27  1  0.750000  0.920966  0.383003  1
  P  P28  1  0.250000  0.266241  0.868992  1
  P  P29  1  0.250000  0.232214  0.370832  1
  P  P30  1  0.750000  0.736712  0.138278  1
  P  P31  1  0.750000  0.766550  0.633360  1
  P  P32  1  0.250000  0.603276  0.393130  1
  P  P33  1  0.250000  0.896458  0.892237  1
  P  P34  1  0.750000  0.398642  0.609977  1
  P  P35  1  0.750000  0.101792  0.108899  1
