# generated using pymatgen
data_NdThRe17C3
_symmetry_space_group_name_H-M   'P 1'
_cell_length_a   7.05896378
_cell_length_b   7.05896364
_cell_length_c   7.05896351
_cell_angle_alpha   83.00714204
_cell_angle_beta   83.00714925
_cell_angle_gamma   83.00714081
_symmetry_Int_Tables_number   1
_chemical_formula_structural   NdThRe17C3
_chemical_formula_sum   'Nd1 Th1 Re17 C3'
_cell_volume   344.48041015
_cell_formula_units_Z   1
loop_
 _symmetry_equiv_pos_site_id
 _symmetry_equiv_pos_as_xyz
  1  'x, y, z'
loop_
 _atom_site_type_symbol
 _atom_site_label
 _atom_site_symmetry_multiplicity
 _atom_site_fract_x
 _atom_site_fract_y
 _atom_site_fract_z
 _atom_site_occupancy
  Nd  Nd0  1  0.349047  0.349047  0.349047  1
  Th  Th1  1  0.648011  0.648011  0.648011  1
  Re  Re2  1  0.000628  0.000628  0.499348  1
  Re  Re3  1  0.499348  0.000628  0.000628  1
  Re  Re4  1  0.000628  0.499348  0.000628  1
  Re  Re5  1  0.721848  0.278671  0.000262  1
  Re  Re6  1  0.000262  0.721848  0.278671  1
  Re  Re7  1  0.278671  0.000262  0.721848  1
  Re  Re8  1  0.000262  0.278671  0.721848  1
  Re  Re9  1  0.721848  0.000262  0.278671  1
  Re  Re10  1  0.278671  0.721848  0.000262  1
  Re  Re11  1  0.349310  0.860619  0.349310  1
  Re  Re12  1  0.349310  0.349310  0.860619  1
  Re  Re13  1  0.860619  0.349310  0.349310  1
  Re  Re14  1  0.651863  0.137592  0.651863  1
  Re  Re15  1  0.651863  0.651863  0.137592  1
  Re  Re16  1  0.137592  0.651863  0.651863  1
  Re  Re17  1  0.901634  0.901634  0.901634  1
  Re  Re18  1  0.098273  0.098273  0.098273  1
  C  C19  1  0.499627  0.499627  0.001058  1
  C  C20  1  0.001058  0.499627  0.499627  1
  C  C21  1  0.499627  0.001058  0.499627  1
