# generated using pymatgen
data_Li2AlZnAu4
_symmetry_space_group_name_H-M   'P 1'
_cell_length_a   4.45135600
_cell_length_b   6.46119100
_cell_length_c   8.78788200
_cell_angle_alpha   90.00084243
_cell_angle_beta   90.00000000
_cell_angle_gamma   90.00000000
_symmetry_Int_Tables_number   1
_chemical_formula_structural   Li2AlZnAu4
_chemical_formula_sum   'Li4 Al2 Zn2 Au8'
_cell_volume   252.74881312
_cell_formula_units_Z   2
loop_
 _symmetry_equiv_pos_site_id
 _symmetry_equiv_pos_as_xyz
  1  'x, y, z'
loop_
 _atom_site_type_symbol
 _atom_site_label
 _atom_site_symmetry_multiplicity
 _atom_site_fract_x
 _atom_site_fract_y
 _atom_site_fract_z
 _atom_site_occupancy
  Li  Li0  1  0.250978  0.749995  0.124706  1
  Li  Li1  1  0.750971  0.250005  0.375238  1
  Li  Li2  1  0.249184  0.750002  0.629699  1
  Li  Li3  1  0.749180  0.249993  0.870318  1
  Al  Al4  1  0.250883  0.250003  0.126976  1
  Al  Al5  1  0.750884  0.749996  0.373035  1
  Zn  Zn6  1  0.248967  0.249996  0.626679  1
  Zn  Zn7  1  0.748965  0.750003  0.873329  1
  Au  Au8  1  0.750845  0.498078  0.127878  1
  Au  Au9  1  0.750862  0.001927  0.127886  1
  Au  Au10  1  0.250858  0.501934  0.372126  1
  Au  Au11  1  0.250853  0.998065  0.372120  1
  Au  Au12  1  0.749165  0.504482  0.618830  1
  Au  Au13  1  0.749120  0.995524  0.618827  1
  Au  Au14  1  0.249116  0.495509  0.881175  1
  Au  Au15  1  0.249162  0.004484  0.881178  1
