# generated using pymatgen
data_DyMoAs3Rh4
_symmetry_space_group_name_H-M   'P 1'
_cell_length_a   3.91719300
_cell_length_b   11.19160600
_cell_length_c   12.86471000
_cell_angle_alpha   90.00000000
_cell_angle_beta   90.00000000
_cell_angle_gamma   90.00000000
_symmetry_Int_Tables_number   1
_chemical_formula_structural   DyMoAs3Rh4
_chemical_formula_sum   'Dy4 Mo4 As12 Rh16'
_cell_volume   563.98477847
_cell_formula_units_Z   4
loop_
 _symmetry_equiv_pos_site_id
 _symmetry_equiv_pos_as_xyz
  1  'x, y, z'
loop_
 _atom_site_type_symbol
 _atom_site_label
 _atom_site_symmetry_multiplicity
 _atom_site_fract_x
 _atom_site_fract_y
 _atom_site_fract_z
 _atom_site_occupancy
  Dy  Dy0  1  0.250000  0.579978  0.703170  1
  Dy  Dy1  1  0.250000  0.920022  0.203170  1
  Dy  Dy2  1  0.750000  0.420022  0.296830  1
  Dy  Dy3  1  0.750000  0.079978  0.796830  1
  Mo  Mo4  1  0.250000  0.709885  0.990333  1
  Mo  Mo5  1  0.250000  0.790115  0.490333  1
  Mo  Mo6  1  0.750000  0.290115  0.009667  1
  Mo  Mo7  1  0.750000  0.209885  0.509667  1
  As  As8  1  0.250000  0.414100  0.116474  1
  As  As9  1  0.250000  0.085900  0.616474  1
  As  As10  1  0.750000  0.585900  0.883526  1
  As  As11  1  0.750000  0.914100  0.383526  1
  As  As12  1  0.250000  0.261649  0.868780  1
  As  As13  1  0.250000  0.238351  0.368780  1
  As  As14  1  0.750000  0.738351  0.131220  1
  As  As15  1  0.750000  0.761649  0.631220  1
  As  As16  1  0.250000  0.598447  0.391723  1
  As  As17  1  0.250000  0.901553  0.891723  1
  As  As18  1  0.750000  0.401553  0.608277  1
  As  As19  1  0.750000  0.098447  0.108277  1
  Rh  Rh20  1  0.250000  0.406587  0.486787  1
  Rh  Rh21  1  0.250000  0.093413  0.986787  1
  Rh  Rh22  1  0.750000  0.593413  0.513213  1
  Rh  Rh23  1  0.750000  0.906587  0.013213  1
  Rh  Rh24  1  0.250000  0.221249  0.180120  1
  Rh  Rh25  1  0.250000  0.278751  0.680120  1
  Rh  Rh26  1  0.750000  0.778751  0.819880  1
  Rh  Rh27  1  0.750000  0.721249  0.319880  1
  Rh  Rh28  1  0.250000  0.892496  0.702805  1
  Rh  Rh29  1  0.250000  0.607504  0.202805  1
  Rh  Rh30  1  0.750000  0.107504  0.297195  1
  Rh  Rh31  1  0.750000  0.392496  0.797195  1
  Rh  Rh32  1  0.250000  0.464876  0.932521  1
  Rh  Rh33  1  0.250000  0.035124  0.432521  1
  Rh  Rh34  1  0.750000  0.535124  0.067479  1
  Rh  Rh35  1  0.750000  0.964876  0.567479  1
