# generated using pymatgen
data_Ce3Y(Al3Rh)6
_symmetry_space_group_name_H-M   'P 1'
_cell_length_a   7.61170141
_cell_length_b   7.61194890
_cell_length_c   9.47124000
_cell_angle_alpha   90.00000000
_cell_angle_beta   90.00000000
_cell_angle_gamma   119.55500972
_symmetry_Int_Tables_number   1
_chemical_formula_structural   Ce3Y(Al3Rh)6
_chemical_formula_sum   'Ce3 Y1 Al18 Rh6'
_cell_volume   477.35893144
_cell_formula_units_Z   1
loop_
 _symmetry_equiv_pos_site_id
 _symmetry_equiv_pos_as_xyz
  1  'x, y, z'
loop_
 _atom_site_type_symbol
 _atom_site_label
 _atom_site_symmetry_multiplicity
 _atom_site_fract_x
 _atom_site_fract_y
 _atom_site_fract_z
 _atom_site_occupancy
  Ce  Ce0  1  0.995669  0.670214  0.250000  1
  Ce  Ce1  1  0.003988  0.329436  0.750000  1
  Ce  Ce2  1  0.670671  0.996016  0.250000  1
  Y  Y3  1  0.329253  0.005305  0.750000  1
  Al  Al4  1  0.130271  0.129520  0.250000  1
  Al  Al5  1  0.872539  0.872738  0.750000  1
  Al  Al6  1  0.002579  0.335152  0.075018  1
  Al  Al7  1  0.999452  0.666627  0.923533  1
  Al  Al8  1  0.999452  0.666627  0.576467  1
  Al  Al9  1  0.335121  0.001800  0.426314  1
  Al  Al10  1  0.002579  0.335152  0.424982  1
  Al  Al11  1  0.663149  0.997615  0.576052  1
  Al  Al12  1  0.663149  0.997615  0.923948  1
  Al  Al13  1  0.335121  0.001800  0.073686  1
  Al  Al14  1  0.334515  0.333289  0.552761  1
  Al  Al15  1  0.665274  0.665284  0.449999  1
  Al  Al16  1  0.665274  0.665284  0.050001  1
  Al  Al17  1  0.334515  0.333289  0.947239  1
  Al  Al18  1  0.340976  0.547498  0.250000  1
  Al  Al19  1  0.658903  0.450741  0.750000  1
  Al  Al20  1  0.546296  0.339592  0.250000  1
  Al  Al21  1  0.451069  0.659937  0.750000  1
  Rh  Rh22  1  0.672016  0.328185  0.000197  1
  Rh  Rh23  1  0.328110  0.671594  0.000374  1
  Rh  Rh24  1  0.328110  0.671594  0.499626  1
  Rh  Rh25  1  0.672016  0.328185  0.499803  1
  Rh  Rh26  1  0.999968  0.999956  0.000321  1
  Rh  Rh27  1  0.999968  0.999956  0.499679  1
