# generated using pymatgen
data_HfTaBe2Ir
_symmetry_space_group_name_H-M   'P 1'
_cell_length_a   6.28045391
_cell_length_b   6.28045391
_cell_length_c   3.48157500
_cell_angle_alpha   90.00000000
_cell_angle_beta   90.00000000
_cell_angle_gamma   89.15461224
_symmetry_Int_Tables_number   1
_chemical_formula_structural   HfTaBe2Ir
_chemical_formula_sum   'Hf2 Ta2 Be4 Ir2'
_cell_volume   137.31264889
_cell_formula_units_Z   2
loop_
 _symmetry_equiv_pos_site_id
 _symmetry_equiv_pos_as_xyz
  1  'x, y, z'
loop_
 _atom_site_type_symbol
 _atom_site_label
 _atom_site_symmetry_multiplicity
 _atom_site_fract_x
 _atom_site_fract_y
 _atom_site_fract_z
 _atom_site_occupancy
  Hf  Hf0  1  0.677756  0.177756  0.500000  1
  Hf  Hf1  1  0.322244  0.822244  0.500000  1
  Ta  Ta2  1  0.169991  0.330009  0.500000  1
  Ta  Ta3  1  0.830009  0.669991  0.500000  1
  Be  Be4  1  0.118068  0.618068  0.000000  1
  Be  Be5  1  0.881932  0.381932  0.000000  1
  Be  Be6  1  0.627371  0.872629  0.000000  1
  Be  Be7  1  0.372629  0.127371  0.000000  1
  Ir  Ir8  1  0.500000  0.500000  0.000000  1
  Ir  Ir9  1  0.000000  0.000000  0.000000  1
