# generated using pymatgen
data_Ba3YNiO6
_symmetry_space_group_name_H-M   'P 1'
_cell_length_a   7.14389364
_cell_length_b   7.14389359
_cell_length_c   7.14389485
_cell_angle_alpha   93.50666622
_cell_angle_beta   93.50667239
_cell_angle_gamma   93.50665938
_symmetry_Int_Tables_number   1
_chemical_formula_structural   Ba3YNiO6
_chemical_formula_sum   'Ba6 Y2 Ni2 O12'
_cell_volume   362.45457304
_cell_formula_units_Z   2
loop_
 _symmetry_equiv_pos_site_id
 _symmetry_equiv_pos_as_xyz
  1  'x, y, z'
loop_
 _atom_site_type_symbol
 _atom_site_label
 _atom_site_symmetry_multiplicity
 _atom_site_fract_x
 _atom_site_fract_y
 _atom_site_fract_z
 _atom_site_occupancy
  Ba  Ba0  1  0.380070  0.119929  0.750000  1
  Ba  Ba1  1  0.750000  0.380071  0.119930  1
  Ba  Ba2  1  0.249999  0.619930  0.880071  1
  Ba  Ba3  1  0.619929  0.880070  0.250001  1
  Ba  Ba4  1  0.119930  0.750000  0.380071  1
  Ba  Ba5  1  0.880070  0.250000  0.619930  1
  Y  Y6  1  0.750000  0.750001  0.750000  1
  Y  Y7  1  0.250001  0.250000  0.250000  1
  Ni  Ni8  1  0.500000  0.500000  0.500000  1
  Ni  Ni9  1  0.000000  0.000000  0.000000  1
  O  O10  1  0.782031  0.592256  0.465633  1
  O  O11  1  0.592257  0.465632  0.782031  1
  O  O12  1  0.465632  0.782031  0.592257  1
  O  O13  1  0.034367  0.907744  0.717970  1
  O  O14  1  0.907743  0.717969  0.034367  1
  O  O15  1  0.717970  0.034367  0.907743  1
  O  O16  1  0.217970  0.407743  0.534368  1
  O  O17  1  0.407743  0.534367  0.217970  1
  O  O18  1  0.534367  0.217970  0.407742  1
  O  O19  1  0.965633  0.092257  0.282031  1
  O  O20  1  0.282031  0.965632  0.092256  1
  O  O21  1  0.092256  0.282030  0.965632  1
