# generated using pymatgen
data_LaTb3(Rh2O7)2
_symmetry_space_group_name_H-M   'P 1'
_cell_length_a   7.32349015
_cell_length_b   7.32349161
_cell_length_c   7.32349154
_cell_angle_alpha   59.44013647
_cell_angle_beta   59.44013076
_cell_angle_gamma   59.44013142
_symmetry_Int_Tables_number   1
_chemical_formula_structural   LaTb3(Rh2O7)2
_chemical_formula_sum   'La1 Tb3 Rh4 O14'
_cell_volume   274.20294824
_cell_formula_units_Z   1
loop_
 _symmetry_equiv_pos_site_id
 _symmetry_equiv_pos_as_xyz
  1  'x, y, z'
loop_
 _atom_site_type_symbol
 _atom_site_label
 _atom_site_symmetry_multiplicity
 _atom_site_fract_x
 _atom_site_fract_y
 _atom_site_fract_z
 _atom_site_occupancy
  La  La0  1  0.125000  0.125000  0.125000  1
  Tb  Tb1  1  0.625000  0.125000  0.125000  1
  Tb  Tb2  1  0.125000  0.125000  0.625000  1
  Tb  Tb3  1  0.125000  0.625000  0.125000  1
  Rh  Rh4  1  0.625000  0.625000  0.625000  1
  Rh  Rh5  1  0.125000  0.625000  0.625000  1
  Rh  Rh6  1  0.625000  0.625000  0.125000  1
  Rh  Rh7  1  0.625000  0.125000  0.625000  1
  O  O8  1  0.996656  0.996656  0.996656  1
  O  O9  1  0.253344  0.253344  0.253344  1
  O  O10  1  0.291098  0.291098  0.699322  1
  O  O11  1  0.539944  0.539944  0.959407  1
  O  O12  1  0.710056  0.290593  0.710056  1
  O  O13  1  0.699322  0.291098  0.291098  1
  O  O14  1  0.290593  0.710056  0.710056  1
  O  O15  1  0.291098  0.699322  0.291098  1
  O  O16  1  0.710056  0.710056  0.290593  1
  O  O17  1  0.959407  0.539944  0.539944  1
  O  O18  1  0.550678  0.958902  0.958902  1
  O  O19  1  0.958902  0.958902  0.550678  1
  O  O20  1  0.958902  0.550678  0.958902  1
  O  O21  1  0.539944  0.959407  0.539944  1
