# generated using pymatgen
data_DyLuMgCu9
_symmetry_space_group_name_H-M   'P 1'
_cell_length_a   5.06794700
_cell_length_b   5.06794652
_cell_length_c   16.12938200
_cell_angle_alpha   90.00000000
_cell_angle_beta   90.00000000
_cell_angle_gamma   120.00000968
_symmetry_Int_Tables_number   1
_chemical_formula_structural   DyLuMgCu9
_chemical_formula_sum   'Dy2 Lu2 Mg2 Cu18'
_cell_volume   358.76693005
_cell_formula_units_Z   2
loop_
 _symmetry_equiv_pos_site_id
 _symmetry_equiv_pos_as_xyz
  1  'x, y, z'
loop_
 _atom_site_type_symbol
 _atom_site_label
 _atom_site_symmetry_multiplicity
 _atom_site_fract_x
 _atom_site_fract_y
 _atom_site_fract_z
 _atom_site_occupancy
  Dy  Dy0  1  0.666667  0.333333  0.240385  1
  Dy  Dy1  1  0.333333  0.666667  0.740385  1
  Lu  Lu2  1  0.666667  0.333333  0.467612  1
  Lu  Lu3  1  0.333333  0.666667  0.967612  1
  Mg  Mg4  1  0.666667  0.333333  0.036838  1
  Mg  Mg5  1  0.333333  0.666667  0.536838  1
  Cu  Cu6  1  0.333333  0.666667  0.250499  1
  Cu  Cu7  1  0.666667  0.333333  0.750499  1
  Cu  Cu8  1  0.168748  0.831252  0.376184  1
  Cu  Cu9  1  0.168748  0.337497  0.376184  1
  Cu  Cu10  1  0.000000  0.000000  0.752299  1
  Cu  Cu11  1  0.000000  0.000000  0.252299  1
  Cu  Cu12  1  0.000000  0.000000  0.000728  1
  Cu  Cu13  1  0.000000  0.000000  0.500728  1
  Cu  Cu14  1  0.166986  0.333973  0.124362  1
  Cu  Cu15  1  0.833014  0.166986  0.624362  1
  Cu  Cu16  1  0.333973  0.166986  0.624362  1
  Cu  Cu17  1  0.666027  0.833014  0.124362  1
  Cu  Cu18  1  0.166986  0.833014  0.124362  1
  Cu  Cu19  1  0.831252  0.662503  0.876184  1
  Cu  Cu20  1  0.831252  0.168748  0.876184  1
  Cu  Cu21  1  0.833014  0.666027  0.624362  1
  Cu  Cu22  1  0.337497  0.168748  0.876184  1
  Cu  Cu23  1  0.662503  0.831252  0.376184  1
