# generated using pymatgen
data_Mg4Zn6IrPt
_symmetry_space_group_name_H-M   'P 1'
_cell_length_a   5.18192013
_cell_length_b   5.25303796
_cell_length_c   8.42264400
_cell_angle_alpha   90.00000000
_cell_angle_beta   90.00000000
_cell_angle_gamma   120.40314731
_symmetry_Int_Tables_number   1
_chemical_formula_structural   Mg4Zn6IrPt
_chemical_formula_sum   'Mg4 Zn6 Ir1 Pt1'
_cell_volume   197.74325941
_cell_formula_units_Z   1
loop_
 _symmetry_equiv_pos_site_id
 _symmetry_equiv_pos_as_xyz
  1  'x, y, z'
loop_
 _atom_site_type_symbol
 _atom_site_label
 _atom_site_symmetry_multiplicity
 _atom_site_fract_x
 _atom_site_fract_y
 _atom_site_fract_z
 _atom_site_occupancy
  Mg  Mg0  1  0.321957  0.652568  0.063744  1
  Mg  Mg1  1  0.676832  0.334139  0.568896  1
  Mg  Mg2  1  0.676832  0.334139  0.931104  1
  Mg  Mg3  1  0.321957  0.652568  0.436256  1
  Zn  Zn4  1  0.003108  0.014254  0.998646  1
  Zn  Zn5  1  0.003108  0.014254  0.501354  1
  Zn  Zn6  1  0.336107  0.164992  0.250000  1
  Zn  Zn7  1  0.662537  0.828253  0.750000  1
  Zn  Zn8  1  0.170003  0.830204  0.750000  1
  Zn  Zn9  1  0.830881  0.663962  0.250000  1
  Ir  Ir10  1  0.178013  0.344672  0.750000  1
  Pt  Pt11  1  0.818664  0.165995  0.250000  1
