# generated using pymatgen
data_K3SrLaUTe6
_symmetry_space_group_name_H-M   'P 1'
_cell_length_a   8.13112796
_cell_length_b   8.13112693
_cell_length_c   8.64635622
_cell_angle_alpha   80.90404459
_cell_angle_beta   80.90403811
_cell_angle_gamma   119.79228437
_symmetry_Int_Tables_number   1
_chemical_formula_structural   K3SrLaUTe6
_chemical_formula_sum   'K3 Sr1 La1 U1 Te6'
_cell_volume   470.81483323
_cell_formula_units_Z   1
loop_
 _symmetry_equiv_pos_site_id
 _symmetry_equiv_pos_as_xyz
  1  'x, y, z'
loop_
 _atom_site_type_symbol
 _atom_site_label
 _atom_site_symmetry_multiplicity
 _atom_site_fract_x
 _atom_site_fract_y
 _atom_site_fract_z
 _atom_site_occupancy
  K  K0  1  0.339366  0.660634  0.500000  1
  K  K1  1  0.659935  0.340065  0.500000  1
  K  K2  1  0.000408  0.999592  0.500000  1
  Sr  Sr3  1  0.500009  0.499991  0.000000  1
  La  La4  1  0.167857  0.832143  0.000000  1
  U  U5  1  0.832548  0.167452  0.000000  1
  Te  Te6  1  0.771442  0.785274  0.212775  1
  Te  Te7  1  0.440918  0.083592  0.215283  1
  Te  Te8  1  0.070608  0.414226  0.214346  1
  Te  Te9  1  0.585774  0.929392  0.785654  1
  Te  Te10  1  0.916408  0.559082  0.784717  1
  Te  Te11  1  0.214726  0.228558  0.787225  1
