# generated using pymatgen
data_Tm4Sc3AlPt4
_symmetry_space_group_name_H-M   'P 1'
_cell_length_a   4.48658700
_cell_length_b   6.96994146
_cell_length_c   8.24651452
_cell_angle_alpha   87.18499156
_cell_angle_beta   90.00000000
_cell_angle_gamma   90.00000000
_symmetry_Int_Tables_number   1
_chemical_formula_structural   Tm4Sc3AlPt4
_chemical_formula_sum   'Tm4 Sc3 Al1 Pt4'
_cell_volume   257.56762628
_cell_formula_units_Z   1
loop_
 _symmetry_equiv_pos_site_id
 _symmetry_equiv_pos_as_xyz
  1  'x, y, z'
loop_
 _atom_site_type_symbol
 _atom_site_label
 _atom_site_symmetry_multiplicity
 _atom_site_fract_x
 _atom_site_fract_y
 _atom_site_fract_z
 _atom_site_occupancy
  Tm  Tm0  1  0.250000  0.038950  0.670942  1
  Tm  Tm1  1  0.250000  0.520616  0.815591  1
  Tm  Tm2  1  0.750000  0.989460  0.340851  1
  Tm  Tm3  1  0.750000  0.467994  0.183187  1
  Sc  Sc4  1  0.250000  0.134732  0.070371  1
  Sc  Sc5  1  0.250000  0.640931  0.435456  1
  Sc  Sc6  1  0.750000  0.861027  0.928717  1
  Al  Al7  1  0.750000  0.360061  0.567765  1
  Pt  Pt8  1  0.250000  0.262386  0.384058  1
  Pt  Pt9  1  0.250000  0.744861  0.102177  1
  Pt  Pt10  1  0.750000  0.732090  0.615137  1
  Pt  Pt11  1  0.750000  0.246894  0.885750  1
