# generated using pymatgen
data_TbLu4Bi2Sb
_symmetry_space_group_name_H-M   'P 1'
_cell_length_a   8.09312800
_cell_length_b   9.33331700
_cell_length_c   11.80903000
_cell_angle_alpha   90.00000000
_cell_angle_beta   90.00000000
_cell_angle_gamma   90.00000000
_symmetry_Int_Tables_number   1
_chemical_formula_structural   TbLu4Bi2Sb
_chemical_formula_sum   'Tb4 Lu16 Bi8 Sb4'
_cell_volume   892.00369155
_cell_formula_units_Z   4
loop_
 _symmetry_equiv_pos_site_id
 _symmetry_equiv_pos_as_xyz
  1  'x, y, z'
loop_
 _atom_site_type_symbol
 _atom_site_label
 _atom_site_symmetry_multiplicity
 _atom_site_fract_x
 _atom_site_fract_y
 _atom_site_fract_z
 _atom_site_occupancy
  Tb  Tb0  1  0.315246  0.250000  0.217757  1
  Tb  Tb1  1  0.815246  0.250000  0.282243  1
  Tb  Tb2  1  0.684754  0.750000  0.782243  1
  Tb  Tb3  1  0.184754  0.750000  0.717757  1
  Lu  Lu4  1  0.352848  0.750000  0.216065  1
  Lu  Lu5  1  0.852848  0.750000  0.283935  1
  Lu  Lu6  1  0.647152  0.250000  0.783935  1
  Lu  Lu7  1  0.147152  0.250000  0.716065  1
  Lu  Lu8  1  0.689595  0.565732  0.059224  1
  Lu  Lu9  1  0.189595  0.934268  0.440776  1
  Lu  Lu10  1  0.310405  0.065732  0.940776  1
  Lu  Lu11  1  0.810405  0.434268  0.559224  1
  Lu  Lu12  1  0.310405  0.434268  0.940776  1
  Lu  Lu13  1  0.810405  0.065732  0.559224  1
  Lu  Lu14  1  0.689595  0.934268  0.059224  1
  Lu  Lu15  1  0.189595  0.565732  0.440776  1
  Lu  Lu16  1  0.473882  0.250000  0.488957  1
  Lu  Lu17  1  0.973882  0.250000  0.011043  1
  Lu  Lu18  1  0.526118  0.750000  0.511043  1
  Lu  Lu19  1  0.026118  0.750000  0.988957  1
  Bi  Bi20  1  0.565654  0.993887  0.326208  1
  Bi  Bi21  1  0.065654  0.506113  0.173792  1
  Bi  Bi22  1  0.434346  0.493887  0.673792  1
  Bi  Bi23  1  0.934346  0.006113  0.826208  1
  Bi  Bi24  1  0.434346  0.006113  0.673792  1
  Bi  Bi25  1  0.934346  0.493887  0.826208  1
  Bi  Bi26  1  0.565654  0.506113  0.326208  1
  Bi  Bi27  1  0.065654  0.993887  0.173792  1
  Sb  Sb28  1  0.403870  0.750000  0.960699  1
  Sb  Sb29  1  0.903870  0.750000  0.539301  1
  Sb  Sb30  1  0.596130  0.250000  0.039301  1
  Sb  Sb31  1  0.096130  0.250000  0.460699  1
