# generated using pymatgen
data_Cs13Zr2(In3Sb5)2
_symmetry_space_group_name_H-M   'P 1'
_cell_length_a   10.57048093
_cell_length_b   10.60276114
_cell_length_c   14.89496900
_cell_angle_alpha   81.46032412
_cell_angle_beta   78.53574136
_cell_angle_gamma   62.84685248
_symmetry_Int_Tables_number   1
_chemical_formula_structural   Cs13Zr2(In3Sb5)2
_chemical_formula_sum   'Cs13 Zr2 In6 Sb10'
_cell_volume   1452.55586893
_cell_formula_units_Z   1
loop_
 _symmetry_equiv_pos_site_id
 _symmetry_equiv_pos_as_xyz
  1  'x, y, z'
loop_
 _atom_site_type_symbol
 _atom_site_label
 _atom_site_symmetry_multiplicity
 _atom_site_fract_x
 _atom_site_fract_y
 _atom_site_fract_z
 _atom_site_occupancy
  Cs  Cs0  1  0.498192  0.861516  0.353564  1
  Cs  Cs1  1  0.501808  0.138484  0.646436  1
  Cs  Cs2  1  0.858709  0.583864  0.884854  1
  Cs  Cs3  1  0.141291  0.416136  0.115146  1
  Cs  Cs4  1  0.093612  0.789996  0.430255  1
  Cs  Cs5  1  0.906388  0.210004  0.569745  1
  Cs  Cs6  1  0.748097  0.683340  0.595721  1
  Cs  Cs7  1  0.251903  0.316660  0.404279  1
  Cs  Cs8  1  0.318632  0.928762  0.091576  1
  Cs  Cs9  1  0.681368  0.071238  0.908424  1
  Cs  Cs10  1  0.891315  0.854302  0.161919  1
  Cs  Cs11  1  0.108685  0.145698  0.838081  1
  Cs  Cs12  1  0.500000  0.500000  0.000000  1
  Zr  Zr13  1  0.376824  0.736010  0.773478  1
  Zr  Zr14  1  0.623176  0.263990  0.226522  1
  In  In15  1  0.034612  0.806140  0.707492  1
  In  In16  1  0.965388  0.193860  0.292508  1
  In  In17  1  0.594157  0.445961  0.412431  1
  In  In18  1  0.405843  0.554039  0.587569  1
  In  In19  1  0.723931  0.557266  0.170923  1
  In  In20  1  0.276069  0.442734  0.829077  1
  Sb  Sb21  1  0.430544  0.558760  0.255374  1
  Sb  Sb22  1  0.569456  0.441240  0.744626  1
  Sb  Sb23  1  0.126015  0.745450  0.897119  1
  Sb  Sb24  1  0.873985  0.254550  0.102881  1
  Sb  Sb25  1  0.713280  0.130052  0.398619  1
  Sb  Sb26  1  0.286720  0.869948  0.601381  1
  Sb  Sb27  1  0.851518  0.503240  0.353454  1
  Sb  Sb28  1  0.148482  0.496760  0.646546  1
  Sb  Sb29  1  0.501878  0.867527  0.843272  1
  Sb  Sb30  1  0.498122  0.132473  0.156728  1
