# generated using pymatgen
data_DyTm7(Sc3Sn4)4
_symmetry_space_group_name_H-M   'P 1'
_cell_length_a   7.65276310
_cell_length_b   7.93100404
_cell_length_c   14.78406018
_cell_angle_alpha   90.00722481
_cell_angle_beta   89.98382560
_cell_angle_gamma   90.00983194
_symmetry_Int_Tables_number   1
_chemical_formula_structural   DyTm7(Sc3Sn4)4
_chemical_formula_sum   'Dy1 Tm7 Sc12 Sn16'
_cell_volume   897.30509876
_cell_formula_units_Z   1
loop_
 _symmetry_equiv_pos_site_id
 _symmetry_equiv_pos_as_xyz
  1  'x, y, z'
loop_
 _atom_site_type_symbol
 _atom_site_label
 _atom_site_symmetry_multiplicity
 _atom_site_fract_x
 _atom_site_fract_y
 _atom_site_fract_z
 _atom_site_occupancy
  Dy  Dy0  1  0.994300  0.177985  0.093542  1
  Tm  Tm1  1  0.005736  0.821613  0.906196  1
  Tm  Tm2  1  0.505870  0.678313  0.906244  1
  Tm  Tm3  1  0.005852  0.821701  0.593726  1
  Tm  Tm4  1  0.494147  0.321802  0.093695  1
  Tm  Tm5  1  0.994127  0.178294  0.406173  1
  Tm  Tm6  1  0.494177  0.321736  0.406371  1
  Tm  Tm7  1  0.505808  0.678301  0.593719  1
  Sc  Sc8  1  0.164619  0.496571  0.749976  1
  Sc  Sc9  1  0.835287  0.503529  0.250104  1
  Sc  Sc10  1  0.335488  0.996479  0.250088  1
  Sc  Sc11  1  0.664611  0.003397  0.750010  1
  Sc  Sc12  1  0.336372  0.161093  0.627424  1
  Sc  Sc13  1  0.663608  0.838948  0.372629  1
  Sc  Sc14  1  0.163607  0.661091  0.372627  1
  Sc  Sc15  1  0.663477  0.838773  0.127427  1
  Sc  Sc16  1  0.836409  0.338907  0.627444  1
  Sc  Sc17  1  0.336410  0.161053  0.872518  1
  Sc  Sc18  1  0.836225  0.339061  0.872506  1
  Sc  Sc19  1  0.163632  0.661072  0.127412  1
  Sn  Sn20  1  0.027104  0.122675  0.749973  1
  Sn  Sn21  1  0.972897  0.877002  0.250071  1
  Sn  Sn22  1  0.472919  0.622581  0.250008  1
  Sn  Sn23  1  0.527033  0.377415  0.749968  1
  Sn  Sn24  1  0.307276  0.847905  0.750006  1
  Sn  Sn25  1  0.692313  0.152047  0.250229  1
  Sn  Sn26  1  0.193194  0.348458  0.250368  1
  Sn  Sn27  1  0.807331  0.652044  0.750012  1
  Sn  Sn28  1  0.182631  0.458365  0.542277  1
  Sn  Sn29  1  0.817384  0.541607  0.457749  1
  Sn  Sn30  1  0.317307  0.958398  0.457736  1
  Sn  Sn31  1  0.817134  0.542072  0.042158  1
  Sn  Sn32  1  0.682612  0.041611  0.542272  1
  Sn  Sn33  1  0.182802  0.458699  0.957643  1
  Sn  Sn34  1  0.682020  0.041492  0.957548  1
  Sn  Sn35  1  0.318284  0.957911  0.042150  1
