# generated using pymatgen
data_Zr10NiBi6Pt
_symmetry_space_group_name_H-M   'P 1'
_cell_length_a   8.88044900
_cell_length_b   8.88044924
_cell_length_c   5.94035700
_cell_angle_alpha   90.00000000
_cell_angle_beta   90.00000000
_cell_angle_gamma   119.99999537
_symmetry_Int_Tables_number   1
_chemical_formula_structural   Zr10NiBi6Pt
_chemical_formula_sum   'Zr10 Ni1 Bi6 Pt1'
_cell_volume   405.70752082
_cell_formula_units_Z   1
loop_
 _symmetry_equiv_pos_site_id
 _symmetry_equiv_pos_as_xyz
  1  'x, y, z'
loop_
 _atom_site_type_symbol
 _atom_site_label
 _atom_site_symmetry_multiplicity
 _atom_site_fract_x
 _atom_site_fract_y
 _atom_site_fract_z
 _atom_site_occupancy
  Zr  Zr0  1  0.743327  0.000000  0.237699  1
  Zr  Zr1  1  0.000000  0.743327  0.237699  1
  Zr  Zr2  1  0.256673  0.256673  0.237699  1
  Zr  Zr3  1  0.256673  0.000000  0.762301  1
  Zr  Zr4  1  0.000000  0.256673  0.762301  1
  Zr  Zr5  1  0.743327  0.743327  0.762301  1
  Zr  Zr6  1  0.333333  0.666667  0.500000  1
  Zr  Zr7  1  0.666667  0.333333  0.500000  1
  Zr  Zr8  1  0.666667  0.333333  0.000000  1
  Zr  Zr9  1  0.333333  0.666667  0.000000  1
  Ni  Ni10  1  0.000000  0.000000  0.000000  1
  Bi  Bi11  1  0.388365  0.000000  0.252749  1
  Bi  Bi12  1  0.000000  0.388365  0.252749  1
  Bi  Bi13  1  0.611635  0.611635  0.252749  1
  Bi  Bi14  1  0.611635  0.000000  0.747251  1
  Bi  Bi15  1  0.000000  0.611635  0.747251  1
  Bi  Bi16  1  0.388365  0.388365  0.747251  1
  Pt  Pt17  1  0.000000  0.000000  0.500000  1
