# generated using pymatgen
data_Tb3Sm2Er5(In2Pd)4
_symmetry_space_group_name_H-M   'P 1'
_cell_length_a   3.62781900
_cell_length_b   8.18098456
_cell_length_c   18.29491141
_cell_angle_alpha   89.94252676
_cell_angle_beta   90.00000000
_cell_angle_gamma   90.00000000
_symmetry_Int_Tables_number   1
_chemical_formula_structural   Tb3Sm2Er5(In2Pd)4
_chemical_formula_sum   'Tb3 Sm2 Er5 In8 Pd4'
_cell_volume   542.97680359
_cell_formula_units_Z   1
loop_
 _symmetry_equiv_pos_site_id
 _symmetry_equiv_pos_as_xyz
  1  'x, y, z'
loop_
 _atom_site_type_symbol
 _atom_site_label
 _atom_site_symmetry_multiplicity
 _atom_site_fract_x
 _atom_site_fract_y
 _atom_site_fract_z
 _atom_site_occupancy
  Tb  Tb0  1  0.000000  0.739328  0.281890  1
  Tb  Tb1  1  0.000000  0.261237  0.717838  1
  Tb  Tb2  1  0.000000  0.761276  0.782135  1
  Sm  Sm3  1  0.000000  0.500250  0.499589  1
  Sm  Sm4  1  0.000000  0.999583  0.999949  1
  Er  Er5  1  0.000000  0.239301  0.218441  1
  Er  Er6  1  0.000000  0.617928  0.084659  1
  Er  Er7  1  0.000000  0.381041  0.916232  1
  Er  Er8  1  0.000000  0.881287  0.583911  1
  Er  Er9  1  0.000000  0.119070  0.415445  1
  In  In10  1  0.500000  0.702191  0.933980  1
  In  In11  1  0.500000  0.295743  0.067353  1
  In  In12  1  0.500000  0.798159  0.433568  1
  In  In13  1  0.500000  0.202698  0.566045  1
  In  In14  1  0.500000  0.582577  0.651300  1
  In  In15  1  0.500000  0.417019  0.348204  1
  In  In16  1  0.500000  0.919418  0.151354  1
  In  In17  1  0.500000  0.082596  0.848648  1
  Pd  Pd18  1  0.500000  0.520535  0.195354  1
  Pd  Pd19  1  0.500000  0.475887  0.805236  1
  Pd  Pd20  1  0.500000  0.976003  0.694860  1
  Pd  Pd21  1  0.500000  0.026876  0.304009  1
