# generated using pymatgen
data_Tb3Y2Ho7In20
_symmetry_space_group_name_H-M   'P 1'
_cell_length_a   6.51079519
_cell_length_b   10.41983152
_cell_length_c   12.26787032
_cell_angle_alpha   89.93202753
_cell_angle_beta   89.97624905
_cell_angle_gamma   90.01802861
_symmetry_Int_Tables_number   1
_chemical_formula_structural   Tb3Y2Ho7In20
_chemical_formula_sum   'Tb3 Y2 Ho7 In20'
_cell_volume   832.26866277
_cell_formula_units_Z   1
loop_
 _symmetry_equiv_pos_site_id
 _symmetry_equiv_pos_as_xyz
  1  'x, y, z'
loop_
 _atom_site_type_symbol
 _atom_site_label
 _atom_site_symmetry_multiplicity
 _atom_site_fract_x
 _atom_site_fract_y
 _atom_site_fract_z
 _atom_site_occupancy
  Tb  Tb0  1  0.390127  0.507028  0.357957  1
  Tb  Tb1  1  0.109791  0.507240  0.858102  1
  Tb  Tb2  1  0.390316  0.992890  0.358368  1
  Y  Y3  1  0.890009  0.007138  0.141643  1
  Y  Y4  1  0.610046  0.492846  0.642398  1
  Ho  Ho5  1  0.350305  0.750218  0.055675  1
  Ho  Ho6  1  0.149699  0.749634  0.555772  1
  Ho  Ho7  1  0.649801  0.250656  0.944277  1
  Ho  Ho8  1  0.850845  0.249599  0.444380  1
  Ho  Ho9  1  0.890556  0.493057  0.141655  1
  Ho  Ho10  1  0.609392  0.006907  0.641508  1
  Ho  Ho11  1  0.109355  0.992893  0.858508  1
  In  In12  1  0.616269  0.750332  0.505567  1
  In  In13  1  0.884172  0.749881  0.005381  1
  In  In14  1  0.384421  0.249733  0.495346  1
  In  In15  1  0.115852  0.249595  0.994473  1
  In  In16  1  0.651716  0.749595  0.245205  1
  In  In17  1  0.848471  0.751256  0.745399  1
  In  In18  1  0.348403  0.248814  0.754724  1
  In  In19  1  0.150974  0.250253  0.254280  1
  In  In20  1  0.124722  0.750042  0.283753  1
  In  In21  1  0.374461  0.751045  0.783956  1
  In  In22  1  0.874432  0.248894  0.716021  1
  In  In23  1  0.625445  0.250562  0.216044  1
  In  In24  1  0.875412  0.543719  0.400724  1
  In  In25  1  0.624908  0.956575  0.900358  1
  In  In26  1  0.124742  0.043442  0.599675  1
  In  In27  1  0.374912  0.456111  0.098668  1
  In  In28  1  0.124716  0.455667  0.598820  1
  In  In29  1  0.375402  0.044012  0.098601  1
  In  In30  1  0.875585  0.956088  0.401364  1
  In  In31  1  0.624749  0.544277  0.901396  1
