# generated using pymatgen
data_Tb16In4IrRu2Pt
_symmetry_space_group_name_H-M   'P 1'
_cell_length_a   9.70628256
_cell_length_b   9.71050944
_cell_length_c   9.70628219
_cell_angle_alpha   60.00114832
_cell_angle_beta   60.01265376
_cell_angle_gamma   60.00114803
_symmetry_Int_Tables_number   1
_chemical_formula_structural   Tb16In4IrRu2Pt
_chemical_formula_sum   'Tb16 In4 Ir1 Ru2 Pt1'
_cell_volume   646.96667838
_cell_formula_units_Z   1
loop_
 _symmetry_equiv_pos_site_id
 _symmetry_equiv_pos_as_xyz
  1  'x, y, z'
loop_
 _atom_site_type_symbol
 _atom_site_label
 _atom_site_symmetry_multiplicity
 _atom_site_fract_x
 _atom_site_fract_y
 _atom_site_fract_z
 _atom_site_occupancy
  Tb  Tb0  1  0.102111  0.701107  0.102111  1
  Tb  Tb1  1  0.940740  0.941385  0.553006  1
  Tb  Tb2  1  0.941063  0.554828  0.941063  1
  Tb  Tb3  1  0.309853  0.690448  0.309853  1
  Tb  Tb4  1  0.938997  0.560135  0.556976  1
  Tb  Tb5  1  0.311002  0.309375  0.690358  1
  Tb  Tb6  1  0.097948  0.097284  0.097948  1
  Tb  Tb7  1  0.556976  0.560135  0.938997  1
  Tb  Tb8  1  0.103115  0.101510  0.700821  1
  Tb  Tb9  1  0.689053  0.312883  0.689053  1
  Tb  Tb10  1  0.689816  0.689719  0.313316  1
  Tb  Tb11  1  0.690358  0.309375  0.311002  1
  Tb  Tb12  1  0.313316  0.689719  0.689816  1
  Tb  Tb13  1  0.558976  0.938886  0.558976  1
  Tb  Tb14  1  0.700821  0.101510  0.103115  1
  Tb  Tb15  1  0.553006  0.941385  0.940740  1
  In  In16  1  0.332858  0.332821  0.332858  1
  In  In17  1  0.003363  0.332112  0.332186  1
  In  In18  1  0.332758  0.001872  0.332758  1
  In  In19  1  0.332186  0.332112  0.003363  1
  Ir  Ir20  1  0.891005  0.326803  0.891005  1
  Ru  Ru21  1  0.891025  0.891079  0.327941  1
  Ru  Ru22  1  0.327941  0.891079  0.891025  1
  Pt  Pt23  1  0.891715  0.892434  0.891715  1
