# generated using pymatgen
data_Sc2Fe3Co(MoP2)2
_symmetry_space_group_name_H-M   'P 1'
_cell_length_a   3.65376600
_cell_length_b   6.09058416
_cell_length_c   6.90830719
_cell_angle_alpha   90.02643907
_cell_angle_beta   90.00000000
_cell_angle_gamma   90.00000000
_symmetry_Int_Tables_number   1
_chemical_formula_structural   Sc2Fe3Co(MoP2)2
_chemical_formula_sum   'Sc2 Fe3 Co1 Mo2 P4'
_cell_volume   153.73447651
_cell_formula_units_Z   1
loop_
 _symmetry_equiv_pos_site_id
 _symmetry_equiv_pos_as_xyz
  1  'x, y, z'
loop_
 _atom_site_type_symbol
 _atom_site_label
 _atom_site_symmetry_multiplicity
 _atom_site_fract_x
 _atom_site_fract_y
 _atom_site_fract_z
 _atom_site_occupancy
  Sc  Sc0  1  0.250000  0.977359  0.319425  1
  Sc  Sc1  1  0.250000  0.478880  0.180535  1
  Fe  Fe2  1  0.250000  0.862067  0.931305  1
  Fe  Fe3  1  0.250000  0.359342  0.567098  1
  Fe  Fe4  1  0.750000  0.645764  0.445963  1
  Co  Co5  1  0.750000  0.142736  0.055893  1
  Mo  Mo6  1  0.750000  0.018397  0.678624  1
  Mo  Mo7  1  0.750000  0.520048  0.821038  1
  P  P8  1  0.250000  0.225019  0.873230  1
  P  P9  1  0.250000  0.722273  0.624917  1
  P  P10  1  0.750000  0.772895  0.108722  1
  P  P11  1  0.750000  0.275218  0.393251  1
