# generated using pymatgen
data_Cs4KRb(GaTe3)2
_symmetry_space_group_name_H-M   'P 1'
_cell_length_a   14.65978800
_cell_length_b   9.15210026
_cell_length_c   12.03470229
_cell_angle_alpha   53.22415123
_cell_angle_beta   90.00000000
_cell_angle_gamma   90.00000000
_symmetry_Int_Tables_number   1
_chemical_formula_structural   Cs4KRb(GaTe3)2
_chemical_formula_sum   'Cs8 K2 Rb2 Ga4 Te12'
_cell_volume   1293.32461203
_cell_formula_units_Z   2
loop_
 _symmetry_equiv_pos_site_id
 _symmetry_equiv_pos_as_xyz
  1  'x, y, z'
loop_
 _atom_site_type_symbol
 _atom_site_label
 _atom_site_symmetry_multiplicity
 _atom_site_fract_x
 _atom_site_fract_y
 _atom_site_fract_z
 _atom_site_occupancy
  Cs  Cs0  1  0.909131  0.336761  0.397908  1
  Cs  Cs1  1  0.409131  0.663239  0.102092  1
  Cs  Cs2  1  0.090811  0.663118  0.602131  1
  Cs  Cs3  1  0.590811  0.336882  0.897869  1
  Cs  Cs4  1  0.192021  0.133436  0.584083  1
  Cs  Cs5  1  0.692021  0.866564  0.915917  1
  Cs  Cs6  1  0.808157  0.867101  0.415816  1
  Cs  Cs7  1  0.308157  0.132899  0.084184  1
  K  K8  1  0.387858  0.645871  0.520672  1
  K  K9  1  0.887858  0.354129  0.979328  1
  Rb  Rb10  1  0.613838  0.357280  0.479745  1
  Rb  Rb11  1  0.113838  0.642720  0.020255  1
  Ga  Ga12  1  0.937157  0.058912  0.842899  1
  Ga  Ga13  1  0.437157  0.941088  0.657101  1
  Ga  Ga14  1  0.062968  0.940488  0.157267  1
  Ga  Ga15  1  0.562968  0.059512  0.342733  1
  Te  Te16  1  0.395881  0.147093  0.379669  1
  Te  Te17  1  0.895881  0.852907  0.120331  1
  Te  Te18  1  0.603874  0.851286  0.620544  1
  Te  Te19  1  0.103874  0.148714  0.879456  1
  Te  Te20  1  0.677722  0.339315  0.197493  1
  Te  Te21  1  0.177722  0.660685  0.302507  1
  Te  Te22  1  0.323795  0.659782  0.798187  1
  Te  Te23  1  0.823795  0.340218  0.701813  1
  Te  Te24  1  0.555772  0.858727  0.253012  1
  Te  Te25  1  0.055772  0.141273  0.246988  1
  Te  Te26  1  0.441015  0.140979  0.748827  1
  Te  Te27  1  0.941015  0.859021  0.751173  1
