# generated using pymatgen
data_Th2CuC2
_symmetry_space_group_name_H-M   'P 1'
_cell_length_a   3.80694628
_cell_length_b   3.80694643
_cell_length_c   6.78678007
_cell_angle_alpha   106.28811656
_cell_angle_beta   106.28811631
_cell_angle_gamma   90.00000555
_symmetry_Int_Tables_number   1
_chemical_formula_structural   Th2CuC2
_chemical_formula_sum   'Th2 Cu1 C2'
_cell_volume   90.29164217
_cell_formula_units_Z   1
loop_
 _symmetry_equiv_pos_site_id
 _symmetry_equiv_pos_as_xyz
  1  'x, y, z'
loop_
 _atom_site_type_symbol
 _atom_site_label
 _atom_site_symmetry_multiplicity
 _atom_site_fract_x
 _atom_site_fract_y
 _atom_site_fract_z
 _atom_site_occupancy
  Th  Th0  1  0.649873  0.649873  0.299749  1
  Th  Th1  1  0.350125  0.350125  0.700251  1
  Cu  Cu2  1  0.000000  0.000000  0.000000  1
  C  C3  1  0.157921  0.157921  0.315841  1
  C  C4  1  0.842078  0.842078  0.684159  1
