# generated using pymatgen
data_Li2CeGd7Co2
_symmetry_space_group_name_H-M   'P 1'
_cell_length_a   9.57357251
_cell_length_b   9.84574235
_cell_length_c   9.84769600
_cell_angle_alpha   58.17307303
_cell_angle_beta   60.90323989
_cell_angle_gamma   60.89450541
_symmetry_Int_Tables_number   1
_chemical_formula_structural   Li2CeGd7Co2
_chemical_formula_sum   'Li4 Ce2 Gd14 Co4'
_cell_volume   655.24249939
_cell_formula_units_Z   2
loop_
 _symmetry_equiv_pos_site_id
 _symmetry_equiv_pos_as_xyz
  1  'x, y, z'
loop_
 _atom_site_type_symbol
 _atom_site_label
 _atom_site_symmetry_multiplicity
 _atom_site_fract_x
 _atom_site_fract_y
 _atom_site_fract_z
 _atom_site_occupancy
  Li  Li0  1  0.578142  0.576964  0.577212  1
  Li  Li1  1  0.576964  0.578142  0.267682  1
  Li  Li2  1  0.576649  0.268003  0.578277  1
  Li  Li3  1  0.268003  0.576649  0.577071  1
  Ce  Ce4  1  0.820739  0.179916  0.179691  1
  Ce  Ce5  1  0.179916  0.820739  0.819653  1
  Gd  Gd6  1  0.186902  0.812937  0.187707  1
  Gd  Gd7  1  0.812937  0.186902  0.812455  1
  Gd  Gd8  1  0.187794  0.187794  0.812206  1
  Gd  Gd9  1  0.812736  0.812736  0.187264  1
  Gd  Gd10  1  0.925973  0.573452  0.574024  1
  Gd  Gd11  1  0.573452  0.925973  0.926553  1
  Gd  Gd12  1  0.556776  0.942044  0.559241  1
  Gd  Gd13  1  0.942044  0.556776  0.941939  1
  Gd  Gd14  1  0.556447  0.556447  0.943553  1
  Gd  Gd15  1  0.942824  0.942824  0.557176  1
  Gd  Gd16  1  0.332816  0.346524  0.347705  1
  Gd  Gd17  1  0.346524  0.332816  0.972955  1
  Gd  Gd18  1  0.348052  0.973413  0.332572  1
  Gd  Gd19  1  0.973413  0.348052  0.345962  1
  Co  Co20  1  0.089220  0.156648  0.158845  1
  Co  Co21  1  0.156648  0.089220  0.595287  1
  Co  Co22  1  0.158202  0.596826  0.089257  1
  Co  Co23  1  0.596826  0.158202  0.155715  1
