# generated using pymatgen
data_Hf18CoW8Se
_symmetry_space_group_name_H-M   'P 1'
_cell_length_a   8.70687300
_cell_length_b   8.70687307
_cell_length_c   8.60047100
_cell_angle_alpha   90.00000000
_cell_angle_beta   90.00000000
_cell_angle_gamma   120.00000353
_symmetry_Int_Tables_number   1
_chemical_formula_structural   Hf18CoW8Se
_chemical_formula_sum   'Hf18 Co1 W8 Se1'
_cell_volume   564.64732532
_cell_formula_units_Z   1
loop_
 _symmetry_equiv_pos_site_id
 _symmetry_equiv_pos_as_xyz
  1  'x, y, z'
loop_
 _atom_site_type_symbol
 _atom_site_label
 _atom_site_symmetry_multiplicity
 _atom_site_fract_x
 _atom_site_fract_y
 _atom_site_fract_z
 _atom_site_occupancy
  Hf  Hf0  1  0.193363  0.806637  0.452315  1
  Hf  Hf1  1  0.193363  0.386726  0.452315  1
  Hf  Hf2  1  0.613274  0.806637  0.452315  1
  Hf  Hf3  1  0.798938  0.201062  0.558910  1
  Hf  Hf4  1  0.798938  0.597875  0.558910  1
  Hf  Hf5  1  0.402125  0.201062  0.558910  1
  Hf  Hf6  1  0.798938  0.201062  0.941090  1
  Hf  Hf7  1  0.798938  0.597875  0.941090  1
  Hf  Hf8  1  0.402125  0.201062  0.941090  1
  Hf  Hf9  1  0.193363  0.806637  0.047685  1
  Hf  Hf10  1  0.193363  0.386726  0.047685  1
  Hf  Hf11  1  0.613274  0.806637  0.047685  1
  Hf  Hf12  1  0.545000  0.455000  0.250000  1
  Hf  Hf13  1  0.545000  0.089999  0.250000  1
  Hf  Hf14  1  0.910001  0.455000  0.250000  1
  Hf  Hf15  1  0.458276  0.541724  0.750000  1
  Hf  Hf16  1  0.458276  0.916553  0.750000  1
  Hf  Hf17  1  0.083447  0.541724  0.750000  1
  Co  Co18  1  0.666667  0.333333  0.750000  1
  W  W19  1  0.889058  0.110942  0.250000  1
  W  W20  1  0.889058  0.778116  0.250000  1
  W  W21  1  0.221884  0.110942  0.250000  1
  W  W22  1  0.111638  0.888362  0.750000  1
  W  W23  1  0.111638  0.223275  0.750000  1
  W  W24  1  0.776725  0.888362  0.750000  1
  W  W25  1  0.000000  0.000000  0.501746  1
  W  W26  1  0.000000  0.000000  0.998254  1
  Se  Se27  1  0.333333  0.666667  0.250000  1
