# generated using pymatgen
data_Er3Sc3TcSb2
_symmetry_space_group_name_H-M   'P 1'
_cell_length_a   7.81446800
_cell_length_b   7.81446903
_cell_length_c   4.19943500
_cell_angle_alpha   90.00000000
_cell_angle_beta   90.00000000
_cell_angle_gamma   119.99999562
_symmetry_Int_Tables_number   1
_chemical_formula_structural   Er3Sc3TcSb2
_chemical_formula_sum   'Er3 Sc3 Tc1 Sb2'
_cell_volume   222.08560318
_cell_formula_units_Z   1
loop_
 _symmetry_equiv_pos_site_id
 _symmetry_equiv_pos_as_xyz
  1  'x, y, z'
loop_
 _atom_site_type_symbol
 _atom_site_label
 _atom_site_symmetry_multiplicity
 _atom_site_fract_x
 _atom_site_fract_y
 _atom_site_fract_z
 _atom_site_occupancy
  Er  Er0  1  0.604082  0.000000  0.000000  1
  Er  Er1  1  0.000000  0.604082  0.000000  1
  Er  Er2  1  0.395918  0.395918  0.000000  1
  Sc  Sc3  1  0.228233  0.000000  0.500000  1
  Sc  Sc4  1  0.000000  0.228233  0.500000  1
  Sc  Sc5  1  0.771767  0.771767  0.500000  1
  Tc  Tc6  1  0.000000  0.000000  0.000000  1
  Sb  Sb7  1  0.333333  0.666667  0.500000  1
  Sb  Sb8  1  0.666667  0.333333  0.500000  1
