# generated using pymatgen
data_Ho2Cr3Fe4Co5P7
_symmetry_space_group_name_H-M   'P 1'
_cell_length_a   9.02478922
_cell_length_b   9.01062438
_cell_length_c   3.61663200
_cell_angle_alpha   90.00000000
_cell_angle_beta   90.00000000
_cell_angle_gamma   120.11221612
_symmetry_Int_Tables_number   1
_chemical_formula_structural   Ho2Cr3Fe4Co5P7
_chemical_formula_sum   'Ho2 Cr3 Fe4 Co5 P7'
_cell_volume   254.41031156
_cell_formula_units_Z   1
loop_
 _symmetry_equiv_pos_site_id
 _symmetry_equiv_pos_as_xyz
  1  'x, y, z'
loop_
 _atom_site_type_symbol
 _atom_site_label
 _atom_site_symmetry_multiplicity
 _atom_site_fract_x
 _atom_site_fract_y
 _atom_site_fract_z
 _atom_site_occupancy
  Ho  Ho0  1  0.000170  0.000704  0.000000  1
  Ho  Ho1  1  0.332841  0.666063  0.500000  1
  Cr  Cr2  1  0.550384  0.117074  0.500000  1
  Cr  Cr3  1  0.567038  0.450421  0.500000  1
  Cr  Cr4  1  0.880433  0.432666  0.500000  1
  Fe  Fe5  1  0.096637  0.390918  0.000000  1
  Fe  Fe6  1  0.784744  0.176966  0.000000  1
  Fe  Fe7  1  0.391176  0.213620  0.000000  1
  Fe  Fe8  1  0.823759  0.610538  0.000000  1
  Co  Co9  1  0.295053  0.901689  0.000000  1
  Co  Co10  1  0.607115  0.704925  0.000000  1
  Co  Co11  1  0.718506  0.948266  0.500000  1
  Co  Co12  1  0.231403  0.281677  0.500000  1
  Co  Co13  1  0.052892  0.770461  0.500000  1
  P  P14  1  0.554331  0.923254  0.000000  1
  P  P15  1  0.367553  0.444902  0.000000  1
  P  P16  1  0.075933  0.628019  0.000000  1
  P  P17  1  0.958031  0.220512  0.500000  1
  P  P18  1  0.262222  0.044845  0.500000  1
  P  P19  1  0.783326  0.738530  0.500000  1
  P  P20  1  0.666455  0.333951  0.000000  1
