# generated using pymatgen
data_Er4Ga3As3Ir7
_symmetry_space_group_name_H-M   'P 1'
_cell_length_a   7.28544145
_cell_length_b   7.28544212
_cell_length_c   7.32388600
_cell_angle_alpha   109.57814610
_cell_angle_beta   109.57814798
_cell_angle_gamma   109.36408795
_symmetry_Int_Tables_number   1
_chemical_formula_structural   Er4Ga3As3Ir7
_chemical_formula_sum   'Er4 Ga3 As3 Ir7'
_cell_volume   298.85232481
_cell_formula_units_Z   1
loop_
 _symmetry_equiv_pos_site_id
 _symmetry_equiv_pos_as_xyz
  1  'x, y, z'
loop_
 _atom_site_type_symbol
 _atom_site_label
 _atom_site_symmetry_multiplicity
 _atom_site_fract_x
 _atom_site_fract_y
 _atom_site_fract_z
 _atom_site_occupancy
  Er  Er0  1  0.000000  0.000000  0.527085  1
  Er  Er1  1  0.000000  0.489593  0.003863  1
  Er  Er2  1  0.489593  0.000000  0.003863  1
  Er  Er3  1  0.510407  0.510407  0.514270  1
  Ga  Ga4  1  0.704015  0.704015  0.013702  1
  Ga  Ga5  1  0.295985  0.000000  0.309687  1
  Ga  Ga6  1  0.000000  0.295985  0.309687  1
  As  As7  1  0.334910  0.334910  0.008380  1
  As  As8  1  0.665090  0.000000  0.673470  1
  As  As9  1  0.000000  0.665090  0.673470  1
  Ir  Ir10  1  0.743622  0.243989  0.494144  1
  Ir  Ir11  1  0.756011  0.499634  0.250155  1
  Ir  Ir12  1  0.500366  0.256378  0.750521  1
  Ir  Ir13  1  0.256378  0.500366  0.750521  1
  Ir  Ir14  1  0.243989  0.743622  0.494144  1
  Ir  Ir15  1  0.499634  0.756011  0.250155  1
  Ir  Ir16  1  0.000000  0.000000  0.972887  1
