# generated using pymatgen
data_Cs2In(WO4)3
_symmetry_space_group_name_H-M   'P 1'
_cell_length_a   7.48965028
_cell_length_b   7.48965045
_cell_length_c   7.56312697
_cell_angle_alpha   60.41614186
_cell_angle_beta   60.41614180
_cell_angle_gamma   60.02617381
_symmetry_Int_Tables_number   1
_chemical_formula_structural   Cs2In(WO4)3
_chemical_formula_sum   'Cs2 In1 W3 O12'
_cell_volume   301.92538995
_cell_formula_units_Z   1
loop_
 _symmetry_equiv_pos_site_id
 _symmetry_equiv_pos_as_xyz
  1  'x, y, z'
loop_
 _atom_site_type_symbol
 _atom_site_label
 _atom_site_symmetry_multiplicity
 _atom_site_fract_x
 _atom_site_fract_y
 _atom_site_fract_z
 _atom_site_occupancy
  Cs  Cs0  1  0.886808  0.849457  0.884942  1
  Cs  Cs1  1  0.150543  0.113192  0.115058  1
  In  In2  1  0.502110  0.497890  0.000000  1
  W  W3  1  0.503385  0.996980  0.499133  1
  W  W4  1  0.003020  0.496615  0.500867  1
  W  W5  1  0.502802  0.497198  0.500000  1
  O  O6  1  0.196750  0.193473  0.546142  1
  O  O7  1  0.569904  0.571963  0.200000  1
  O  O8  1  0.570668  0.155928  0.199324  1
  O  O9  1  0.196711  0.562378  0.545989  1
  O  O10  1  0.159566  0.569235  0.200597  1
  O  O11  1  0.564900  0.194188  0.545240  1
  O  O12  1  0.806527  0.803250  0.453858  1
  O  O13  1  0.428037  0.430096  0.800000  1
  O  O14  1  0.430765  0.840434  0.799403  1
  O  O15  1  0.805812  0.435100  0.454760  1
  O  O16  1  0.844072  0.429332  0.800676  1
  O  O17  1  0.437622  0.803289  0.454011  1
