# generated using pymatgen
data_Tb2LuAl3Zn2Au
_symmetry_space_group_name_H-M   'P 1'
_cell_length_a   7.00116897
_cell_length_b   7.05453516
_cell_length_c   4.29611700
_cell_angle_alpha   90.00000000
_cell_angle_beta   90.00000000
_cell_angle_gamma   120.25247207
_symmetry_Int_Tables_number   1
_chemical_formula_structural   Tb2LuAl3Zn2Au
_chemical_formula_sum   'Tb2 Lu1 Al3 Zn2 Au1'
_cell_volume   183.28848633
_cell_formula_units_Z   1
loop_
 _symmetry_equiv_pos_site_id
 _symmetry_equiv_pos_as_xyz
  1  'x, y, z'
loop_
 _atom_site_type_symbol
 _atom_site_label
 _atom_site_symmetry_multiplicity
 _atom_site_fract_x
 _atom_site_fract_y
 _atom_site_fract_z
 _atom_site_occupancy
  Tb  Tb0  1  0.421857  0.423736  0.500000  1
  Tb  Tb1  1  0.578143  0.001879  0.500000  1
  Lu  Lu2  1  0.000000  0.579228  0.500000  1
  Al  Al3  1  0.758923  0.758427  0.000000  1
  Al  Al4  1  0.241077  0.999504  0.000000  1
  Al  Al5  1  0.000000  0.242122  0.000000  1
  Zn  Zn6  1  0.671066  0.336403  0.000000  1
  Zn  Zn7  1  0.328934  0.665338  0.000000  1
  Au  Au8  1  0.000000  0.993361  0.500000  1
