# generated using pymatgen
data_Tb6Sm4Co2Br15
_symmetry_space_group_name_H-M   'P 1'
_cell_length_a   9.36158038
_cell_length_b   10.18128065
_cell_length_c   10.95399230
_cell_angle_alpha   92.22125705
_cell_angle_beta   114.07676451
_cell_angle_gamma   110.65993481
_symmetry_Int_Tables_number   1
_chemical_formula_structural   Tb6Sm4Co2Br15
_chemical_formula_sum   'Tb6 Sm4 Co2 Br15'
_cell_volume   871.28769522
_cell_formula_units_Z   1
loop_
 _symmetry_equiv_pos_site_id
 _symmetry_equiv_pos_as_xyz
  1  'x, y, z'
loop_
 _atom_site_type_symbol
 _atom_site_label
 _atom_site_symmetry_multiplicity
 _atom_site_fract_x
 _atom_site_fract_y
 _atom_site_fract_z
 _atom_site_occupancy
  Tb  Tb0  1  0.528009  0.708190  0.101241  1
  Tb  Tb1  1  0.471991  0.291810  0.898759  1
  Tb  Tb2  1  0.592000  0.046107  0.334397  1
  Tb  Tb3  1  0.408000  0.953893  0.665603  1
  Tb  Tb4  1  0.728833  0.077982  0.048934  1
  Tb  Tb5  1  0.271167  0.922018  0.951066  1
  Sm  Sm6  1  0.800982  0.402509  0.270843  1
  Sm  Sm7  1  0.199018  0.597491  0.729157  1
  Sm  Sm8  1  0.669096  0.750916  0.822130  1
  Sm  Sm9  1  0.330904  0.249084  0.177870  1
  Co  Co10  1  0.467347  0.830042  0.883252  1
  Co  Co11  1  0.532653  0.169958  0.116748  1
  Br  Br12  1  0.000000  0.000000  0.000000  1
  Br  Br13  1  0.635867  0.888999  0.583306  1
  Br  Br14  1  0.364133  0.111001  0.416694  1
  Br  Br15  1  0.884731  0.300036  0.527028  1
  Br  Br16  1  0.115269  0.699964  0.472972  1
  Br  Br17  1  0.302638  0.766488  0.188614  1
  Br  Br18  1  0.697362  0.233512  0.811386  1
  Br  Br19  1  0.060408  0.338062  0.222406  1
  Br  Br20  1  0.170283  0.059168  0.698998  1
  Br  Br21  1  0.829717  0.940832  0.301002  1
  Br  Br22  1  0.247579  0.415425  0.948327  1
  Br  Br23  1  0.752421  0.584575  0.051673  1
  Br  Br24  1  0.406692  0.463008  0.668462  1
  Br  Br25  1  0.593308  0.536992  0.331538  1
  Br  Br26  1  0.939592  0.661938  0.777594  1
