# generated using pymatgen
data_Ca10InReN10
_symmetry_space_group_name_H-M   'P 1'
_cell_length_a   7.01690248
_cell_length_b   7.01690156
_cell_length_c   8.89440931
_cell_angle_alpha   80.76931480
_cell_angle_beta   80.76931710
_cell_angle_gamma   60.14957371
_symmetry_Int_Tables_number   1
_chemical_formula_structural   Ca10InReN10
_chemical_formula_sum   'Ca10 In1 Re1 N10'
_cell_volume   373.24907227
_cell_formula_units_Z   1
loop_
 _symmetry_equiv_pos_site_id
 _symmetry_equiv_pos_as_xyz
  1  'x, y, z'
loop_
 _atom_site_type_symbol
 _atom_site_label
 _atom_site_symmetry_multiplicity
 _atom_site_fract_x
 _atom_site_fract_y
 _atom_site_fract_z
 _atom_site_occupancy
  Ca  Ca0  1  0.881079  0.363206  0.827844  1
  Ca  Ca1  1  0.875838  0.875838  0.813582  1
  Ca  Ca2  1  0.737671  0.737671  0.531754  1
  Ca  Ca3  1  0.743037  0.259438  0.521200  1
  Ca  Ca4  1  0.619852  0.139012  0.145070  1
  Ca  Ca5  1  0.363206  0.881079  0.827844  1
  Ca  Ca6  1  0.259438  0.743037  0.521200  1
  Ca  Ca7  1  0.243682  0.243682  0.509220  1
  Ca  Ca8  1  0.137963  0.137963  0.163785  1
  Ca  Ca9  1  0.139012  0.619852  0.145070  1
  In  In10  1  0.372137  0.372137  0.780122  1
  Re  Re11  1  0.630487  0.630487  0.226738  1
  N  N12  1  0.899794  0.474184  0.312665  1
  N  N13  1  0.989244  0.989244  0.031017  1
  N  N14  1  0.673232  0.673232  0.019806  1
  N  N15  1  0.555542  0.555542  0.682183  1
  N  N16  1  0.474184  0.899794  0.312665  1
  N  N17  1  0.558576  0.062397  0.657489  1
  N  N18  1  0.475422  0.475422  0.294003  1
  N  N19  1  0.308222  0.308222  0.016560  1
  N  N20  1  0.062273  0.062273  0.648501  1
  N  N21  1  0.062397  0.558576  0.657489  1
