# generated using pymatgen
data_YErAl2IrPd
_symmetry_space_group_name_H-M   'P 1'
_cell_length_a   4.34057100
_cell_length_b   6.85060000
_cell_length_c   7.88770400
_cell_angle_alpha   90.00000000
_cell_angle_beta   90.00000000
_cell_angle_gamma   90.00000000
_symmetry_Int_Tables_number   1
_chemical_formula_structural   YErAl2IrPd
_chemical_formula_sum   'Y2 Er2 Al4 Ir2 Pd2'
_cell_volume   234.54494607
_cell_formula_units_Z   2
loop_
 _symmetry_equiv_pos_site_id
 _symmetry_equiv_pos_as_xyz
  1  'x, y, z'
loop_
 _atom_site_type_symbol
 _atom_site_label
 _atom_site_symmetry_multiplicity
 _atom_site_fract_x
 _atom_site_fract_y
 _atom_site_fract_z
 _atom_site_occupancy
  Y  Y0  1  0.250000  0.034254  0.322949  1
  Y  Y1  1  0.250000  0.534254  0.177051  1
  Er  Er2  1  0.750000  0.973240  0.682646  1
  Er  Er3  1  0.750000  0.473240  0.817354  1
  Al  Al4  1  0.250000  0.138417  0.934417  1
  Al  Al5  1  0.250000  0.638417  0.565583  1
  Al  Al6  1  0.750000  0.856573  0.056576  1
  Al  Al7  1  0.750000  0.356573  0.443424  1
  Ir  Ir8  1  0.250000  0.267624  0.621746  1
  Ir  Ir9  1  0.250000  0.767624  0.878254  1
  Pd  Pd10  1  0.750000  0.729893  0.379321  1
  Pd  Pd11  1  0.750000  0.229893  0.120679  1
