# generated using pymatgen
data_Rb5(VS3)2
_symmetry_space_group_name_H-M   'P 1'
_cell_length_a   7.66828077
_cell_length_b   8.16298857
_cell_length_c   16.94236540
_cell_angle_alpha   90.00115115
_cell_angle_beta   100.33188752
_cell_angle_gamma   122.15952359
_symmetry_Int_Tables_number   1
_chemical_formula_structural   Rb5(VS3)2
_chemical_formula_sum   'Rb10 V4 S12'
_cell_volume   877.42702057
_cell_formula_units_Z   2
loop_
 _symmetry_equiv_pos_site_id
 _symmetry_equiv_pos_as_xyz
  1  'x, y, z'
loop_
 _atom_site_type_symbol
 _atom_site_label
 _atom_site_symmetry_multiplicity
 _atom_site_fract_x
 _atom_site_fract_y
 _atom_site_fract_z
 _atom_site_occupancy
  Rb  Rb0  1  0.129492  0.804095  0.998045  1
  Rb  Rb1  1  0.870502  0.674597  0.501955  1
  Rb  Rb2  1  0.870508  0.195905  0.001955  1
  Rb  Rb3  1  0.129498  0.325403  0.498045  1
  Rb  Rb4  1  0.314793  0.072361  0.720660  1
  Rb  Rb5  1  0.685198  0.757559  0.779335  1
  Rb  Rb6  1  0.685207  0.927639  0.279340  1
  Rb  Rb7  1  0.314802  0.242441  0.220665  1
  Rb  Rb8  1  0.000003  0.379738  0.749998  1
  Rb  Rb9  1  0.999997  0.620262  0.250002  1
  V  V10  1  0.542344  0.920916  0.566827  1
  V  V11  1  0.457668  0.378564  0.933166  1
  V  V12  1  0.457656  0.079084  0.433173  1
  V  V13  1  0.542332  0.621436  0.066834  1
  S  S14  1  0.861135  0.991685  0.623583  1
  S  S15  1  0.138868  0.130534  0.876413  1
  S  S16  1  0.138865  0.008315  0.376417  1
  S  S17  1  0.861132  0.869466  0.123587  1
  S  S18  1  0.304918  0.708815  0.633935  1
  S  S19  1  0.695090  0.403897  0.866073  1
  S  S20  1  0.695082  0.291185  0.366065  1
  S  S21  1  0.304910  0.596103  0.133927  1
  S  S22  1  0.548058  0.201384  0.563701  1
  S  S23  1  0.451930  0.653303  0.936301  1
  S  S24  1  0.451942  0.798616  0.436299  1
  S  S25  1  0.548070  0.346697  0.063699  1
