# generated using pymatgen
data_Ce2Pr2Al15(SiRh2)3
_symmetry_space_group_name_H-M   'P 1'
_cell_length_a   7.61964371
_cell_length_b   7.56288810
_cell_length_c   9.54388485
_cell_angle_alpha   90.05133821
_cell_angle_beta   89.90230585
_cell_angle_gamma   119.74124087
_symmetry_Int_Tables_number   1
_chemical_formula_structural   Ce2Pr2Al15(SiRh2)3
_chemical_formula_sum   'Ce2 Pr2 Al15 Si3 Rh6'
_cell_volume   477.53370056
_cell_formula_units_Z   1
loop_
 _symmetry_equiv_pos_site_id
 _symmetry_equiv_pos_as_xyz
  1  'x, y, z'
loop_
 _atom_site_type_symbol
 _atom_site_label
 _atom_site_symmetry_multiplicity
 _atom_site_fract_x
 _atom_site_fract_y
 _atom_site_fract_z
 _atom_site_occupancy
  Ce  Ce0  1  0.994627  0.662307  0.747055  1
  Ce  Ce1  1  0.006119  0.347048  0.254037  1
  Pr  Pr2  1  0.673393  0.000347  0.748229  1
  Pr  Pr3  1  0.321128  0.992295  0.249635  1
  Al  Al4  1  0.130196  0.126211  0.750196  1
  Al  Al5  1  0.871498  0.870769  0.249131  1
  Al  Al6  1  0.337386  0.003734  0.924575  1
  Al  Al7  1  0.003855  0.330358  0.932050  1
  Al  Al8  1  0.667339  0.000830  0.074641  1
  Al  Al9  1  0.663019  0.996334  0.423230  1
  Al  Al10  1  0.337631  0.004853  0.575486  1
  Al  Al11  1  0.333816  0.332677  0.053212  1
  Al  Al12  1  0.663543  0.666128  0.949156  1
  Al  Al13  1  0.662409  0.665716  0.552744  1
  Al  Al14  1  0.336251  0.333243  0.447120  1
  Al  Al15  1  0.335950  0.546933  0.750575  1
  Al  Al16  1  0.662435  0.452843  0.249902  1
  Al  Al17  1  0.546213  0.345631  0.750542  1
  Al  Al18  1  0.458079  0.656761  0.249499  1
  Si  Si19  1  0.005074  0.329022  0.572881  1
  Si  Si20  1  0.994580  0.671574  0.435014  1
  Si  Si21  1  0.996105  0.664705  0.059707  1
  Rh  Rh22  1  0.685940  0.336770  0.501499  1
  Rh  Rh23  1  0.313714  0.662496  0.498796  1
  Rh  Rh24  1  0.321697  0.669530  0.001838  1
  Rh  Rh25  1  0.677887  0.335387  0.999445  1
  Rh  Rh26  1  0.999626  0.001380  0.499617  1
  Rh  Rh27  1  0.000494  0.994115  0.000192  1
