# generated using pymatgen
data_ErCl30
_symmetry_space_group_name_H-M   'P 1'
_cell_length_a   13.42354748
_cell_length_b   13.42354788
_cell_length_c   16.09756781
_cell_angle_alpha   82.14876408
_cell_angle_beta   82.14876129
_cell_angle_gamma   119.14890890
_symmetry_Int_Tables_number   1
_chemical_formula_structural   ErCl30
_chemical_formula_sum   'Er1 Cl30'
_cell_volume   2439.39800997
_cell_formula_units_Z   1
loop_
 _symmetry_equiv_pos_site_id
 _symmetry_equiv_pos_as_xyz
  1  'x, y, z'
loop_
 _atom_site_type_symbol
 _atom_site_label
 _atom_site_symmetry_multiplicity
 _atom_site_fract_x
 _atom_site_fract_y
 _atom_site_fract_z
 _atom_site_occupancy
  Er  Er0  1  0.000000  0.000000  0.000000  1
  Cl  Cl1  1  0.939064  0.939064  0.169954  1
  Cl  Cl2  1  0.060936  0.060936  0.830046  1
  Cl  Cl3  1  0.104344  0.221096  0.005777  1
  Cl  Cl4  1  0.895656  0.778904  0.994223  1
  Cl  Cl5  1  0.221096  0.104344  0.005777  1
  Cl  Cl6  1  0.778904  0.895656  0.994223  1
  Cl  Cl7  1  0.201074  0.742700  0.064432  1
  Cl  Cl8  1  0.798926  0.257300  0.935568  1
  Cl  Cl9  1  0.694349  0.083321  0.259873  1
  Cl  Cl10  1  0.257300  0.798926  0.935568  1
  Cl  Cl11  1  0.305651  0.916679  0.740127  1
  Cl  Cl12  1  0.742700  0.201074  0.064432  1
  Cl  Cl13  1  0.981080  0.200487  0.775486  1
  Cl  Cl14  1  0.916679  0.305651  0.740127  1
  Cl  Cl15  1  0.018920  0.799513  0.224514  1
  Cl  Cl16  1  0.083321  0.694349  0.259873  1
  Cl  Cl17  1  0.799513  0.018920  0.224514  1
  Cl  Cl18  1  0.200487  0.981080  0.775486  1
  Cl  Cl19  1  0.464269  0.550226  0.261013  1
  Cl  Cl20  1  0.535731  0.449774  0.738987  1
  Cl  Cl21  1  0.508513  0.205405  0.450805  1
  Cl  Cl22  1  0.449774  0.535731  0.738987  1
  Cl  Cl23  1  0.491487  0.794595  0.549195  1
  Cl  Cl24  1  0.550226  0.464269  0.261013  1
  Cl  Cl25  1  0.240283  0.428501  0.546102  1
  Cl  Cl26  1  0.794595  0.491487  0.549195  1
  Cl  Cl27  1  0.759717  0.571499  0.453898  1
  Cl  Cl28  1  0.205405  0.508513  0.450805  1
  Cl  Cl29  1  0.571499  0.759717  0.453898  1
  Cl  Cl30  1  0.428501  0.240283  0.546102  1
