# generated using pymatgen
data_BiPtI18
_symmetry_space_group_name_H-M   'P 1'
_cell_length_a   10.57075676
_cell_length_b   10.24798204
_cell_length_c   10.25774542
_cell_angle_alpha   88.10942812
_cell_angle_beta   86.14306110
_cell_angle_gamma   88.26179182
_symmetry_Int_Tables_number   1
_chemical_formula_structural   BiPtI18
_chemical_formula_sum   'Bi1 Pt1 I18'
_cell_volume   1107.64980342
_cell_formula_units_Z   1
loop_
 _symmetry_equiv_pos_site_id
 _symmetry_equiv_pos_as_xyz
  1  'x, y, z'
loop_
 _atom_site_type_symbol
 _atom_site_label
 _atom_site_symmetry_multiplicity
 _atom_site_fract_x
 _atom_site_fract_y
 _atom_site_fract_z
 _atom_site_occupancy
  Bi  Bi0  1  0.000000  0.000000  0.000000  1
  Pt  Pt1  1  0.500000  0.500000  0.500000  1
  I  I2  1  0.779104  0.469034  0.502428  1
  I  I3  1  0.499347  0.761459  0.476361  1
  I  I4  1  0.471524  0.498901  0.762376  1
  I  I5  1  0.220896  0.530966  0.497572  1
  I  I6  1  0.500653  0.238541  0.523639  1
  I  I7  1  0.528476  0.501099  0.237624  1
  I  I8  1  0.892349  0.384528  0.738472  1
  I  I9  1  0.741712  0.877607  0.387796  1
  I  I10  1  0.380289  0.743839  0.879131  1
  I  I11  1  0.107651  0.615472  0.261528  1
  I  I12  1  0.258288  0.122393  0.612204  1
  I  I13  1  0.619711  0.256161  0.120869  1
  I  I14  1  0.030439  0.974964  0.695044  1
  I  I15  1  0.705673  0.023431  0.974654  1
  I  I16  1  0.973208  0.698275  0.020146  1
  I  I17  1  0.969561  0.025036  0.304956  1
  I  I18  1  0.294327  0.976569  0.025346  1
  I  I19  1  0.026792  0.301725  0.979854  1
