# generated using pymatgen
data_Y8Sc11Si16Ru
_symmetry_space_group_name_H-M   'P 1'
_cell_length_a   7.02257018
_cell_length_b   7.36406018
_cell_length_c   13.92772200
_cell_angle_alpha   90.00000000
_cell_angle_beta   90.00000000
_cell_angle_gamma   89.97446946
_symmetry_Int_Tables_number   1
_chemical_formula_structural   Y8Sc11Si16Ru
_chemical_formula_sum   'Y8 Sc11 Si16 Ru1'
_cell_volume   720.26691014
_cell_formula_units_Z   1
loop_
 _symmetry_equiv_pos_site_id
 _symmetry_equiv_pos_as_xyz
  1  'x, y, z'
loop_
 _atom_site_type_symbol
 _atom_site_label
 _atom_site_symmetry_multiplicity
 _atom_site_fract_x
 _atom_site_fract_y
 _atom_site_fract_z
 _atom_site_occupancy
  Y  Y0  1  0.512800  0.672703  0.598154  1
  Y  Y1  1  0.008383  0.818319  0.900977  1
  Y  Y2  1  0.487844  0.323772  0.095126  1
  Y  Y3  1  0.987315  0.177554  0.406302  1
  Y  Y4  1  0.487844  0.323772  0.404874  1
  Y  Y5  1  0.987315  0.177554  0.093698  1
  Y  Y6  1  0.512800  0.672703  0.901846  1
  Y  Y7  1  0.008383  0.818319  0.599023  1
  Sc  Sc8  1  0.675638  0.177817  0.626802  1
  Sc  Sc9  1  0.174098  0.330949  0.872075  1
  Sc  Sc10  1  0.326901  0.824781  0.125499  1
  Sc  Sc11  1  0.826067  0.674397  0.376084  1
  Sc  Sc12  1  0.326901  0.824781  0.374501  1
  Sc  Sc13  1  0.826067  0.674397  0.123916  1
  Sc  Sc14  1  0.675638  0.177817  0.873198  1
  Sc  Sc15  1  0.174098  0.330949  0.627925  1
  Sc  Sc16  1  0.344139  0.997698  0.750000  1
  Sc  Sc17  1  0.156823  0.496619  0.250000  1
  Sc  Sc18  1  0.656616  0.002636  0.250000  1
  Si  Si19  1  0.654069  0.964433  0.462828  1
  Si  Si20  1  0.155572  0.536025  0.037365  1
  Si  Si21  1  0.342663  0.034422  0.959848  1
  Si  Si22  1  0.844075  0.465263  0.546074  1
  Si  Si23  1  0.342663  0.034422  0.540152  1
  Si  Si24  1  0.844075  0.465263  0.953926  1
  Si  Si25  1  0.654069  0.964433  0.037172  1
  Si  Si26  1  0.155572  0.536025  0.462635  1
  Si  Si27  1  0.483856  0.392854  0.750000  1
  Si  Si28  1  0.972032  0.118763  0.750000  1
  Si  Si29  1  0.529178  0.616424  0.250000  1
  Si  Si30  1  0.026085  0.884658  0.250000  1
  Si  Si31  1  0.716060  0.867488  0.750000  1
  Si  Si32  1  0.206919  0.627803  0.750000  1
  Si  Si33  1  0.282333  0.128156  0.250000  1
  Si  Si34  1  0.783709  0.371964  0.250000  1
  Ru  Ru35  1  0.851397  0.494064  0.750000  1
