# generated using pymatgen
data_AgHg(AuO2)4
_symmetry_space_group_name_H-M   'P 1'
_cell_length_a   6.81617654
_cell_length_b   6.81617593
_cell_length_c   6.81617585
_cell_angle_alpha   127.37268360
_cell_angle_beta   127.37267681
_cell_angle_gamma   77.64348562
_symmetry_Int_Tables_number   1
_chemical_formula_structural   AgHg(AuO2)4
_chemical_formula_sum   'Ag1 Hg1 Au4 O8'
_cell_volume   193.92846820
_cell_formula_units_Z   1
loop_
 _symmetry_equiv_pos_site_id
 _symmetry_equiv_pos_as_xyz
  1  'x, y, z'
loop_
 _atom_site_type_symbol
 _atom_site_label
 _atom_site_symmetry_multiplicity
 _atom_site_fract_x
 _atom_site_fract_y
 _atom_site_fract_z
 _atom_site_occupancy
  Ag  Ag0  1  0.750000  0.250000  0.500000  1
  Hg  Hg1  1  0.000000  0.000000  0.000000  1
  Au  Au2  1  0.377547  0.626236  0.752490  1
  Au  Au3  1  0.373764  0.126254  0.751312  1
  Au  Au4  1  0.873746  0.625057  0.247510  1
  Au  Au5  1  0.374943  0.622453  0.248688  1
  O  O6  1  0.032610  0.422444  0.027326  1
  O  O7  1  0.750837  0.289387  0.114078  1
  O  O8  1  0.175309  0.636758  0.885922  1
  O  O9  1  0.395117  0.005285  0.972674  1
  O  O10  1  0.710613  0.824691  0.461449  1
  O  O11  1  0.994715  0.967390  0.389834  1
  O  O12  1  0.363242  0.249163  0.538551  1
  O  O13  1  0.577556  0.604883  0.610166  1
