# generated using pymatgen
data_Cr20Ge(OsC3)2
_symmetry_space_group_name_H-M   'P 1'
_cell_length_a   7.51923789
_cell_length_b   7.51923707
_cell_length_c   7.51923700
_cell_angle_alpha   59.99999593
_cell_angle_beta   59.99999952
_cell_angle_gamma   59.99999609
_symmetry_Int_Tables_number   1
_chemical_formula_structural   Cr20Ge(OsC3)2
_chemical_formula_sum   'Cr20 Ge1 Os2 C6'
_cell_volume   300.61202640
_cell_formula_units_Z   1
loop_
 _symmetry_equiv_pos_site_id
 _symmetry_equiv_pos_as_xyz
  1  'x, y, z'
loop_
 _atom_site_type_symbol
 _atom_site_label
 _atom_site_symmetry_multiplicity
 _atom_site_fract_x
 _atom_site_fract_y
 _atom_site_fract_z
 _atom_site_occupancy
  Cr  Cr0  1  0.615919  0.615919  0.152242  1
  Cr  Cr1  1  0.615919  0.152242  0.615919  1
  Cr  Cr2  1  0.152242  0.615919  0.615919  1
  Cr  Cr3  1  0.615919  0.615919  0.615919  1
  Cr  Cr4  1  0.384081  0.384081  0.847758  1
  Cr  Cr5  1  0.384081  0.847758  0.384081  1
  Cr  Cr6  1  0.847758  0.384081  0.384081  1
  Cr  Cr7  1  0.384081  0.384081  0.384081  1
  Cr  Cr8  1  0.000000  0.000000  0.341302  1
  Cr  Cr9  1  0.658698  0.000000  0.341302  1
  Cr  Cr10  1  0.000000  0.658698  0.341302  1
  Cr  Cr11  1  0.658698  0.341302  0.000000  1
  Cr  Cr12  1  0.000000  0.341302  0.000000  1
  Cr  Cr13  1  0.000000  0.341302  0.658698  1
  Cr  Cr14  1  0.341302  0.658698  0.000000  1
  Cr  Cr15  1  0.341302  0.000000  0.658698  1
  Cr  Cr16  1  0.341302  0.000000  0.000000  1
  Cr  Cr17  1  0.000000  0.000000  0.658698  1
  Cr  Cr18  1  0.000000  0.658698  0.000000  1
  Cr  Cr19  1  0.658698  0.000000  0.000000  1
  Ge  Ge20  1  0.000000  0.000000  0.000000  1
  Os  Os21  1  0.750000  0.750000  0.750000  1
  Os  Os22  1  0.250000  0.250000  0.250000  1
  C  C23  1  0.720211  0.720211  0.279789  1
  C  C24  1  0.279789  0.720211  0.279789  1
  C  C25  1  0.720211  0.279789  0.279789  1
  C  C26  1  0.279789  0.279789  0.720211  1
  C  C27  1  0.720211  0.279789  0.720211  1
  C  C28  1  0.279789  0.720211  0.720211  1
