# generated using pymatgen
data_MnGa2Pt5
_symmetry_space_group_name_H-M   'P 1'
_cell_length_a   5.53952020
_cell_length_b   5.53952007
_cell_length_c   4.00580400
_cell_angle_alpha   90.00000000
_cell_angle_beta   90.00000000
_cell_angle_gamma   96.70086164
_symmetry_Int_Tables_number   1
_chemical_formula_structural   MnGa2Pt5
_chemical_formula_sum   'Mn1 Ga2 Pt5'
_cell_volume   122.08353476
_cell_formula_units_Z   1
loop_
 _symmetry_equiv_pos_site_id
 _symmetry_equiv_pos_as_xyz
  1  'x, y, z'
loop_
 _atom_site_type_symbol
 _atom_site_label
 _atom_site_symmetry_multiplicity
 _atom_site_fract_x
 _atom_site_fract_y
 _atom_site_fract_z
 _atom_site_occupancy
  Mn  Mn0  1  0.726781  0.273219  0.500000  1
  Ga  Ga1  1  0.980695  0.019305  0.000000  1
  Ga  Ga2  1  0.285828  0.714172  0.500000  1
  Pt  Pt3  1  0.506590  0.493410  0.000000  1
  Pt  Pt4  1  0.006816  0.511397  0.000000  1
  Pt  Pt5  1  0.488603  0.993184  0.000000  1
  Pt  Pt6  1  0.219393  0.214705  0.500000  1
  Pt  Pt7  1  0.785295  0.780607  0.500000  1
