# generated using pymatgen
data_DyY(Lu4Bi3)2
_symmetry_space_group_name_H-M   'P 1'
_cell_length_a   8.17593000
_cell_length_b   9.38703400
_cell_length_c   11.86616700
_cell_angle_alpha   90.00000000
_cell_angle_beta   90.00000000
_cell_angle_gamma   90.00000000
_symmetry_Int_Tables_number   1
_chemical_formula_structural   DyY(Lu4Bi3)2
_chemical_formula_sum   'Dy2 Y2 Lu16 Bi12'
_cell_volume   910.70141536
_cell_formula_units_Z   2
loop_
 _symmetry_equiv_pos_site_id
 _symmetry_equiv_pos_as_xyz
  1  'x, y, z'
loop_
 _atom_site_type_symbol
 _atom_site_label
 _atom_site_symmetry_multiplicity
 _atom_site_fract_x
 _atom_site_fract_y
 _atom_site_fract_z
 _atom_site_occupancy
  Dy  Dy0  1  0.313259  0.250000  0.217713  1
  Dy  Dy1  1  0.813259  0.250000  0.282287  1
  Y  Y2  1  0.686555  0.750000  0.782190  1
  Y  Y3  1  0.186555  0.750000  0.717810  1
  Lu  Lu4  1  0.352591  0.750000  0.218512  1
  Lu  Lu5  1  0.852591  0.750000  0.281488  1
  Lu  Lu6  1  0.647446  0.250000  0.781552  1
  Lu  Lu7  1  0.147446  0.250000  0.718448  1
  Lu  Lu8  1  0.692750  0.567264  0.060305  1
  Lu  Lu9  1  0.192750  0.932736  0.439695  1
  Lu  Lu10  1  0.307269  0.067338  0.939824  1
  Lu  Lu11  1  0.807269  0.432662  0.560176  1
  Lu  Lu12  1  0.307269  0.432662  0.939824  1
  Lu  Lu13  1  0.807269  0.067338  0.560176  1
  Lu  Lu14  1  0.692750  0.932736  0.060305  1
  Lu  Lu15  1  0.192750  0.567264  0.439695  1
  Lu  Lu16  1  0.476647  0.250000  0.489066  1
  Lu  Lu17  1  0.976647  0.250000  0.010934  1
  Lu  Lu18  1  0.523357  0.750000  0.510637  1
  Lu  Lu19  1  0.023357  0.750000  0.989363  1
  Bi  Bi20  1  0.403464  0.750000  0.959917  1
  Bi  Bi21  1  0.903464  0.750000  0.540083  1
  Bi  Bi22  1  0.596537  0.250000  0.040350  1
  Bi  Bi23  1  0.096537  0.250000  0.459650  1
  Bi  Bi24  1  0.565869  0.994291  0.326062  1
  Bi  Bi25  1  0.065869  0.505709  0.173938  1
  Bi  Bi26  1  0.434183  0.494056  0.673776  1
  Bi  Bi27  1  0.934183  0.005944  0.826224  1
  Bi  Bi28  1  0.434183  0.005944  0.673776  1
  Bi  Bi29  1  0.934183  0.494056  0.826224  1
  Bi  Bi30  1  0.565869  0.505709  0.326062  1
  Bi  Bi31  1  0.065869  0.994291  0.173938  1
