# generated using pymatgen
data_LiPr16Mg2CdIr4
_symmetry_space_group_name_H-M   'P 1'
_cell_length_a   10.07641067
_cell_length_b   10.08299746
_cell_length_c   10.08299730
_cell_angle_alpha   60.20552175
_cell_angle_beta   60.06784409
_cell_angle_gamma   60.06784799
_symmetry_Int_Tables_number   1
_chemical_formula_structural   LiPr16Mg2CdIr4
_chemical_formula_sum   'Li1 Pr16 Mg2 Cd1 Ir4'
_cell_volume   726.25006255
_cell_formula_units_Z   1
loop_
 _symmetry_equiv_pos_site_id
 _symmetry_equiv_pos_as_xyz
  1  'x, y, z'
loop_
 _atom_site_type_symbol
 _atom_site_label
 _atom_site_symmetry_multiplicity
 _atom_site_fract_x
 _atom_site_fract_y
 _atom_site_fract_z
 _atom_site_occupancy
  Li  Li0  1  0.571303  0.574868  0.574868  1
  Pr  Pr1  1  0.346408  0.347105  0.347105  1
  Pr  Pr2  1  0.346895  0.347283  0.959576  1
  Pr  Pr3  1  0.346895  0.959576  0.347283  1
  Pr  Pr4  1  0.961415  0.346829  0.346829  1
  Pr  Pr5  1  0.811408  0.189247  0.189247  1
  Pr  Pr6  1  0.188728  0.810476  0.810476  1
  Pr  Pr7  1  0.190387  0.810283  0.190610  1
  Pr  Pr8  1  0.812354  0.186475  0.812005  1
  Pr  Pr9  1  0.190387  0.190610  0.810283  1
  Pr  Pr10  1  0.812354  0.812005  0.186475  1
  Pr  Pr11  1  0.938697  0.561542  0.561542  1
  Pr  Pr12  1  0.561845  0.937607  0.937607  1
  Pr  Pr13  1  0.562376  0.936760  0.561991  1
  Pr  Pr14  1  0.939673  0.561424  0.936911  1
  Pr  Pr15  1  0.562376  0.561991  0.936760  1
  Pr  Pr16  1  0.939673  0.936911  0.561424  1
  Mg  Mg17  1  0.577149  0.579328  0.264454  1
  Mg  Mg18  1  0.577149  0.264454  0.579328  1
  Cd  Cd19  1  0.258224  0.580872  0.580872  1
  Ir  Ir20  1  0.141986  0.141932  0.141932  1
  Ir  Ir21  1  0.142804  0.142760  0.576827  1
  Ir  Ir22  1  0.142804  0.576827  0.142760  1
  Ir  Ir23  1  0.576709  0.142834  0.142834  1
