# generated using pymatgen
data_Ho4(Pd3Au)3
_symmetry_space_group_name_H-M   'P 1'
_cell_length_a   7.19628056
_cell_length_b   7.19628119
_cell_length_c   7.19628160
_cell_angle_alpha   108.45173261
_cell_angle_beta   108.45172891
_cell_angle_gamma   111.53002231
_symmetry_Int_Tables_number   1
_chemical_formula_structural   Ho4(Pd3Au)3
_chemical_formula_sum   'Ho4 Pd9 Au3'
_cell_volume   286.60254027
_cell_formula_units_Z   1
loop_
 _symmetry_equiv_pos_site_id
 _symmetry_equiv_pos_as_xyz
  1  'x, y, z'
loop_
 _atom_site_type_symbol
 _atom_site_label
 _atom_site_symmetry_multiplicity
 _atom_site_fract_x
 _atom_site_fract_y
 _atom_site_fract_z
 _atom_site_occupancy
  Ho  Ho0  1  0.246274  0.246274  0.492549  1
  Ho  Ho1  1  0.753726  0.753726  0.507451  1
  Ho  Ho2  1  0.246274  0.753726  0.000000  1
  Ho  Ho3  1  0.753726  0.246274  0.000000  1
  Pd  Pd4  1  0.499870  0.250802  0.249066  1
  Pd  Pd5  1  0.500130  0.749198  0.750934  1
  Pd  Pd6  1  0.001736  0.250802  0.750934  1
  Pd  Pd7  1  0.250802  0.001736  0.750934  1
  Pd  Pd8  1  0.998264  0.749198  0.249066  1
  Pd  Pd9  1  0.749198  0.998264  0.249066  1
  Pd  Pd10  1  0.250802  0.499870  0.249066  1
  Pd  Pd11  1  0.749198  0.500130  0.750934  1
  Pd  Pd12  1  0.000000  0.000000  0.000000  1
  Au  Au13  1  0.500000  0.000000  0.500000  1
  Au  Au14  1  0.000000  0.500000  0.500000  1
  Au  Au15  1  0.500000  0.500000  0.000000  1
