# generated using pymatgen
data_HoEr2In3Rh2Au
_symmetry_space_group_name_H-M   'P 1'
_cell_length_a   7.73918386
_cell_length_b   7.73432372
_cell_length_c   3.78690800
_cell_angle_alpha   90.00000000
_cell_angle_beta   90.00000000
_cell_angle_gamma   119.96679632
_symmetry_Int_Tables_number   1
_chemical_formula_structural   HoEr2In3Rh2Au
_chemical_formula_sum   'Ho1 Er2 In3 Rh2 Au1'
_cell_volume   196.37134099
_cell_formula_units_Z   1
loop_
 _symmetry_equiv_pos_site_id
 _symmetry_equiv_pos_as_xyz
  1  'x, y, z'
loop_
 _atom_site_type_symbol
 _atom_site_label
 _atom_site_symmetry_multiplicity
 _atom_site_fract_x
 _atom_site_fract_y
 _atom_site_fract_z
 _atom_site_occupancy
  Ho  Ho0  1  0.020443  0.608202  0.500000  1
  Er  Er1  1  0.391240  0.411908  0.500000  1
  Er  Er2  1  0.588238  0.979448  0.500000  1
  In  In3  1  0.258239  0.998281  0.000000  1
  In  In4  1  0.739485  0.742249  0.000000  1
  In  In5  1  0.002357  0.259863  0.000000  1
  Rh  Rh6  1  0.334339  0.666938  0.000000  1
  Rh  Rh7  1  0.999940  0.000441  0.500000  1
  Au  Au8  1  0.665719  0.332670  0.000000  1
