# generated using pymatgen
data_YbPu3H10
_symmetry_space_group_name_H-M   'P 1'
_cell_length_a   6.46682085
_cell_length_b   6.46681999
_cell_length_c   6.46681982
_cell_angle_alpha   132.53909135
_cell_angle_beta   131.22253843
_cell_angle_gamma   70.42269339
_symmetry_Int_Tables_number   1
_chemical_formula_structural   YbPu3H10
_chemical_formula_sum   'Yb1 Pu3 H10'
_cell_volume   146.87144243
_cell_formula_units_Z   1
loop_
 _symmetry_equiv_pos_site_id
 _symmetry_equiv_pos_as_xyz
  1  'x, y, z'
loop_
 _atom_site_type_symbol
 _atom_site_label
 _atom_site_symmetry_multiplicity
 _atom_site_fract_x
 _atom_site_fract_y
 _atom_site_fract_z
 _atom_site_occupancy
  Yb  Yb0  1  0.509836  0.009836  0.500000  1
  Pu  Pu1  1  0.236447  0.236447  0.000000  1
  Pu  Pu2  1  0.988215  0.488215  0.500000  1
  Pu  Pu3  1  0.763144  0.763144  0.000000  1
  H  H4  1  0.598641  0.619068  0.470868  1
  H  H5  1  0.148200  0.127772  0.529132  1
  H  H6  1  0.598641  0.127772  0.979572  1
  H  H7  1  0.148200  0.619068  0.020428  1
  H  H8  1  0.375193  0.404031  0.528325  1
  H  H9  1  0.875706  0.846867  0.471675  1
  H  H10  1  0.875706  0.404031  0.028839  1
  H  H11  1  0.375193  0.846867  0.971161  1
  H  H12  1  0.757825  0.257825  0.500000  1
  H  H13  1  0.999054  0.999054  0.000000  1
