# generated using pymatgen
data_Lu16In6RuRh
_symmetry_space_group_name_H-M   'P 1'
_cell_length_a   10.21639300
_cell_length_b   10.21639249
_cell_length_c   6.88861500
_cell_angle_alpha   90.00000000
_cell_angle_beta   90.00000000
_cell_angle_gamma   120.00000488
_symmetry_Int_Tables_number   1
_chemical_formula_structural   Lu16In6RuRh
_chemical_formula_sum   'Lu16 In6 Ru1 Rh1'
_cell_volume   622.66962929
_cell_formula_units_Z   1
loop_
 _symmetry_equiv_pos_site_id
 _symmetry_equiv_pos_as_xyz
  1  'x, y, z'
loop_
 _atom_site_type_symbol
 _atom_site_label
 _atom_site_symmetry_multiplicity
 _atom_site_fract_x
 _atom_site_fract_y
 _atom_site_fract_z
 _atom_site_occupancy
  Lu  Lu0  1  0.532475  0.064950  0.524272  1
  Lu  Lu1  1  0.935050  0.467525  0.524272  1
  Lu  Lu2  1  0.532475  0.467525  0.524272  1
  Lu  Lu3  1  0.467950  0.935900  0.024746  1
  Lu  Lu4  1  0.064100  0.532050  0.024746  1
  Lu  Lu5  1  0.467950  0.532050  0.024746  1
  Lu  Lu6  1  0.177030  0.354060  0.729006  1
  Lu  Lu7  1  0.645940  0.822970  0.729006  1
  Lu  Lu8  1  0.177030  0.822970  0.729006  1
  Lu  Lu9  1  0.822692  0.645385  0.229168  1
  Lu  Lu10  1  0.354615  0.177308  0.229168  1
  Lu  Lu11  1  0.822692  0.177308  0.229168  1
  Lu  Lu12  1  0.666667  0.333333  0.903245  1
  Lu  Lu13  1  0.333333  0.666667  0.403253  1
  Lu  Lu14  1  0.000000  0.000000  0.507177  1
  Lu  Lu15  1  0.000000  0.000000  0.006854  1
  In  In16  1  0.837236  0.674472  0.769313  1
  In  In17  1  0.325528  0.162764  0.769313  1
  In  In18  1  0.837236  0.162764  0.769313  1
  In  In19  1  0.162857  0.325715  0.269318  1
  In  In20  1  0.674285  0.837143  0.269318  1
  In  In21  1  0.162857  0.837143  0.269318  1
  Ru  Ru22  1  0.666667  0.333333  0.299281  1
  Rh  Rh23  1  0.333333  0.666667  0.798400  1
