# generated using pymatgen
data_TbHo7(Sc3Si4)4
_symmetry_space_group_name_H-M   'P 1'
_cell_length_a   7.09116210
_cell_length_b   7.38129719
_cell_length_c   13.99067525
_cell_angle_alpha   90.01962314
_cell_angle_beta   90.00932516
_cell_angle_gamma   90.01703840
_symmetry_Int_Tables_number   1
_chemical_formula_structural   TbHo7(Sc3Si4)4
_chemical_formula_sum   'Tb1 Ho7 Sc12 Si16'
_cell_volume   732.29948774
_cell_formula_units_Z   1
loop_
 _symmetry_equiv_pos_site_id
 _symmetry_equiv_pos_as_xyz
  1  'x, y, z'
loop_
 _atom_site_type_symbol
 _atom_site_label
 _atom_site_symmetry_multiplicity
 _atom_site_fract_x
 _atom_site_fract_y
 _atom_site_fract_z
 _atom_site_occupancy
  Tb  Tb0  1  0.011980  0.175066  0.096689  1
  Ho  Ho1  1  0.987793  0.824491  0.902909  1
  Ho  Ho2  1  0.488004  0.675473  0.902965  1
  Ho  Ho3  1  0.987869  0.824517  0.596979  1
  Ho  Ho4  1  0.512030  0.324690  0.096912  1
  Ho  Ho5  1  0.012130  0.175471  0.402943  1
  Ho  Ho6  1  0.512128  0.324536  0.403167  1
  Ho  Ho7  1  0.487877  0.675457  0.596945  1
  Sc  Sc8  1  0.160598  0.502789  0.749986  1
  Sc  Sc9  1  0.839279  0.497334  0.250132  1
  Sc  Sc10  1  0.339501  0.002685  0.250094  1
  Sc  Sc11  1  0.660664  0.997156  0.750020  1
  Sc  Sc12  1  0.330703  0.176769  0.625146  1
  Sc  Sc13  1  0.669297  0.823265  0.374971  1
  Sc  Sc14  1  0.169315  0.676742  0.374961  1
  Sc  Sc15  1  0.669181  0.823016  0.125144  1
  Sc  Sc16  1  0.830635  0.323223  0.625141  1
  Sc  Sc17  1  0.330817  0.176751  0.874772  1
  Sc  Sc18  1  0.830478  0.323479  0.874804  1
  Sc  Sc19  1  0.169452  0.676597  0.125140  1
  Si  Si20  1  0.033128  0.117000  0.749965  1
  Si  Si21  1  0.966768  0.882570  0.250185  1
  Si  Si22  1  0.466862  0.616926  0.250027  1
  Si  Si23  1  0.533107  0.383046  0.749955  1
  Si  Si24  1  0.285305  0.873215  0.749987  1
  Si  Si25  1  0.714192  0.126629  0.250325  1
  Si  Si26  1  0.215098  0.373660  0.250294  1
  Si  Si27  1  0.785322  0.626846  0.750001  1
  Si  Si28  1  0.158009  0.464825  0.539454  1
  Si  Si29  1  0.842028  0.535130  0.460554  1
  Si  Si30  1  0.341891  0.964895  0.460573  1
  Si  Si31  1  0.841716  0.535721  0.039272  1
  Si  Si32  1  0.658035  0.035136  0.539468  1
  Si  Si33  1  0.158230  0.465382  0.960364  1
  Si  Si34  1  0.657720  0.035059  0.960460  1
  Si  Si35  1  0.342861  0.964451  0.039296  1
