# generated using pymatgen
data_Mn7Te7F
_symmetry_space_group_name_H-M   'P 1'
_cell_length_a   9.34041133
_cell_length_b   8.13699180
_cell_length_c   11.09345868
_cell_angle_alpha   91.27920738
_cell_angle_beta   46.17854143
_cell_angle_gamma   117.26429563
_symmetry_Int_Tables_number   1
_chemical_formula_structural   Mn7Te7F
_chemical_formula_sum   'Mn7 Te7 F1'
_cell_volume   480.19885016
_cell_formula_units_Z   1
loop_
 _symmetry_equiv_pos_site_id
 _symmetry_equiv_pos_as_xyz
  1  'x, y, z'
loop_
 _atom_site_type_symbol
 _atom_site_label
 _atom_site_symmetry_multiplicity
 _atom_site_fract_x
 _atom_site_fract_y
 _atom_site_fract_z
 _atom_site_occupancy
  Mn  Mn0  1  0.411627  0.148932  0.392566  1
  Mn  Mn1  1  0.115401  0.442390  0.487653  1
  Mn  Mn2  1  0.508557  0.845961  0.593536  1
  Mn  Mn3  1  0.282828  0.030796  0.090947  1
  Mn  Mn4  1  0.069070  0.385654  0.154597  1
  Mn  Mn5  1  0.275148  0.225870  0.808671  1
  Mn  Mn6  1  0.718479  0.743496  0.893670  1
  Te  Te7  1  0.604937  0.155279  0.701040  1
  Te  Te8  1  0.284734  0.724461  0.195580  1
  Te  Te9  1  0.878105  0.963038  0.203059  1
  Te  Te10  1  0.144823  0.738523  0.631527  1
  Te  Te11  1  0.064933  0.186158  0.711252  1
  Te  Te12  1  0.413502  0.343474  0.184781  1
  Te  Te13  1  0.540749  0.624009  0.747987  1
  F  F14  1  0.764119  0.338234  0.255225  1
