# generated using pymatgen
data_Zr2PaP4Pd7
_symmetry_space_group_name_H-M   'P 1'
_cell_length_a   7.75751299
_cell_length_b   7.75751294
_cell_length_c   9.32172758
_cell_angle_alpha   56.29917543
_cell_angle_beta   56.29917612
_cell_angle_gamma   29.52723949
_symmetry_Int_Tables_number   1
_chemical_formula_structural   Zr2PaP4Pd7
_chemical_formula_sum   'Zr2 Pa1 P4 Pd7'
_cell_volume   226.42606067
_cell_formula_units_Z   1
loop_
 _symmetry_equiv_pos_site_id
 _symmetry_equiv_pos_as_xyz
  1  'x, y, z'
loop_
 _atom_site_type_symbol
 _atom_site_label
 _atom_site_symmetry_multiplicity
 _atom_site_fract_x
 _atom_site_fract_y
 _atom_site_fract_z
 _atom_site_occupancy
  Zr  Zr0  1  0.683621  0.683621  0.317787  1
  Zr  Zr1  1  0.316379  0.316379  0.682213  1
  Pa  Pa2  1  0.000000  0.000000  0.000000  1
  P  P3  1  0.340289  0.340289  0.247595  1
  P  P4  1  0.659711  0.659711  0.752405  1
  P  P5  1  0.893327  0.893327  0.818590  1
  P  P6  1  0.106673  0.106673  0.181410  1
  Pd  Pd7  1  0.309885  0.309885  0.019842  1
  Pd  Pd8  1  0.690115  0.690115  0.980158  1
  Pd  Pd9  1  0.512230  0.512230  0.700470  1
  Pd  Pd10  1  0.829328  0.829328  0.434706  1
  Pd  Pd11  1  0.487770  0.487770  0.299530  1
  Pd  Pd12  1  0.170672  0.170672  0.565294  1
  Pd  Pd13  1  0.000000  0.000000  0.500000  1
