# generated using pymatgen
data_Na3Eu(BO3)2
_symmetry_space_group_name_H-M   'P 1'
_cell_length_a   6.67164567
_cell_length_b   8.88159700
_cell_length_c   10.31343600
_cell_angle_alpha   90.00000000
_cell_angle_beta   90.95651052
_cell_angle_gamma   90.00000000
_symmetry_Int_Tables_number   1
_chemical_formula_structural   Na3Eu(BO3)2
_chemical_formula_sum   'Na12 Eu4 B8 O24'
_cell_volume   611.03613297
_cell_formula_units_Z   4
loop_
 _symmetry_equiv_pos_site_id
 _symmetry_equiv_pos_as_xyz
  1  'x, y, z'
loop_
 _atom_site_type_symbol
 _atom_site_label
 _atom_site_symmetry_multiplicity
 _atom_site_fract_x
 _atom_site_fract_y
 _atom_site_fract_z
 _atom_site_occupancy
  Na  Na0  1  0.979127  0.811422  0.396564  1
  Na  Na1  1  0.520873  0.311422  0.103436  1
  Na  Na2  1  0.216620  0.563234  0.606999  1
  Na  Na3  1  0.520856  0.736596  0.343538  1
  Na  Na4  1  0.783380  0.436766  0.393001  1
  Na  Na5  1  0.479127  0.688578  0.896564  1
  Na  Na6  1  0.479144  0.263404  0.656462  1
  Na  Na7  1  0.020873  0.188578  0.603436  1
  Na  Na8  1  0.979144  0.236596  0.156462  1
  Na  Na9  1  0.283380  0.063234  0.893001  1
  Na  Na10  1  0.716620  0.936766  0.106999  1
  Na  Na11  1  0.020856  0.763404  0.843538  1
  Eu  Eu12  1  0.338410  0.112076  0.355716  1
  Eu  Eu13  1  0.838410  0.387924  0.855716  1
  Eu  Eu14  1  0.661590  0.887924  0.644284  1
  Eu  Eu15  1  0.161590  0.612076  0.144284  1
  B  B16  1  0.755884  0.567770  0.626744  1
  B  B17  1  0.777630  0.097839  0.362098  1
  B  B18  1  0.744116  0.067770  0.873256  1
  B  B19  1  0.255884  0.932230  0.126744  1
  B  B20  1  0.277630  0.402161  0.862098  1
  B  B21  1  0.722370  0.597839  0.137902  1
  B  B22  1  0.244116  0.432230  0.373256  1
  B  B23  1  0.222370  0.902161  0.637902  1
  O  O24  1  0.672390  0.210392  0.296263  1
  O  O25  1  0.983546  0.102091  0.370095  1
  O  O26  1  0.696713  0.653585  0.520848  1
  O  O27  1  0.683313  0.919024  0.883303  1
  O  O28  1  0.516454  0.602091  0.129905  1
  O  O29  1  0.483546  0.397909  0.870095  1
  O  O30  1  0.183313  0.580976  0.383303  1
  O  O31  1  0.740199  0.133493  0.749961  1
  O  O32  1  0.240199  0.366507  0.249961  1
  O  O33  1  0.165703  0.519757  0.915477  1
  O  O34  1  0.759801  0.633493  0.750039  1
  O  O35  1  0.816687  0.419024  0.616697  1
  O  O36  1  0.016454  0.897909  0.629905  1
  O  O37  1  0.196713  0.846415  0.020848  1
  O  O38  1  0.259801  0.866507  0.250039  1
  O  O39  1  0.327610  0.789608  0.703737  1
  O  O40  1  0.803287  0.153585  0.979152  1
  O  O41  1  0.316687  0.080976  0.116697  1
  O  O42  1  0.334297  0.019757  0.584523  1
  O  O43  1  0.834297  0.480243  0.084523  1
  O  O44  1  0.827610  0.710392  0.203737  1
  O  O45  1  0.665703  0.980243  0.415477  1
  O  O46  1  0.172390  0.289608  0.796263  1
  O  O47  1  0.303287  0.346415  0.479152  1
