# generated using pymatgen
data_NdHoMo2O7
_symmetry_space_group_name_H-M   'P 1'
_cell_length_a   7.43954163
_cell_length_b   7.54745200
_cell_length_c   7.43928835
_cell_angle_alpha   59.51787116
_cell_angle_beta   59.16923218
_cell_angle_gamma   59.51900373
_symmetry_Int_Tables_number   1
_chemical_formula_structural   NdHoMo2O7
_chemical_formula_sum   'Nd2 Ho2 Mo4 O14'
_cell_volume   291.34114695
_cell_formula_units_Z   2
loop_
 _symmetry_equiv_pos_site_id
 _symmetry_equiv_pos_as_xyz
  1  'x, y, z'
loop_
 _atom_site_type_symbol
 _atom_site_label
 _atom_site_symmetry_multiplicity
 _atom_site_fract_x
 _atom_site_fract_y
 _atom_site_fract_z
 _atom_site_occupancy
  Nd  Nd0  1  0.125000  0.125000  0.125000  1
  Nd  Nd1  1  0.125000  0.625000  0.125000  1
  Ho  Ho2  1  0.625000  0.125000  0.125000  1
  Ho  Ho3  1  0.125000  0.125000  0.625000  1
  Mo  Mo4  1  0.625000  0.625000  0.625000  1
  Mo  Mo5  1  0.125000  0.625000  0.625000  1
  Mo  Mo6  1  0.625000  0.625000  0.125000  1
  Mo  Mo7  1  0.625000  0.125000  0.625000  1
  O  O8  1  0.995407  0.004594  0.995405  1
  O  O9  1  0.254593  0.245406  0.254595  1
  O  O10  1  0.287983  0.288958  0.704093  1
  O  O11  1  0.545903  0.531046  0.962007  1
  O  O12  1  0.716078  0.283931  0.716061  1
  O  O13  1  0.704097  0.288956  0.287993  1
  O  O14  1  0.287983  0.718966  0.704093  1
  O  O15  1  0.290107  0.709896  0.290102  1
  O  O16  1  0.704097  0.718954  0.287993  1
  O  O17  1  0.962017  0.531034  0.545907  1
  O  O18  1  0.545903  0.961044  0.962007  1
  O  O19  1  0.962017  0.961042  0.545907  1
  O  O20  1  0.959893  0.540104  0.959898  1
  O  O21  1  0.533922  0.966069  0.533939  1
