# generated using pymatgen
data_Nd3P6(Pd4Rh)4
_symmetry_space_group_name_H-M   'P 1'
_cell_length_a   8.70228915
_cell_length_b   8.72091047
_cell_length_c   8.72091091
_cell_angle_alpha   59.85235566
_cell_angle_beta   59.79505756
_cell_angle_gamma   59.79505250
_symmetry_Int_Tables_number   1
_chemical_formula_structural   Nd3P6(Pd4Rh)4
_chemical_formula_sum   'Nd3 P6 Pd16 Rh4'
_cell_volume   466.02151480
_cell_formula_units_Z   1
loop_
 _symmetry_equiv_pos_site_id
 _symmetry_equiv_pos_as_xyz
  1  'x, y, z'
loop_
 _atom_site_type_symbol
 _atom_site_label
 _atom_site_symmetry_multiplicity
 _atom_site_fract_x
 _atom_site_fract_y
 _atom_site_fract_z
 _atom_site_occupancy
  Nd  Nd0  1  0.258098  0.248318  0.248318  1
  Nd  Nd1  1  0.745229  0.747695  0.747695  1
  Nd  Nd2  1  0.000168  0.999616  0.999616  1
  P  P3  1  0.728748  0.266545  0.266545  1
  P  P4  1  0.278405  0.726479  0.726479  1
  P  P5  1  0.270709  0.729366  0.269408  1
  P  P6  1  0.725838  0.273836  0.734332  1
  P  P7  1  0.270709  0.269408  0.729366  1
  P  P8  1  0.725838  0.734332  0.273836  1
  Pd  Pd9  1  0.617911  0.614128  0.155585  1
  Pd  Pd10  1  0.617911  0.155585  0.614128  1
  Pd  Pd11  1  0.847389  0.382908  0.382908  1
  Pd  Pd12  1  0.152066  0.616499  0.616499  1
  Pd  Pd13  1  0.343336  0.001807  0.001807  1
  Pd  Pd14  1  0.654184  0.000144  0.000144  1
  Pd  Pd15  1  0.999198  0.346424  0.655609  1
  Pd  Pd16  1  0.999198  0.655609  0.346424  1
  Pd  Pd17  1  0.999974  0.345547  0.001124  1
  Pd  Pd18  1  0.653367  0.999627  0.347757  1
  Pd  Pd19  1  0.999172  0.655876  0.000563  1
  Pd  Pd20  1  0.344301  0.000664  0.655118  1
  Pd  Pd21  1  0.999974  0.001124  0.345547  1
  Pd  Pd22  1  0.999172  0.000563  0.655876  1
  Pd  Pd23  1  0.653367  0.347757  0.999627  1
  Pd  Pd24  1  0.344301  0.655118  0.000664  1
  Rh  Rh25  1  0.387260  0.388346  0.388346  1
  Rh  Rh26  1  0.615432  0.610738  0.610738  1
  Rh  Rh27  1  0.384372  0.385601  0.840340  1
  Rh  Rh28  1  0.384372  0.840340  0.385601  1
