# generated using pymatgen
data_LuSc5Te2WO18
_symmetry_space_group_name_H-M   'P 1'
_cell_length_a   8.88118120
_cell_length_b   8.87275746
_cell_length_c   4.90258129
_cell_angle_alpha   89.92165494
_cell_angle_beta   90.01659654
_cell_angle_gamma   120.04953400
_symmetry_Int_Tables_number   1
_chemical_formula_structural   LuSc5Te2WO18
_chemical_formula_sum   'Lu1 Sc5 Te2 W1 O18'
_cell_volume   334.40082171
_cell_formula_units_Z   1
loop_
 _symmetry_equiv_pos_site_id
 _symmetry_equiv_pos_as_xyz
  1  'x, y, z'
loop_
 _atom_site_type_symbol
 _atom_site_label
 _atom_site_symmetry_multiplicity
 _atom_site_fract_x
 _atom_site_fract_y
 _atom_site_fract_z
 _atom_site_occupancy
  Lu  Lu0  1  0.627685  0.001071  0.000416  1
  Sc  Sc1  1  0.998918  0.628580  0.000191  1
  Sc  Sc2  1  0.002223  0.294173  0.499258  1
  Sc  Sc3  1  0.372058  0.369539  0.999769  1
  Sc  Sc4  1  0.291865  0.997227  0.498666  1
  Sc  Sc5  1  0.705718  0.707974  0.499642  1
  Te  Te6  1  0.002610  0.000055  0.999910  1
  Te  Te7  1  0.666711  0.336218  0.497705  1
  W  W8  1  0.330584  0.663613  0.505050  1
  O  O9  1  0.091895  0.879551  0.782136  1
  O  O10  1  0.222065  0.764844  0.275920  1
  O  O11  1  0.121591  0.540717  0.727612  1
  O  O12  1  0.411413  0.873296  0.720892  1
  O  O13  1  0.233392  0.454330  0.280610  1
  O  O14  1  0.121269  0.210712  0.780467  1
  O  O15  1  0.212794  0.119431  0.216646  1
  O  O16  1  0.543736  0.774984  0.286957  1
  O  O17  1  0.455908  0.581467  0.732549  1
  O  O18  1  0.794090  0.909863  0.778263  1
  O  O19  1  0.456462  0.235176  0.722665  1
  O  O20  1  0.580223  0.459497  0.275699  1
  O  O21  1  0.538872  0.126939  0.281429  1
  O  O22  1  0.780227  0.547014  0.717434  1
  O  O23  1  0.909281  0.789134  0.218360  1
  O  O24  1  0.768156  0.224250  0.711116  1
  O  O25  1  0.874632  0.418727  0.269859  1
  O  O26  1  0.885619  0.091617  0.220775  1
