# generated using pymatgen
data_Sm6EuFeBr12
_symmetry_space_group_name_H-M   'P 1'
_cell_length_a   9.42625266
_cell_length_b   9.42625311
_cell_length_c   9.42625223
_cell_angle_alpha   106.66717981
_cell_angle_beta   106.66717226
_cell_angle_gamma   106.66716608
_symmetry_Int_Tables_number   1
_chemical_formula_structural   Sm6EuFeBr12
_chemical_formula_sum   'Sm6 Eu1 Fe1 Br12'
_cell_volume   703.76702858
_cell_formula_units_Z   1
loop_
 _symmetry_equiv_pos_site_id
 _symmetry_equiv_pos_as_xyz
  1  'x, y, z'
loop_
 _atom_site_type_symbol
 _atom_site_label
 _atom_site_symmetry_multiplicity
 _atom_site_fract_x
 _atom_site_fract_y
 _atom_site_fract_z
 _atom_site_occupancy
  Sm  Sm0  1  0.804830  0.523317  0.598457  1
  Sm  Sm1  1  0.523317  0.598457  0.804830  1
  Sm  Sm2  1  0.195170  0.476683  0.401543  1
  Sm  Sm3  1  0.476683  0.401543  0.195170  1
  Sm  Sm4  1  0.598457  0.804830  0.523317  1
  Sm  Sm5  1  0.401543  0.195170  0.476683  1
  Eu  Eu6  1  0.000000  0.000000  0.000000  1
  Fe  Fe7  1  0.500000  0.500000  0.500000  1
  Br  Br8  1  0.720587  0.184205  0.572750  1
  Br  Br9  1  0.949543  0.871981  0.649522  1
  Br  Br10  1  0.572750  0.720587  0.184205  1
  Br  Br11  1  0.128019  0.350478  0.050457  1
  Br  Br12  1  0.649522  0.949543  0.871981  1
  Br  Br13  1  0.871981  0.649522  0.949543  1
  Br  Br14  1  0.050457  0.128019  0.350478  1
  Br  Br15  1  0.815795  0.427250  0.279413  1
  Br  Br16  1  0.350478  0.050457  0.128019  1
  Br  Br17  1  0.279413  0.815795  0.427250  1
  Br  Br18  1  0.184205  0.572750  0.720587  1
  Br  Br19  1  0.427250  0.279413  0.815795  1
