# generated using pymatgen
data_MgSc4Co(SeO3)8
_symmetry_space_group_name_H-M   'P 1'
_cell_length_a   8.40268639
_cell_length_b   8.49265390
_cell_length_c   8.51711524
_cell_angle_alpha   86.92765129
_cell_angle_beta   90.12676013
_cell_angle_gamma   89.94397787
_symmetry_Int_Tables_number   1
_chemical_formula_structural   MgSc4Co(SeO3)8
_chemical_formula_sum   'Mg1 Sc4 Co1 Se8 O24'
_cell_volume   606.91531721
_cell_formula_units_Z   1
loop_
 _symmetry_equiv_pos_site_id
 _symmetry_equiv_pos_as_xyz
  1  'x, y, z'
loop_
 _atom_site_type_symbol
 _atom_site_label
 _atom_site_symmetry_multiplicity
 _atom_site_fract_x
 _atom_site_fract_y
 _atom_site_fract_z
 _atom_site_occupancy
  Mg  Mg0  1  0.400829  0.842616  0.157903  1
  Sc  Sc1  1  0.762949  0.748885  0.003500  1
  Sc  Sc2  1  0.734518  0.246254  0.507044  1
  Sc  Sc3  1  0.236917  0.248745  0.003652  1
  Sc  Sc4  1  0.264532  0.745753  0.508044  1
  Co  Co5  1  0.599973  0.341826  0.153093  1
  Se  Se6  1  0.103230  0.552227  0.199051  1
  Se  Se7  1  0.897315  0.052574  0.198416  1
  Se  Se8  1  0.566680  0.454488  0.824796  1
  Se  Se9  1  0.328063  0.153435  0.407867  1
  Se  Se10  1  0.055189  0.422651  0.678517  1
  Se  Se11  1  0.433263  0.953924  0.825994  1
  Se  Se12  1  0.671785  0.653673  0.406774  1
  Se  Se13  1  0.944767  0.922532  0.678625  1
  O  O14  1  0.961625  0.682457  0.125712  1
  O  O15  1  0.314243  0.007665  0.985472  1
  O  O16  1  0.161205  0.271164  0.776608  1
  O  O17  1  0.657512  0.455542  0.358629  1
  O  O18  1  0.752873  0.186670  0.261974  1
  O  O19  1  0.191540  0.489731  0.032342  1
  O  O20  1  0.208095  0.517608  0.576872  1
  O  O21  1  0.619580  0.748990  0.226843  1
  O  O22  1  0.701658  0.360148  0.717111  1
  O  O23  1  0.343372  0.956322  0.357010  1
  O  O24  1  0.968464  0.322418  0.529247  1
  O  O25  1  0.483885  0.299437  0.942453  1
  O  O26  1  0.839143  0.771063  0.776611  1
  O  O27  1  0.506893  0.679227  0.516542  1
  O  O28  1  0.298098  0.859914  0.716839  1
  O  O29  1  0.246102  0.686505  0.260798  1
  O  O30  1  0.380005  0.249244  0.227841  1
  O  O31  1  0.038336  0.182480  0.125856  1
  O  O32  1  0.031157  0.822547  0.529053  1
  O  O33  1  0.516889  0.799289  0.942222  1
  O  O34  1  0.686408  0.506937  0.985878  1
  O  O35  1  0.791874  0.017844  0.576686  1
  O  O36  1  0.492916  0.178507  0.517821  1
  O  O37  1  0.808119  0.990105  0.032109  1
