# generated using pymatgen
data_Dy2Al2CoPd
_symmetry_space_group_name_H-M   'P 1'
_cell_length_a   4.26952400
_cell_length_b   6.78215400
_cell_length_c   7.85865400
_cell_angle_alpha   90.00000000
_cell_angle_beta   90.00000000
_cell_angle_gamma   90.00000000
_symmetry_Int_Tables_number   1
_chemical_formula_structural   Dy2Al2CoPd
_chemical_formula_sum   'Dy4 Al4 Co2 Pd2'
_cell_volume   227.55965896
_cell_formula_units_Z   2
loop_
 _symmetry_equiv_pos_site_id
 _symmetry_equiv_pos_as_xyz
  1  'x, y, z'
loop_
 _atom_site_type_symbol
 _atom_site_label
 _atom_site_symmetry_multiplicity
 _atom_site_fract_x
 _atom_site_fract_y
 _atom_site_fract_z
 _atom_site_occupancy
  Dy  Dy0  1  0.250000  0.043261  0.331529  1
  Dy  Dy1  1  0.250000  0.543261  0.168471  1
  Dy  Dy2  1  0.750000  0.972732  0.684184  1
  Dy  Dy3  1  0.750000  0.472732  0.815816  1
  Al  Al4  1  0.250000  0.129926  0.933003  1
  Al  Al5  1  0.250000  0.629926  0.566997  1
  Al  Al6  1  0.750000  0.856734  0.051259  1
  Al  Al7  1  0.750000  0.356734  0.448741  1
  Co  Co8  1  0.250000  0.266560  0.624179  1
  Co  Co9  1  0.250000  0.766560  0.875821  1
  Pd  Pd10  1  0.750000  0.730787  0.376350  1
  Pd  Pd11  1  0.750000  0.230787  0.123650  1
