# generated using pymatgen
data_Be16Nb2Co
_symmetry_space_group_name_H-M   'P 1'
_cell_length_a   5.57509266
_cell_length_b   5.57509173
_cell_length_c   5.57509153
_cell_angle_alpha   83.24319073
_cell_angle_beta   83.24319130
_cell_angle_gamma   83.24318534
_symmetry_Int_Tables_number   1
_chemical_formula_structural   Be16Nb2Co
_chemical_formula_sum   'Be16 Nb2 Co1'
_cell_volume   169.93485071
_cell_formula_units_Z   1
loop_
 _symmetry_equiv_pos_site_id
 _symmetry_equiv_pos_as_xyz
  1  'x, y, z'
loop_
 _atom_site_type_symbol
 _atom_site_label
 _atom_site_symmetry_multiplicity
 _atom_site_fract_x
 _atom_site_fract_y
 _atom_site_fract_z
 _atom_site_occupancy
  Be  Be0  1  0.602138  0.602138  0.602138  1
  Be  Be1  1  0.499650  0.499650  0.002341  1
  Be  Be2  1  0.499650  0.002341  0.499650  1
  Be  Be3  1  0.002341  0.499650  0.499650  1
  Be  Be4  1  0.497714  0.786744  0.209477  1
  Be  Be5  1  0.786744  0.209477  0.497714  1
  Be  Be6  1  0.209477  0.497714  0.786744  1
  Be  Be7  1  0.497714  0.209477  0.786744  1
  Be  Be8  1  0.209477  0.786744  0.497714  1
  Be  Be9  1  0.786744  0.497714  0.209477  1
  Be  Be10  1  0.658669  0.154797  0.154797  1
  Be  Be11  1  0.154797  0.154797  0.658669  1
  Be  Be12  1  0.154797  0.658669  0.154797  1
  Be  Be13  1  0.847982  0.339913  0.847982  1
  Be  Be14  1  0.339913  0.847982  0.847982  1
  Be  Be15  1  0.847982  0.847982  0.339913  1
  Nb  Nb16  1  0.161637  0.161637  0.161637  1
  Nb  Nb17  1  0.839604  0.839604  0.839604  1
  Co  Co18  1  0.402972  0.402972  0.402972  1
