# generated using pymatgen
data_DyHo3NiHg
_symmetry_space_group_name_H-M   'P 1'
_cell_length_a   9.47013656
_cell_length_b   9.47013523
_cell_length_c   9.47013600
_cell_angle_alpha   59.99999731
_cell_angle_beta   60.00000196
_cell_angle_gamma   60.00000271
_symmetry_Int_Tables_number   1
_chemical_formula_structural   DyHo3NiHg
_chemical_formula_sum   'Dy4 Ho12 Ni4 Hg4'
_cell_volume   600.55618887
_cell_formula_units_Z   4
loop_
 _symmetry_equiv_pos_site_id
 _symmetry_equiv_pos_as_xyz
  1  'x, y, z'
loop_
 _atom_site_type_symbol
 _atom_site_label
 _atom_site_symmetry_multiplicity
 _atom_site_fract_x
 _atom_site_fract_y
 _atom_site_fract_z
 _atom_site_occupancy
  Dy  Dy0  1  0.350738  0.350738  0.350738  1
  Dy  Dy1  1  0.350738  0.350738  0.947786  1
  Dy  Dy2  1  0.350738  0.947786  0.350738  1
  Dy  Dy3  1  0.947786  0.350738  0.350738  1
  Ho  Ho4  1  0.811418  0.188582  0.188582  1
  Ho  Ho5  1  0.188582  0.811418  0.811418  1
  Ho  Ho6  1  0.188582  0.811418  0.188582  1
  Ho  Ho7  1  0.811418  0.188582  0.811418  1
  Ho  Ho8  1  0.188582  0.188582  0.811418  1
  Ho  Ho9  1  0.811418  0.811418  0.188582  1
  Ho  Ho10  1  0.936627  0.563373  0.563373  1
  Ho  Ho11  1  0.563373  0.936627  0.936627  1
  Ho  Ho12  1  0.563373  0.936627  0.563373  1
  Ho  Ho13  1  0.936627  0.563373  0.936627  1
  Ho  Ho14  1  0.563373  0.563373  0.936627  1
  Ho  Ho15  1  0.936627  0.936627  0.563373  1
  Ni  Ni16  1  0.143097  0.143097  0.143097  1
  Ni  Ni17  1  0.143097  0.143097  0.570709  1
  Ni  Ni18  1  0.143097  0.570709  0.143097  1
  Ni  Ni19  1  0.570709  0.143097  0.143097  1
  Hg  Hg20  1  0.584925  0.584925  0.584925  1
  Hg  Hg21  1  0.584925  0.584925  0.245227  1
  Hg  Hg22  1  0.584925  0.245227  0.584925  1
  Hg  Hg23  1  0.245227  0.584925  0.584925  1
