# generated using pymatgen
data_TbYU(GaIr)3
_symmetry_space_group_name_H-M   'P 1'
_cell_length_a   7.19910904
_cell_length_b   7.35718378
_cell_length_c   3.82296900
_cell_angle_alpha   90.00000000
_cell_angle_beta   90.00000000
_cell_angle_gamma   120.74317612
_symmetry_Int_Tables_number   1
_chemical_formula_structural   TbYU(GaIr)3
_chemical_formula_sum   'Tb1 Y1 U1 Ga3 Ir3'
_cell_volume   174.02854544
_cell_formula_units_Z   1
loop_
 _symmetry_equiv_pos_site_id
 _symmetry_equiv_pos_as_xyz
  1  'x, y, z'
loop_
 _atom_site_type_symbol
 _atom_site_label
 _atom_site_symmetry_multiplicity
 _atom_site_fract_x
 _atom_site_fract_y
 _atom_site_fract_z
 _atom_site_occupancy
  Tb  Tb0  1  0.592597  0.002970  0.500000  1
  Y  Y1  1  0.406824  0.410046  0.500000  1
  U  U2  1  0.999894  0.583882  0.500000  1
  Ga  Ga3  1  0.738489  0.748191  0.000000  1
  Ga  Ga4  1  0.261340  0.010312  0.000000  1
  Ga  Ga5  1  0.000452  0.237223  0.000000  1
  Ir  Ir6  1  0.702445  0.363364  0.000000  1
  Ir  Ir7  1  0.298254  0.663076  0.000000  1
  Ir  Ir8  1  0.999704  0.980935  0.500000  1
