# generated using pymatgen
data_Lu4B12IrRu
_symmetry_space_group_name_H-M   'P 1'
_cell_length_a   3.58946600
_cell_length_b   9.03917799
_cell_length_c   11.39778668
_cell_angle_alpha   89.94218525
_cell_angle_beta   90.00000000
_cell_angle_gamma   90.00000000
_symmetry_Int_Tables_number   1
_chemical_formula_structural   Lu4B12IrRu
_chemical_formula_sum   'Lu8 B24 Ir2 Ru2'
_cell_volume   369.81037022
_cell_formula_units_Z   2
loop_
 _symmetry_equiv_pos_site_id
 _symmetry_equiv_pos_as_xyz
  1  'x, y, z'
loop_
 _atom_site_type_symbol
 _atom_site_label
 _atom_site_symmetry_multiplicity
 _atom_site_fract_x
 _atom_site_fract_y
 _atom_site_fract_z
 _atom_site_occupancy
  Lu  Lu0  1  0.000000  0.322360  0.415178  1
  Lu  Lu1  1  0.000000  0.677640  0.584822  1
  Lu  Lu2  1  0.000000  0.817612  0.088263  1
  Lu  Lu3  1  0.000000  0.182388  0.911737  1
  Lu  Lu4  1  0.000000  0.941614  0.374973  1
  Lu  Lu5  1  0.000000  0.058386  0.625027  1
  Lu  Lu6  1  0.000000  0.445131  0.126530  1
  Lu  Lu7  1  0.000000  0.554869  0.873470  1
  B  B8  1  0.500000  0.553539  0.434099  1
  B  B9  1  0.500000  0.446461  0.565901  1
  B  B10  1  0.500000  0.053375  0.065060  1
  B  B11  1  0.500000  0.946625  0.934940  1
  B  B12  1  0.500000  0.749248  0.420549  1
  B  B13  1  0.500000  0.250752  0.579451  1
  B  B14  1  0.500000  0.250951  0.078823  1
  B  B15  1  0.500000  0.749049  0.921177  1
  B  B16  1  0.500000  0.792466  0.265272  1
  B  B17  1  0.500000  0.207534  0.734728  1
  B  B18  1  0.500000  0.292963  0.235331  1
  B  B19  1  0.500000  0.707037  0.764669  1
  B  B20  1  0.500000  0.631166  0.184199  1
  B  B21  1  0.500000  0.368834  0.815801  1
  B  B22  1  0.500000  0.131055  0.317173  1
  B  B23  1  0.500000  0.868945  0.682827  1
  B  B24  1  0.500000  0.980396  0.213515  1
  B  B25  1  0.500000  0.019604  0.786485  1
  B  B26  1  0.500000  0.481400  0.287302  1
  B  B27  1  0.500000  0.518600  0.712698  1
  B  B28  1  0.500000  0.606979  0.029284  1
  B  B29  1  0.500000  0.393021  0.970716  1
  B  B30  1  0.500000  0.107615  0.470337  1
  B  B31  1  0.500000  0.892385  0.529663  1
  Ir  Ir32  1  0.000000  0.137554  0.178533  1
  Ir  Ir33  1  0.000000  0.862446  0.821467  1
  Ru  Ru34  1  0.000000  0.637879  0.321028  1
  Ru  Ru35  1  0.000000  0.362121  0.678972  1
