# generated using pymatgen
data_Hf4Co3Si4Pt
_symmetry_space_group_name_H-M   'P 1'
_cell_length_a   3.83833500
_cell_length_b   6.43973719
_cell_length_c   7.24895902
_cell_angle_alpha   89.37695611
_cell_angle_beta   90.00000000
_cell_angle_gamma   90.00000000
_symmetry_Int_Tables_number   1
_chemical_formula_structural   Hf4Co3Si4Pt
_chemical_formula_sum   'Hf4 Co3 Si4 Pt1'
_cell_volume   179.16822329
_cell_formula_units_Z   1
loop_
 _symmetry_equiv_pos_site_id
 _symmetry_equiv_pos_as_xyz
  1  'x, y, z'
loop_
 _atom_site_type_symbol
 _atom_site_label
 _atom_site_symmetry_multiplicity
 _atom_site_fract_x
 _atom_site_fract_y
 _atom_site_fract_z
 _atom_site_occupancy
  Hf  Hf0  1  0.250000  0.006859  0.315520  1
  Hf  Hf1  1  0.250000  0.519864  0.192234  1
  Hf  Hf2  1  0.750000  0.981741  0.678847  1
  Hf  Hf3  1  0.750000  0.485974  0.808726  1
  Co  Co4  1  0.250000  0.645576  0.565910  1
  Co  Co5  1  0.750000  0.853887  0.066435  1
  Co  Co6  1  0.750000  0.357234  0.435326  1
  Si  Si7  1  0.250000  0.282268  0.596943  1
  Si  Si8  1  0.250000  0.769807  0.886857  1
  Si  Si9  1  0.750000  0.718748  0.390420  1
  Si  Si10  1  0.750000  0.227211  0.130537  1
  Pt  Pt11  1  0.250000  0.150833  0.932245  1
