# generated using pymatgen
data_BiRhF7
_symmetry_space_group_name_H-M   'P 1'
_cell_length_a   5.72385200
_cell_length_b   6.12679836
_cell_length_c   8.35666300
_cell_angle_alpha   101.87613263
_cell_angle_beta   90.00000000
_cell_angle_gamma   90.00000000
_symmetry_Int_Tables_number   1
_chemical_formula_structural   BiRhF7
_chemical_formula_sum   'Bi2 Rh2 F14'
_cell_volume   286.78588634
_cell_formula_units_Z   2
loop_
 _symmetry_equiv_pos_site_id
 _symmetry_equiv_pos_as_xyz
  1  'x, y, z'
loop_
 _atom_site_type_symbol
 _atom_site_label
 _atom_site_symmetry_multiplicity
 _atom_site_fract_x
 _atom_site_fract_y
 _atom_site_fract_z
 _atom_site_occupancy
  Bi  Bi0  1  0.696362  0.657988  0.687069  1
  Bi  Bi1  1  0.196362  0.342012  0.312931  1
  Rh  Rh2  1  0.711302  0.810394  0.225469  1
  Rh  Rh3  1  0.211302  0.189606  0.774531  1
  F  F4  1  0.884730  0.443841  0.475707  1
  F  F5  1  0.384730  0.556159  0.524293  1
  F  F6  1  0.419109  0.935192  0.771723  1
  F  F7  1  0.919109  0.064808  0.228277  1
  F  F8  1  0.945103  0.982837  0.762352  1
  F  F9  1  0.445103  0.017163  0.237648  1
  F  F10  1  0.005182  0.446841  0.789051  1
  F  F11  1  0.505182  0.553159  0.210949  1
  F  F12  1  0.705592  0.763900  0.990348  1
  F  F13  1  0.205592  0.236100  0.009652  1
  F  F14  1  0.716524  0.866209  0.463829  1
  F  F15  1  0.216524  0.133791  0.536171  1
  F  F16  1  0.492456  0.385310  0.789740  1
  F  F17  1  0.992456  0.614690  0.210260  1
