# generated using pymatgen
data_Yb12Ga12Sb5(RhO16)3
_symmetry_space_group_name_H-M   'P 1'
_cell_length_a   10.85075624
_cell_length_b   10.81853963
_cell_length_c   10.81854000
_cell_angle_alpha   109.41082349
_cell_angle_beta   109.53155493
_cell_angle_gamma   109.53155557
_symmetry_Int_Tables_number   1
_chemical_formula_structural   Yb12Ga12Sb5(RhO16)3
_chemical_formula_sum   'Yb12 Ga12 Sb5 Rh3 O48'
_cell_volume   976.90304701
_cell_formula_units_Z   1
loop_
 _symmetry_equiv_pos_site_id
 _symmetry_equiv_pos_as_xyz
  1  'x, y, z'
loop_
 _atom_site_type_symbol
 _atom_site_label
 _atom_site_symmetry_multiplicity
 _atom_site_fract_x
 _atom_site_fract_y
 _atom_site_fract_z
 _atom_site_occupancy
  Yb  Yb0  1  0.257454  0.378187  0.134255  1
  Yb  Yb1  1  0.379268  0.756068  0.121812  1
  Yb  Yb2  1  0.379166  0.128754  0.249556  1
  Yb  Yb3  1  0.876800  0.634255  0.256068  1
  Yb  Yb4  1  0.129610  0.250444  0.379198  1
  Yb  Yb5  1  0.750412  0.120801  0.371246  1
  Yb  Yb6  1  0.249588  0.879197  0.628754  1
  Yb  Yb7  1  0.870390  0.749556  0.620802  1
  Yb  Yb8  1  0.123198  0.365745  0.743932  1
  Yb  Yb9  1  0.620834  0.871246  0.750444  1
  Yb  Yb10  1  0.620732  0.243932  0.878186  1
  Yb  Yb11  1  0.742546  0.621813  0.865745  1
  Ga  Ga12  1  0.750689  0.877139  0.127077  1
  Ga  Ga13  1  0.871870  0.246067  0.123120  1
  Ga  Ga14  1  0.623612  0.372923  0.250062  1
  Ga  Ga15  1  0.125804  0.877054  0.253935  1
  Ga  Ga16  1  0.626450  0.750062  0.377139  1
  Ga  Ga17  1  0.251250  0.623120  0.377054  1
  Ga  Ga18  1  0.748750  0.376880  0.622946  1
  Ga  Ga19  1  0.373550  0.249938  0.622861  1
  Ga  Ga20  1  0.874196  0.122946  0.746066  1
  Ga  Ga21  1  0.376388  0.627077  0.749938  1
  Ga  Ga22  1  0.249312  0.122861  0.872923  1
  Ga  Ga23  1  0.128130  0.753934  0.876880  1
  Sb  Sb24  1  0.000000  0.000000  0.000000  1
  Sb  Sb25  1  0.500000  0.500000  0.000000  1
  Sb  Sb26  1  0.000000  0.499999  0.000000  1
  Sb  Sb27  1  0.500000  0.000000  0.500000  1
  Sb  Sb28  1  0.000000  0.500000  0.500000  1
  Rh  Rh29  1  0.499999  0.000000  0.000000  1
  Rh  Rh30  1  0.000000  0.000000  0.499999  1
  Rh  Rh31  1  0.499999  0.499999  0.499999  1
  O  O32  1  0.319943  0.906191  0.028599  1
  O  O33  1  0.201248  0.121406  0.024563  1
  O  O34  1  0.701685  0.677116  0.079976  1
  O  O35  1  0.881337  0.405141  0.083870  1
  O  O36  1  0.976196  0.678729  0.094859  1
  O  O37  1  0.621709  0.420024  0.097140  1
  O  O38  1  0.594173  0.913230  0.120777  1
  O  O39  1  0.024527  0.201808  0.120845  1
  O  O40  1  0.475431  0.597139  0.177116  1
  O  O41  1  0.202533  0.583870  0.178729  1
  O  O42  1  0.121213  0.024160  0.201465  1
  O  O43  1  0.586560  0.179506  0.207354  1
  O  O44  1  0.473396  0.379223  0.292453  1
  O  O45  1  0.322718  0.919036  0.298191  1
  O  O46  1  0.907054  0.027847  0.320494  1
  O  O47  1  0.919748  0.298534  0.322696  1
  O  O48  1  0.291344  0.471401  0.377592  1
  O  O49  1  0.579842  0.903157  0.378593  1
  O  O50  1  0.823314  0.524563  0.403156  1
  O  O51  1  0.086247  0.877592  0.406191  1
  O  O52  1  0.819057  0.792453  0.413230  1
  O  O53  1  0.096319  0.620845  0.419037  1
  O  O54  1  0.597052  0.177304  0.475839  1
  O  O55  1  0.379206  0.292646  0.472153  1
  O  O56  1  0.620794  0.707354  0.527847  1
  O  O57  1  0.402946  0.822695  0.524160  1
  O  O58  1  0.903681  0.379154  0.580963  1
  O  O59  1  0.180943  0.207547  0.586770  1
  O  O60  1  0.913753  0.122408  0.593809  1
  O  O61  1  0.176685  0.475436  0.596842  1
  O  O62  1  0.420158  0.096843  0.621406  1
  O  O63  1  0.708656  0.528599  0.622408  1
  O  O64  1  0.080251  0.701466  0.677304  1
  O  O65  1  0.092946  0.972153  0.679506  1
  O  O66  1  0.677282  0.080963  0.701809  1
  O  O67  1  0.526604  0.620777  0.707547  1
  O  O68  1  0.413440  0.820494  0.792646  1
  O  O69  1  0.878786  0.975839  0.798533  1
  O  O70  1  0.797467  0.416130  0.821271  1
  O  O71  1  0.524568  0.402859  0.822883  1
  O  O72  1  0.975472  0.798190  0.879154  1
  O  O73  1  0.405827  0.086770  0.879223  1
  O  O74  1  0.378290  0.579976  0.902860  1
  O  O75  1  0.023804  0.321271  0.905141  1
  O  O76  1  0.118663  0.594859  0.916130  1
  O  O77  1  0.298315  0.322884  0.920023  1
  O  O78  1  0.680057  0.093809  0.971401  1
  O  O79  1  0.798750  0.878593  0.975436  1
