# generated using pymatgen
data_TiV3(Bi2O5)4
_symmetry_space_group_name_H-M   'P 1'
_cell_length_a   3.95518700
_cell_length_b   11.25125719
_cell_length_c   11.32007305
_cell_angle_alpha   89.90841955
_cell_angle_beta   90.00000000
_cell_angle_gamma   90.00000000
_symmetry_Int_Tables_number   1
_chemical_formula_structural   TiV3(Bi2O5)4
_chemical_formula_sum   'Ti1 V3 Bi8 O20'
_cell_volume   503.75195934
_cell_formula_units_Z   1
loop_
 _symmetry_equiv_pos_site_id
 _symmetry_equiv_pos_as_xyz
  1  'x, y, z'
loop_
 _atom_site_type_symbol
 _atom_site_label
 _atom_site_symmetry_multiplicity
 _atom_site_fract_x
 _atom_site_fract_y
 _atom_site_fract_z
 _atom_site_occupancy
  Ti  Ti0  1  0.750000  0.801252  0.371435  1
  V  V1  1  0.250000  0.197064  0.629338  1
  V  V2  1  0.750000  0.303241  0.128887  1
  V  V3  1  0.250000  0.696263  0.871719  1
  Bi  Bi4  1  0.250000  0.097513  0.276721  1
  Bi  Bi5  1  0.250000  0.137624  0.949168  1
  Bi  Bi6  1  0.750000  0.360938  0.447411  1
  Bi  Bi7  1  0.750000  0.399800  0.775183  1
  Bi  Bi8  1  0.250000  0.598526  0.223394  1
  Bi  Bi9  1  0.250000  0.635953  0.551439  1
  Bi  Bi10  1  0.750000  0.862964  0.052499  1
  Bi  Bi11  1  0.750000  0.898486  0.725357  1
  O  O12  1  0.750000  0.991127  0.899189  1
  O  O13  1  0.250000  0.049536  0.666029  1
  O  O14  1  0.250000  0.251510  0.470096  1
  O  O15  1  0.750000  0.203641  0.264972  1
  O  O16  1  0.750000  0.247524  0.625054  1
  O  O17  1  0.250000  0.254307  0.124105  1
  O  O18  1  0.250000  0.298243  0.764429  1
  O  O19  1  0.750000  0.249325  0.969549  1
  O  O20  1  0.750000  0.451584  0.166396  1
  O  O21  1  0.250000  0.508483  0.397825  1
  O  O22  1  0.750000  0.493520  0.600645  1
  O  O23  1  0.250000  0.548794  0.832946  1
  O  O24  1  0.250000  0.750605  0.030750  1
  O  O25  1  0.750000  0.701980  0.233395  1
  O  O26  1  0.750000  0.745597  0.875334  1
  O  O27  1  0.250000  0.753573  0.374252  1
  O  O28  1  0.250000  0.796797  0.736072  1
  O  O29  1  0.750000  0.753338  0.533234  1
  O  O30  1  0.750000  0.952285  0.331260  1
  O  O31  1  0.250000  0.008607  0.101917  1
