# generated using pymatgen
data_Er(Ga3Ni)3
_symmetry_space_group_name_H-M   'P 1'
_cell_length_a   10.08321587
_cell_length_b   10.08321503
_cell_length_c   10.08321317
_cell_angle_alpha   42.34194629
_cell_angle_beta   42.34195091
_cell_angle_gamma   42.34194966
_symmetry_Int_Tables_number   1
_chemical_formula_structural   Er(Ga3Ni)3
_chemical_formula_sum   'Er2 Ga18 Ni6'
_cell_volume   421.00036322
_cell_formula_units_Z   2
loop_
 _symmetry_equiv_pos_site_id
 _symmetry_equiv_pos_as_xyz
  1  'x, y, z'
loop_
 _atom_site_type_symbol
 _atom_site_label
 _atom_site_symmetry_multiplicity
 _atom_site_fract_x
 _atom_site_fract_y
 _atom_site_fract_z
 _atom_site_occupancy
  Er  Er0  1  0.167035  0.167035  0.167035  1
  Er  Er1  1  0.832965  0.832965  0.832965  1
  Ga  Ga2  1  0.051404  0.051404  0.051404  1
  Ga  Ga3  1  0.709126  0.500000  0.290874  1
  Ga  Ga4  1  0.666184  0.333816  0.000000  1
  Ga  Ga5  1  0.104090  0.434373  0.764673  1
  Ga  Ga6  1  0.434373  0.764673  0.104090  1
  Ga  Ga7  1  0.386345  0.386345  0.386345  1
  Ga  Ga8  1  0.333816  0.000000  0.666184  1
  Ga  Ga9  1  0.613655  0.613655  0.613655  1
  Ga  Ga10  1  0.235327  0.565627  0.895910  1
  Ga  Ga11  1  0.565627  0.895910  0.235327  1
  Ga  Ga12  1  0.500000  0.290874  0.709126  1
  Ga  Ga13  1  0.764673  0.104090  0.434373  1
  Ga  Ga14  1  0.948596  0.948596  0.948596  1
  Ga  Ga15  1  0.290874  0.709126  0.500000  1
  Ga  Ga16  1  0.000000  0.666184  0.333816  1
  Ga  Ga17  1  0.717224  0.717224  0.717224  1
  Ga  Ga18  1  0.282776  0.282776  0.282776  1
  Ga  Ga19  1  0.895910  0.235327  0.565627  1
  Ni  Ni20  1  0.240442  0.921639  0.581857  1
  Ni  Ni21  1  0.921639  0.581857  0.240442  1
  Ni  Ni22  1  0.759558  0.418143  0.078361  1
  Ni  Ni23  1  0.078361  0.759558  0.418143  1
  Ni  Ni24  1  0.418143  0.078361  0.759558  1
  Ni  Ni25  1  0.581857  0.240442  0.921639  1
