# generated using pymatgen
data_Li2Nd3CdAg2Ir
_symmetry_space_group_name_H-M   'P 1'
_cell_length_a   7.89341066
_cell_length_b   7.79083418
_cell_length_c   3.99078600
_cell_angle_alpha   90.00000000
_cell_angle_beta   90.00000000
_cell_angle_gamma   119.97149306
_symmetry_Int_Tables_number   1
_chemical_formula_structural   Li2Nd3CdAg2Ir
_chemical_formula_sum   'Li2 Nd3 Cd1 Ag2 Ir1'
_cell_volume   212.59958480
_cell_formula_units_Z   1
loop_
 _symmetry_equiv_pos_site_id
 _symmetry_equiv_pos_as_xyz
  1  'x, y, z'
loop_
 _atom_site_type_symbol
 _atom_site_label
 _atom_site_symmetry_multiplicity
 _atom_site_fract_x
 _atom_site_fract_y
 _atom_site_fract_z
 _atom_site_occupancy
  Li  Li0  1  0.002153  0.249067  0.500000  1
  Li  Li1  1  0.749843  0.751854  0.500000  1
  Nd  Nd2  1  0.569132  0.970575  0.000000  1
  Nd  Nd3  1  0.034791  0.605495  0.000000  1
  Nd  Nd4  1  0.399074  0.419325  0.000000  1
  Cd  Cd5  1  0.250551  0.004645  0.500000  1
  Ag  Ag6  1  0.675471  0.339223  0.500000  1
  Ag  Ag7  1  0.984518  0.998690  0.000000  1
  Ir  Ir8  1  0.334469  0.661125  0.500000  1
