# generated using pymatgen
data_Ce7Dy3(SiBi)4
_symmetry_space_group_name_H-M   'P 1'
_cell_length_a   8.62487420
_cell_length_b   8.86531350
_cell_length_c   7.99911000
_cell_angle_alpha   89.93537082
_cell_angle_beta   89.76233628
_cell_angle_gamma   125.69106511
_symmetry_Int_Tables_number   1
_chemical_formula_structural   Ce7Dy3(SiBi)4
_chemical_formula_sum   'Ce7 Dy3 Si4 Bi4'
_cell_volume   496.74100823
_cell_formula_units_Z   1
loop_
 _symmetry_equiv_pos_site_id
 _symmetry_equiv_pos_as_xyz
  1  'x, y, z'
loop_
 _atom_site_type_symbol
 _atom_site_label
 _atom_site_symmetry_multiplicity
 _atom_site_fract_x
 _atom_site_fract_y
 _atom_site_fract_z
 _atom_site_occupancy
  Ce  Ce0  1  0.054872  0.302042  0.319346  1
  Ce  Ce1  1  0.941744  0.697684  0.680989  1
  Ce  Ce2  1  0.443863  0.201751  0.820670  1
  Ce  Ce3  1  0.806456  0.555548  0.180096  1
  Ce  Ce4  1  0.557030  0.800869  0.181478  1
  Ce  Ce5  1  0.999937  0.997117  0.000018  1
  Ce  Ce6  1  0.502448  0.500959  0.496459  1
  Dy  Dy7  1  0.199881  0.445238  0.824444  1
  Dy  Dy8  1  0.696241  0.943734  0.676584  1
  Dy  Dy9  1  0.298468  0.054523  0.324462  1
  Si  Si10  1  0.385760  0.383041  0.114429  1
  Si  Si11  1  0.611835  0.617332  0.884595  1
  Si  Si12  1  0.111953  0.117501  0.615574  1
  Si  Si13  1  0.887189  0.887193  0.387663  1
  Bi  Bi14  1  0.787860  0.212632  0.993217  1
  Bi  Bi15  1  0.222525  0.791393  0.998293  1
  Bi  Bi16  1  0.708730  0.279383  0.498628  1
  Bi  Bi17  1  0.283210  0.712059  0.503054  1
