# generated using pymatgen
data_La15Yb(CdCo)4
_symmetry_space_group_name_H-M   'P 1'
_cell_length_a   9.97292822
_cell_length_b   9.97292737
_cell_length_c   9.91259300
_cell_angle_alpha   60.19992863
_cell_angle_beta   60.19993142
_cell_angle_gamma   60.25762749
_symmetry_Int_Tables_number   1
_chemical_formula_structural   La15Yb(CdCo)4
_chemical_formula_sum   'La15 Yb1 Cd4 Co4'
_cell_volume   700.59494180
_cell_formula_units_Z   1
loop_
 _symmetry_equiv_pos_site_id
 _symmetry_equiv_pos_as_xyz
  1  'x, y, z'
loop_
 _atom_site_type_symbol
 _atom_site_label
 _atom_site_symmetry_multiplicity
 _atom_site_fract_x
 _atom_site_fract_y
 _atom_site_fract_z
 _atom_site_occupancy
  La  La0  1  0.561588  0.939798  0.560199  1
  La  La1  1  0.561588  0.939798  0.938415  1
  La  La2  1  0.688593  0.688593  0.311407  1
  La  La3  1  0.154104  0.154104  0.535065  1
  La  La4  1  0.307030  0.690176  0.690357  1
  La  La5  1  0.154104  0.154104  0.156725  1
  La  La6  1  0.537161  0.155274  0.153782  1
  La  La7  1  0.307030  0.690176  0.312436  1
  La  La8  1  0.312172  0.312172  0.687828  1
  La  La9  1  0.690176  0.307030  0.690357  1
  La  La10  1  0.939798  0.561588  0.560199  1
  La  La11  1  0.559785  0.559785  0.940215  1
  La  La12  1  0.155274  0.537161  0.153782  1
  La  La13  1  0.690176  0.307030  0.312436  1
  La  La14  1  0.939798  0.561588  0.938415  1
  Yb  Yb15  1  0.939295  0.939295  0.560705  1
  Cd  Cd16  1  0.236893  0.921144  0.920981  1
  Cd  Cd17  1  0.921278  0.921278  0.920363  1
  Cd  Cd18  1  0.921278  0.921278  0.237079  1
  Cd  Cd19  1  0.921144  0.236893  0.920981  1
  Co  Co20  1  0.919261  0.362262  0.359238  1
  Co  Co21  1  0.360104  0.360104  0.919473  1
  Co  Co22  1  0.362262  0.919261  0.359238  1
  Co  Co23  1  0.360104  0.360104  0.360319  1
