# generated using pymatgen
data_Nb19Al8MoAu2
_symmetry_space_group_name_H-M   'P 1'
_cell_length_a   9.96924201
_cell_length_b   9.96733108
_cell_length_c   5.23734900
_cell_angle_alpha   90.00000000
_cell_angle_beta   90.00000000
_cell_angle_gamma   90.00531764
_symmetry_Int_Tables_number   1
_chemical_formula_structural   Nb19Al8MoAu2
_chemical_formula_sum   'Nb19 Al8 Mo1 Au2'
_cell_volume   520.41827185
_cell_formula_units_Z   1
loop_
 _symmetry_equiv_pos_site_id
 _symmetry_equiv_pos_as_xyz
  1  'x, y, z'
loop_
 _atom_site_type_symbol
 _atom_site_label
 _atom_site_symmetry_multiplicity
 _atom_site_fract_x
 _atom_site_fract_y
 _atom_site_fract_z
 _atom_site_occupancy
  Nb  Nb0  1  0.392755  0.397678  0.000000  1
  Nb  Nb1  1  0.897327  0.103620  0.500000  1
  Nb  Nb2  1  0.102406  0.897040  0.500000  1
  Nb  Nb3  1  0.600518  0.602023  0.000000  1
  Nb  Nb4  1  0.966838  0.372869  0.500000  1
  Nb  Nb5  1  0.035810  0.626845  0.500000  1
  Nb  Nb6  1  0.876080  0.533394  0.000000  1
  Nb  Nb7  1  0.370217  0.965500  0.500000  1
  Nb  Nb8  1  0.630225  0.034551  0.500000  1
  Nb  Nb9  1  0.465220  0.130272  0.000000  1
  Nb  Nb10  1  0.534581  0.869906  0.000000  1
  Nb  Nb11  1  0.184245  0.184735  0.253612  1
  Nb  Nb12  1  0.684400  0.316593  0.754211  1
  Nb  Nb13  1  0.315629  0.683291  0.753443  1
  Nb  Nb14  1  0.816099  0.815716  0.253283  1
  Nb  Nb15  1  0.315629  0.683291  0.246557  1
  Nb  Nb16  1  0.684400  0.316593  0.245789  1
  Nb  Nb17  1  0.184245  0.184735  0.746388  1
  Nb  Nb18  1  0.816099  0.815716  0.746717  1
  Al  Al19  1  0.259714  0.934258  0.000000  1
  Al  Al20  1  0.434269  0.240286  0.500000  1
  Al  Al21  1  0.565233  0.759564  0.500000  1
  Al  Al22  1  0.740385  0.065876  0.000000  1
  Al  Al23  1  0.239116  0.434875  0.500000  1
  Al  Al24  1  0.760057  0.565563  0.500000  1
  Al  Al25  1  0.936187  0.261278  0.000000  1
  Al  Al26  1  0.065991  0.738448  0.000000  1
  Mo  Mo27  1  0.127287  0.465731  0.000000  1
  Au  Au28  1  0.000100  0.000345  0.000000  1
  Au  Au29  1  0.498943  0.499404  0.500000  1
