# generated using pymatgen
data_Ac8MgAg7As16
_symmetry_space_group_name_H-M   'P 1'
_cell_length_a   5.94200529
_cell_length_b   5.98840000
_cell_length_c   21.85552300
_cell_angle_alpha   90.00000000
_cell_angle_beta   90.01794469
_cell_angle_gamma   90.00000000
_symmetry_Int_Tables_number   1
_chemical_formula_structural   Ac8MgAg7As16
_chemical_formula_sum   'Ac8 Mg1 Ag7 As16'
_cell_volume   777.68732039
_cell_formula_units_Z   1
loop_
 _symmetry_equiv_pos_site_id
 _symmetry_equiv_pos_as_xyz
  1  'x, y, z'
loop_
 _atom_site_type_symbol
 _atom_site_label
 _atom_site_symmetry_multiplicity
 _atom_site_fract_x
 _atom_site_fract_y
 _atom_site_fract_z
 _atom_site_occupancy
  Ac  Ac0  1  0.255207  0.980812  0.616884  1
  Ac  Ac1  1  0.749205  0.015563  0.379699  1
  Ac  Ac2  1  0.744793  0.980812  0.883116  1
  Ac  Ac3  1  0.250795  0.015563  0.120301  1
  Ac  Ac4  1  0.746459  0.488726  0.611024  1
  Ac  Ac5  1  0.250173  0.513322  0.385410  1
  Ac  Ac6  1  0.253541  0.488726  0.888976  1
  Ac  Ac7  1  0.749827  0.513322  0.114590  1
  Mg  Mg8  1  0.000000  0.238753  0.750000  1
  Ag  Ag9  1  0.500000  0.731499  0.750000  1
  Ag  Ag10  1  0.000000  0.267600  0.250000  1
  Ag  Ag11  1  0.500000  0.267745  0.250000  1
  Ag  Ag12  1  0.000000  0.732426  0.750000  1
  Ag  Ag13  1  0.500000  0.235140  0.750000  1
  Ag  Ag14  1  0.000000  0.763632  0.250000  1
  Ag  Ag15  1  0.500000  0.763887  0.250000  1
  As  As16  1  0.755519  0.990985  0.669199  1
  As  As17  1  0.249745  0.014338  0.332043  1
  As  As18  1  0.244481  0.990985  0.830801  1
  As  As19  1  0.750255  0.014338  0.167957  1
  As  As20  1  0.245190  0.479813  0.667922  1
  As  As21  1  0.749961  0.515340  0.333020  1
  As  As22  1  0.754810  0.479813  0.832078  1
  As  As23  1  0.250039  0.515340  0.166980  1
  As  As24  1  0.030553  0.214658  0.500725  1
  As  As25  1  0.529332  0.777894  0.498884  1
  As  As26  1  0.969447  0.214658  0.999275  1
  As  As27  1  0.470668  0.777894  0.001116  1
  As  As28  1  0.966176  0.785515  0.498716  1
  As  As29  1  0.474956  0.222691  0.500106  1
  As  As30  1  0.033824  0.785515  0.001284  1
  As  As31  1  0.525044  0.222691  0.999894  1
