# generated using pymatgen
data_Zr10CdBi4Pb2Au
_symmetry_space_group_name_H-M   'P 1'
_cell_length_a   8.93307068
_cell_length_b   8.93307047
_cell_length_c   6.00587232
_cell_angle_alpha   89.98143597
_cell_angle_beta   89.98143361
_cell_angle_gamma   119.93214489
_symmetry_Int_Tables_number   1
_chemical_formula_structural   Zr10CdBi4Pb2Au
_chemical_formula_sum   'Zr10 Cd1 Bi4 Pb2 Au1'
_cell_volume   415.34091032
_cell_formula_units_Z   1
loop_
 _symmetry_equiv_pos_site_id
 _symmetry_equiv_pos_as_xyz
  1  'x, y, z'
loop_
 _atom_site_type_symbol
 _atom_site_label
 _atom_site_symmetry_multiplicity
 _atom_site_fract_x
 _atom_site_fract_y
 _atom_site_fract_z
 _atom_site_occupancy
  Zr  Zr0  1  0.666948  0.333075  0.001428  1
  Zr  Zr1  1  0.333075  0.666948  0.001428  1
  Zr  Zr2  1  0.333250  0.666769  0.498571  1
  Zr  Zr3  1  0.666769  0.333250  0.498571  1
  Zr  Zr4  1  0.723522  0.723522  0.755220  1
  Zr  Zr5  1  0.276238  0.999808  0.755961  1
  Zr  Zr6  1  0.999808  0.276238  0.755961  1
  Zr  Zr7  1  0.277271  0.277271  0.244130  1
  Zr  Zr8  1  0.722304  0.001596  0.244400  1
  Zr  Zr9  1  0.001596  0.722304  0.244400  1
  Cd  Cd10  1  0.000454  0.000454  0.498343  1
  Bi  Bi11  1  0.382274  0.382274  0.748021  1
  Bi  Bi12  1  0.616825  0.000574  0.748363  1
  Bi  Bi13  1  0.000574  0.616825  0.748363  1
  Bi  Bi14  1  0.618038  0.618038  0.251391  1
  Pb  Pb15  1  0.380431  0.000154  0.251753  1
  Pb  Pb16  1  0.000154  0.380431  0.251753  1
  Au  Au17  1  0.000468  0.000468  0.001941  1
