# generated using pymatgen
data_YbMnGe2Ir
_symmetry_space_group_name_H-M   'P 1'
_cell_length_a   6.09999227
_cell_length_b   6.09999269
_cell_length_c   6.09999232
_cell_angle_alpha   141.21856924
_cell_angle_beta   141.21857347
_cell_angle_gamma   56.00766270
_symmetry_Int_Tables_number   1
_chemical_formula_structural   YbMnGe2Ir
_chemical_formula_sum   'Yb1 Mn1 Ge2 Ir1'
_cell_volume   88.36192111
_cell_formula_units_Z   1
loop_
 _symmetry_equiv_pos_site_id
 _symmetry_equiv_pos_as_xyz
  1  'x, y, z'
loop_
 _atom_site_type_symbol
 _atom_site_label
 _atom_site_symmetry_multiplicity
 _atom_site_fract_x
 _atom_site_fract_y
 _atom_site_fract_z
 _atom_site_occupancy
  Yb  Yb0  1  0.000000  0.000000  0.000000  1
  Mn  Mn1  1  0.750000  0.250000  0.500000  1
  Ge  Ge2  1  0.381488  0.381488  0.000000  1
  Ge  Ge3  1  0.618512  0.618512  0.000000  1
  Ir  Ir4  1  0.250000  0.750000  0.500000  1
