# generated using pymatgen
data_Ta8Tc4Os3W
_symmetry_space_group_name_H-M   'P 1'
_cell_length_a   6.39914300
_cell_length_b   4.51892800
_cell_length_c   9.02442800
_cell_angle_alpha   90.00000000
_cell_angle_beta   90.00005226
_cell_angle_gamma   90.00000000
_symmetry_Int_Tables_number   1
_chemical_formula_structural   Ta8Tc4Os3W
_chemical_formula_sum   'Ta8 Tc4 Os3 W1'
_cell_volume   260.96178929
_cell_formula_units_Z   1
loop_
 _symmetry_equiv_pos_site_id
 _symmetry_equiv_pos_as_xyz
  1  'x, y, z'
loop_
 _atom_site_type_symbol
 _atom_site_label
 _atom_site_symmetry_multiplicity
 _atom_site_fract_x
 _atom_site_fract_y
 _atom_site_fract_z
 _atom_site_occupancy
  Ta  Ta0  1  0.498578  0.749999  0.125002  1
  Ta  Ta1  1  0.001410  0.749999  0.125003  1
  Ta  Ta2  1  0.498742  0.250000  0.373692  1
  Ta  Ta3  1  0.001278  0.250000  0.373694  1
  Ta  Ta4  1  0.000711  0.749999  0.625002  1
  Ta  Ta5  1  0.499266  0.749999  0.625004  1
  Ta  Ta6  1  0.001280  0.250000  0.876301  1
  Ta  Ta7  1  0.498734  0.250000  0.876303  1
  Tc  Tc8  1  0.750003  0.250000  0.125000  1
  Tc  Tc9  1  0.250000  0.749999  0.377975  1
  Tc  Tc10  1  0.750000  0.250000  0.625001  1
  Tc  Tc11  1  0.249998  0.749999  0.872029  1
  Os  Os12  1  0.749999  0.749999  0.376311  1
  Os  Os13  1  0.250001  0.250000  0.625007  1
  Os  Os14  1  0.749998  0.749999  0.873683  1
  W  W15  1  0.250002  0.250000  0.124994  1
