# generated using pymatgen
data_PrSm2(GaRu)2
_symmetry_space_group_name_H-M   'P 1'
_cell_length_a   5.69003500
_cell_length_b   7.99085500
_cell_length_c   13.88685000
_cell_angle_alpha   90.00000000
_cell_angle_beta   90.00000000
_cell_angle_gamma   90.00000000
_symmetry_Int_Tables_number   1
_chemical_formula_structural   PrSm2(GaRu)2
_chemical_formula_sum   'Pr4 Sm8 Ga8 Ru8'
_cell_volume   631.41069294
_cell_formula_units_Z   4
loop_
 _symmetry_equiv_pos_site_id
 _symmetry_equiv_pos_as_xyz
  1  'x, y, z'
loop_
 _atom_site_type_symbol
 _atom_site_label
 _atom_site_symmetry_multiplicity
 _atom_site_fract_x
 _atom_site_fract_y
 _atom_site_fract_z
 _atom_site_occupancy
  Pr  Pr0  1  0.625882  0.261608  0.750000  1
  Pr  Pr1  1  0.374118  0.738392  0.250000  1
  Pr  Pr2  1  0.625882  0.238392  0.250000  1
  Pr  Pr3  1  0.374118  0.761608  0.750000  1
  Sm  Sm4  1  0.154596  0.402472  0.594298  1
  Sm  Sm5  1  0.845404  0.597528  0.094298  1
  Sm  Sm6  1  0.154596  0.097528  0.405702  1
  Sm  Sm7  1  0.845404  0.902472  0.905702  1
  Sm  Sm8  1  0.845404  0.597528  0.405702  1
  Sm  Sm9  1  0.154596  0.402472  0.905702  1
  Sm  Sm10  1  0.845404  0.902472  0.594298  1
  Sm  Sm11  1  0.154596  0.097528  0.094298  1
  Ga  Ga12  1  0.132575  0.107289  0.750000  1
  Ga  Ga13  1  0.867425  0.892711  0.250000  1
  Ga  Ga14  1  0.132575  0.392711  0.250000  1
  Ga  Ga15  1  0.867425  0.607289  0.750000  1
  Ga  Ga16  1  0.626238  0.250000  0.500000  1
  Ga  Ga17  1  0.373762  0.750000  0.000000  1
  Ga  Ga18  1  0.373762  0.750000  0.500000  1
  Ga  Ga19  1  0.626238  0.250000  0.000000  1
  Ru  Ru20  1  0.351511  0.033848  0.592117  1
  Ru  Ru21  1  0.648489  0.966152  0.092117  1
  Ru  Ru22  1  0.351511  0.466152  0.407883  1
  Ru  Ru23  1  0.648489  0.533848  0.907883  1
  Ru  Ru24  1  0.648489  0.966152  0.407883  1
  Ru  Ru25  1  0.351511  0.033848  0.907883  1
  Ru  Ru26  1  0.648489  0.533848  0.592117  1
  Ru  Ru27  1  0.351511  0.466152  0.092117  1
