# generated using pymatgen
data_Er7P6
_symmetry_space_group_name_H-M   'P 1'
_cell_length_a   6.83412993
_cell_length_b   8.83031057
_cell_length_c   6.83193068
_cell_angle_alpha   75.01801735
_cell_angle_beta   80.45058240
_cell_angle_gamma   49.80131019
_symmetry_Int_Tables_number   1
_chemical_formula_structural   Er7P6
_chemical_formula_sum   'Er7 P6'
_cell_volume   304.20645943
_cell_formula_units_Z   1
loop_
 _symmetry_equiv_pos_site_id
 _symmetry_equiv_pos_as_xyz
  1  'x, y, z'
loop_
 _atom_site_type_symbol
 _atom_site_label
 _atom_site_symmetry_multiplicity
 _atom_site_fract_x
 _atom_site_fract_y
 _atom_site_fract_z
 _atom_site_occupancy
  Er  Er0  1  0.758256  0.066171  0.198661  1
  Er  Er1  1  0.199931  0.491616  0.479331  1
  Er  Er2  1  0.049627  0.360866  0.051766  1
  Er  Er3  1  0.488556  0.775716  0.342733  1
  Er  Er4  1  0.350097  0.625320  0.905041  1
  Er  Er5  1  0.909217  0.209455  0.613667  1
  Er  Er6  1  0.638551  0.918776  0.762909  1
  P  P7  1  0.340809  0.133436  0.409054  1
  P  P8  1  0.628969  0.421637  0.262949  1
  P  P9  1  0.056921  0.850567  0.550188  1
  P  P10  1  0.770133  0.563513  0.693549  1
  P  P11  1  0.486847  0.275456  0.838454  1
  P  P12  1  0.913748  0.709256  0.120850  1
