# generated using pymatgen
data_DyTiCrO5
_symmetry_space_group_name_H-M   'P 1'
_cell_length_a   5.84891300
_cell_length_b   7.46084100
_cell_length_c   8.59681800
_cell_angle_alpha   90.00000000
_cell_angle_beta   90.00000000
_cell_angle_gamma   90.00000000
_symmetry_Int_Tables_number   1
_chemical_formula_structural   DyTiCrO5
_chemical_formula_sum   'Dy4 Ti4 Cr4 O20'
_cell_volume   375.14630977
_cell_formula_units_Z   4
loop_
 _symmetry_equiv_pos_site_id
 _symmetry_equiv_pos_as_xyz
  1  'x, y, z'
loop_
 _atom_site_type_symbol
 _atom_site_label
 _atom_site_symmetry_multiplicity
 _atom_site_fract_x
 _atom_site_fract_y
 _atom_site_fract_z
 _atom_site_occupancy
  Dy  Dy0  1  0.500000  0.358811  0.329732  1
  Dy  Dy1  1  0.500000  0.641189  0.670268  1
  Dy  Dy2  1  0.500000  0.141189  0.829732  1
  Dy  Dy3  1  0.500000  0.858811  0.170268  1
  Ti  Ti4  1  0.000000  0.118156  0.146391  1
  Ti  Ti5  1  0.000000  0.881844  0.853609  1
  Ti  Ti6  1  0.000000  0.381844  0.646391  1
  Ti  Ti7  1  0.000000  0.618156  0.353609  1
  Cr  Cr8  1  0.254049  0.000000  0.500000  1
  Cr  Cr9  1  0.745951  0.000000  0.500000  1
  Cr  Cr10  1  0.745951  0.500000  0.000000  1
  Cr  Cr11  1  0.254049  0.500000  0.000000  1
  O  O12  1  0.252927  0.110347  0.287673  1
  O  O13  1  0.747073  0.889653  0.712327  1
  O  O14  1  0.252927  0.889653  0.712327  1
  O  O15  1  0.747073  0.389653  0.787673  1
  O  O16  1  0.747073  0.110347  0.287673  1
  O  O17  1  0.252927  0.610347  0.212327  1
  O  O18  1  0.747073  0.610347  0.212327  1
  O  O19  1  0.252927  0.389653  0.787673  1
  O  O20  1  0.000000  0.342820  0.078027  1
  O  O21  1  0.000000  0.657180  0.921973  1
  O  O22  1  0.000000  0.157180  0.578027  1
  O  O23  1  0.000000  0.842820  0.421973  1
  O  O24  1  0.500000  0.332615  0.059689  1
  O  O25  1  0.500000  0.667385  0.940311  1
  O  O26  1  0.500000  0.167385  0.559689  1
  O  O27  1  0.500000  0.832615  0.440311  1
  O  O28  1  0.220319  0.000000  0.000000  1
  O  O29  1  0.779681  0.000000  0.000000  1
  O  O30  1  0.779681  0.500000  0.500000  1
  O  O31  1  0.220319  0.500000  0.500000  1
