# generated using pymatgen
data_Zr2UTaBr18
_symmetry_space_group_name_H-M   'P 1'
_cell_length_a   12.62777900
_cell_length_b   7.39139532
_cell_length_c   10.20570639
_cell_angle_alpha   75.75841636
_cell_angle_beta   90.00000000
_cell_angle_gamma   90.00000000
_symmetry_Int_Tables_number   1
_chemical_formula_structural   Zr2UTaBr18
_chemical_formula_sum   'Zr2 U1 Ta1 Br18'
_cell_volume   923.29381430
_cell_formula_units_Z   1
loop_
 _symmetry_equiv_pos_site_id
 _symmetry_equiv_pos_as_xyz
  1  'x, y, z'
loop_
 _atom_site_type_symbol
 _atom_site_label
 _atom_site_symmetry_multiplicity
 _atom_site_fract_x
 _atom_site_fract_y
 _atom_site_fract_z
 _atom_site_occupancy
  Zr  Zr0  1  0.250000  0.759504  0.463317  1
  Zr  Zr1  1  0.750000  0.242916  0.529095  1
  U  U2  1  0.250000  0.646730  0.851005  1
  Ta  Ta3  1  0.750000  0.353743  0.146837  1
  Br  Br4  1  0.612165  0.439383  0.320443  1
  Br  Br5  1  0.106415  0.556955  0.670475  1
  Br  Br6  1  0.393585  0.556955  0.670475  1
  Br  Br7  1  0.887835  0.439383  0.320443  1
  Br  Br8  1  0.750000  0.677444  0.016445  1
  Br  Br9  1  0.250000  0.300590  0.000708  1
  Br  Br10  1  0.750000  0.515988  0.634923  1
  Br  Br11  1  0.250000  0.485257  0.360607  1
  Br  Br12  1  0.750000  0.028739  0.331930  1
  Br  Br13  1  0.250000  0.985824  0.658657  1
  Br  Br14  1  0.894651  0.245106  0.027985  1
  Br  Br15  1  0.403684  0.758366  0.987764  1
  Br  Br16  1  0.096316  0.758366  0.987764  1
  Br  Br17  1  0.605349  0.245106  0.027985  1
  Br  Br18  1  0.902984  0.057551  0.650349  1
  Br  Br19  1  0.403325  0.944272  0.346223  1
  Br  Br20  1  0.096675  0.944272  0.346223  1
  Br  Br21  1  0.597016  0.057551  0.650349  1
