# generated using pymatgen
data_Zr2Pa6HgSb9
_symmetry_space_group_name_H-M   'P 1'
_cell_length_a   9.28632100
_cell_length_b   9.28632084
_cell_length_c   6.18593600
_cell_angle_alpha   90.00000000
_cell_angle_beta   90.00000000
_cell_angle_gamma   119.99999700
_symmetry_Int_Tables_number   1
_chemical_formula_structural   Zr2Pa6HgSb9
_chemical_formula_sum   'Zr2 Pa6 Hg1 Sb9'
_cell_volume   461.98028619
_cell_formula_units_Z   1
loop_
 _symmetry_equiv_pos_site_id
 _symmetry_equiv_pos_as_xyz
  1  'x, y, z'
loop_
 _atom_site_type_symbol
 _atom_site_label
 _atom_site_symmetry_multiplicity
 _atom_site_fract_x
 _atom_site_fract_y
 _atom_site_fract_z
 _atom_site_occupancy
  Zr  Zr0  1  0.000000  0.000000  0.000000  1
  Zr  Zr1  1  0.000000  0.000000  0.500000  1
  Pa  Pa2  1  0.384733  0.000041  0.751035  1
  Pa  Pa3  1  0.384733  0.384691  0.248965  1
  Pa  Pa4  1  0.999959  0.615267  0.248965  1
  Pa  Pa5  1  0.999959  0.384691  0.751035  1
  Pa  Pa6  1  0.615309  0.615267  0.751035  1
  Pa  Pa7  1  0.615309  0.000041  0.248965  1
  Hg  Hg8  1  0.666667  0.333333  0.500000  1
  Sb  Sb9  1  0.333333  0.666667  0.000000  1
  Sb  Sb10  1  0.726796  0.001637  0.747690  1
  Sb  Sb11  1  0.726796  0.725160  0.252310  1
  Sb  Sb12  1  0.333333  0.666667  0.500000  1
  Sb  Sb13  1  0.666667  0.333333  0.000000  1
  Sb  Sb14  1  0.274840  0.001637  0.252310  1
  Sb  Sb15  1  0.274840  0.273204  0.747690  1
  Sb  Sb16  1  0.998363  0.725160  0.747690  1
  Sb  Sb17  1  0.998363  0.273204  0.252310  1
