# generated using pymatgen
data_Dy12HoLuRh6
_symmetry_space_group_name_H-M   'P 1'
_cell_length_a   9.79169400
_cell_length_b   9.79169385
_cell_length_c   6.16734400
_cell_angle_alpha   90.00000000
_cell_angle_beta   90.00000000
_cell_angle_gamma   120.00000726
_symmetry_Int_Tables_number   1
_chemical_formula_structural   Dy12HoLuRh6
_chemical_formula_sum   'Dy12 Ho1 Lu1 Rh6'
_cell_volume   512.08780327
_cell_formula_units_Z   1
loop_
 _symmetry_equiv_pos_site_id
 _symmetry_equiv_pos_as_xyz
  1  'x, y, z'
loop_
 _atom_site_type_symbol
 _atom_site_label
 _atom_site_symmetry_multiplicity
 _atom_site_fract_x
 _atom_site_fract_y
 _atom_site_fract_z
 _atom_site_occupancy
  Dy  Dy0  1  0.876329  0.752658  0.740805  1
  Dy  Dy1  1  0.247342  0.123671  0.740805  1
  Dy  Dy2  1  0.876329  0.123671  0.740805  1
  Dy  Dy3  1  0.124056  0.248113  0.240591  1
  Dy  Dy4  1  0.751887  0.875944  0.240591  1
  Dy  Dy5  1  0.124056  0.875944  0.240591  1
  Dy  Dy6  1  0.458762  0.917527  0.547312  1
  Dy  Dy7  1  0.082473  0.541238  0.547312  1
  Dy  Dy8  1  0.458762  0.541238  0.547312  1
  Dy  Dy9  1  0.540744  0.081485  0.047411  1
  Dy  Dy10  1  0.918515  0.459256  0.047411  1
  Dy  Dy11  1  0.540744  0.459256  0.047411  1
  Ho  Ho12  1  0.666667  0.333333  0.535398  1
  Lu  Lu13  1  0.333333  0.666667  0.033153  1
  Rh  Rh14  1  0.190782  0.381561  0.814707  1
  Rh  Rh15  1  0.618439  0.809218  0.814707  1
  Rh  Rh16  1  0.190782  0.809218  0.814707  1
  Rh  Rh17  1  0.809840  0.619682  0.313470  1
  Rh  Rh18  1  0.380318  0.190160  0.313470  1
  Rh  Rh19  1  0.809840  0.190160  0.313470  1
