# generated using pymatgen
data_NdTh3(Ni12P5)2
_symmetry_space_group_name_H-M   'P 1'
_cell_length_a   3.69563100
_cell_length_b   10.82564271
_cell_length_c   13.12408990
_cell_angle_alpha   71.97649115
_cell_angle_beta   90.00000000
_cell_angle_gamma   90.00000000
_symmetry_Int_Tables_number   1
_chemical_formula_structural   NdTh3(Ni12P5)2
_chemical_formula_sum   'Nd1 Th3 Ni24 P10'
_cell_volume   499.29805460
_cell_formula_units_Z   1
loop_
 _symmetry_equiv_pos_site_id
 _symmetry_equiv_pos_as_xyz
  1  'x, y, z'
loop_
 _atom_site_type_symbol
 _atom_site_label
 _atom_site_symmetry_multiplicity
 _atom_site_fract_x
 _atom_site_fract_y
 _atom_site_fract_z
 _atom_site_occupancy
  Nd  Nd0  1  0.750000  0.752580  0.812511  1
  Th  Th1  1  0.250000  0.278985  0.683004  1
  Th  Th2  1  0.750000  0.721213  0.316909  1
  Th  Th3  1  0.250000  0.245361  0.188312  1
  Ni  Ni4  1  0.250000  0.837692  0.139378  1
  Ni  Ni5  1  0.750000  0.161988  0.861101  1
  Ni  Ni6  1  0.250000  0.286081  0.439121  1
  Ni  Ni7  1  0.750000  0.714092  0.560282  1
  Ni  Ni8  1  0.250000  0.070293  0.016461  1
  Ni  Ni9  1  0.750000  0.929591  0.983849  1
  Ni  Ni10  1  0.250000  0.064067  0.445985  1
  Ni  Ni11  1  0.750000  0.935594  0.553766  1
  Ni  Ni12  1  0.250000  0.597142  0.696244  1
  Ni  Ni13  1  0.750000  0.403544  0.303410  1
  Ni  Ni14  1  0.250000  0.582792  0.008092  1
  Ni  Ni15  1  0.750000  0.418206  0.991226  1
  Ni  Ni16  1  0.250000  0.580030  0.508685  1
  Ni  Ni17  1  0.750000  0.420228  0.491314  1
  Ni  Ni18  1  0.250000  0.298296  0.918510  1
  Ni  Ni19  1  0.750000  0.702334  0.082158  1
  Ni  Ni20  1  0.250000  0.993646  0.659600  1
  Ni  Ni21  1  0.750000  0.006023  0.340383  1
  Ni  Ni22  1  0.250000  0.839817  0.436438  1
  Ni  Ni23  1  0.750000  0.160014  0.563227  1
  Ni  Ni24  1  0.250000  0.987799  0.848961  1
  Ni  Ni25  1  0.750000  0.011194  0.151613  1
  Ni  Ni26  1  0.250000  0.565012  0.203305  1
  Ni  Ni27  1  0.750000  0.434765  0.796664  1
  P  P28  1  0.250000  0.509133  0.871021  1
  P  P29  1  0.750000  0.491581  0.128426  1
  P  P30  1  0.250000  0.800064  0.984593  1
  P  P31  1  0.750000  0.199789  0.016354  1
  P  P32  1  0.250000  0.493647  0.377971  1
  P  P33  1  0.750000  0.506613  0.622120  1
  P  P34  1  0.250000  0.812212  0.610138  1
  P  P35  1  0.750000  0.187978  0.388901  1
  P  P36  1  0.250000  0.953421  0.257964  1
  P  P37  1  0.750000  0.047186  0.742000  1
