# generated using pymatgen
data_Tm8Sc11Si16Ag
_symmetry_space_group_name_H-M   'P 1'
_cell_length_a   6.98138698
_cell_length_b   7.35335105
_cell_length_c   13.93489700
_cell_angle_alpha   90.00000000
_cell_angle_beta   90.00000000
_cell_angle_gamma   89.89484385
_symmetry_Int_Tables_number   1
_chemical_formula_structural   Tm8Sc11Si16Ag
_chemical_formula_sum   'Tm8 Sc11 Si16 Ag1'
_cell_volume   715.36887949
_cell_formula_units_Z   1
loop_
 _symmetry_equiv_pos_site_id
 _symmetry_equiv_pos_as_xyz
  1  'x, y, z'
loop_
 _atom_site_type_symbol
 _atom_site_label
 _atom_site_symmetry_multiplicity
 _atom_site_fract_x
 _atom_site_fract_y
 _atom_site_fract_z
 _atom_site_occupancy
  Tm  Tm0  1  0.011223  0.176783  0.096087  1
  Tm  Tm1  1  0.990338  0.814370  0.901709  1
  Tm  Tm2  1  0.484917  0.674510  0.902335  1
  Tm  Tm3  1  0.990338  0.814370  0.598291  1
  Tm  Tm4  1  0.510460  0.322595  0.095906  1
  Tm  Tm5  1  0.011223  0.176783  0.403913  1
  Tm  Tm6  1  0.510460  0.322595  0.404094  1
  Tm  Tm7  1  0.484917  0.674510  0.597665  1
  Sc  Sc8  1  0.838172  0.496248  0.250000  1
  Sc  Sc9  1  0.340412  0.003912  0.250000  1
  Sc  Sc10  1  0.657266  0.996812  0.750000  1
  Sc  Sc11  1  0.325611  0.182383  0.626890  1
  Sc  Sc12  1  0.671008  0.823765  0.374834  1
  Sc  Sc13  1  0.170455  0.678889  0.374081  1
  Sc  Sc14  1  0.671008  0.823765  0.125166  1
  Sc  Sc15  1  0.836041  0.326809  0.626811  1
  Sc  Sc16  1  0.325611  0.182383  0.873110  1
  Sc  Sc17  1  0.836041  0.326809  0.873189  1
  Sc  Sc18  1  0.170455  0.678889  0.125919  1
  Si  Si19  1  0.026998  0.095603  0.750000  1
  Si  Si20  1  0.969704  0.890061  0.250000  1
  Si  Si21  1  0.467996  0.613897  0.250000  1
  Si  Si22  1  0.535705  0.387632  0.750000  1
  Si  Si23  1  0.288193  0.879476  0.750000  1
  Si  Si24  1  0.714235  0.130428  0.250000  1
  Si  Si25  1  0.213051  0.369759  0.250000  1
  Si  Si26  1  0.776144  0.631745  0.750000  1
  Si  Si27  1  0.163018  0.460405  0.531766  1
  Si  Si28  1  0.841362  0.535297  0.462288  1
  Si  Si29  1  0.343311  0.965978  0.462696  1
  Si  Si30  1  0.841362  0.535297  0.037712  1
  Si  Si31  1  0.659019  0.033525  0.540219  1
  Si  Si32  1  0.163018  0.460405  0.968234  1
  Si  Si33  1  0.659019  0.033525  0.959781  1
  Si  Si34  1  0.343311  0.965978  0.037304  1
  Ag  Ag35  1  0.158596  0.513809  0.750000  1
