# generated using pymatgen
data_Zr14Zn3Pd17
_symmetry_space_group_name_H-M   'P 1'
_cell_length_a   8.09700995
_cell_length_b   8.23760670
_cell_length_c   9.73831411
_cell_angle_alpha   90.73913548
_cell_angle_beta   89.27521838
_cell_angle_gamma   107.00210481
_symmetry_Int_Tables_number   1
_chemical_formula_structural   Zr14Zn3Pd17
_chemical_formula_sum   'Zr14 Zn3 Pd17'
_cell_volume   621.07791496
_cell_formula_units_Z   1
loop_
 _symmetry_equiv_pos_site_id
 _symmetry_equiv_pos_as_xyz
  1  'x, y, z'
loop_
 _atom_site_type_symbol
 _atom_site_label
 _atom_site_symmetry_multiplicity
 _atom_site_fract_x
 _atom_site_fract_y
 _atom_site_fract_z
 _atom_site_occupancy
  Zr  Zr0  1  0.197388  0.811091  0.996274  1
  Zr  Zr1  1  0.687494  0.311694  0.504796  1
  Zr  Zr2  1  0.309266  0.309933  0.692804  1
  Zr  Zr3  1  0.678758  0.677803  0.324076  1
  Zr  Zr4  1  0.814445  0.193880  0.995355  1
  Zr  Zr5  1  0.999841  0.507072  0.749107  1
  Zr  Zr6  1  0.995611  0.500572  0.246060  1
  Zr  Zr7  1  0.815463  0.818130  0.808660  1
  Zr  Zr8  1  0.493958  0.501463  0.994805  1
  Zr  Zr9  1  0.501417  0.990024  0.250418  1
  Zr  Zr10  1  0.314013  0.694392  0.501986  1
  Zr  Zr11  1  0.504678  0.006137  0.750611  1
  Zr  Zr12  1  0.191874  0.192639  0.188335  1
  Zr  Zr13  1  0.995555  0.987913  0.495083  1
  Zn  Zn14  1  0.888290  0.895576  0.111973  1
  Zn  Zn15  1  0.628328  0.344188  0.206795  1
  Zn  Zn16  1  0.066836  0.346187  0.487513  1
  Pd  Pd17  1  0.650508  0.355199  0.794826  1
  Pd  Pd18  1  0.852180  0.153265  0.292797  1
  Pd  Pd19  1  0.133581  0.850442  0.283152  1
  Pd  Pd20  1  0.607419  0.604059  0.605916  1
  Pd  Pd21  1  0.445326  0.148640  0.005313  1
  Pd  Pd22  1  0.356789  0.652565  0.791390  1
  Pd  Pd23  1  0.149781  0.859299  0.704378  1
  Pd  Pd24  1  0.141646  0.438494  0.992349  1
  Pd  Pd25  1  0.571341  0.854871  0.002740  1
  Pd  Pd26  1  0.946529  0.632891  0.500228  1
  Pd  Pd27  1  0.646285  0.940579  0.503995  1
  Pd  Pd28  1  0.099355  0.092331  0.907268  1
  Pd  Pd29  1  0.392643  0.394803  0.396021  1
  Pd  Pd30  1  0.846046  0.569004  0.013152  1
  Pd  Pd31  1  0.353118  0.062952  0.494140  1
  Pd  Pd32  1  0.875880  0.160482  0.700860  1
  Pd  Pd33  1  0.348357  0.641430  0.206824  1
