# generated using pymatgen
data_Gd4HfMg3Ir4
_symmetry_space_group_name_H-M   'P 1'
_cell_length_a   4.19738000
_cell_length_b   7.12307964
_cell_length_c   8.54993900
_cell_angle_alpha   91.72863208
_cell_angle_beta   90.00000000
_cell_angle_gamma   90.00000000
_symmetry_Int_Tables_number   1
_chemical_formula_structural   Gd4HfMg3Ir4
_chemical_formula_sum   'Gd4 Hf1 Mg3 Ir4'
_cell_volume   255.51206812
_cell_formula_units_Z   1
loop_
 _symmetry_equiv_pos_site_id
 _symmetry_equiv_pos_as_xyz
  1  'x, y, z'
loop_
 _atom_site_type_symbol
 _atom_site_label
 _atom_site_symmetry_multiplicity
 _atom_site_fract_x
 _atom_site_fract_y
 _atom_site_fract_z
 _atom_site_occupancy
  Gd  Gd0  1  0.250000  0.959151  0.321286  1
  Gd  Gd1  1  0.250000  0.477320  0.170980  1
  Gd  Gd2  1  0.750000  0.023337  0.683765  1
  Gd  Gd3  1  0.750000  0.540433  0.829518  1
  Hf  Hf4  1  0.250000  0.364989  0.558620  1
  Mg  Mg5  1  0.250000  0.866601  0.939701  1
  Mg  Mg6  1  0.750000  0.640191  0.432996  1
  Mg  Mg7  1  0.750000  0.141258  0.061099  1
  Ir  Ir8  1  0.250000  0.247869  0.860423  1
  Ir  Ir9  1  0.250000  0.731242  0.623614  1
  Ir  Ir10  1  0.750000  0.760058  0.126380  1
  Ir  Ir11  1  0.750000  0.247549  0.391618  1
