# generated using pymatgen
data_Pr4FeCo3I2
_symmetry_space_group_name_H-M   'P 1'
_cell_length_a   4.03225200
_cell_length_b   4.03225229
_cell_length_c   17.96942400
_cell_angle_alpha   90.00000000
_cell_angle_beta   90.00000000
_cell_angle_gamma   119.99999763
_symmetry_Int_Tables_number   1
_chemical_formula_structural   Pr4FeCo3I2
_chemical_formula_sum   'Pr4 Fe1 Co3 I2'
_cell_volume   253.02309364
_cell_formula_units_Z   1
loop_
 _symmetry_equiv_pos_site_id
 _symmetry_equiv_pos_as_xyz
  1  'x, y, z'
loop_
 _atom_site_type_symbol
 _atom_site_label
 _atom_site_symmetry_multiplicity
 _atom_site_fract_x
 _atom_site_fract_y
 _atom_site_fract_z
 _atom_site_occupancy
  Pr  Pr0  1  0.000000  0.000000  0.107087  1
  Pr  Pr1  1  0.000000  0.000000  0.395476  1
  Pr  Pr2  1  0.000000  0.000000  0.893123  1
  Pr  Pr3  1  0.000000  0.000000  0.604528  1
  Fe  Fe4  1  0.333333  0.666667  0.000639  1
  Co  Co5  1  0.666667  0.333333  0.999406  1
  Co  Co6  1  0.333333  0.666667  0.499695  1
  Co  Co7  1  0.666667  0.333333  0.500239  1
  I  I8  1  0.333333  0.666667  0.749622  1
  I  I9  1  0.666667  0.333333  0.250185  1
