# generated using pymatgen
data_YbHo(ZnRh)2
_symmetry_space_group_name_H-M   'P 1'
_cell_length_a   4.08928500
_cell_length_b   6.88889988
_cell_length_c   7.98306602
_cell_angle_alpha   89.50604274
_cell_angle_beta   90.00000000
_cell_angle_gamma   90.00000000
_symmetry_Int_Tables_number   1
_chemical_formula_structural   YbHo(ZnRh)2
_chemical_formula_sum   'Yb2 Ho2 Zn4 Rh4'
_cell_volume   224.88000065
_cell_formula_units_Z   2
loop_
 _symmetry_equiv_pos_site_id
 _symmetry_equiv_pos_as_xyz
  1  'x, y, z'
loop_
 _atom_site_type_symbol
 _atom_site_label
 _atom_site_symmetry_multiplicity
 _atom_site_fract_x
 _atom_site_fract_y
 _atom_site_fract_z
 _atom_site_occupancy
  Yb  Yb0  1  0.750000  0.972032  0.680599  1
  Yb  Yb1  1  0.250000  0.027968  0.319401  1
  Ho  Ho2  1  0.250000  0.529301  0.182662  1
  Ho  Ho3  1  0.750000  0.470699  0.817338  1
  Zn  Zn4  1  0.250000  0.645798  0.562434  1
  Zn  Zn5  1  0.750000  0.354202  0.437566  1
  Zn  Zn6  1  0.750000  0.855916  0.063208  1
  Zn  Zn7  1  0.250000  0.144084  0.936792  1
  Rh  Rh8  1  0.250000  0.765189  0.875421  1
  Rh  Rh9  1  0.750000  0.234811  0.124579  1
  Rh  Rh10  1  0.750000  0.729331  0.371683  1
  Rh  Rh11  1  0.250000  0.270669  0.628317  1
