# generated using pymatgen
data_Zr2Al2PdPt
_symmetry_space_group_name_H-M   'P 1'
_cell_length_a   7.21576000
_cell_length_b   7.21575996
_cell_length_c   7.17878100
_cell_angle_alpha   90.00000000
_cell_angle_beta   90.00000000
_cell_angle_gamma   119.99999101
_symmetry_Int_Tables_number   1
_chemical_formula_structural   Zr2Al2PdPt
_chemical_formula_sum   'Zr6 Al6 Pd3 Pt3'
_cell_volume   323.70211218
_cell_formula_units_Z   3
loop_
 _symmetry_equiv_pos_site_id
 _symmetry_equiv_pos_as_xyz
  1  'x, y, z'
loop_
 _atom_site_type_symbol
 _atom_site_label
 _atom_site_symmetry_multiplicity
 _atom_site_fract_x
 _atom_site_fract_y
 _atom_site_fract_z
 _atom_site_occupancy
  Zr  Zr0  1  0.019117  0.604191  0.750506  1
  Zr  Zr1  1  0.979852  0.584601  0.249731  1
  Zr  Zr2  1  0.604749  0.020148  0.249731  1
  Zr  Zr3  1  0.585074  0.980883  0.750506  1
  Zr  Zr4  1  0.415399  0.395251  0.249731  1
  Zr  Zr5  1  0.395809  0.414926  0.750506  1
  Al  Al6  1  0.000474  0.258263  0.500767  1
  Al  Al7  1  0.740472  0.740985  0.000279  1
  Al  Al8  1  0.000513  0.259528  0.000279  1
  Al  Al9  1  0.257789  0.999526  0.500767  1
  Al  Al10  1  0.259015  0.999487  0.000279  1
  Al  Al11  1  0.741737  0.742211  0.500767  1
  Pd  Pd12  1  0.333333  0.666667  0.470136  1
  Pd  Pd13  1  0.000000  0.000000  0.248896  1
  Pd  Pd14  1  0.000000  0.000000  0.752044  1
  Pt  Pt15  1  0.666667  0.333333  0.526265  1
  Pt  Pt16  1  0.666667  0.333333  0.973610  1
  Pt  Pt17  1  0.333333  0.666667  0.025201  1
