# generated using pymatgen
data_Ca6DyHoSb6
_symmetry_space_group_name_H-M   'P 1'
_cell_length_a   8.13093694
_cell_length_b   8.20023908
_cell_length_c   8.13097206
_cell_angle_alpha   109.45942147
_cell_angle_beta   109.02689339
_cell_angle_gamma   109.47118318
_symmetry_Int_Tables_number   1
_chemical_formula_structural   Ca6DyHoSb6
_chemical_formula_sum   'Ca6 Dy1 Ho1 Sb6'
_cell_volume   419.66464614
_cell_formula_units_Z   1
loop_
 _symmetry_equiv_pos_site_id
 _symmetry_equiv_pos_as_xyz
  1  'x, y, z'
loop_
 _atom_site_type_symbol
 _atom_site_label
 _atom_site_symmetry_multiplicity
 _atom_site_fract_x
 _atom_site_fract_y
 _atom_site_fract_z
 _atom_site_occupancy
  Ca  Ca0  1  0.141598  0.497426  0.999768  1
  Ca  Ca1  1  0.499743  0.997306  0.641516  1
  Ca  Ca2  1  0.353954  0.356795  0.356257  1
  Ca  Ca3  1  0.002113  0.145984  0.502650  1
  Ca  Ca4  1  0.856289  0.856872  0.853878  1
  Ca  Ca5  1  0.002802  0.646031  0.502295  1
  Dy  Dy6  1  0.643114  0.499571  0.999746  1
  Ho  Ho7  1  0.499764  0.999590  0.142941  1
  Sb  Sb8  1  0.865400  0.249737  0.125453  1
  Sb  Sb9  1  0.122966  0.871093  0.243734  1
  Sb  Sb10  1  0.382097  0.629538  0.761203  1
  Sb  Sb11  1  0.261076  0.128857  0.882327  1
  Sb  Sb12  1  0.743668  0.370842  0.622399  1
  Sb  Sb13  1  0.625418  0.750358  0.365834  1
