# generated using pymatgen
data_Gd8Cd4PtAu7
_symmetry_space_group_name_H-M   'P 1'
_cell_length_a   8.00953106
_cell_length_b   8.00953217
_cell_length_c   7.46485400
_cell_angle_alpha   90.13139467
_cell_angle_beta   90.13139468
_cell_angle_gamma   90.15939206
_symmetry_Int_Tables_number   1
_chemical_formula_structural   Gd8Cd4PtAu7
_chemical_formula_sum   'Gd8 Cd4 Pt1 Au7'
_cell_volume   478.88538961
_cell_formula_units_Z   1
loop_
 _symmetry_equiv_pos_site_id
 _symmetry_equiv_pos_as_xyz
  1  'x, y, z'
loop_
 _atom_site_type_symbol
 _atom_site_label
 _atom_site_symmetry_multiplicity
 _atom_site_fract_x
 _atom_site_fract_y
 _atom_site_fract_z
 _atom_site_occupancy
  Gd  Gd0  1  0.167992  0.167992  0.006867  1
  Gd  Gd1  1  0.840592  0.840592  0.998974  1
  Gd  Gd2  1  0.655032  0.334994  0.495255  1
  Gd  Gd3  1  0.334994  0.655032  0.495255  1
  Gd  Gd4  1  0.674199  0.316338  0.003036  1
  Gd  Gd5  1  0.316338  0.674199  0.003036  1
  Gd  Gd6  1  0.819388  0.819388  0.500751  1
  Gd  Gd7  1  0.186022  0.186022  0.495253  1
  Cd  Cd8  1  0.499161  0.999896  0.249756  1
  Cd  Cd9  1  0.499361  0.997276  0.749015  1
  Cd  Cd10  1  0.999896  0.499161  0.249756  1
  Cd  Cd11  1  0.997276  0.499361  0.749015  1
  Pt  Pt12  1  0.373424  0.373424  0.233968  1
  Au  Au13  1  0.627855  0.627855  0.769526  1
  Au  Au14  1  0.629724  0.629724  0.228727  1
  Au  Au15  1  0.874116  0.131082  0.730453  1
  Au  Au16  1  0.872838  0.128894  0.270472  1
  Au  Au17  1  0.371815  0.371815  0.769966  1
  Au  Au18  1  0.128894  0.872838  0.270472  1
  Au  Au19  1  0.131082  0.874116  0.730453  1
