# generated using pymatgen
data_Tb4Dy5Y3Co5Bi
_symmetry_space_group_name_H-M   'P 1'
_cell_length_a   8.35847522
_cell_length_b   8.35847435
_cell_length_c   8.34876026
_cell_angle_alpha   110.78481431
_cell_angle_beta   110.61267855
_cell_angle_gamma   107.09240656
_symmetry_Int_Tables_number   1
_chemical_formula_structural   Tb4Dy5Y3Co5Bi
_chemical_formula_sum   'Tb4 Dy5 Y3 Co5 Bi1'
_cell_volume   448.14457041
_cell_formula_units_Z   1
loop_
 _symmetry_equiv_pos_site_id
 _symmetry_equiv_pos_as_xyz
  1  'x, y, z'
loop_
 _atom_site_type_symbol
 _atom_site_label
 _atom_site_symmetry_multiplicity
 _atom_site_fract_x
 _atom_site_fract_y
 _atom_site_fract_z
 _atom_site_occupancy
  Tb  Tb0  1  0.600810  0.795222  0.805935  1
  Tb  Tb1  1  0.399539  0.205058  0.194300  1
  Tb  Tb2  1  0.989243  0.794762  0.194300  1
  Tb  Tb3  1  0.010712  0.205124  0.805935  1
  Dy  Dy4  1  0.816697  0.291224  0.107921  1
  Dy  Dy5  1  0.688071  0.378037  0.690330  1
  Dy  Dy6  1  0.311826  0.621800  0.309816  1
  Dy  Dy7  1  0.688015  0.997991  0.309816  1
  Dy  Dy8  1  0.312293  0.002258  0.690330  1
  Y  Y9  1  0.815883  0.709213  0.525096  1
  Y  Y10  1  0.184038  0.290669  0.474707  1
  Y  Y11  1  0.184047  0.709103  0.893150  1
  Co  Co12  1  0.622813  0.999919  0.622732  1
  Co  Co13  1  0.377183  0.000061  0.377245  1
  Co  Co14  1  0.110671  0.610810  0.499098  1
  Co  Co15  1  0.888288  0.388427  0.499098  1
  Co  Co16  1  0.999957  0.000244  0.000201  1
  Bi  Bi17  1  0.499912  0.500079  0.999992  1
