# generated using pymatgen
data_TbHoMn8(CoP3)2
_symmetry_space_group_name_H-M   'P 1'
_cell_length_a   3.60313700
_cell_length_b   10.54461400
_cell_length_c   12.17617400
_cell_angle_alpha   90.00000000
_cell_angle_beta   90.00000000
_cell_angle_gamma   90.00000000
_symmetry_Int_Tables_number   1
_chemical_formula_structural   TbHoMn8(CoP3)2
_chemical_formula_sum   'Tb2 Ho2 Mn16 Co4 P12'
_cell_volume   462.61776639
_cell_formula_units_Z   2
loop_
 _symmetry_equiv_pos_site_id
 _symmetry_equiv_pos_as_xyz
  1  'x, y, z'
loop_
 _atom_site_type_symbol
 _atom_site_label
 _atom_site_symmetry_multiplicity
 _atom_site_fract_x
 _atom_site_fract_y
 _atom_site_fract_z
 _atom_site_occupancy
  Tb  Tb0  1  0.750000  0.415759  0.292049  1
  Tb  Tb1  1  0.750000  0.084241  0.792049  1
  Ho  Ho2  1  0.250000  0.584178  0.707946  1
  Ho  Ho3  1  0.250000  0.915822  0.207946  1
  Mn  Mn4  1  0.250000  0.712344  0.988133  1
  Mn  Mn5  1  0.250000  0.787656  0.488133  1
  Mn  Mn6  1  0.750000  0.287607  0.012093  1
  Mn  Mn7  1  0.750000  0.212393  0.512093  1
  Mn  Mn8  1  0.250000  0.407488  0.493353  1
  Mn  Mn9  1  0.250000  0.092512  0.993353  1
  Mn  Mn10  1  0.750000  0.592761  0.507335  1
  Mn  Mn11  1  0.750000  0.907239  0.007335  1
  Mn  Mn12  1  0.250000  0.216023  0.176616  1
  Mn  Mn13  1  0.250000  0.283977  0.676616  1
  Mn  Mn14  1  0.750000  0.783201  0.823274  1
  Mn  Mn15  1  0.750000  0.716799  0.323274  1
  Mn  Mn16  1  0.250000  0.877769  0.697395  1
  Mn  Mn17  1  0.250000  0.622231  0.197395  1
  Mn  Mn18  1  0.750000  0.121175  0.302436  1
  Mn  Mn19  1  0.750000  0.378825  0.802436  1
  Co  Co20  1  0.250000  0.464990  0.933665  1
  Co  Co21  1  0.250000  0.035010  0.433665  1
  Co  Co22  1  0.750000  0.535780  0.065761  1
  Co  Co23  1  0.750000  0.964220  0.565761  1
  P  P24  1  0.250000  0.420351  0.111181  1
  P  P25  1  0.250000  0.079649  0.611181  1
  P  P26  1  0.750000  0.579807  0.887890  1
  P  P27  1  0.750000  0.920193  0.387890  1
  P  P28  1  0.250000  0.266940  0.872335  1
  P  P29  1  0.250000  0.233060  0.372335  1
  P  P30  1  0.750000  0.734157  0.127979  1
  P  P31  1  0.750000  0.765843  0.627979  1
  P  P32  1  0.250000  0.593839  0.386668  1
  P  P33  1  0.250000  0.906161  0.886668  1
  P  P34  1  0.750000  0.407273  0.613891  1
  P  P35  1  0.750000  0.092727  0.113891  1
