# generated using pymatgen
data_Nd4TeC4Cl
_symmetry_space_group_name_H-M   'P 1'
_cell_length_a   7.62919028
_cell_length_b   7.62918988
_cell_length_c   6.88693278
_cell_angle_alpha   79.92219720
_cell_angle_beta   79.92219650
_cell_angle_gamma   33.40063437
_symmetry_Int_Tables_number   1
_chemical_formula_structural   Nd4TeC4Cl
_chemical_formula_sum   'Nd4 Te1 C4 Cl1'
_cell_volume   216.95063102
_cell_formula_units_Z   1
loop_
 _symmetry_equiv_pos_site_id
 _symmetry_equiv_pos_as_xyz
  1  'x, y, z'
loop_
 _atom_site_type_symbol
 _atom_site_label
 _atom_site_symmetry_multiplicity
 _atom_site_fract_x
 _atom_site_fract_y
 _atom_site_fract_z
 _atom_site_occupancy
  Nd  Nd0  1  0.539804  0.153091  0.145822  1
  Nd  Nd1  1  0.141737  0.553500  0.648119  1
  Nd  Nd2  1  0.446500  0.858263  0.851881  1
  Nd  Nd3  1  0.846909  0.460196  0.354178  1
  Te  Te4  1  0.789838  0.210162  0.750000  1
  C  C5  1  0.348677  0.108280  0.472617  1
  C  C6  1  0.891720  0.651323  0.027383  1
  C  C7  1  0.639652  0.904250  0.524312  1
  C  C8  1  0.095750  0.360348  0.975688  1
  Cl  Cl9  1  0.259413  0.740587  0.250000  1
