# generated using pymatgen
data_Pu8Si13Ge
_symmetry_space_group_name_H-M   'P 1'
_cell_length_a   7.41805146
_cell_length_b   7.41805194
_cell_length_c   11.33398314
_cell_angle_alpha   89.90719298
_cell_angle_beta   89.90719343
_cell_angle_gamma   135.08272890
_symmetry_Int_Tables_number   1
_chemical_formula_structural   Pu8Si13Ge
_chemical_formula_sum   'Pu8 Si13 Ge1'
_cell_volume   440.36763388
_cell_formula_units_Z   1
loop_
 _symmetry_equiv_pos_site_id
 _symmetry_equiv_pos_as_xyz
  1  'x, y, z'
loop_
 _atom_site_type_symbol
 _atom_site_label
 _atom_site_symmetry_multiplicity
 _atom_site_fract_x
 _atom_site_fract_y
 _atom_site_fract_z
 _atom_site_occupancy
  Pu  Pu0  1  0.501639  0.996317  0.377142  1
  Pu  Pu1  1  0.995930  0.499185  0.622325  1
  Pu  Pu2  1  0.500815  0.004070  0.877675  1
  Pu  Pu3  1  0.003683  0.498361  0.122858  1
  Pu  Pu4  1  0.996748  0.003252  0.250000  1
  Pu  Pu5  1  0.001921  0.998079  0.750000  1
  Pu  Pu6  1  0.502696  0.502327  0.496275  1
  Pu  Pu7  1  0.497673  0.497304  0.003725  1
  Si  Si8  1  0.910490  0.080304  0.994281  1
  Si  Si9  1  0.080681  0.909523  0.005420  1
  Si  Si10  1  0.090477  0.919319  0.494580  1
  Si  Si11  1  0.919696  0.089510  0.505719  1
  Si  Si12  1  0.573449  0.912167  0.128418  1
  Si  Si13  1  0.915973  0.574903  0.872216  1
  Si  Si14  1  0.425097  0.084027  0.627784  1
  Si  Si15  1  0.087833  0.426551  0.371582  1
  Si  Si16  1  0.431292  0.112025  0.138582  1
  Si  Si17  1  0.119124  0.435495  0.861285  1
  Si  Si18  1  0.564505  0.880876  0.638715  1
  Si  Si19  1  0.887975  0.568708  0.361418  1
  Si  Si20  1  0.430533  0.569467  0.250000  1
  Ge  Ge21  1  0.561770  0.438230  0.750000  1
