# generated using pymatgen
data_Lu9Zn3Hg
_symmetry_space_group_name_H-M   'P 1'
_cell_length_a   8.40025249
_cell_length_b   8.40025278
_cell_length_c   8.48496888
_cell_angle_alpha   95.12670165
_cell_angle_beta   94.83644176
_cell_angle_gamma   145.54578253
_symmetry_Int_Tables_number   1
_chemical_formula_structural   Lu9Zn3Hg
_chemical_formula_sum   'Lu9 Zn3 Hg1'
_cell_volume   323.84458263
_cell_formula_units_Z   1
loop_
 _symmetry_equiv_pos_site_id
 _symmetry_equiv_pos_as_xyz
  1  'x, y, z'
loop_
 _atom_site_type_symbol
 _atom_site_label
 _atom_site_symmetry_multiplicity
 _atom_site_fract_x
 _atom_site_fract_y
 _atom_site_fract_z
 _atom_site_occupancy
  Lu  Lu0  1  0.500975  0.492803  0.993781  1
  Lu  Lu1  1  0.180152  0.887866  0.068020  1
  Lu  Lu2  1  0.111625  0.182214  0.293838  1
  Lu  Lu3  1  0.885420  0.404529  0.289952  1
  Lu  Lu4  1  0.605062  0.891816  0.496880  1
  Lu  Lu5  1  0.398625  0.115893  0.514516  1
  Lu  Lu6  1  0.111326  0.600427  0.711751  1
  Lu  Lu7  1  0.887477  0.816346  0.703824  1
  Lu  Lu8  1  0.817163  0.109891  0.927054  1
  Zn  Zn9  1  0.733686  0.606471  0.340160  1
  Zn  Zn10  1  0.263141  0.394595  0.657734  1
  Zn  Zn11  1  0.604014  0.260001  0.864016  1
  Hg  Hg12  1  0.401327  0.737142  0.138471  1
