# generated using pymatgen
data_Ho5In4AgOs
_symmetry_space_group_name_H-M   'P 1'
_cell_length_a   3.62493200
_cell_length_b   8.19872712
_cell_length_c   18.33992519
_cell_angle_alpha   89.98184269
_cell_angle_beta   90.00000000
_cell_angle_gamma   90.00000000
_symmetry_Int_Tables_number   1
_chemical_formula_structural   Ho5In4AgOs
_chemical_formula_sum   'Ho10 In8 Ag2 Os2'
_cell_volume   545.05940042
_cell_formula_units_Z   2
loop_
 _symmetry_equiv_pos_site_id
 _symmetry_equiv_pos_as_xyz
  1  'x, y, z'
loop_
 _atom_site_type_symbol
 _atom_site_label
 _atom_site_symmetry_multiplicity
 _atom_site_fract_x
 _atom_site_fract_y
 _atom_site_fract_z
 _atom_site_occupancy
  Ho  Ho0  1  0.000000  0.500000  0.500000  1
  Ho  Ho1  1  0.000000  0.000000  0.000000  1
  Ho  Ho2  1  0.000000  0.713533  0.277216  1
  Ho  Ho3  1  0.000000  0.286467  0.722784  1
  Ho  Ho4  1  0.000000  0.737963  0.782927  1
  Ho  Ho5  1  0.000000  0.262037  0.217073  1
  Ho  Ho6  1  0.000000  0.614778  0.085326  1
  Ho  Ho7  1  0.000000  0.385222  0.914674  1
  Ho  Ho8  1  0.000000  0.877476  0.578304  1
  Ho  Ho9  1  0.000000  0.122524  0.421696  1
  In  In10  1  0.500000  0.708729  0.931643  1
  In  In11  1  0.500000  0.291271  0.068357  1
  In  In12  1  0.500000  0.789783  0.431423  1
  In  In13  1  0.500000  0.210217  0.568577  1
  In  In14  1  0.500000  0.579873  0.648949  1
  In  In15  1  0.500000  0.420127  0.351051  1
  In  In16  1  0.500000  0.917937  0.148315  1
  In  In17  1  0.500000  0.082063  0.851685  1
  Ag  Ag18  1  0.500000  0.980740  0.698289  1
  Ag  Ag19  1  0.500000  0.019260  0.301711  1
  Os  Os20  1  0.500000  0.519455  0.194855  1
  Os  Os21  1  0.500000  0.480545  0.805145  1
