# generated using pymatgen
data_La4Ho6Ir3Rh
_symmetry_space_group_name_H-M   'P 1'
_cell_length_a   6.55024821
_cell_length_b   7.24602651
_cell_length_c   8.83334872
_cell_angle_alpha   96.93633260
_cell_angle_beta   110.88191551
_cell_angle_gamma   90.12911923
_symmetry_Int_Tables_number   1
_chemical_formula_structural   La4Ho6Ir3Rh
_chemical_formula_sum   'La4 Ho6 Ir3 Rh1'
_cell_volume   388.39030035
_cell_formula_units_Z   1
loop_
 _symmetry_equiv_pos_site_id
 _symmetry_equiv_pos_as_xyz
  1  'x, y, z'
loop_
 _atom_site_type_symbol
 _atom_site_label
 _atom_site_symmetry_multiplicity
 _atom_site_fract_x
 _atom_site_fract_y
 _atom_site_fract_z
 _atom_site_occupancy
  La  La0  1  0.981855  0.915298  0.197911  1
  La  La1  1  0.784659  0.580554  0.804533  1
  La  La2  1  0.018931  0.083220  0.804473  1
  La  La3  1  0.219274  0.419794  0.196657  1
  Ho  Ho4  1  0.635619  0.816175  0.432410  1
  Ho  Ho5  1  0.208485  0.685439  0.569685  1
  Ho  Ho6  1  0.362426  0.185871  0.567781  1
  Ho  Ho7  1  0.794293  0.314515  0.432839  1
  Ho  Ho8  1  0.427165  0.752505  0.998109  1
  Ho  Ho9  1  0.570206  0.245621  0.999361  1
  Ir  Ir10  1  0.584068  0.922762  0.770931  1
  Ir  Ir11  1  0.186192  0.422966  0.772581  1
  Ir  Ir12  1  0.414295  0.077789  0.228981  1
  Rh  Rh13  1  0.812532  0.577491  0.223749  1
