# generated using pymatgen
data_Ac2Tb2YbPt4
_symmetry_space_group_name_H-M   'P 1'
_cell_length_a   7.62377300
_cell_length_b   7.95482800
_cell_length_c   14.93382000
_cell_angle_alpha   90.00000000
_cell_angle_beta   90.00000000
_cell_angle_gamma   90.00000000
_symmetry_Int_Tables_number   1
_chemical_formula_structural   Ac2Tb2YbPt4
_chemical_formula_sum   'Ac8 Tb8 Yb4 Pt16'
_cell_volume   905.67350465
_cell_formula_units_Z   4
loop_
 _symmetry_equiv_pos_site_id
 _symmetry_equiv_pos_as_xyz
  1  'x, y, z'
loop_
 _atom_site_type_symbol
 _atom_site_label
 _atom_site_symmetry_multiplicity
 _atom_site_fract_x
 _atom_site_fract_y
 _atom_site_fract_z
 _atom_site_occupancy
  Ac  Ac0  1  0.506147  0.677051  0.597716  1
  Ac  Ac1  1  0.006147  0.822949  0.902284  1
  Ac  Ac2  1  0.493853  0.322949  0.097716  1
  Ac  Ac3  1  0.993853  0.177051  0.402284  1
  Ac  Ac4  1  0.493853  0.322949  0.402284  1
  Ac  Ac5  1  0.993853  0.177051  0.097716  1
  Ac  Ac6  1  0.506147  0.677051  0.902284  1
  Ac  Ac7  1  0.006147  0.822949  0.597716  1
  Tb  Tb8  1  0.665408  0.168991  0.625109  1
  Tb  Tb9  1  0.165408  0.331009  0.874891  1
  Tb  Tb10  1  0.334592  0.831009  0.125109  1
  Tb  Tb11  1  0.834592  0.668991  0.374891  1
  Tb  Tb12  1  0.334592  0.831009  0.374891  1
  Tb  Tb13  1  0.834592  0.668991  0.125109  1
  Tb  Tb14  1  0.665408  0.168991  0.874891  1
  Tb  Tb15  1  0.165408  0.331009  0.625109  1
  Yb  Yb16  1  0.831649  0.502467  0.750000  1
  Yb  Yb17  1  0.331649  0.997533  0.750000  1
  Yb  Yb18  1  0.168351  0.497533  0.250000  1
  Yb  Yb19  1  0.668351  0.002467  0.250000  1
  Pt  Pt20  1  0.675155  0.956550  0.460185  1
  Pt  Pt21  1  0.175155  0.543450  0.039815  1
  Pt  Pt22  1  0.324845  0.043450  0.960185  1
  Pt  Pt23  1  0.824845  0.456550  0.539815  1
  Pt  Pt24  1  0.324845  0.043450  0.539815  1
  Pt  Pt25  1  0.824845  0.456550  0.960185  1
  Pt  Pt26  1  0.675155  0.956550  0.039815  1
  Pt  Pt27  1  0.175155  0.543450  0.460185  1
  Pt  Pt28  1  0.465223  0.369639  0.750000  1
  Pt  Pt29  1  0.965223  0.130361  0.750000  1
  Pt  Pt30  1  0.534777  0.630361  0.250000  1
  Pt  Pt31  1  0.034777  0.869639  0.250000  1
  Pt  Pt32  1  0.703974  0.869555  0.750000  1
  Pt  Pt33  1  0.203974  0.630445  0.750000  1
  Pt  Pt34  1  0.296026  0.130445  0.250000  1
  Pt  Pt35  1  0.796026  0.369555  0.250000  1
