# generated using pymatgen
data_Pa6GaSb7Pt6
_symmetry_space_group_name_H-M   'P 1'
_cell_length_a   8.44912364
_cell_length_b   8.42593063
_cell_length_c   8.42593199
_cell_angle_alpha   109.41540111
_cell_angle_beta   109.52699016
_cell_angle_gamma   109.52698531
_symmetry_Int_Tables_number   1
_chemical_formula_structural   Pa6GaSb7Pt6
_chemical_formula_sum   'Pa6 Ga1 Sb7 Pt6'
_cell_volume   461.45166112
_cell_formula_units_Z   1
loop_
 _symmetry_equiv_pos_site_id
 _symmetry_equiv_pos_as_xyz
  1  'x, y, z'
loop_
 _atom_site_type_symbol
 _atom_site_label
 _atom_site_symmetry_multiplicity
 _atom_site_fract_x
 _atom_site_fract_y
 _atom_site_fract_z
 _atom_site_occupancy
  Pa  Pa0  1  0.870546  0.255779  0.122123  1
  Pa  Pa1  1  0.625102  0.744943  0.370587  1
  Pa  Pa2  1  0.254515  0.129413  0.874356  1
  Pa  Pa3  1  0.748423  0.377877  0.633656  1
  Pa  Pa4  1  0.114767  0.866344  0.244221  1
  Pa  Pa5  1  0.380159  0.625644  0.755057  1
  Ga  Ga6  1  0.679694  0.500000  0.000000  1
  Sb  Sb7  1  0.499400  0.000961  0.678696  1
  Sb  Sb8  1  0.998438  0.677735  0.499039  1
  Sb  Sb9  1  0.820704  0.821304  0.822265  1
  Sb  Sb10  1  0.502365  0.001883  0.180857  1
  Sb  Sb11  1  0.177796  0.500000  0.000000  1
  Sb  Sb12  1  0.000483  0.178975  0.498117  1
  Sb  Sb13  1  0.321508  0.319143  0.321025  1
  Pt  Pt14  1  0.384344  0.261866  0.637328  1
  Pt  Pt15  1  0.126229  0.751240  0.875183  1
  Pt  Pt16  1  0.251045  0.624817  0.376057  1
  Pt  Pt17  1  0.747016  0.862672  0.124538  1
  Pt  Pt18  1  0.622477  0.375462  0.238134  1
  Pt  Pt19  1  0.874989  0.123943  0.748760  1
