# generated using pymatgen
data_Tb8InHg3Au8
_symmetry_space_group_name_H-M   'P 1'
_cell_length_a   8.01676500
_cell_length_b   8.01676500
_cell_length_c   7.43525100
_cell_angle_alpha   90.00000000
_cell_angle_beta   90.00000000
_cell_angle_gamma   90.00000000
_symmetry_Int_Tables_number   1
_chemical_formula_structural   Tb8InHg3Au8
_chemical_formula_sum   'Tb8 In1 Hg3 Au8'
_cell_volume   477.85258552
_cell_formula_units_Z   1
loop_
 _symmetry_equiv_pos_site_id
 _symmetry_equiv_pos_as_xyz
  1  'x, y, z'
loop_
 _atom_site_type_symbol
 _atom_site_label
 _atom_site_symmetry_multiplicity
 _atom_site_fract_x
 _atom_site_fract_y
 _atom_site_fract_z
 _atom_site_occupancy
  Tb  Tb0  1  0.835578  0.159947  0.500502  1
  Tb  Tb1  1  0.164422  0.840053  0.500502  1
  Tb  Tb2  1  0.340053  0.335578  0.999498  1
  Tb  Tb3  1  0.659947  0.664422  0.999498  1
  Tb  Tb4  1  0.680269  0.686511  0.501116  1
  Tb  Tb5  1  0.319731  0.313489  0.501116  1
  Tb  Tb6  1  0.186511  0.819731  0.998884  1
  Tb  Tb7  1  0.813489  0.180269  0.998884  1
  In  In8  1  0.000000  0.500000  0.250000  1
  Hg  Hg9  1  0.500000  0.000000  0.250000  1
  Hg  Hg10  1  0.000000  0.500000  0.750000  1
  Hg  Hg11  1  0.500000  0.000000  0.750000  1
  Au  Au12  1  0.630434  0.375890  0.272338  1
  Au  Au13  1  0.369566  0.624110  0.272338  1
  Au  Au14  1  0.126179  0.127561  0.772466  1
  Au  Au15  1  0.873821  0.872439  0.772466  1
  Au  Au16  1  0.372439  0.626179  0.727534  1
  Au  Au17  1  0.627561  0.373821  0.727534  1
  Au  Au18  1  0.875890  0.869566  0.227662  1
  Au  Au19  1  0.124110  0.130434  0.227662  1
