# generated using pymatgen
data_LiLa6Pr7Th3Cd3Ir4
_symmetry_space_group_name_H-M   'P 1'
_cell_length_a   10.06441465
_cell_length_b   10.07014531
_cell_length_c   10.05527200
_cell_angle_alpha   60.04885235
_cell_angle_beta   60.03005211
_cell_angle_gamma   60.25973120
_symmetry_Int_Tables_number   1
_chemical_formula_structural   LiLa6Pr7Th3Cd3Ir4
_chemical_formula_sum   'Li1 La6 Pr7 Th3 Cd3 Ir4'
_cell_volume   722.45040926
_cell_formula_units_Z   1
loop_
 _symmetry_equiv_pos_site_id
 _symmetry_equiv_pos_as_xyz
  1  'x, y, z'
loop_
 _atom_site_type_symbol
 _atom_site_label
 _atom_site_symmetry_multiplicity
 _atom_site_fract_x
 _atom_site_fract_y
 _atom_site_fract_z
 _atom_site_occupancy
  Li  Li0  1  0.572449  0.577156  0.575300  1
  La  La1  1  0.957669  0.348371  0.346979  1
  La  La2  1  0.806825  0.191426  0.193951  1
  La  La3  1  0.188601  0.809409  0.810575  1
  La  La4  1  0.190560  0.807717  0.193033  1
  La  La5  1  0.808362  0.189285  0.810410  1
  La  La6  1  0.192180  0.191991  0.807704  1
  Pr  Pr7  1  0.806951  0.807506  0.192825  1
  Pr  Pr8  1  0.940503  0.563175  0.563857  1
  Pr  Pr9  1  0.561433  0.938188  0.937001  1
  Pr  Pr10  1  0.561608  0.938858  0.563379  1
  Pr  Pr11  1  0.939628  0.562460  0.934170  1
  Pr  Pr12  1  0.561461  0.563047  0.938464  1
  Pr  Pr13  1  0.939563  0.935399  0.562178  1
  Th  Th14  1  0.345625  0.346080  0.346393  1
  Th  Th15  1  0.344592  0.345030  0.964487  1
  Th  Th16  1  0.346419  0.963583  0.344776  1
  Cd  Cd17  1  0.578457  0.582873  0.260185  1
  Cd  Cd18  1  0.578037  0.260245  0.581663  1
  Cd  Cd19  1  0.259709  0.581440  0.580410  1
  Ir  Ir20  1  0.151047  0.141135  0.141253  1
  Ir  Ir21  1  0.151119  0.140744  0.566955  1
  Ir  Ir22  1  0.153801  0.567080  0.139562  1
  Ir  Ir23  1  0.563399  0.147800  0.144483  1
