# generated using pymatgen
data_ErNbB2Ru5W
_symmetry_space_group_name_H-M   'P 1'
_cell_length_a   9.53581548
_cell_length_b   9.53581497
_cell_length_c   3.04964300
_cell_angle_alpha   90.00000000
_cell_angle_beta   90.00000000
_cell_angle_gamma   89.60827712
_symmetry_Int_Tables_number   1
_chemical_formula_structural   ErNbB2Ru5W
_chemical_formula_sum   'Er2 Nb2 B4 Ru10 W2'
_cell_volume   277.30296106
_cell_formula_units_Z   2
loop_
 _symmetry_equiv_pos_site_id
 _symmetry_equiv_pos_as_xyz
  1  'x, y, z'
loop_
 _atom_site_type_symbol
 _atom_site_label
 _atom_site_symmetry_multiplicity
 _atom_site_fract_x
 _atom_site_fract_y
 _atom_site_fract_z
 _atom_site_occupancy
  Er  Er0  1  0.176021  0.176021  0.000000  1
  Er  Er1  1  0.823979  0.823979  0.000000  1
  Nb  Nb2  1  0.676035  0.323965  0.000000  1
  Nb  Nb3  1  0.323965  0.676035  0.000000  1
  B  B4  1  0.379766  0.379766  0.000000  1
  B  B5  1  0.620234  0.620234  0.000000  1
  B  B6  1  0.879120  0.120880  0.000000  1
  B  B7  1  0.120880  0.879120  0.000000  1
  Ru  Ru8  1  0.500000  0.500000  0.500000  1
  Ru  Ru9  1  0.000000  0.000000  0.500000  1
  Ru  Ru10  1  0.437792  0.219976  0.500000  1
  Ru  Ru11  1  0.562208  0.780024  0.500000  1
  Ru  Ru12  1  0.921809  0.286826  0.500000  1
  Ru  Ru13  1  0.078191  0.713174  0.500000  1
  Ru  Ru14  1  0.713174  0.078191  0.500000  1
  Ru  Ru15  1  0.286826  0.921809  0.500000  1
  Ru  Ru16  1  0.780024  0.562208  0.500000  1
  Ru  Ru17  1  0.219976  0.437792  0.500000  1
  W  W18  1  0.500000  0.000000  0.000000  1
  W  W19  1  0.000000  0.500000  0.000000  1
