# generated using pymatgen
data_Lu16In4Ru3Au
_symmetry_space_group_name_H-M   'P 1'
_cell_length_a   9.52124822
_cell_length_b   9.52124864
_cell_length_c   9.52124884
_cell_angle_alpha   59.58882496
_cell_angle_beta   59.58882422
_cell_angle_gamma   59.58882612
_symmetry_Int_Tables_number   1
_chemical_formula_structural   Lu16In4Ru3Au
_chemical_formula_sum   'Lu16 In4 Ru3 Au1'
_cell_volume   604.62853161
_cell_formula_units_Z   1
loop_
 _symmetry_equiv_pos_site_id
 _symmetry_equiv_pos_as_xyz
  1  'x, y, z'
loop_
 _atom_site_type_symbol
 _atom_site_label
 _atom_site_symmetry_multiplicity
 _atom_site_fract_x
 _atom_site_fract_y
 _atom_site_fract_z
 _atom_site_occupancy
  Lu  Lu0  1  0.598423  0.598423  0.598423  1
  Lu  Lu1  1  0.605686  0.605686  0.197021  1
  Lu  Lu2  1  0.605686  0.197021  0.605686  1
  Lu  Lu3  1  0.197021  0.605686  0.605686  1
  Lu  Lu4  1  0.047340  0.442472  0.442472  1
  Lu  Lu5  1  0.440714  0.058465  0.058465  1
  Lu  Lu6  1  0.442472  0.047340  0.442472  1
  Lu  Lu7  1  0.058465  0.440714  0.058465  1
  Lu  Lu8  1  0.442472  0.442472  0.047340  1
  Lu  Lu9  1  0.058465  0.058465  0.440714  1
  Lu  Lu10  1  0.192884  0.807876  0.807876  1
  Lu  Lu11  1  0.815458  0.189054  0.189054  1
  Lu  Lu12  1  0.807876  0.192884  0.807876  1
  Lu  Lu13  1  0.189054  0.815458  0.189054  1
  Lu  Lu14  1  0.807876  0.807876  0.192884  1
  Lu  Lu15  1  0.189054  0.189054  0.815458  1
  In  In16  1  0.833763  0.833763  0.833763  1
  In  In17  1  0.833629  0.833629  0.499268  1
  In  In18  1  0.833629  0.499268  0.833629  1
  In  In19  1  0.499268  0.833629  0.833629  1
  Ru  Ru20  1  0.391108  0.391108  0.827029  1
  Ru  Ru21  1  0.391108  0.827029  0.391108  1
  Ru  Ru22  1  0.827029  0.391108  0.391108  1
  Au  Au23  1  0.391519  0.391519  0.391519  1
