# generated using pymatgen
data_Er2TiCo16
_symmetry_space_group_name_H-M   'P 1'
_cell_length_a   6.28642249
_cell_length_b   6.28582269
_cell_length_c   6.28651468
_cell_angle_alpha   82.87885205
_cell_angle_beta   82.88064709
_cell_angle_gamma   82.88107015
_symmetry_Int_Tables_number   1
_chemical_formula_structural   Er2TiCo16
_chemical_formula_sum   'Er2 Ti1 Co16'
_cell_volume   243.10574003
_cell_formula_units_Z   1
loop_
 _symmetry_equiv_pos_site_id
 _symmetry_equiv_pos_as_xyz
  1  'x, y, z'
loop_
 _atom_site_type_symbol
 _atom_site_label
 _atom_site_symmetry_multiplicity
 _atom_site_fract_x
 _atom_site_fract_y
 _atom_site_fract_z
 _atom_site_occupancy
  Er  Er0  1  0.655936  0.656019  0.655975  1
  Er  Er1  1  0.351898  0.352044  0.351980  1
  Ti  Ti2  1  0.092934  0.092961  0.092990  1
  Co  Co3  1  0.292975  0.706243  0.997970  1
  Co  Co4  1  0.706259  0.997957  0.292972  1
  Co  Co5  1  0.997997  0.292980  0.706283  1
  Co  Co6  1  0.292984  0.997977  0.706275  1
  Co  Co7  1  0.997971  0.706244  0.292977  1
  Co  Co8  1  0.706264  0.292966  0.997977  1
  Co  Co9  1  0.998544  0.998505  0.504769  1
  Co  Co10  1  0.998555  0.504775  0.998443  1
  Co  Co11  1  0.504789  0.998529  0.998456  1
  Co  Co12  1  0.348218  0.348214  0.847885  1
  Co  Co13  1  0.348230  0.847880  0.348223  1
  Co  Co14  1  0.847890  0.348226  0.348226  1
  Co  Co15  1  0.654217  0.654198  0.150047  1
  Co  Co16  1  0.654214  0.150079  0.654252  1
  Co  Co17  1  0.150097  0.654181  0.654239  1
  Co  Co18  1  0.900022  0.900020  0.900059  1
