# generated using pymatgen
data_Ce2Nd(InNi)3
_symmetry_space_group_name_H-M   'P 1'
_cell_length_a   7.47614804
_cell_length_b   7.46931788
_cell_length_c   3.94874600
_cell_angle_alpha   90.00000000
_cell_angle_beta   90.00000000
_cell_angle_gamma   119.96978212
_symmetry_Int_Tables_number   1
_chemical_formula_structural   Ce2Nd(InNi)3
_chemical_formula_sum   'Ce2 Nd1 In3 Ni3'
_cell_volume   191.02087321
_cell_formula_units_Z   1
loop_
 _symmetry_equiv_pos_site_id
 _symmetry_equiv_pos_as_xyz
  1  'x, y, z'
loop_
 _atom_site_type_symbol
 _atom_site_label
 _atom_site_symmetry_multiplicity
 _atom_site_fract_x
 _atom_site_fract_y
 _atom_site_fract_z
 _atom_site_occupancy
  Ce  Ce0  1  0.415622  0.414768  0.500000  1
  Ce  Ce1  1  0.584378  0.999146  0.500000  1
  Nd  Nd2  1  0.000000  0.587468  0.500000  1
  In  In3  1  0.753083  0.752226  0.000000  1
  In  In4  1  0.246917  0.999143  0.000000  1
  In  In5  1  0.000000  0.249692  0.000000  1
  Ni  Ni6  1  0.000000  0.005443  0.500000  1
  Ni  Ni7  1  0.653226  0.322669  0.000000  1
  Ni  Ni8  1  0.346774  0.669444  0.000000  1
