# generated using pymatgen
data_Dy3Ho(Tc3Ge4)2
_symmetry_space_group_name_H-M   'P 1'
_cell_length_a   8.31323758
_cell_length_b   5.68054519
_cell_length_c   7.01796482
_cell_angle_alpha   76.21888183
_cell_angle_beta   90.08844388
_cell_angle_gamma   90.00471383
_symmetry_Int_Tables_number   1
_chemical_formula_structural   Dy3Ho(Tc3Ge4)2
_chemical_formula_sum   'Dy3 Ho1 Tc6 Ge8'
_cell_volume   321.87353900
_cell_formula_units_Z   1
loop_
 _symmetry_equiv_pos_site_id
 _symmetry_equiv_pos_as_xyz
  1  'x, y, z'
loop_
 _atom_site_type_symbol
 _atom_site_label
 _atom_site_symmetry_multiplicity
 _atom_site_fract_x
 _atom_site_fract_y
 _atom_site_fract_z
 _atom_site_occupancy
  Dy  Dy0  1  0.554663  0.076693  0.245193  1
  Dy  Dy1  1  0.054821  0.423253  0.754777  1
  Dy  Dy2  1  0.444958  0.923261  0.754924  1
  Ho  Ho3  1  0.945641  0.577104  0.244500  1
  Tc  Tc4  1  0.205046  0.113618  0.114728  1
  Tc  Tc5  1  0.705047  0.387117  0.885368  1
  Tc  Tc6  1  0.795178  0.886186  0.885555  1
  Tc  Tc7  1  0.294890  0.612759  0.114766  1
  Tc  Tc8  1  0.999897  0.000162  0.499665  1
  Tc  Tc9  1  0.499846  0.499971  0.500121  1
  Ge  Ge10  1  0.901310  0.120197  0.127795  1
  Ge  Ge11  1  0.401313  0.379838  0.872571  1
  Ge  Ge12  1  0.098682  0.879536  0.872917  1
  Ge  Ge13  1  0.598953  0.620042  0.127874  1
  Ge  Ge14  1  0.748191  0.223053  0.578298  1
  Ge  Ge15  1  0.247711  0.277688  0.421733  1
  Ge  Ge16  1  0.251715  0.777045  0.421364  1
  Ge  Ge17  1  0.752138  0.722479  0.577851  1
