# generated using pymatgen
data_Dy2Lu8Tl7InPt4
_symmetry_space_group_name_H-M   'P 1'
_cell_length_a   3.56248100
_cell_length_b   8.17207617
_cell_length_c   18.23623167
_cell_angle_alpha   89.93830675
_cell_angle_beta   90.00000000
_cell_angle_gamma   90.00000000
_symmetry_Int_Tables_number   1
_chemical_formula_structural   Dy2Lu8Tl7InPt4
_chemical_formula_sum   'Dy2 Lu8 Tl7 In1 Pt4'
_cell_volume   530.90866290
_cell_formula_units_Z   1
loop_
 _symmetry_equiv_pos_site_id
 _symmetry_equiv_pos_as_xyz
  1  'x, y, z'
loop_
 _atom_site_type_symbol
 _atom_site_label
 _atom_site_symmetry_multiplicity
 _atom_site_fract_x
 _atom_site_fract_y
 _atom_site_fract_z
 _atom_site_occupancy
  Dy  Dy0  1  0.000000  0.999930  0.999977  1
  Dy  Dy1  1  0.000000  0.501304  0.499859  1
  Lu  Lu2  1  0.000000  0.115763  0.413150  1
  Lu  Lu3  1  0.000000  0.883248  0.586475  1
  Lu  Lu4  1  0.000000  0.383804  0.912754  1
  Lu  Lu5  1  0.000000  0.616142  0.087181  1
  Lu  Lu6  1  0.000000  0.244851  0.221512  1
  Lu  Lu7  1  0.000000  0.755453  0.778609  1
  Lu  Lu8  1  0.000000  0.255109  0.721200  1
  Lu  Lu9  1  0.000000  0.744724  0.278961  1
  Tl  Tl10  1  0.500000  0.423965  0.352536  1
  Tl  Tl11  1  0.500000  0.578064  0.647736  1
  Tl  Tl12  1  0.500000  0.077848  0.852257  1
  Tl  Tl13  1  0.500000  0.922357  0.147915  1
  Tl  Tl14  1  0.500000  0.294815  0.065150  1
  Tl  Tl15  1  0.500000  0.705121  0.934829  1
  Tl  Tl16  1  0.500000  0.204805  0.565060  1
  In  In17  1  0.500000  0.795972  0.433767  1
  Pt  Pt18  1  0.500000  0.024868  0.304885  1
  Pt  Pt19  1  0.500000  0.972279  0.696289  1
  Pt  Pt20  1  0.500000  0.472244  0.803700  1
  Pt  Pt21  1  0.500000  0.527337  0.196196  1
