# generated using pymatgen
data_Hf2ZrSc(Al3Ir)6
_symmetry_space_group_name_H-M   'P 1'
_cell_length_a   7.46721719
_cell_length_b   7.46271397
_cell_length_c   9.25924900
_cell_angle_alpha   90.00000000
_cell_angle_beta   90.00000000
_cell_angle_gamma   119.81548817
_symmetry_Int_Tables_number   1
_chemical_formula_structural   Hf2ZrSc(Al3Ir)6
_chemical_formula_sum   'Hf2 Zr1 Sc1 Al18 Ir6'
_cell_volume   447.67871254
_cell_formula_units_Z   1
loop_
 _symmetry_equiv_pos_site_id
 _symmetry_equiv_pos_as_xyz
  1  'x, y, z'
loop_
 _atom_site_type_symbol
 _atom_site_label
 _atom_site_symmetry_multiplicity
 _atom_site_fract_x
 _atom_site_fract_y
 _atom_site_fract_z
 _atom_site_occupancy
  Hf  Hf0  1  0.994709  0.671343  0.250000  1
  Hf  Hf1  1  0.004588  0.327197  0.750000  1
  Zr  Zr2  1  0.329294  0.005987  0.750000  1
  Sc  Sc3  1  0.671896  0.994619  0.250000  1
  Al  Al4  1  0.124945  0.123782  0.250000  1
  Al  Al5  1  0.875056  0.875254  0.750000  1
  Al  Al6  1  0.997193  0.334391  0.078212  1
  Al  Al7  1  0.001833  0.665536  0.923592  1
  Al  Al8  1  0.001833  0.665536  0.576408  1
  Al  Al9  1  0.335236  0.997868  0.421481  1
  Al  Al10  1  0.997193  0.334391  0.421788  1
  Al  Al11  1  0.665158  0.001085  0.576063  1
  Al  Al12  1  0.665158  0.001085  0.923937  1
  Al  Al13  1  0.335236  0.997868  0.078519  1
  Al  Al14  1  0.332025  0.332115  0.557578  1
  Al  Al15  1  0.668811  0.669041  0.439379  1
  Al  Al16  1  0.668811  0.669041  0.060621  1
  Al  Al17  1  0.332025  0.332115  0.942422  1
  Al  Al18  1  0.336847  0.552143  0.250000  1
  Al  Al19  1  0.661521  0.448234  0.750000  1
  Al  Al20  1  0.554071  0.341547  0.250000  1
  Al  Al21  1  0.446674  0.660058  0.750000  1
  Ir  Ir22  1  0.673292  0.327959  0.999423  1
  Ir  Ir23  1  0.326236  0.671396  0.999738  1
  Ir  Ir24  1  0.326236  0.671396  0.500262  1
  Ir  Ir25  1  0.673292  0.327959  0.500577  1
  Ir  Ir26  1  0.000418  0.000526  0.999634  1
  Ir  Ir27  1  0.000418  0.000526  0.500366  1
