# generated using pymatgen
data_Nd2HoZrAl15(GaIr2)3
_symmetry_space_group_name_H-M   'P 1'
_cell_length_a   7.57103200
_cell_length_b   7.56228852
_cell_length_c   9.48661000
_cell_angle_alpha   90.00000000
_cell_angle_beta   90.00000000
_cell_angle_gamma   119.53341527
_symmetry_Int_Tables_number   1
_chemical_formula_structural   Nd2HoZrAl15(GaIr2)3
_chemical_formula_sum   'Nd2 Ho1 Zr1 Al15 Ga3 Ir6'
_cell_volume   472.57718302
_cell_formula_units_Z   1
loop_
 _symmetry_equiv_pos_site_id
 _symmetry_equiv_pos_as_xyz
  1  'x, y, z'
loop_
 _atom_site_type_symbol
 _atom_site_label
 _atom_site_symmetry_multiplicity
 _atom_site_fract_x
 _atom_site_fract_y
 _atom_site_fract_z
 _atom_site_occupancy
  Nd  Nd0  1  0.005402  0.328746  0.750000  1
  Nd  Nd1  1  0.330906  0.006975  0.750000  1
  Ho  Ho2  1  0.671882  0.997665  0.250000  1
  Zr  Zr3  1  0.998880  0.672662  0.250000  1
  Al  Al4  1  0.125601  0.123567  0.250000  1
  Al  Al5  1  0.999032  0.338401  0.081792  1
  Al  Al6  1  0.996429  0.665370  0.936287  1
  Al  Al7  1  0.996429  0.665370  0.563713  1
  Al  Al8  1  0.332729  0.997216  0.418329  1
  Al  Al9  1  0.999032  0.338401  0.418208  1
  Al  Al10  1  0.664634  0.994600  0.568705  1
  Al  Al11  1  0.664634  0.994600  0.931295  1
  Al  Al12  1  0.332729  0.997216  0.081671  1
  Al  Al13  1  0.334965  0.335341  0.535735  1
  Al  Al14  1  0.670162  0.668049  0.432626  1
  Al  Al15  1  0.670162  0.668049  0.067374  1
  Al  Al16  1  0.334965  0.335341  0.964265  1
  Al  Al17  1  0.335264  0.550709  0.250000  1
  Al  Al18  1  0.555844  0.342133  0.250000  1
  Ga  Ga19  1  0.868843  0.866512  0.750000  1
  Ga  Ga20  1  0.660244  0.456228  0.750000  1
  Ga  Ga21  1  0.454083  0.657904  0.750000  1
  Ir  Ir22  1  0.672117  0.328368  0.004488  1
  Ir  Ir23  1  0.328465  0.672550  0.005076  1
  Ir  Ir24  1  0.328465  0.672550  0.494924  1
  Ir  Ir25  1  0.672117  0.328368  0.495512  1
  Ir  Ir26  1  0.997991  0.998554  0.005913  1
  Ir  Ir27  1  0.997991  0.998554  0.494087  1
