# generated using pymatgen
data_DyEr3(ThNi2)2
_symmetry_space_group_name_H-M   'P 1'
_cell_length_a   6.90382081
_cell_length_b   6.90382176
_cell_length_c   9.62506752
_cell_angle_alpha   74.13953330
_cell_angle_beta   74.13953143
_cell_angle_gamma   30.72461557
_symmetry_Int_Tables_number   1
_chemical_formula_structural   DyEr3(ThNi2)2
_chemical_formula_sum   'Dy1 Er3 Th2 Ni4'
_cell_volume   224.77377838
_cell_formula_units_Z   1
loop_
 _symmetry_equiv_pos_site_id
 _symmetry_equiv_pos_as_xyz
  1  'x, y, z'
loop_
 _atom_site_type_symbol
 _atom_site_label
 _atom_site_symmetry_multiplicity
 _atom_site_fract_x
 _atom_site_fract_y
 _atom_site_fract_z
 _atom_site_occupancy
  Dy  Dy0  1  0.869192  0.869192  0.994170  1
  Er  Er1  1  0.401943  0.401943  0.669224  1
  Er  Er2  1  0.598084  0.598084  0.330530  1
  Er  Er3  1  0.130589  0.130589  0.005703  1
  Th  Th4  1  0.850537  0.850537  0.368765  1
  Th  Th5  1  0.149483  0.149483  0.631394  1
  Ni  Ni6  1  0.744501  0.744501  0.773278  1
  Ni  Ni7  1  0.255307  0.255307  0.226866  1
  Ni  Ni8  1  0.534966  0.534966  0.854756  1
  Ni  Ni9  1  0.465397  0.465397  0.145315  1
