# generated using pymatgen
data_Ce4Nd(In2Ir)2
_symmetry_space_group_name_H-M   'P 1'
_cell_length_a   3.68253200
_cell_length_b   8.02508000
_cell_length_c   18.40669200
_cell_angle_alpha   90.00000000
_cell_angle_beta   90.00000000
_cell_angle_gamma   90.00000000
_symmetry_Int_Tables_number   1
_chemical_formula_structural   Ce4Nd(In2Ir)2
_chemical_formula_sum   'Ce8 Nd2 In8 Ir4'
_cell_volume   543.96586190
_cell_formula_units_Z   2
loop_
 _symmetry_equiv_pos_site_id
 _symmetry_equiv_pos_as_xyz
  1  'x, y, z'
loop_
 _atom_site_type_symbol
 _atom_site_label
 _atom_site_symmetry_multiplicity
 _atom_site_fract_x
 _atom_site_fract_y
 _atom_site_fract_z
 _atom_site_occupancy
  Ce  Ce0  1  0.000000  0.122616  0.416855  1
  Ce  Ce1  1  0.000000  0.877384  0.583145  1
  Ce  Ce2  1  0.000000  0.377384  0.916855  1
  Ce  Ce3  1  0.000000  0.622616  0.083145  1
  Ce  Ce4  1  0.000000  0.247164  0.223188  1
  Ce  Ce5  1  0.000000  0.752836  0.776812  1
  Ce  Ce6  1  0.000000  0.252836  0.723188  1
  Ce  Ce7  1  0.000000  0.747164  0.276812  1
  Nd  Nd8  1  0.000000  0.000000  0.000000  1
  Nd  Nd9  1  0.000000  0.500000  0.500000  1
  In  In10  1  0.500000  0.435224  0.349994  1
  In  In11  1  0.500000  0.564776  0.650006  1
  In  In12  1  0.500000  0.064776  0.849994  1
  In  In13  1  0.500000  0.935224  0.150006  1
  In  In14  1  0.500000  0.291612  0.070553  1
  In  In15  1  0.500000  0.708388  0.929447  1
  In  In16  1  0.500000  0.208388  0.570553  1
  In  In17  1  0.500000  0.791612  0.429447  1
  Ir  Ir18  1  0.500000  0.017946  0.305336  1
  Ir  Ir19  1  0.500000  0.982054  0.694664  1
  Ir  Ir20  1  0.500000  0.482054  0.805336  1
  Ir  Ir21  1  0.500000  0.517946  0.194664  1
