# generated using pymatgen
data_Zr10Al2InBi5
_symmetry_space_group_name_H-M   'P 1'
_cell_length_a   8.87045900
_cell_length_b   8.89952515
_cell_length_c   5.95311800
_cell_angle_alpha   90.00000000
_cell_angle_beta   90.00000000
_cell_angle_gamma   119.89202286
_symmetry_Int_Tables_number   1
_chemical_formula_structural   Zr10Al2InBi5
_chemical_formula_sum   'Zr10 Al2 In1 Bi5'
_cell_volume   407.43614737
_cell_formula_units_Z   1
loop_
 _symmetry_equiv_pos_site_id
 _symmetry_equiv_pos_as_xyz
  1  'x, y, z'
loop_
 _atom_site_type_symbol
 _atom_site_label
 _atom_site_symmetry_multiplicity
 _atom_site_fract_x
 _atom_site_fract_y
 _atom_site_fract_z
 _atom_site_occupancy
  Zr  Zr0  1  0.333636  0.667714  0.997991  1
  Zr  Zr1  1  0.665923  0.332286  0.502009  1
  Zr  Zr2  1  0.665923  0.332286  0.997991  1
  Zr  Zr3  1  0.333636  0.667714  0.502009  1
  Zr  Zr4  1  0.265970  0.000000  0.250000  1
  Zr  Zr5  1  0.270845  0.266394  0.750000  1
  Zr  Zr6  1  0.004452  0.733606  0.750000  1
  Zr  Zr7  1  0.998352  0.263876  0.250000  1
  Zr  Zr8  1  0.734476  0.736124  0.250000  1
  Zr  Zr9  1  0.728358  0.000000  0.750000  1
  Al  Al10  1  0.001185  0.000000  0.995199  1
  Al  Al11  1  0.001185  0.000000  0.504801  1
  In  In12  1  0.384262  0.000000  0.750000  1
  Bi  Bi13  1  0.607417  0.000000  0.250000  1
  Bi  Bi14  1  0.614919  0.613886  0.750000  1
  Bi  Bi15  1  0.001033  0.386114  0.750000  1
  Bi  Bi16  1  0.000409  0.612388  0.250000  1
  Bi  Bi17  1  0.388021  0.387612  0.250000  1
