# generated using pymatgen
data_YbPu(NiAs)2
_symmetry_space_group_name_H-M   'P 1'
_cell_length_a   4.06052700
_cell_length_b   4.06052679
_cell_length_c   15.73612200
_cell_angle_alpha   90.00000000
_cell_angle_beta   90.00000000
_cell_angle_gamma   120.00000988
_symmetry_Int_Tables_number   1
_chemical_formula_structural   YbPu(NiAs)2
_chemical_formula_sum   'Yb2 Pu2 Ni4 As4'
_cell_volume   224.69483259
_cell_formula_units_Z   2
loop_
 _symmetry_equiv_pos_site_id
 _symmetry_equiv_pos_as_xyz
  1  'x, y, z'
loop_
 _atom_site_type_symbol
 _atom_site_label
 _atom_site_symmetry_multiplicity
 _atom_site_fract_x
 _atom_site_fract_y
 _atom_site_fract_z
 _atom_site_occupancy
  Yb  Yb0  1  0.000000  0.000000  0.749547  1
  Yb  Yb1  1  0.000000  0.000000  0.500262  1
  Pu  Pu2  1  0.000000  0.000000  0.249366  1
  Pu  Pu3  1  0.000000  0.000000  0.998962  1
  Ni  Ni4  1  0.333333  0.666667  0.130816  1
  Ni  Ni5  1  0.666667  0.333333  0.875253  1
  Ni  Ni6  1  0.666667  0.333333  0.628392  1
  Ni  Ni7  1  0.333333  0.666667  0.373438  1
  As  As8  1  0.333333  0.666667  0.622309  1
  As  As9  1  0.666667  0.333333  0.371046  1
  As  As10  1  0.666667  0.333333  0.119667  1
  As  As11  1  0.333333  0.666667  0.880942  1
