# generated using pymatgen
data_MgMn4Zn3(AsO5)4
_symmetry_space_group_name_H-M   'P 1'
_cell_length_a   5.95744700
_cell_length_b   8.66242307
_cell_length_c   8.62614644
_cell_angle_alpha   90.18586545
_cell_angle_beta   90.00000000
_cell_angle_gamma   90.00000000
_symmetry_Int_Tables_number   1
_chemical_formula_structural   MgMn4Zn3(AsO5)4
_chemical_formula_sum   'Mg1 Mn4 Zn3 As4 O20'
_cell_volume   445.15793525
_cell_formula_units_Z   1
loop_
 _symmetry_equiv_pos_site_id
 _symmetry_equiv_pos_as_xyz
  1  'x, y, z'
loop_
 _atom_site_type_symbol
 _atom_site_label
 _atom_site_symmetry_multiplicity
 _atom_site_fract_x
 _atom_site_fract_y
 _atom_site_fract_z
 _atom_site_occupancy
  Mg  Mg0  1  0.500000  0.624754  0.857550  1
  Mn  Mn1  1  0.738249  0.500334  0.500952  1
  Mn  Mn2  1  0.760951  0.999485  0.999566  1
  Mn  Mn3  1  0.261751  0.500334  0.500952  1
  Mn  Mn4  1  0.239049  0.999485  0.999566  1
  Zn  Zn5  1  0.000000  0.875566  0.353745  1
  Zn  Zn6  1  0.000000  0.125456  0.645921  1
  Zn  Zn7  1  0.500000  0.374697  0.145590  1
  As  As8  1  0.500000  0.743977  0.237753  1
  As  As9  1  0.500000  0.255533  0.763139  1
  As  As10  1  0.000000  0.244575  0.262608  1
  As  As11  1  0.000000  0.757740  0.737118  1
  O  O12  1  0.000000  0.926818  0.124270  1
  O  O13  1  0.000000  0.072337  0.875193  1
  O  O14  1  0.500000  0.428205  0.375058  1
  O  O15  1  0.500000  0.570595  0.627873  1
  O  O16  1  0.500000  0.919517  0.131056  1
  O  O17  1  0.500000  0.078686  0.867415  1
  O  O18  1  0.000000  0.421184  0.368433  1
  O  O19  1  0.000000  0.580709  0.631133  1
  O  O20  1  0.500000  0.606088  0.095814  1
  O  O21  1  0.500000  0.394749  0.903450  1
  O  O22  1  0.000000  0.106190  0.403471  1
  O  O23  1  0.000000  0.895679  0.595772  1
  O  O24  1  0.733956  0.732430  0.352495  1
  O  O25  1  0.733827  0.267329  0.648045  1
  O  O26  1  0.765884  0.231925  0.147793  1
  O  O27  1  0.765208  0.766970  0.849968  1
  O  O28  1  0.266173  0.267329  0.648045  1
  O  O29  1  0.266044  0.732430  0.352495  1
  O  O30  1  0.234792  0.766970  0.849968  1
  O  O31  1  0.234116  0.231925  0.147793  1
