# generated using pymatgen
data_TbPrZn5Si
_symmetry_space_group_name_H-M   'P 1'
_cell_length_a   8.28012464
_cell_length_b   8.28012489
_cell_length_c   8.79333800
_cell_angle_alpha   90.00000000
_cell_angle_beta   90.00000000
_cell_angle_gamma   149.37792230
_symmetry_Int_Tables_number   1
_chemical_formula_structural   TbPrZn5Si
_chemical_formula_sum   'Tb2 Pr2 Zn10 Si2'
_cell_volume   307.08845466
_cell_formula_units_Z   2
loop_
 _symmetry_equiv_pos_site_id
 _symmetry_equiv_pos_as_xyz
  1  'x, y, z'
loop_
 _atom_site_type_symbol
 _atom_site_label
 _atom_site_symmetry_multiplicity
 _atom_site_fract_x
 _atom_site_fract_y
 _atom_site_fract_z
 _atom_site_occupancy
  Tb  Tb0  1  0.201636  0.798364  0.250000  1
  Tb  Tb1  1  0.798364  0.201636  0.750000  1
  Pr  Pr2  1  0.000000  0.000000  0.500000  1
  Pr  Pr3  1  0.000000  0.000000  0.000000  1
  Zn  Zn4  1  0.812553  0.187447  0.392368  1
  Zn  Zn5  1  0.187447  0.812553  0.607632  1
  Zn  Zn6  1  0.812553  0.187447  0.107632  1
  Zn  Zn7  1  0.187447  0.812553  0.892368  1
  Zn  Zn8  1  0.652090  0.347910  0.474709  1
  Zn  Zn9  1  0.347910  0.652090  0.525291  1
  Zn  Zn10  1  0.652090  0.347910  0.025291  1
  Zn  Zn11  1  0.347910  0.652090  0.974709  1
  Zn  Zn12  1  0.403358  0.596642  0.250000  1
  Zn  Zn13  1  0.596642  0.403358  0.750000  1
  Si  Si14  1  0.558462  0.441538  0.250000  1
  Si  Si15  1  0.441538  0.558462  0.750000  1
