# generated using pymatgen
data_SmEr6Th(ReB6)4
_symmetry_space_group_name_H-M   'P 1'
_cell_length_a   3.69604400
_cell_length_b   9.17417401
_cell_length_c   11.57713401
_cell_angle_alpha   90.02464601
_cell_angle_beta   90.00000000
_cell_angle_gamma   90.00000000
_symmetry_Int_Tables_number   1
_chemical_formula_structural   SmEr6Th(ReB6)4
_chemical_formula_sum   'Sm1 Er6 Th1 Re4 B24'
_cell_volume   392.55916974
_cell_formula_units_Z   1
loop_
 _symmetry_equiv_pos_site_id
 _symmetry_equiv_pos_as_xyz
  1  'x, y, z'
loop_
 _atom_site_type_symbol
 _atom_site_label
 _atom_site_symmetry_multiplicity
 _atom_site_fract_x
 _atom_site_fract_y
 _atom_site_fract_z
 _atom_site_occupancy
  Sm  Sm0  1  0.000000  0.678329  0.587210  1
  Er  Er1  1  0.000000  0.823338  0.084953  1
  Er  Er2  1  0.000000  0.175961  0.914289  1
  Er  Er3  1  0.000000  0.942193  0.368725  1
  Er  Er4  1  0.000000  0.056163  0.631854  1
  Er  Er5  1  0.000000  0.443296  0.127761  1
  Er  Er6  1  0.000000  0.557448  0.871208  1
  Th  Th7  1  0.000000  0.322064  0.413885  1
  Re  Re8  1  0.000000  0.639482  0.318834  1
  Re  Re9  1  0.000000  0.360592  0.681483  1
  Re  Re10  1  0.000000  0.138139  0.177937  1
  Re  Re11  1  0.000000  0.862180  0.822035  1
  B  B12  1  0.500000  0.555628  0.430714  1
  B  B13  1  0.500000  0.445518  0.570246  1
  B  B14  1  0.500000  0.052959  0.066044  1
  B  B15  1  0.500000  0.946885  0.933451  1
  B  B16  1  0.500000  0.750790  0.416280  1
  B  B17  1  0.500000  0.249896  0.585434  1
  B  B18  1  0.500000  0.248920  0.079816  1
  B  B19  1  0.500000  0.750746  0.919217  1
  B  B20  1  0.500000  0.792555  0.263904  1
  B  B21  1  0.500000  0.207555  0.736886  1
  B  B22  1  0.500000  0.290509  0.231701  1
  B  B23  1  0.500000  0.708699  0.767197  1
  B  B24  1  0.500000  0.631794  0.183498  1
  B  B25  1  0.500000  0.369297  0.816343  1
  B  B26  1  0.500000  0.128802  0.311969  1
  B  B27  1  0.500000  0.870395  0.687192  1
  B  B28  1  0.500000  0.981630  0.210463  1
  B  B29  1  0.500000  0.017936  0.789183  1
  B  B30  1  0.500000  0.485041  0.285262  1
  B  B31  1  0.500000  0.516920  0.714832  1
  B  B32  1  0.500000  0.601045  0.027611  1
  B  B33  1  0.500000  0.399526  0.971781  1
  B  B34  1  0.500000  0.096205  0.473191  1
  B  B35  1  0.500000  0.901563  0.527612  1
