# generated using pymatgen
data_Tb2Zn5Si3Ag
_symmetry_space_group_name_H-M   'P 1'
_cell_length_a   7.50669500
_cell_length_b   7.53384015
_cell_length_c   4.03809700
_cell_angle_alpha   90.00000000
_cell_angle_beta   90.00000000
_cell_angle_gamma   119.88088633
_symmetry_Int_Tables_number   1
_chemical_formula_structural   Tb2Zn5Si3Ag
_chemical_formula_sum   'Tb2 Zn5 Si3 Ag1'
_cell_volume   198.01248325
_cell_formula_units_Z   1
loop_
 _symmetry_equiv_pos_site_id
 _symmetry_equiv_pos_as_xyz
  1  'x, y, z'
loop_
 _atom_site_type_symbol
 _atom_site_label
 _atom_site_symmetry_multiplicity
 _atom_site_fract_x
 _atom_site_fract_y
 _atom_site_fract_z
 _atom_site_occupancy
  Tb  Tb0  1  0.668200  0.334224  0.000000  1
  Tb  Tb1  1  0.333976  0.665776  0.000000  1
  Zn  Zn2  1  0.806544  0.000000  0.000000  1
  Zn  Zn3  1  0.193241  0.196696  0.000000  1
  Zn  Zn4  1  0.996545  0.803304  0.000000  1
  Zn  Zn5  1  0.000402  0.295423  0.499999  1
  Zn  Zn6  1  0.704980  0.704577  0.499999  1
  Si  Si7  1  0.627325  0.000000  0.499999  1
  Si  Si8  1  0.377891  0.383060  0.499999  1
  Si  Si9  1  0.994831  0.616940  0.499999  1
  Ag  Ag10  1  0.296068  0.000000  0.499999  1
