# generated using pymatgen
data_Dy2Si2(Ni5H)3
_symmetry_space_group_name_H-M   'P 1'
_cell_length_a   6.28273359
_cell_length_b   6.28273458
_cell_length_c   6.26837300
_cell_angle_alpha   83.61636844
_cell_angle_beta   83.61637661
_cell_angle_gamma   84.24134482
_symmetry_Int_Tables_number   1
_chemical_formula_structural   Dy2Si2(Ni5H)3
_chemical_formula_sum   'Dy2 Si2 Ni15 H3'
_cell_volume   243.39970506
_cell_formula_units_Z   1
loop_
 _symmetry_equiv_pos_site_id
 _symmetry_equiv_pos_as_xyz
  1  'x, y, z'
loop_
 _atom_site_type_symbol
 _atom_site_label
 _atom_site_symmetry_multiplicity
 _atom_site_fract_x
 _atom_site_fract_y
 _atom_site_fract_z
 _atom_site_occupancy
  Dy  Dy0  1  0.658499  0.658499  0.648227  1
  Dy  Dy1  1  0.341501  0.341501  0.351773  1
  Si  Si2  1  0.500000  0.000000  0.000000  1
  Si  Si3  1  0.000000  0.500000  0.000000  1
  Ni  Ni4  1  0.000000  0.000000  0.500000  1
  Ni  Ni5  1  0.707984  0.292016  0.000000  1
  Ni  Ni6  1  0.000366  0.708684  0.286234  1
  Ni  Ni7  1  0.291316  0.999634  0.713766  1
  Ni  Ni8  1  0.999634  0.291316  0.713766  1
  Ni  Ni9  1  0.708684  0.000366  0.286234  1
  Ni  Ni10  1  0.292016  0.707984  0.000000  1
  Ni  Ni11  1  0.343757  0.343757  0.863152  1
  Ni  Ni12  1  0.855804  0.345115  0.344101  1
  Ni  Ni13  1  0.345115  0.855804  0.344101  1
  Ni  Ni14  1  0.656243  0.656243  0.136848  1
  Ni  Ni15  1  0.144196  0.654885  0.655899  1
  Ni  Ni16  1  0.654885  0.144196  0.655899  1
  Ni  Ni17  1  0.900348  0.900348  0.896766  1
  Ni  Ni18  1  0.099652  0.099652  0.103234  1
  H  H19  1  0.500000  0.500000  0.000000  1
  H  H20  1  0.000000  0.500000  0.500000  1
  H  H21  1  0.500000  0.000000  0.500000  1
