# generated using pymatgen
data_V12Fe3Si8RuC4
_symmetry_space_group_name_H-M   'P 1'
_cell_length_a   7.68045522
_cell_length_b   7.69194237
_cell_length_c   7.69194300
_cell_angle_alpha   60.00000157
_cell_angle_beta   59.95051407
_cell_angle_gamma   59.95050938
_symmetry_Int_Tables_number   1
_chemical_formula_structural   V12Fe3Si8RuC4
_chemical_formula_sum   'V12 Fe3 Si8 Ru1 C4'
_cell_volume   321.08408766
_cell_formula_units_Z   1
loop_
 _symmetry_equiv_pos_site_id
 _symmetry_equiv_pos_as_xyz
  1  'x, y, z'
loop_
 _atom_site_type_symbol
 _atom_site_label
 _atom_site_symmetry_multiplicity
 _atom_site_fract_x
 _atom_site_fract_y
 _atom_site_fract_z
 _atom_site_occupancy
  V  V0  1  0.810768  0.811407  0.188913  1
  V  V1  1  0.188134  0.183773  0.814047  1
  V  V2  1  0.810768  0.188913  0.811407  1
  V  V3  1  0.188134  0.814047  0.183773  1
  V  V4  1  0.188134  0.814047  0.814047  1
  V  V5  1  0.810768  0.188913  0.188913  1
  V  V6  1  0.439232  0.438593  0.061087  1
  V  V7  1  0.061866  0.066227  0.435953  1
  V  V8  1  0.439232  0.061087  0.438593  1
  V  V9  1  0.061866  0.435953  0.066227  1
  V  V10  1  0.061866  0.435953  0.435953  1
  V  V11  1  0.439232  0.061087  0.061087  1
  Fe  Fe12  1  0.625000  0.125000  0.625000  1
  Fe  Fe13  1  0.625000  0.625000  0.125000  1
  Fe  Fe14  1  0.625000  0.625000  0.625000  1
  Si  Si15  1  0.756294  0.414569  0.414569  1
  Si  Si16  1  0.420589  0.762306  0.408554  1
  Si  Si17  1  0.420589  0.408554  0.762306  1
  Si  Si18  1  0.420589  0.408554  0.408554  1
  Si  Si19  1  0.493706  0.835431  0.835431  1
  Si  Si20  1  0.829411  0.487694  0.841446  1
  Si  Si21  1  0.829411  0.841446  0.487694  1
  Si  Si22  1  0.829411  0.841446  0.841446  1
  Ru  Ru23  1  0.125000  0.625000  0.625000  1
  C  C24  1  0.625000  0.125000  0.125000  1
  C  C25  1  0.125000  0.625000  0.125000  1
  C  C26  1  0.125000  0.125000  0.625000  1
  C  C27  1  0.125000  0.125000  0.125000  1
