# generated using pymatgen
data_K6InSe4F
_symmetry_space_group_name_H-M   'P 1'
_cell_length_a   10.76291500
_cell_length_b   10.76293070
_cell_length_c   7.52922700
_cell_angle_alpha   90.00000000
_cell_angle_beta   90.00000000
_cell_angle_gamma   119.99982332
_symmetry_Int_Tables_number   1
_chemical_formula_structural   K6InSe4F
_chemical_formula_sum   'K12 In2 Se8 F2'
_cell_volume   755.33959361
_cell_formula_units_Z   2
loop_
 _symmetry_equiv_pos_site_id
 _symmetry_equiv_pos_as_xyz
  1  'x, y, z'
loop_
 _atom_site_type_symbol
 _atom_site_label
 _atom_site_symmetry_multiplicity
 _atom_site_fract_x
 _atom_site_fract_y
 _atom_site_fract_z
 _atom_site_occupancy
  K  K0  1  0.112574  0.887423  0.512014  1
  K  K1  1  0.774849  0.887426  0.512013  1
  K  K2  1  0.951129  0.475564  0.318547  1
  K  K3  1  0.524444  0.475557  0.318543  1
  K  K4  1  0.887428  0.774854  0.012020  1
  K  K5  1  0.225151  0.112574  0.012013  1
  K  K6  1  0.524436  0.048874  0.318540  1
  K  K7  1  0.112572  0.225146  0.512020  1
  K  K8  1  0.887426  0.112577  0.012014  1
  K  K9  1  0.048871  0.524436  0.818547  1
  K  K10  1  0.475564  0.951126  0.818540  1
  K  K11  1  0.475556  0.524443  0.818543  1
  In  In12  1  0.666666  0.333333  0.709643  1
  In  In13  1  0.333334  0.666667  0.209643  1
  Se  Se14  1  0.398432  0.199216  0.600754  1
  Se  Se15  1  0.601568  0.800784  0.100754  1
  Se  Se16  1  0.666667  0.333333  0.054247  1
  Se  Se17  1  0.800783  0.601567  0.600755  1
  Se  Se18  1  0.199217  0.398433  0.100755  1
  Se  Se19  1  0.333333  0.666667  0.554247  1
  Se  Se20  1  0.199217  0.800784  0.100754  1
  Se  Se21  1  0.800783  0.199216  0.600754  1
  F  F22  1  0.000000  0.000000  0.282771  1
  F  F23  1  0.000000  0.000000  0.782771  1
