# generated using pymatgen
data_Tb4Y12Cd4Pd3Rh
_symmetry_space_group_name_H-M   'P 1'
_cell_length_a   9.75594100
_cell_length_b   9.75594082
_cell_length_c   9.75594105
_cell_angle_alpha   59.66333186
_cell_angle_beta   59.66333127
_cell_angle_gamma   59.66332846
_symmetry_Int_Tables_number   1
_chemical_formula_structural   Tb4Y12Cd4Pd3Rh
_chemical_formula_sum   'Tb4 Y12 Cd4 Pd3 Rh1'
_cell_volume   651.56499536
_cell_formula_units_Z   1
loop_
 _symmetry_equiv_pos_site_id
 _symmetry_equiv_pos_as_xyz
  1  'x, y, z'
loop_
 _atom_site_type_symbol
 _atom_site_label
 _atom_site_symmetry_multiplicity
 _atom_site_fract_x
 _atom_site_fract_y
 _atom_site_fract_z
 _atom_site_occupancy
  Tb  Tb0  1  0.352798  0.352798  0.352798  1
  Tb  Tb1  1  0.352179  0.352179  0.941683  1
  Tb  Tb2  1  0.352179  0.941683  0.352179  1
  Tb  Tb3  1  0.941683  0.352179  0.352179  1
  Y  Y4  1  0.814865  0.189100  0.189100  1
  Y  Y5  1  0.188313  0.811038  0.811038  1
  Y  Y6  1  0.189100  0.814865  0.189100  1
  Y  Y7  1  0.811038  0.188313  0.811038  1
  Y  Y8  1  0.189100  0.189100  0.814865  1
  Y  Y9  1  0.811038  0.811038  0.188313  1
  Y  Y10  1  0.934492  0.565774  0.565774  1
  Y  Y11  1  0.563675  0.935222  0.935222  1
  Y  Y12  1  0.565774  0.934492  0.565774  1
  Y  Y13  1  0.935222  0.563675  0.935222  1
  Y  Y14  1  0.565774  0.565774  0.934492  1
  Y  Y15  1  0.935222  0.935222  0.563675  1
  Cd  Cd16  1  0.581329  0.581329  0.581329  1
  Cd  Cd17  1  0.581422  0.581422  0.253138  1
  Cd  Cd18  1  0.581422  0.253138  0.581422  1
  Cd  Cd19  1  0.253138  0.581422  0.581422  1
  Pd  Pd20  1  0.144275  0.144275  0.566619  1
  Pd  Pd21  1  0.144275  0.566619  0.144275  1
  Pd  Pd22  1  0.566619  0.144275  0.144275  1
  Rh  Rh23  1  0.145072  0.145072  0.145072  1
