# generated using pymatgen
data_LiTb3ZnIn3Ir
_symmetry_space_group_name_H-M   'P 1'
_cell_length_a   7.86593000
_cell_length_b   7.86593169
_cell_length_c   3.77785900
_cell_angle_alpha   90.00000000
_cell_angle_beta   90.00000000
_cell_angle_gamma   120.00000972
_symmetry_Int_Tables_number   1
_chemical_formula_structural   LiTb3ZnIn3Ir
_chemical_formula_sum   'Li1 Tb3 Zn1 In3 Ir1'
_cell_volume   202.43079548
_cell_formula_units_Z   1
loop_
 _symmetry_equiv_pos_site_id
 _symmetry_equiv_pos_as_xyz
  1  'x, y, z'
loop_
 _atom_site_type_symbol
 _atom_site_label
 _atom_site_symmetry_multiplicity
 _atom_site_fract_x
 _atom_site_fract_y
 _atom_site_fract_z
 _atom_site_occupancy
  Li  Li0  1  0.000000  0.000000  0.000000  1
  Tb  Tb1  1  0.423520  0.395756  0.000000  1
  Tb  Tb2  1  0.604244  0.027764  0.000000  1
  Tb  Tb3  1  0.972236  0.576480  0.000000  1
  Zn  Zn4  1  0.333333  0.666667  0.500000  1
  In  In5  1  0.006501  0.262844  0.500000  1
  In  In6  1  0.737156  0.743657  0.500000  1
  In  In7  1  0.256343  0.993499  0.500000  1
  Ir  Ir8  1  0.666667  0.333333  0.500000  1
