# generated using pymatgen
data_Pr6Al24TcOs7
_symmetry_space_group_name_H-M   'P 1'
_cell_length_a   8.94453500
_cell_length_b   8.94453565
_cell_length_c   9.70687700
_cell_angle_alpha   90.00000000
_cell_angle_beta   90.00000000
_cell_angle_gamma   120.00000128
_symmetry_Int_Tables_number   1
_chemical_formula_structural   Pr6Al24TcOs7
_chemical_formula_sum   'Pr6 Al24 Tc1 Os7'
_cell_volume   672.55176985
_cell_formula_units_Z   1
loop_
 _symmetry_equiv_pos_site_id
 _symmetry_equiv_pos_as_xyz
  1  'x, y, z'
loop_
 _atom_site_type_symbol
 _atom_site_label
 _atom_site_symmetry_multiplicity
 _atom_site_fract_x
 _atom_site_fract_y
 _atom_site_fract_z
 _atom_site_occupancy
  Pr  Pr0  1  0.192015  0.384030  0.249628  1
  Pr  Pr1  1  0.807985  0.615970  0.750372  1
  Pr  Pr2  1  0.615970  0.807985  0.249628  1
  Pr  Pr3  1  0.384030  0.192015  0.750372  1
  Pr  Pr4  1  0.192015  0.807985  0.249628  1
  Pr  Pr5  1  0.807985  0.192015  0.750372  1
  Al  Al6  1  0.333333  0.666667  0.007806  1
  Al  Al7  1  0.666667  0.333333  0.992194  1
  Al  Al8  1  0.666667  0.333333  0.508386  1
  Al  Al9  1  0.333333  0.666667  0.491614  1
  Al  Al10  1  0.162871  0.325743  0.574884  1
  Al  Al11  1  0.837129  0.674257  0.425116  1
  Al  Al12  1  0.674257  0.837129  0.574884  1
  Al  Al13  1  0.837388  0.674775  0.076594  1
  Al  Al14  1  0.325743  0.162871  0.425116  1
  Al  Al15  1  0.162612  0.325225  0.923406  1
  Al  Al16  1  0.162871  0.837129  0.574884  1
  Al  Al17  1  0.325225  0.162612  0.076594  1
  Al  Al18  1  0.837129  0.162871  0.425116  1
  Al  Al19  1  0.674775  0.837388  0.923406  1
  Al  Al20  1  0.837388  0.162612  0.076594  1
  Al  Al21  1  0.162612  0.837388  0.923406  1
  Al  Al22  1  0.561948  0.123895  0.250252  1
  Al  Al23  1  0.438052  0.876105  0.749748  1
  Al  Al24  1  0.876105  0.438052  0.250252  1
  Al  Al25  1  0.123895  0.561948  0.749748  1
  Al  Al26  1  0.561948  0.438052  0.250252  1
  Al  Al27  1  0.438052  0.561948  0.749748  1
  Al  Al28  1  0.000000  0.000000  0.249625  1
  Al  Al29  1  0.000000  0.000000  0.750375  1
  Tc  Tc30  1  0.000000  0.000000  0.000000  1
  Os  Os31  1  0.500000  0.000000  0.000000  1
  Os  Os32  1  0.000000  0.500000  0.000000  1
  Os  Os33  1  0.500000  0.000000  0.500000  1
  Os  Os34  1  0.500000  0.500000  0.000000  1
  Os  Os35  1  0.000000  0.500000  0.500000  1
  Os  Os36  1  0.500000  0.500000  0.500000  1
  Os  Os37  1  0.000000  0.000000  0.500000  1
