# generated using pymatgen
data_Zr4CoNiP2
_symmetry_space_group_name_H-M   'P 1'
_cell_length_a   3.66891200
_cell_length_b   5.26230974
_cell_length_c   7.44128549
_cell_angle_alpha   69.67801549
_cell_angle_beta   90.00000000
_cell_angle_gamma   90.00000000
_symmetry_Int_Tables_number   1
_chemical_formula_structural   Zr4CoNiP2
_chemical_formula_sum   'Zr4 Co1 Ni1 P2'
_cell_volume   134.72599605
_cell_formula_units_Z   1
loop_
 _symmetry_equiv_pos_site_id
 _symmetry_equiv_pos_as_xyz
  1  'x, y, z'
loop_
 _atom_site_type_symbol
 _atom_site_label
 _atom_site_symmetry_multiplicity
 _atom_site_fract_x
 _atom_site_fract_y
 _atom_site_fract_z
 _atom_site_occupancy
  Zr  Zr0  1  0.250000  0.713902  0.074163  1
  Zr  Zr1  1  0.750000  0.290077  0.920059  1
  Zr  Zr2  1  0.250000  0.220471  0.572786  1
  Zr  Zr3  1  0.750000  0.775461  0.437068  1
  Co  Co4  1  0.250000  0.646502  0.705934  1
  Ni  Ni5  1  0.750000  0.352373  0.289400  1
  P  P6  1  0.250000  0.143762  0.211251  1
  P  P7  1  0.750000  0.857454  0.789338  1
