# generated using pymatgen
data_Y2B4Os3Ru
_symmetry_space_group_name_H-M   'P 1'
_cell_length_a   6.63420687
_cell_length_b   5.93562140
_cell_length_c   5.59334229
_cell_angle_alpha   70.18880398
_cell_angle_beta   57.32499538
_cell_angle_gamma   52.52878739
_symmetry_Int_Tables_number   1
_chemical_formula_structural   Y2B4Os3Ru
_chemical_formula_sum   'Y2 B4 Os3 Ru1'
_cell_volume   147.12564654
_cell_formula_units_Z   1
loop_
 _symmetry_equiv_pos_site_id
 _symmetry_equiv_pos_as_xyz
  1  'x, y, z'
loop_
 _atom_site_type_symbol
 _atom_site_label
 _atom_site_symmetry_multiplicity
 _atom_site_fract_x
 _atom_site_fract_y
 _atom_site_fract_z
 _atom_site_occupancy
  Y  Y0  1  0.999318  0.999318  0.000682  1
  Y  Y1  1  0.251930  0.251930  0.248070  1
  B  B2  1  0.687851  0.311347  0.691619  1
  B  B3  1  0.311347  0.687851  0.309183  1
  B  B4  1  0.942118  0.556158  0.942113  1
  B  B5  1  0.556158  0.942118  0.559609  1
  Os  Os6  1  0.612474  0.612474  0.887526  1
  Os  Os7  1  0.638315  0.638315  0.361684  1
  Os  Os8  1  0.361178  0.361179  0.638821  1
  Ru  Ru9  1  0.889310  0.889309  0.610690  1
