# generated using pymatgen
data_Hf16Co4Os3Pt
_symmetry_space_group_name_H-M   'P 1'
_cell_length_a   8.59852065
_cell_length_b   8.59192617
_cell_length_c   8.59192600
_cell_angle_alpha   60.00000066
_cell_angle_beta   60.02536733
_cell_angle_gamma   60.02536336
_symmetry_Int_Tables_number   1
_chemical_formula_structural   Hf16Co4Os3Pt
_chemical_formula_sum   'Hf16 Co4 Os3 Pt1'
_cell_volume   449.01020165
_cell_formula_units_Z   1
loop_
 _symmetry_equiv_pos_site_id
 _symmetry_equiv_pos_as_xyz
  1  'x, y, z'
loop_
 _atom_site_type_symbol
 _atom_site_label
 _atom_site_symmetry_multiplicity
 _atom_site_fract_x
 _atom_site_fract_y
 _atom_site_fract_z
 _atom_site_occupancy
  Hf  Hf0  1  0.056846  0.647718  0.647718  1
  Hf  Hf1  1  0.646260  0.058278  0.647731  1
  Hf  Hf2  1  0.646260  0.647731  0.058278  1
  Hf  Hf3  1  0.646260  0.647731  0.647731  1
  Hf  Hf4  1  0.797529  0.803672  0.199400  1
  Hf  Hf5  1  0.200610  0.200904  0.799243  1
  Hf  Hf6  1  0.797529  0.199400  0.803672  1
  Hf  Hf7  1  0.200610  0.799243  0.200904  1
  Hf  Hf8  1  0.200610  0.799243  0.799243  1
  Hf  Hf9  1  0.797529  0.199400  0.199400  1
  Hf  Hf10  1  0.437180  0.435881  0.063469  1
  Hf  Hf11  1  0.070505  0.057594  0.435950  1
  Hf  Hf12  1  0.437180  0.063469  0.435881  1
  Hf  Hf13  1  0.070505  0.435950  0.057594  1
  Hf  Hf14  1  0.070505  0.435950  0.435950  1
  Hf  Hf15  1  0.437180  0.063469  0.063469  1
  Co  Co16  1  0.423485  0.858839  0.858839  1
  Co  Co17  1  0.857705  0.423041  0.859627  1
  Co  Co18  1  0.857705  0.859627  0.423041  1
  Co  Co19  1  0.857705  0.859627  0.859627  1
  Os  Os20  1  0.413439  0.751874  0.417343  1
  Os  Os21  1  0.413439  0.417343  0.751874  1
  Os  Os22  1  0.413439  0.417343  0.417343  1
  Pt  Pt23  1  0.749986  0.416671  0.416671  1
