# generated using pymatgen
data_YbHo7(B6Os)4
_symmetry_space_group_name_H-M   'P 1'
_cell_length_a   3.64361500
_cell_length_b   9.12856784
_cell_length_c   11.51293605
_cell_angle_alpha   89.91982636
_cell_angle_beta   90.00000000
_cell_angle_gamma   90.00000000
_symmetry_Int_Tables_number   1
_chemical_formula_structural   YbHo7(B6Os)4
_chemical_formula_sum   'Yb1 Ho7 B24 Os4'
_cell_volume   382.93123791
_cell_formula_units_Z   1
loop_
 _symmetry_equiv_pos_site_id
 _symmetry_equiv_pos_as_xyz
  1  'x, y, z'
loop_
 _atom_site_type_symbol
 _atom_site_label
 _atom_site_symmetry_multiplicity
 _atom_site_fract_x
 _atom_site_fract_y
 _atom_site_fract_z
 _atom_site_occupancy
  Yb  Yb0  1  0.000000  0.322788  0.413434  1
  Ho  Ho1  1  0.000000  0.676572  0.585256  1
  Ho  Ho2  1  0.000000  0.821896  0.086540  1
  Ho  Ho3  1  0.000000  0.178673  0.914372  1
  Ho  Ho4  1  0.000000  0.944154  0.371728  1
  Ho  Ho5  1  0.000000  0.057663  0.627538  1
  Ho  Ho6  1  0.000000  0.443184  0.128673  1
  Ho  Ho7  1  0.000000  0.556052  0.872864  1
  B  B8  1  0.500000  0.553765  0.432748  1
  B  B9  1  0.500000  0.446140  0.567217  1
  B  B10  1  0.500000  0.053036  0.066319  1
  B  B11  1  0.500000  0.946130  0.932801  1
  B  B12  1  0.500000  0.748401  0.419439  1
  B  B13  1  0.500000  0.252169  0.580866  1
  B  B14  1  0.500000  0.247602  0.080265  1
  B  B15  1  0.500000  0.751715  0.919832  1
  B  B16  1  0.500000  0.791536  0.266094  1
  B  B17  1  0.500000  0.209532  0.734255  1
  B  B18  1  0.500000  0.289967  0.233521  1
  B  B19  1  0.500000  0.709192  0.766352  1
  B  B20  1  0.500000  0.631862  0.185796  1
  B  B21  1  0.500000  0.368679  0.815204  1
  B  B22  1  0.500000  0.131055  0.313865  1
  B  B23  1  0.500000  0.868640  0.685257  1
  B  B24  1  0.500000  0.982630  0.211921  1
  B  B25  1  0.500000  0.017202  0.787169  1
  B  B26  1  0.500000  0.483341  0.287538  1
  B  B27  1  0.500000  0.517026  0.712892  1
  B  B28  1  0.500000  0.607476  0.030019  1
  B  B29  1  0.500000  0.392798  0.970633  1
  B  B30  1  0.500000  0.103695  0.471106  1
  B  B31  1  0.500000  0.894926  0.529149  1
  Os  Os32  1  0.000000  0.639110  0.320817  1
  Os  Os33  1  0.000000  0.362467  0.679910  1
  Os  Os34  1  0.000000  0.136255  0.177371  1
  Os  Os35  1  0.000000  0.862670  0.821242  1
