# generated using pymatgen
data_Sc8CuPd3O2
_symmetry_space_group_name_H-M   'P 1'
_cell_length_a   8.73042886
_cell_length_b   8.73051717
_cell_length_c   8.75030500
_cell_angle_alpha   59.92487845
_cell_angle_beta   59.92452006
_cell_angle_gamma   59.84454749
_symmetry_Int_Tables_number   1
_chemical_formula_structural   Sc8CuPd3O2
_chemical_formula_sum   'Sc16 Cu2 Pd6 O4'
_cell_volume   470.51864912
_cell_formula_units_Z   2
loop_
 _symmetry_equiv_pos_site_id
 _symmetry_equiv_pos_as_xyz
  1  'x, y, z'
loop_
 _atom_site_type_symbol
 _atom_site_label
 _atom_site_symmetry_multiplicity
 _atom_site_fract_x
 _atom_site_fract_y
 _atom_site_fract_z
 _atom_site_occupancy
  Sc  Sc0  1  0.818073  0.182980  0.818370  1
  Sc  Sc1  1  0.181834  0.818868  0.180968  1
  Sc  Sc2  1  0.431141  0.068178  0.431656  1
  Sc  Sc3  1  0.431135  0.068174  0.069029  1
  Sc  Sc4  1  0.067022  0.431917  0.431614  1
  Sc  Sc5  1  0.067016  0.431921  0.069445  1
  Sc  Sc6  1  0.180409  0.182595  0.818495  1
  Sc  Sc7  1  0.431097  0.431947  0.068478  1
  Sc  Sc8  1  0.125429  0.623590  0.625490  1
  Sc  Sc9  1  0.627102  0.622890  0.125012  1
  Sc  Sc10  1  0.627114  0.622880  0.624994  1
  Sc  Sc11  1  0.626431  0.124571  0.624502  1
  Sc  Sc12  1  0.181836  0.818873  0.818328  1
  Sc  Sc13  1  0.818076  0.182983  0.180569  1
  Sc  Sc14  1  0.067401  0.069611  0.431497  1
  Sc  Sc15  1  0.818058  0.818902  0.181520  1
  Cu  Cu16  1  0.836707  0.490137  0.836579  1
  Cu  Cu17  1  0.759684  0.413351  0.413483  1
  Pd  Pd18  1  0.413449  0.763014  0.411770  1
  Pd  Pd19  1  0.839471  0.836953  0.484860  1
  Pd  Pd20  1  0.839472  0.836950  0.838717  1
  Pd  Pd21  1  0.487010  0.836531  0.838231  1
  Pd  Pd22  1  0.413044  0.410535  0.411287  1
  Pd  Pd23  1  0.413044  0.410535  0.765135  1
  O  O24  1  0.124228  0.125796  0.624986  1
  O  O25  1  0.625401  0.124922  0.124838  1
  O  O26  1  0.124223  0.125797  0.124992  1
  O  O27  1  0.125091  0.624600  0.125154  1
