# generated using pymatgen
data_Tb3Dy5(HoGa5)4
_symmetry_space_group_name_H-M   'P 1'
_cell_length_a   6.08724504
_cell_length_b   9.62803502
_cell_length_c   11.57030106
_cell_angle_alpha   89.99902146
_cell_angle_beta   89.98861564
_cell_angle_gamma   89.99353169
_symmetry_Int_Tables_number   1
_chemical_formula_structural   Tb3Dy5(HoGa5)4
_chemical_formula_sum   'Tb3 Dy5 Ho4 Ga20'
_cell_volume   678.11459773
_cell_formula_units_Z   1
loop_
 _symmetry_equiv_pos_site_id
 _symmetry_equiv_pos_as_xyz
  1  'x, y, z'
loop_
 _atom_site_type_symbol
 _atom_site_label
 _atom_site_symmetry_multiplicity
 _atom_site_fract_x
 _atom_site_fract_y
 _atom_site_fract_z
 _atom_site_occupancy
  Tb  Tb0  1  0.890356  0.507470  0.351219  1
  Tb  Tb1  1  0.609642  0.992504  0.851349  1
  Tb  Tb2  1  0.109667  0.007456  0.648666  1
  Dy  Dy3  1  0.390377  0.492530  0.148729  1
  Dy  Dy4  1  0.109629  0.492557  0.648909  1
  Dy  Dy5  1  0.390389  0.007452  0.148916  1
  Dy  Dy6  1  0.890386  0.992571  0.351074  1
  Dy  Dy7  1  0.609566  0.507430  0.851211  1
  Ho  Ho8  1  0.849012  0.749963  0.074886  1
  Ho  Ho9  1  0.650868  0.750008  0.574827  1
  Ho  Ho10  1  0.150897  0.250044  0.925214  1
  Ho  Ho11  1  0.349167  0.250043  0.425093  1
  Ga  Ga12  1  0.875550  0.053702  0.089920  1
  Ga  Ga13  1  0.624454  0.446317  0.589922  1
  Ga  Ga14  1  0.124494  0.553653  0.910140  1
  Ga  Ga15  1  0.375571  0.946308  0.410087  1
  Ga  Ga16  1  0.124292  0.946202  0.910370  1
  Ga  Ga17  1  0.375735  0.553740  0.410196  1
  Ga  Ga18  1  0.875508  0.446281  0.089687  1
  Ga  Ga19  1  0.624278  0.053790  0.589633  1
  Ga  Ga20  1  0.170353  0.750132  0.253781  1
  Ga  Ga21  1  0.329789  0.749690  0.753921  1
  Ga  Ga22  1  0.829801  0.250300  0.746109  1
  Ga  Ga23  1  0.670100  0.249841  0.246043  1
  Ga  Ga24  1  0.374944  0.749912  0.003093  1
  Ga  Ga25  1  0.125098  0.749865  0.502882  1
  Ga  Ga26  1  0.624982  0.250194  0.997118  1
  Ga  Ga27  1  0.874892  0.249878  0.497093  1
  Ga  Ga28  1  0.603178  0.750217  0.299965  1
  Ga  Ga29  1  0.896781  0.749745  0.799994  1
  Ga  Ga30  1  0.396783  0.250256  0.699995  1
  Ga  Ga31  1  0.103462  0.249948  0.199957  1
