# generated using pymatgen
data_Dy2Ho3Co19Si11P
_symmetry_space_group_name_H-M   'P 1'
_cell_length_a   12.17018617
_cell_length_b   12.19754430
_cell_length_c   3.73911100
_cell_angle_alpha   90.00000000
_cell_angle_beta   90.00000000
_cell_angle_gamma   120.07437787
_symmetry_Int_Tables_number   1
_chemical_formula_structural   Dy2Ho3Co19Si11P
_chemical_formula_sum   'Dy2 Ho3 Co19 Si11 P1'
_cell_volume   480.33322927
_cell_formula_units_Z   1
loop_
 _symmetry_equiv_pos_site_id
 _symmetry_equiv_pos_as_xyz
  1  'x, y, z'
loop_
 _atom_site_type_symbol
 _atom_site_label
 _atom_site_symmetry_multiplicity
 _atom_site_fract_x
 _atom_site_fract_y
 _atom_site_fract_z
 _atom_site_occupancy
  Dy  Dy0  1  0.667261  0.333483  0.000000  1
  Dy  Dy1  1  0.332739  0.666223  0.000000  1
  Ho  Ho2  1  0.184866  0.185899  0.500000  1
  Ho  Ho3  1  0.815134  0.001033  0.500000  1
  Ho  Ho4  1  0.000000  0.813877  0.500000  1
  Co  Co5  1  0.558626  0.558967  0.000000  1
  Co  Co6  1  0.441374  0.000340  0.000000  1
  Co  Co7  1  0.000000  0.441453  0.000000  1
  Co  Co8  1  0.823786  0.197596  0.000000  1
  Co  Co9  1  0.802534  0.622405  0.000000  1
  Co  Co10  1  0.377494  0.180093  0.000000  1
  Co  Co11  1  0.197466  0.819871  0.000000  1
  Co  Co12  1  0.622506  0.802599  0.000000  1
  Co  Co13  1  0.176214  0.373811  0.000000  1
  Co  Co14  1  0.644782  0.123389  0.500000  1
  Co  Co15  1  0.877373  0.520354  0.500000  1
  Co  Co16  1  0.479023  0.356617  0.500000  1
  Co  Co17  1  0.122627  0.642982  0.500000  1
  Co  Co18  1  0.520977  0.877593  0.500000  1
  Co  Co19  1  0.355218  0.478607  0.500000  1
  Co  Co20  1  0.718390  0.718337  0.500000  1
  Co  Co21  1  0.281610  0.999946  0.500000  1
  Co  Co22  1  0.000000  0.278406  0.500000  1
  Co  Co23  1  0.000000  0.004835  0.000000  1
  Si  Si24  1  0.371081  0.371378  0.000000  1
  Si  Si25  1  0.628919  0.000297  0.000000  1
  Si  Si26  1  0.000000  0.628478  0.000000  1
  Si  Si27  1  0.840407  0.317951  0.500000  1
  Si  Si28  1  0.682880  0.522291  0.500000  1
  Si  Si29  1  0.478157  0.160848  0.500000  1
  Si  Si30  1  0.317120  0.839412  0.500000  1
  Si  Si31  1  0.521843  0.682693  0.500000  1
  Si  Si32  1  0.159593  0.477544  0.500000  1
  Si  Si33  1  0.816651  0.816487  0.000000  1
  Si  Si34  1  0.183349  0.999835  0.000000  1
  P  P35  1  0.000000  0.184073  0.000000  1
