# generated using pymatgen
data_YTh3(ZnGa)4
_symmetry_space_group_name_H-M   'P 1'
_cell_length_a   4.41256600
_cell_length_b   4.41256715
_cell_length_c   15.52722900
_cell_angle_alpha   90.00000000
_cell_angle_beta   90.00000000
_cell_angle_gamma   120.00000639
_symmetry_Int_Tables_number   1
_chemical_formula_structural   YTh3(ZnGa)4
_chemical_formula_sum   'Y1 Th3 Zn4 Ga4'
_cell_volume   261.82258326
_cell_formula_units_Z   1
loop_
 _symmetry_equiv_pos_site_id
 _symmetry_equiv_pos_as_xyz
  1  'x, y, z'
loop_
 _atom_site_type_symbol
 _atom_site_label
 _atom_site_symmetry_multiplicity
 _atom_site_fract_x
 _atom_site_fract_y
 _atom_site_fract_z
 _atom_site_occupancy
  Y  Y0  1  0.000000  0.000000  0.250000  1
  Th  Th1  1  0.000000  0.000000  0.750000  1
  Th  Th2  1  0.000000  0.000000  0.494427  1
  Th  Th3  1  0.000000  0.000000  0.005573  1
  Zn  Zn4  1  0.666667  0.333333  0.872027  1
  Zn  Zn5  1  0.666667  0.333333  0.627973  1
  Zn  Zn6  1  0.333333  0.666667  0.143115  1
  Zn  Zn7  1  0.333333  0.666667  0.356885  1
  Ga  Ga8  1  0.666667  0.333333  0.123061  1
  Ga  Ga9  1  0.666667  0.333333  0.376939  1
  Ga  Ga10  1  0.333333  0.666667  0.881532  1
  Ga  Ga11  1  0.333333  0.666667  0.618468  1
