# generated using pymatgen
data_TaTiGeRh5
_symmetry_space_group_name_H-M   'P 1'
_cell_length_a   4.00632000
_cell_length_b   5.49324109
_cell_length_c   10.72004393
_cell_angle_alpha   90.41611119
_cell_angle_beta   90.00000000
_cell_angle_gamma   90.00000000
_symmetry_Int_Tables_number   1
_chemical_formula_structural   TaTiGeRh5
_chemical_formula_sum   'Ta2 Ti2 Ge2 Rh10'
_cell_volume   235.91709217
_cell_formula_units_Z   2
loop_
 _symmetry_equiv_pos_site_id
 _symmetry_equiv_pos_as_xyz
  1  'x, y, z'
loop_
 _atom_site_type_symbol
 _atom_site_label
 _atom_site_symmetry_multiplicity
 _atom_site_fract_x
 _atom_site_fract_y
 _atom_site_fract_z
 _atom_site_occupancy
  Ta  Ta0  1  0.500000  0.323210  0.145101  1
  Ta  Ta1  1  0.500000  0.676790  0.854899  1
  Ti  Ti2  1  0.500000  0.825933  0.360778  1
  Ti  Ti3  1  0.500000  0.174067  0.639222  1
  Ge  Ge4  1  0.000000  0.000000  0.000000  1
  Ge  Ge5  1  0.000000  0.500000  0.500000  1
  Rh  Rh6  1  0.000000  0.000000  0.500000  1
  Rh  Rh7  1  0.000000  0.500000  0.000000  1
  Rh  Rh8  1  0.000000  0.069155  0.243802  1
  Rh  Rh9  1  0.000000  0.930845  0.756198  1
  Rh  Rh10  1  0.000000  0.571278  0.257062  1
  Rh  Rh11  1  0.000000  0.428722  0.742938  1
  Rh  Rh12  1  0.500000  0.307822  0.392237  1
  Rh  Rh13  1  0.500000  0.692178  0.607763  1
  Rh  Rh14  1  0.500000  0.808073  0.107892  1
  Rh  Rh15  1  0.500000  0.191927  0.892108  1
