# generated using pymatgen
data_TbYb2Ga9Pd2
_symmetry_space_group_name_H-M   'P 1'
_cell_length_a   8.14151349
_cell_length_b   8.14151370
_cell_length_c   8.14151351
_cell_angle_alpha   148.98401145
_cell_angle_beta   108.32731589
_cell_angle_gamma   80.12678523
_symmetry_Int_Tables_number   1
_chemical_formula_structural   TbYb2Ga9Pd2
_chemical_formula_sum   'Tb1 Yb2 Ga9 Pd2'
_cell_volume   258.61229177
_cell_formula_units_Z   1
loop_
 _symmetry_equiv_pos_site_id
 _symmetry_equiv_pos_as_xyz
  1  'x, y, z'
loop_
 _atom_site_type_symbol
 _atom_site_label
 _atom_site_symmetry_multiplicity
 _atom_site_fract_x
 _atom_site_fract_y
 _atom_site_fract_z
 _atom_site_occupancy
  Tb  Tb0  1  0.500000  0.500000  0.000000  1
  Yb  Yb1  1  0.200260  0.200260  0.000000  1
  Yb  Yb2  1  0.799740  0.799740  0.000000  1
  Ga  Ga3  1  0.081309  0.362331  0.718978  1
  Ga  Ga4  1  0.918691  0.637669  0.281022  1
  Ga  Ga5  1  0.643354  0.362331  0.281022  1
  Ga  Ga6  1  0.356646  0.637669  0.718978  1
  Ga  Ga7  1  0.790783  0.156439  0.634345  1
  Ga  Ga8  1  0.209217  0.843561  0.365655  1
  Ga  Ga9  1  0.522093  0.156439  0.365655  1
  Ga  Ga10  1  0.477907  0.843561  0.634345  1
  Ga  Ga11  1  0.000000  0.500000  0.500000  1
  Pd  Pd12  1  0.819699  0.000000  0.819699  1
  Pd  Pd13  1  0.180301  0.000000  0.180301  1
