# generated using pymatgen
data_Sm7Y(C2Cl3)2
_symmetry_space_group_name_H-M   'P 1'
_cell_length_a   3.73340100
_cell_length_b   10.78877300
_cell_length_c   20.23087900
_cell_angle_alpha   90.00000000
_cell_angle_beta   90.00000000
_cell_angle_gamma   90.00000000
_symmetry_Int_Tables_number   1
_chemical_formula_structural   Sm7Y(C2Cl3)2
_chemical_formula_sum   'Sm14 Y2 C8 Cl12'
_cell_volume   814.87585088
_cell_formula_units_Z   2
loop_
 _symmetry_equiv_pos_site_id
 _symmetry_equiv_pos_as_xyz
  1  'x, y, z'
loop_
 _atom_site_type_symbol
 _atom_site_label
 _atom_site_symmetry_multiplicity
 _atom_site_fract_x
 _atom_site_fract_y
 _atom_site_fract_z
 _atom_site_occupancy
  Sm  Sm0  1  0.250000  0.140326  0.573246  1
  Sm  Sm1  1  0.250000  0.640326  0.926754  1
  Sm  Sm2  1  0.750000  0.861125  0.427893  1
  Sm  Sm3  1  0.750000  0.361125  0.072107  1
  Sm  Sm4  1  0.250000  0.637014  0.754835  1
  Sm  Sm5  1  0.250000  0.137014  0.745165  1
  Sm  Sm6  1  0.750000  0.362953  0.244594  1
  Sm  Sm7  1  0.750000  0.862953  0.255406  1
  Sm  Sm8  1  0.250000  0.101982  0.333497  1
  Sm  Sm9  1  0.250000  0.601982  0.166503  1
  Sm  Sm10  1  0.750000  0.897871  0.667484  1
  Sm  Sm11  1  0.750000  0.397871  0.832516  1
  Sm  Sm12  1  0.250000  0.123420  0.163960  1
  Sm  Sm13  1  0.250000  0.623420  0.336040  1
  Y  Y14  1  0.750000  0.874036  0.833970  1
  Y  Y15  1  0.750000  0.374036  0.666030  1
  C  C16  1  0.250000  0.863598  0.348434  1
  C  C17  1  0.250000  0.363598  0.151566  1
  C  C18  1  0.750000  0.137784  0.652675  1
  C  C19  1  0.750000  0.637784  0.847325  1
  C  C20  1  0.250000  0.387255  0.749497  1
  C  C21  1  0.250000  0.887255  0.750503  1
  C  C22  1  0.750000  0.611965  0.249425  1
  C  C23  1  0.750000  0.111965  0.250575  1
  Cl  Cl24  1  0.250000  0.379418  0.951248  1
  Cl  Cl25  1  0.250000  0.879418  0.548752  1
  Cl  Cl26  1  0.750000  0.621969  0.047069  1
  Cl  Cl27  1  0.750000  0.121969  0.452931  1
  Cl  Cl28  1  0.250000  0.889820  0.939105  1
  Cl  Cl29  1  0.250000  0.389820  0.560895  1
  Cl  Cl30  1  0.750000  0.113041  0.054677  1
  Cl  Cl31  1  0.750000  0.613041  0.445323  1
  Cl  Cl32  1  0.250000  0.361493  0.354746  1
  Cl  Cl33  1  0.250000  0.861493  0.145254  1
  Cl  Cl34  1  0.750000  0.634928  0.645585  1
  Cl  Cl35  1  0.750000  0.134928  0.854415  1
