# generated using pymatgen
data_Pr6MgCuSb14
_symmetry_space_group_name_H-M   'P 1'
_cell_length_a   12.51923131
_cell_length_b   12.51923175
_cell_length_c   4.26840600
_cell_angle_alpha   80.19700512
_cell_angle_beta   80.19700477
_cell_angle_gamma   101.43689902
_symmetry_Int_Tables_number   1
_chemical_formula_structural   Pr6MgCuSb14
_chemical_formula_sum   'Pr6 Mg1 Cu1 Sb14'
_cell_volume   631.55405860
_cell_formula_units_Z   1
loop_
 _symmetry_equiv_pos_site_id
 _symmetry_equiv_pos_as_xyz
  1  'x, y, z'
loop_
 _atom_site_type_symbol
 _atom_site_label
 _atom_site_symmetry_multiplicity
 _atom_site_fract_x
 _atom_site_fract_y
 _atom_site_fract_z
 _atom_site_occupancy
  Pr  Pr0  1  0.327846  0.678439  0.930449  1
  Pr  Pr1  1  0.678439  0.327846  0.930449  1
  Pr  Pr2  1  0.272511  0.006572  0.793698  1
  Pr  Pr3  1  0.726962  0.998382  0.070521  1
  Pr  Pr4  1  0.998382  0.726962  0.070521  1
  Pr  Pr5  1  0.006572  0.272511  0.793698  1
  Mg  Mg6  1  0.376300  0.376300  0.056917  1
  Cu  Cu7  1  0.265269  0.265269  0.667788  1
  Sb  Sb8  1  0.568511  0.568511  0.864785  1
  Sb  Sb9  1  0.472569  0.255890  0.568901  1
  Sb  Sb10  1  0.552288  0.745406  0.283599  1
  Sb  Sb11  1  0.745406  0.552288  0.283599  1
  Sb  Sb12  1  0.255890  0.472569  0.568901  1
  Sb  Sb13  1  0.513852  0.913975  0.719284  1
  Sb  Sb14  1  0.488618  0.082629  0.146841  1
  Sb  Sb15  1  0.082629  0.488618  0.146841  1
  Sb  Sb16  1  0.913975  0.513852  0.719284  1
  Sb  Sb17  1  0.161119  0.161119  0.271585  1
  Sb  Sb18  1  0.855517  0.855517  0.577333  1
  Sb  Sb19  1  0.201014  0.802823  0.431308  1
  Sb  Sb20  1  0.802823  0.201014  0.431308  1
  Sb  Sb21  1  0.994107  0.994107  0.939689  1
