# generated using pymatgen
data_AcEu(Co5P3)2
_symmetry_space_group_name_H-M   'P 1'
_cell_length_a   6.05186170
_cell_length_b   6.05186192
_cell_length_c   11.48174900
_cell_angle_alpha   90.00000000
_cell_angle_beta   90.00000000
_cell_angle_gamma   145.03783631
_symmetry_Int_Tables_number   1
_chemical_formula_structural   AcEu(Co5P3)2
_chemical_formula_sum   'Ac1 Eu1 Co10 P6'
_cell_volume   240.97249945
_cell_formula_units_Z   1
loop_
 _symmetry_equiv_pos_site_id
 _symmetry_equiv_pos_as_xyz
  1  'x, y, z'
loop_
 _atom_site_type_symbol
 _atom_site_label
 _atom_site_symmetry_multiplicity
 _atom_site_fract_x
 _atom_site_fract_y
 _atom_site_fract_z
 _atom_site_occupancy
  Ac  Ac0  1  0.663777  0.336223  0.750000  1
  Eu  Eu1  1  0.338749  0.661251  0.250000  1
  Co  Co2  1  0.052852  0.947148  0.144136  1
  Co  Co3  1  0.052852  0.947148  0.355864  1
  Co  Co4  1  0.697385  0.302615  0.431291  1
  Co  Co5  1  0.302804  0.697196  0.565036  1
  Co  Co6  1  0.302804  0.697196  0.934964  1
  Co  Co7  1  0.697385  0.302615  0.068709  1
  Co  Co8  1  0.499946  0.500054  0.498701  1
  Co  Co9  1  0.499946  0.500054  0.001299  1
  Co  Co10  1  0.944957  0.055043  0.640736  1
  Co  Co11  1  0.944957  0.055043  0.859264  1
  P  P12  1  0.609441  0.390559  0.250000  1
  P  P13  1  0.392216  0.607784  0.750000  1
  P  P14  1  0.117529  0.882471  0.533663  1
  P  P15  1  0.882435  0.117565  0.459522  1
  P  P16  1  0.882435  0.117565  0.040478  1
  P  P17  1  0.117529  0.882471  0.966337  1
