# generated using pymatgen
data_Sc22IrOs6Rh
_symmetry_space_group_name_H-M   'P 1'
_cell_length_a   9.47746202
_cell_length_b   9.47739298
_cell_length_c   9.47197900
_cell_angle_alpha   60.01888491
_cell_angle_beta   60.01944404
_cell_angle_gamma   59.97213145
_symmetry_Int_Tables_number   1
_chemical_formula_structural   Sc22IrOs6Rh
_chemical_formula_sum   'Sc22 Ir1 Os6 Rh1'
_cell_volume   601.64568454
_cell_formula_units_Z   1
loop_
 _symmetry_equiv_pos_site_id
 _symmetry_equiv_pos_as_xyz
  1  'x, y, z'
loop_
 _atom_site_type_symbol
 _atom_site_label
 _atom_site_symmetry_multiplicity
 _atom_site_fract_x
 _atom_site_fract_y
 _atom_site_fract_z
 _atom_site_occupancy
  Sc  Sc0  1  0.843109  0.843106  0.844466  1
  Sc  Sc1  1  0.532535  0.154384  0.156542  1
  Sc  Sc2  1  0.156892  0.156894  0.530677  1
  Sc  Sc3  1  0.154381  0.532535  0.156539  1
  Sc  Sc4  1  0.843108  0.843106  0.469323  1
  Sc  Sc5  1  0.845619  0.467465  0.843461  1
  Sc  Sc6  1  0.467465  0.845616  0.843458  1
  Sc  Sc7  1  0.156891  0.156894  0.155534  1
  Sc  Sc8  1  0.196556  0.803442  0.198972  1
  Sc  Sc9  1  0.196557  0.803440  0.801029  1
  Sc  Sc10  1  0.803443  0.196560  0.198971  1
  Sc  Sc11  1  0.801187  0.801180  0.198817  1
  Sc  Sc12  1  0.198813  0.198820  0.801183  1
  Sc  Sc13  1  0.803444  0.196558  0.801028  1
  Sc  Sc14  1  0.381383  0.381386  0.386752  1
  Sc  Sc15  1  0.149182  0.614800  0.618010  1
  Sc  Sc16  1  0.614799  0.149183  0.618012  1
  Sc  Sc17  1  0.618617  0.618615  0.149522  1
  Sc  Sc18  1  0.385201  0.850817  0.381988  1
  Sc  Sc19  1  0.381383  0.381385  0.850478  1
  Sc  Sc20  1  0.850818  0.385200  0.381990  1
  Sc  Sc21  1  0.618617  0.618614  0.613248  1
  Ir  Ir22  1  0.000000  0.000000  0.500000  1
  Os  Os23  1  0.500000  0.000000  0.500000  1
  Os  Os24  1  0.000000  0.500000  0.500000  1
  Os  Os25  1  0.500000  0.000000  0.000000  1
  Os  Os26  1  0.000000  0.500000  0.000000  1
  Os  Os27  1  0.500000  0.500000  0.500000  1
  Os  Os28  1  0.000000  0.000000  0.000000  1
  Rh  Rh29  1  0.500000  0.500000  0.000000  1
