# generated using pymatgen
data_HfTaSiRh5
_symmetry_space_group_name_H-M   'P 1'
_cell_length_a   4.03223500
_cell_length_b   5.53953156
_cell_length_c   10.74887976
_cell_angle_alpha   89.78650365
_cell_angle_beta   90.00000000
_cell_angle_gamma   90.00000000
_symmetry_Int_Tables_number   1
_chemical_formula_structural   HfTaSiRh5
_chemical_formula_sum   'Hf2 Ta2 Si2 Rh10'
_cell_volume   240.09276094
_cell_formula_units_Z   2
loop_
 _symmetry_equiv_pos_site_id
 _symmetry_equiv_pos_as_xyz
  1  'x, y, z'
loop_
 _atom_site_type_symbol
 _atom_site_label
 _atom_site_symmetry_multiplicity
 _atom_site_fract_x
 _atom_site_fract_y
 _atom_site_fract_z
 _atom_site_occupancy
  Hf  Hf0  1  0.500000  0.676094  0.859679  1
  Hf  Hf1  1  0.500000  0.323906  0.140321  1
  Ta  Ta2  1  0.500000  0.174381  0.643086  1
  Ta  Ta3  1  0.500000  0.825619  0.356914  1
  Si  Si4  1  0.000000  0.500000  0.500000  1
  Si  Si5  1  0.000000  0.000000  0.000000  1
  Rh  Rh6  1  0.500000  0.180063  0.892751  1
  Rh  Rh7  1  0.500000  0.819937  0.107249  1
  Rh  Rh8  1  0.500000  0.686739  0.599726  1
  Rh  Rh9  1  0.500000  0.313261  0.400274  1
  Rh  Rh10  1  0.000000  0.424162  0.735415  1
  Rh  Rh11  1  0.000000  0.575838  0.264585  1
  Rh  Rh12  1  0.000000  0.000000  0.500000  1
  Rh  Rh13  1  0.000000  0.500000  0.000000  1
  Rh  Rh14  1  0.000000  0.068339  0.244688  1
  Rh  Rh15  1  0.000000  0.931661  0.755312  1
