# generated using pymatgen
data_TmTh3Al15(GaIr2)3
_symmetry_space_group_name_H-M   'P 1'
_cell_length_a   7.63219508
_cell_length_b   7.64009652
_cell_length_c   9.53663900
_cell_angle_alpha   90.00000000
_cell_angle_beta   90.00000000
_cell_angle_gamma   119.53586192
_symmetry_Int_Tables_number   1
_chemical_formula_structural   TmTh3Al15(GaIr2)3
_chemical_formula_sum   'Tm1 Th3 Al15 Ga3 Ir6'
_cell_volume   483.82301237
_cell_formula_units_Z   1
loop_
 _symmetry_equiv_pos_site_id
 _symmetry_equiv_pos_as_xyz
  1  'x, y, z'
loop_
 _atom_site_type_symbol
 _atom_site_label
 _atom_site_symmetry_multiplicity
 _atom_site_fract_x
 _atom_site_fract_y
 _atom_site_fract_z
 _atom_site_occupancy
  Tm  Tm0  1  0.327944  0.004183  0.750000  1
  Th  Th1  1  0.994506  0.670622  0.250000  1
  Th  Th2  1  0.001876  0.328896  0.750000  1
  Th  Th3  1  0.669849  0.993966  0.250000  1
  Al  Al4  1  0.870386  0.868916  0.750000  1
  Al  Al5  1  0.006128  0.335422  0.073363  1
  Al  Al6  1  0.001073  0.669897  0.922497  1
  Al  Al7  1  0.001073  0.669897  0.577503  1
  Al  Al8  1  0.334904  0.004426  0.433490  1
  Al  Al9  1  0.006128  0.335422  0.426637  1
  Al  Al10  1  0.658973  0.995744  0.577417  1
  Al  Al11  1  0.658973  0.995744  0.922583  1
  Al  Al12  1  0.334904  0.004426  0.066510  1
  Al  Al13  1  0.335936  0.332003  0.560138  1
  Al  Al14  1  0.663592  0.663508  0.458860  1
  Al  Al15  1  0.663592  0.663508  0.041140  1
  Al  Al16  1  0.335936  0.332003  0.939862  1
  Al  Al17  1  0.657210  0.450144  0.750000  1
  Al  Al18  1  0.452923  0.663600  0.750000  1
  Ga  Ga19  1  0.137131  0.133615  0.250000  1
  Ga  Ga20  1  0.344458  0.544328  0.250000  1
  Ga  Ga21  1  0.544092  0.340318  0.250000  1
  Ir  Ir22  1  0.673218  0.327956  0.997401  1
  Ir  Ir23  1  0.326710  0.671002  0.997762  1
  Ir  Ir24  1  0.326710  0.671002  0.502238  1
  Ir  Ir25  1  0.673218  0.327956  0.502599  1
  Ir  Ir26  1  0.999281  0.000749  0.997117  1
  Ir  Ir27  1  0.999281  0.000749  0.502883  1
