# generated using pymatgen
data_Ti5Zn6FeRh12
_symmetry_space_group_name_H-M   'P 1'
_cell_length_a   4.32546200
_cell_length_b   6.08683700
_cell_length_c   12.94667201
_cell_angle_alpha   90.00000000
_cell_angle_beta   90.00414637
_cell_angle_gamma   90.00000000
_symmetry_Int_Tables_number   1
_chemical_formula_structural   Ti5Zn6FeRh12
_chemical_formula_sum   'Ti5 Zn6 Fe1 Rh12'
_cell_volume   340.86492746
_cell_formula_units_Z   1
loop_
 _symmetry_equiv_pos_site_id
 _symmetry_equiv_pos_as_xyz
  1  'x, y, z'
loop_
 _atom_site_type_symbol
 _atom_site_label
 _atom_site_symmetry_multiplicity
 _atom_site_fract_x
 _atom_site_fract_y
 _atom_site_fract_z
 _atom_site_occupancy
  Ti  Ti0  1  0.999824  0.500000  0.998174  1
  Ti  Ti1  1  0.499694  0.000000  0.165688  1
  Ti  Ti2  1  0.999718  0.500000  0.333329  1
  Ti  Ti3  1  0.500027  0.000000  0.500987  1
  Ti  Ti4  1  0.000443  0.500000  0.668497  1
  Zn  Zn5  1  0.000031  0.000000  0.999260  1
  Zn  Zn6  1  0.499714  0.500000  0.164962  1
  Zn  Zn7  1  0.999714  0.000000  0.333342  1
  Zn  Zn8  1  0.500009  0.500000  0.501696  1
  Zn  Zn9  1  0.000204  0.000000  0.667393  1
  Zn  Zn10  1  0.500298  0.500000  0.833343  1
  Fe  Fe11  1  0.500310  0.000000  0.833328  1
  Rh  Rh12  1  0.500017  0.248254  0.999157  1
  Rh  Rh13  1  0.500017  0.751748  0.999157  1
  Rh  Rh14  1  0.999745  0.249573  0.166503  1
  Rh  Rh15  1  0.999745  0.750427  0.166503  1
  Rh  Rh16  1  0.499747  0.250818  0.333332  1
  Rh  Rh17  1  0.499747  0.749180  0.333332  1
  Rh  Rh18  1  0.000002  0.249585  0.500166  1
  Rh  Rh19  1  0.000002  0.750415  0.500166  1
  Rh  Rh20  1  0.500212  0.248263  0.667513  1
  Rh  Rh21  1  0.500212  0.751735  0.667513  1
  Rh  Rh22  1  0.000283  0.247682  0.833329  1
  Rh  Rh23  1  0.000283  0.752318  0.833329  1
