# generated using pymatgen
data_Nd3Er5(Si3Ni)4
_symmetry_space_group_name_H-M   'P 1'
_cell_length_a   8.00713300
_cell_length_b   7.98234594
_cell_length_c   8.29670400
_cell_angle_alpha   90.00000000
_cell_angle_beta   90.00000000
_cell_angle_gamma   120.10276117
_symmetry_Int_Tables_number   1
_chemical_formula_structural   Nd3Er5(Si3Ni)4
_chemical_formula_sum   'Nd3 Er5 Si12 Ni4'
_cell_volume   458.76806200
_cell_formula_units_Z   1
loop_
 _symmetry_equiv_pos_site_id
 _symmetry_equiv_pos_as_xyz
  1  'x, y, z'
loop_
 _atom_site_type_symbol
 _atom_site_label
 _atom_site_symmetry_multiplicity
 _atom_site_fract_x
 _atom_site_fract_y
 _atom_site_fract_z
 _atom_site_occupancy
  Nd  Nd0  1  0.500299  0.000598  0.250000  1
  Nd  Nd1  1  0.999975  0.999951  0.750000  1
  Nd  Nd2  1  0.999994  0.999989  0.250000  1
  Er  Er3  1  0.499841  0.500161  0.750000  1
  Er  Er4  1  0.499991  0.499983  0.250000  1
  Er  Er5  1  0.000319  0.500161  0.750000  1
  Er  Er6  1  0.999991  0.499983  0.250000  1
  Er  Er7  1  0.499834  0.999668  0.750000  1
  Si  Si8  1  0.829638  0.173520  0.997398  1
  Si  Si9  1  0.170343  0.826453  0.997915  1
  Si  Si10  1  0.343883  0.173520  0.997398  1
  Si  Si11  1  0.170343  0.826453  0.502085  1
  Si  Si12  1  0.656111  0.826453  0.997915  1
  Si  Si13  1  0.829638  0.173520  0.502602  1
  Si  Si14  1  0.827737  0.655474  0.999365  1
  Si  Si15  1  0.656111  0.826453  0.502085  1
  Si  Si16  1  0.172214  0.344428  0.999736  1
  Si  Si17  1  0.343883  0.173520  0.502602  1
  Si  Si18  1  0.172214  0.344428  0.500264  1
  Si  Si19  1  0.827737  0.655474  0.500635  1
  Ni  Ni20  1  0.667077  0.334154  0.995159  1
  Ni  Ni21  1  0.332875  0.665751  0.996505  1
  Ni  Ni22  1  0.332875  0.665751  0.503495  1
  Ni  Ni23  1  0.667077  0.334154  0.504841  1
