# generated using pymatgen
data_Tb7Sm2Er(Tl2Pd)4
_symmetry_space_group_name_H-M   'P 1'
_cell_length_a   3.67105300
_cell_length_b   8.28919855
_cell_length_c   18.47319110
_cell_angle_alpha   89.75016520
_cell_angle_beta   90.00000000
_cell_angle_gamma   90.00000000
_symmetry_Int_Tables_number   1
_chemical_formula_structural   Tb7Sm2Er(Tl2Pd)4
_chemical_formula_sum   'Tb7 Sm2 Er1 Tl8 Pd4'
_cell_volume   562.13547170
_cell_formula_units_Z   1
loop_
 _symmetry_equiv_pos_site_id
 _symmetry_equiv_pos_as_xyz
  1  'x, y, z'
loop_
 _atom_site_type_symbol
 _atom_site_label
 _atom_site_symmetry_multiplicity
 _atom_site_fract_x
 _atom_site_fract_y
 _atom_site_fract_z
 _atom_site_occupancy
  Tb  Tb0  1  0.000000  0.740785  0.283938  1
  Tb  Tb1  1  0.000000  0.258620  0.716606  1
  Tb  Tb2  1  0.000000  0.758530  0.782581  1
  Tb  Tb3  1  0.000000  0.241409  0.217294  1
  Tb  Tb4  1  0.000000  0.619172  0.086557  1
  Tb  Tb5  1  0.000000  0.380686  0.914016  1
  Tb  Tb6  1  0.000000  0.881283  0.585718  1
  Sm  Sm7  1  0.000000  0.500229  0.499602  1
  Sm  Sm8  1  0.000000  0.999712  0.000162  1
  Er  Er9  1  0.000000  0.118283  0.412625  1
  Tl  Tl10  1  0.500000  0.701364  0.934525  1
  Tl  Tl11  1  0.500000  0.298659  0.065654  1
  Tl  Tl12  1  0.500000  0.801318  0.435008  1
  Tl  Tl13  1  0.500000  0.200773  0.563729  1
  Tl  Tl14  1  0.500000  0.583629  0.650845  1
  Tl  Tl15  1  0.500000  0.414206  0.349258  1
  Tl  Tl16  1  0.500000  0.916290  0.152166  1
  Tl  Tl17  1  0.500000  0.083597  0.848688  1
  Pd  Pd18  1  0.500000  0.527275  0.197024  1
  Pd  Pd19  1  0.500000  0.472711  0.803358  1
  Pd  Pd20  1  0.500000  0.973576  0.696399  1
  Pd  Pd21  1  0.500000  0.027892  0.304247  1
