# generated using pymatgen
data_LiYb6Zn4Ru7
_symmetry_space_group_name_H-M   'P 1'
_cell_length_a   5.31406631
_cell_length_b   5.37013959
_cell_length_c   12.96668541
_cell_angle_alpha   90.43733257
_cell_angle_beta   91.80094112
_cell_angle_gamma   120.34538199
_symmetry_Int_Tables_number   1
_chemical_formula_structural   LiYb6Zn4Ru7
_chemical_formula_sum   'Li1 Yb6 Zn4 Ru7'
_cell_volume   319.06133567
_cell_formula_units_Z   1
loop_
 _symmetry_equiv_pos_site_id
 _symmetry_equiv_pos_as_xyz
  1  'x, y, z'
loop_
 _atom_site_type_symbol
 _atom_site_label
 _atom_site_symmetry_multiplicity
 _atom_site_fract_x
 _atom_site_fract_y
 _atom_site_fract_z
 _atom_site_occupancy
  Li  Li0  1  0.168431  0.333428  0.458977  1
  Yb  Yb1  1  0.327435  0.670430  0.915068  1
  Yb  Yb2  1  0.991883  0.995067  0.251800  1
  Yb  Yb3  1  0.656755  0.329276  0.590770  1
  Yb  Yb4  1  0.337601  0.663352  0.668215  1
  Yb  Yb5  1  0.012724  0.006992  0.993092  1
  Yb  Yb6  1  0.686444  0.345286  0.330716  1
  Zn  Zn7  1  0.499795  0.499119  0.125339  1
  Zn  Zn8  1  0.171309  0.837611  0.458518  1
  Zn  Zn9  1  0.823667  0.159713  0.791630  1
  Zn  Zn10  1  0.502665  0.002245  0.123538  1
  Ru  Ru11  1  0.821621  0.653110  0.797012  1
  Ru  Ru12  1  0.347916  0.679231  0.292953  1
  Ru  Ru13  1  0.985629  0.985178  0.619067  1
  Ru  Ru14  1  0.678832  0.349560  0.963298  1
  Ru  Ru15  1  0.007091  0.503752  0.127702  1
  Ru  Ru16  1  0.664238  0.831310  0.457057  1
  Ru  Ru17  1  0.315966  0.155338  0.785249  1
