# generated using pymatgen
data_Y9Er(SiB4)4
_symmetry_space_group_name_H-M   'P 1'
_cell_length_a   7.23277300
_cell_length_b   7.23277300
_cell_length_c   8.09355800
_cell_angle_alpha   90.00000000
_cell_angle_beta   90.00000000
_cell_angle_gamma   90.00000000
_symmetry_Int_Tables_number   1
_chemical_formula_structural   Y9Er(SiB4)4
_chemical_formula_sum   'Y9 Er1 Si4 B16'
_cell_volume   423.39834230
_cell_formula_units_Z   1
loop_
 _symmetry_equiv_pos_site_id
 _symmetry_equiv_pos_as_xyz
  1  'x, y, z'
loop_
 _atom_site_type_symbol
 _atom_site_label
 _atom_site_symmetry_multiplicity
 _atom_site_fract_x
 _atom_site_fract_y
 _atom_site_fract_z
 _atom_site_occupancy
  Y  Y0  1  0.680561  0.180235  0.224506  1
  Y  Y1  1  0.319439  0.819765  0.775494  1
  Y  Y2  1  0.319439  0.819765  0.224506  1
  Y  Y3  1  0.819765  0.680561  0.224506  1
  Y  Y4  1  0.819765  0.680561  0.775494  1
  Y  Y5  1  0.680561  0.180235  0.775494  1
  Y  Y6  1  0.180235  0.319439  0.775494  1
  Y  Y7  1  0.180235  0.319439  0.224506  1
  Y  Y8  1  0.500000  0.500000  0.500000  1
  Er  Er9  1  0.000000  0.000000  0.500000  1
  Si  Si10  1  0.114422  0.615802  0.500000  1
  Si  Si11  1  0.885578  0.384198  0.500000  1
  Si  Si12  1  0.384198  0.114422  0.500000  1
  Si  Si13  1  0.615802  0.885578  0.500000  1
  B  B14  1  0.172461  0.039110  0.000000  1
  B  B15  1  0.827539  0.960890  0.000000  1
  B  B16  1  0.960890  0.172461  0.000000  1
  B  B17  1  0.327487  0.539105  0.000000  1
  B  B18  1  0.039110  0.827539  0.000000  1
  B  B19  1  0.672513  0.460895  0.000000  1
  B  B20  1  0.539105  0.672513  0.000000  1
  B  B21  1  0.460895  0.327487  0.000000  1
  B  B22  1  0.090042  0.590010  0.000000  1
  B  B23  1  0.909958  0.409990  0.000000  1
  B  B24  1  0.409990  0.090042  0.000000  1
  B  B25  1  0.590010  0.909958  0.000000  1
  B  B26  1  0.000000  0.000000  0.162431  1
  B  B27  1  0.000000  0.000000  0.837569  1
  B  B28  1  0.500000  0.500000  0.838077  1
  B  B29  1  0.500000  0.500000  0.161923  1
