# generated using pymatgen
data_Tb5Dy2Sn23Os6
_symmetry_space_group_name_H-M   'P 1'
_cell_length_a   9.87372208
_cell_length_b   9.86912905
_cell_length_c   10.13838521
_cell_angle_alpha   89.99534358
_cell_angle_beta   90.02230484
_cell_angle_gamma   119.96660436
_symmetry_Int_Tables_number   1
_chemical_formula_structural   Tb5Dy2Sn23Os6
_chemical_formula_sum   'Tb5 Dy2 Sn23 Os6'
_cell_volume   855.86478818
_cell_formula_units_Z   1
loop_
 _symmetry_equiv_pos_site_id
 _symmetry_equiv_pos_as_xyz
  1  'x, y, z'
loop_
 _atom_site_type_symbol
 _atom_site_label
 _atom_site_symmetry_multiplicity
 _atom_site_fract_x
 _atom_site_fract_y
 _atom_site_fract_z
 _atom_site_occupancy
  Tb  Tb0  1  0.000000  0.000000  0.000000  1
  Tb  Tb1  1  0.485275  0.514731  0.301849  1
  Tb  Tb2  1  0.514725  0.485269  0.698151  1
  Tb  Tb3  1  0.485289  0.970576  0.301811  1
  Tb  Tb4  1  0.514711  0.029424  0.698189  1
  Dy  Dy5  1  0.029079  0.514542  0.301712  1
  Dy  Dy6  1  0.970921  0.485458  0.698288  1
  Sn  Sn7  1  0.349572  0.999964  0.999943  1
  Sn  Sn8  1  0.650428  0.000036  0.000057  1
  Sn  Sn9  1  0.000007  0.349714  0.000015  1
  Sn  Sn10  1  0.999993  0.650286  0.999985  1
  Sn  Sn11  1  0.650474  0.650431  0.000042  1
  Sn  Sn12  1  0.349526  0.349569  0.999958  1
  Sn  Sn13  1  0.333245  0.666624  0.825221  1
  Sn  Sn14  1  0.666755  0.333376  0.174779  1
  Sn  Sn15  1  0.000000  0.000000  0.500000  1
  Sn  Sn16  1  0.780400  0.219996  0.463286  1
  Sn  Sn17  1  0.219600  0.780004  0.536714  1
  Sn  Sn18  1  0.780378  0.560427  0.463287  1
  Sn  Sn19  1  0.219622  0.439573  0.536713  1
  Sn  Sn20  1  0.439526  0.219798  0.463297  1
  Sn  Sn21  1  0.560474  0.780202  0.536703  1
  Sn  Sn22  1  0.333110  0.666536  0.129577  1
  Sn  Sn23  1  0.666890  0.333464  0.870423  1
  Sn  Sn24  1  0.117384  0.882463  0.275607  1
  Sn  Sn25  1  0.882616  0.117537  0.724393  1
  Sn  Sn26  1  0.117407  0.234946  0.275603  1
  Sn  Sn27  1  0.882593  0.765054  0.724397  1
  Sn  Sn28  1  0.765105  0.882542  0.275561  1
  Sn  Sn29  1  0.234895  0.117458  0.724439  1
  Os  Os30  1  0.830031  0.170481  0.202237  1
  Os  Os31  1  0.169969  0.829519  0.797763  1
  Os  Os32  1  0.830034  0.659514  0.202212  1
  Os  Os33  1  0.169966  0.340486  0.797788  1
  Os  Os34  1  0.340346  0.170152  0.202123  1
  Os  Os35  1  0.659654  0.829848  0.797877  1
