# generated using pymatgen
data_Ca3Tb(ReB4)4
_symmetry_space_group_name_H-M   'P 1'
_cell_length_a   3.58856100
_cell_length_b   6.01362606
_cell_length_c   11.62402812
_cell_angle_alpha   89.98371068
_cell_angle_beta   90.00000000
_cell_angle_gamma   90.00000000
_symmetry_Int_Tables_number   1
_chemical_formula_structural   Ca3Tb(ReB4)4
_chemical_formula_sum   'Ca3 Tb1 Re4 B16'
_cell_volume   250.84958480
_cell_formula_units_Z   1
loop_
 _symmetry_equiv_pos_site_id
 _symmetry_equiv_pos_as_xyz
  1  'x, y, z'
loop_
 _atom_site_type_symbol
 _atom_site_label
 _atom_site_symmetry_multiplicity
 _atom_site_fract_x
 _atom_site_fract_y
 _atom_site_fract_z
 _atom_site_occupancy
  Ca  Ca0  1  0.000000  0.627373  0.349973  1
  Ca  Ca1  1  0.000000  0.373089  0.649098  1
  Ca  Ca2  1  0.000000  0.127567  0.151313  1
  Tb  Tb3  1  0.000000  0.871796  0.849347  1
  Re  Re4  1  0.000000  0.631467  0.083300  1
  Re  Re5  1  0.000000  0.370446  0.915187  1
  Re  Re6  1  0.000000  0.130737  0.416558  1
  Re  Re7  1  0.000000  0.870450  0.584067  1
  B  B8  1  0.500000  0.784060  0.184941  1
  B  B9  1  0.500000  0.215199  0.815415  1
  B  B10  1  0.500000  0.284910  0.315421  1
  B  B11  1  0.500000  0.714658  0.684538  1
  B  B12  1  0.500000  0.863689  0.031894  1
  B  B13  1  0.500000  0.136106  0.968310  1
  B  B14  1  0.500000  0.364661  0.467956  1
  B  B15  1  0.500000  0.634912  0.531976  1
  B  B16  1  0.500000  0.885772  0.452819  1
  B  B17  1  0.500000  0.113783  0.547604  1
  B  B18  1  0.500000  0.385736  0.047696  1
  B  B19  1  0.500000  0.612193  0.952759  1
  B  B20  1  0.500000  0.977180  0.307699  1
  B  B21  1  0.500000  0.023372  0.692203  1
  B  B22  1  0.500000  0.477424  0.192215  1
  B  B23  1  0.500000  0.523418  0.807709  1
