# generated using pymatgen
data_Er3Tm13In4OsRh3
_symmetry_space_group_name_H-M   'P 1'
_cell_length_a   9.55320974
_cell_length_b   9.54258942
_cell_length_c   9.57703446
_cell_angle_alpha   59.91437716
_cell_angle_beta   59.97629113
_cell_angle_gamma   59.83253061
_symmetry_Int_Tables_number   1
_chemical_formula_structural   Er3Tm13In4OsRh3
_chemical_formula_sum   'Er3 Tm13 In4 Os1 Rh3'
_cell_volume   616.05606029
_cell_formula_units_Z   1
loop_
 _symmetry_equiv_pos_site_id
 _symmetry_equiv_pos_as_xyz
  1  'x, y, z'
loop_
 _atom_site_type_symbol
 _atom_site_label
 _atom_site_symmetry_multiplicity
 _atom_site_fract_x
 _atom_site_fract_y
 _atom_site_fract_z
 _atom_site_occupancy
  Er  Er0  1  0.057697  0.057530  0.437920  1
  Er  Er1  1  0.445079  0.059520  0.436042  1
  Er  Er2  1  0.062218  0.438840  0.060754  1
  Tm  Tm3  1  0.047871  0.649198  0.649910  1
  Tm  Tm4  1  0.438793  0.437851  0.061080  1
  Tm  Tm5  1  0.649341  0.047744  0.650420  1
  Tm  Tm6  1  0.189000  0.810033  0.192484  1
  Tm  Tm7  1  0.190871  0.190917  0.809741  1
  Tm  Tm8  1  0.809043  0.809719  0.193178  1
  Tm  Tm9  1  0.438707  0.061666  0.060307  1
  Tm  Tm10  1  0.809850  0.189444  0.192809  1
  Tm  Tm11  1  0.058746  0.445534  0.436974  1
  Tm  Tm12  1  0.809519  0.191914  0.809416  1
  Tm  Tm13  1  0.192058  0.809552  0.808809  1
  Tm  Tm14  1  0.649462  0.649866  0.048805  1
  Tm  Tm15  1  0.651703  0.651210  0.650731  1
  In  In16  1  0.416502  0.417784  0.415911  1
  In  In17  1  0.750339  0.416904  0.415511  1
  In  In18  1  0.417351  0.749567  0.415381  1
  In  In19  1  0.417603  0.417033  0.748360  1
  Os  Os20  1  0.858035  0.857735  0.425802  1
  Rh  Rh21  1  0.858802  0.858484  0.860222  1
  Rh  Rh22  1  0.423493  0.858139  0.860058  1
  Rh  Rh23  1  0.857918  0.423818  0.859381  1
