# generated using pymatgen
data_Tb2Ho3Bi2As
_symmetry_space_group_name_H-M   'P 1'
_cell_length_a   8.05485900
_cell_length_b   9.11612900
_cell_length_c   12.17240200
_cell_angle_alpha   90.00000000
_cell_angle_beta   90.00000000
_cell_angle_gamma   90.00000000
_symmetry_Int_Tables_number   1
_chemical_formula_structural   Tb2Ho3Bi2As
_chemical_formula_sum   'Tb8 Ho12 Bi8 As4'
_cell_volume   893.80893416
_cell_formula_units_Z   4
loop_
 _symmetry_equiv_pos_site_id
 _symmetry_equiv_pos_as_xyz
  1  'x, y, z'
loop_
 _atom_site_type_symbol
 _atom_site_label
 _atom_site_symmetry_multiplicity
 _atom_site_fract_x
 _atom_site_fract_y
 _atom_site_fract_z
 _atom_site_occupancy
  Tb  Tb0  1  0.347686  0.750000  0.712018  1
  Tb  Tb1  1  0.652314  0.250000  0.287982  1
  Tb  Tb2  1  0.847686  0.250000  0.787982  1
  Tb  Tb3  1  0.152314  0.750000  0.212018  1
  Tb  Tb4  1  0.868094  0.750000  0.794643  1
  Tb  Tb5  1  0.131906  0.250000  0.205357  1
  Tb  Tb6  1  0.368094  0.250000  0.705357  1
  Tb  Tb7  1  0.631906  0.750000  0.294643  1
  Ho  Ho8  1  0.684288  0.554274  0.564531  1
  Ho  Ho9  1  0.315712  0.445726  0.435469  1
  Ho  Ho10  1  0.184288  0.445726  0.935469  1
  Ho  Ho11  1  0.315712  0.054274  0.435469  1
  Ho  Ho12  1  0.815712  0.554274  0.064531  1
  Ho  Ho13  1  0.684288  0.945726  0.564531  1
  Ho  Ho14  1  0.815712  0.945726  0.064531  1
  Ho  Ho15  1  0.184288  0.054274  0.935469  1
  Ho  Ho16  1  0.036973  0.750000  0.498887  1
  Ho  Ho17  1  0.963027  0.250000  0.501113  1
  Ho  Ho18  1  0.536973  0.250000  0.001113  1
  Ho  Ho19  1  0.463027  0.750000  0.998887  1
  Bi  Bi20  1  0.576528  0.508731  0.828383  1
  Bi  Bi21  1  0.423472  0.491269  0.171617  1
  Bi  Bi22  1  0.076528  0.491269  0.671617  1
  Bi  Bi23  1  0.423472  0.008731  0.171617  1
  Bi  Bi24  1  0.923472  0.508731  0.328383  1
  Bi  Bi25  1  0.576528  0.991269  0.828383  1
  Bi  Bi26  1  0.923472  0.991269  0.328383  1
  Bi  Bi27  1  0.076528  0.008731  0.671617  1
  As  As28  1  0.082805  0.750000  0.982683  1
  As  As29  1  0.917195  0.250000  0.017317  1
  As  As30  1  0.582805  0.250000  0.517317  1
  As  As31  1  0.417195  0.750000  0.482683  1
