# generated using pymatgen
data_Dy7YTc3B24Ru
_symmetry_space_group_name_H-M   'P 1'
_cell_length_a   3.68375900
_cell_length_b   9.15735707
_cell_length_c   11.54411904
_cell_angle_alpha   89.91960240
_cell_angle_beta   90.00000000
_cell_angle_gamma   90.00000000
_symmetry_Int_Tables_number   1
_chemical_formula_structural   Dy7YTc3B24Ru
_chemical_formula_sum   'Dy7 Y1 Tc3 B24 Ru1'
_cell_volume   389.42311604
_cell_formula_units_Z   1
loop_
 _symmetry_equiv_pos_site_id
 _symmetry_equiv_pos_as_xyz
  1  'x, y, z'
loop_
 _atom_site_type_symbol
 _atom_site_label
 _atom_site_symmetry_multiplicity
 _atom_site_fract_x
 _atom_site_fract_y
 _atom_site_fract_z
 _atom_site_occupancy
  Dy  Dy0  1  0.000000  0.674990  0.583879  1
  Dy  Dy1  1  0.000000  0.823259  0.087273  1
  Dy  Dy2  1  0.000000  0.177674  0.914775  1
  Dy  Dy3  1  0.000000  0.942369  0.370048  1
  Dy  Dy4  1  0.000000  0.057794  0.630821  1
  Dy  Dy5  1  0.000000  0.442808  0.130204  1
  Dy  Dy6  1  0.000000  0.558126  0.869068  1
  Y  Y7  1  0.000000  0.323687  0.413933  1
  Tc  Tc8  1  0.000000  0.638372  0.320609  1
  Tc  Tc9  1  0.000000  0.361799  0.679914  1
  Tc  Tc10  1  0.000000  0.137859  0.178202  1
  B  B11  1  0.500000  0.553226  0.432762  1
  B  B12  1  0.500000  0.446836  0.566878  1
  B  B13  1  0.500000  0.053176  0.067001  1
  B  B14  1  0.500000  0.946080  0.932722  1
  B  B15  1  0.500000  0.748190  0.418508  1
  B  B16  1  0.500000  0.251055  0.581687  1
  B  B17  1  0.500000  0.248712  0.081396  1
  B  B18  1  0.500000  0.751949  0.918253  1
  B  B19  1  0.500000  0.791320  0.265550  1
  B  B20  1  0.500000  0.208797  0.735249  1
  B  B21  1  0.500000  0.291199  0.234356  1
  B  B22  1  0.500000  0.709730  0.765335  1
  B  B23  1  0.500000  0.631290  0.185651  1
  B  B24  1  0.500000  0.368928  0.814810  1
  B  B25  1  0.500000  0.130482  0.313825  1
  B  B26  1  0.500000  0.868705  0.686013  1
  B  B27  1  0.500000  0.982083  0.211669  1
  B  B28  1  0.500000  0.016529  0.788537  1
  B  B29  1  0.500000  0.482607  0.287900  1
  B  B30  1  0.500000  0.517552  0.711565  1
  B  B31  1  0.500000  0.602569  0.028224  1
  B  B32  1  0.500000  0.399045  0.971436  1
  B  B33  1  0.500000  0.101648  0.472004  1
  B  B34  1  0.500000  0.897789  0.528843  1
  Ru  Ru35  1  0.000000  0.861767  0.821101  1
