# generated using pymatgen
data_Hf2TiIr2Rh3
_symmetry_space_group_name_H-M   'P 1'
_cell_length_a   4.17998300
_cell_length_b   5.58121900
_cell_length_c   10.94465400
_cell_angle_alpha   90.00000000
_cell_angle_beta   90.00000000
_cell_angle_gamma   90.00000000
_symmetry_Int_Tables_number   1
_chemical_formula_structural   Hf2TiIr2Rh3
_chemical_formula_sum   'Hf4 Ti2 Ir4 Rh6'
_cell_volume   255.33221693
_cell_formula_units_Z   2
loop_
 _symmetry_equiv_pos_site_id
 _symmetry_equiv_pos_as_xyz
  1  'x, y, z'
loop_
 _atom_site_type_symbol
 _atom_site_label
 _atom_site_symmetry_multiplicity
 _atom_site_fract_x
 _atom_site_fract_y
 _atom_site_fract_z
 _atom_site_occupancy
  Hf  Hf0  1  0.500000  0.171934  0.642299  1
  Hf  Hf1  1  0.500000  0.828066  0.357701  1
  Hf  Hf2  1  0.500000  0.671934  0.857701  1
  Hf  Hf3  1  0.500000  0.328066  0.142299  1
  Ti  Ti4  1  0.000000  0.500000  0.500000  1
  Ti  Ti5  1  0.000000  0.000000  0.000000  1
  Ir  Ir6  1  0.500000  0.186059  0.894351  1
  Ir  Ir7  1  0.500000  0.813941  0.105649  1
  Ir  Ir8  1  0.500000  0.686059  0.605649  1
  Ir  Ir9  1  0.500000  0.313941  0.394351  1
  Rh  Rh10  1  0.000000  0.420462  0.740705  1
  Rh  Rh11  1  0.000000  0.579538  0.259295  1
  Rh  Rh12  1  0.000000  0.000000  0.500000  1
  Rh  Rh13  1  0.000000  0.500000  0.000000  1
  Rh  Rh14  1  0.000000  0.079538  0.240705  1
  Rh  Rh15  1  0.000000  0.920462  0.759295  1
