# generated using pymatgen
data_Dy2Pa2Re(GeIr)6
_symmetry_space_group_name_H-M   'P 1'
_cell_length_a   7.29304202
_cell_length_b   7.29304118
_cell_length_c   7.31536708
_cell_angle_alpha   109.42158244
_cell_angle_beta   109.42158309
_cell_angle_gamma   109.44679710
_symmetry_Int_Tables_number   1
_chemical_formula_structural   Dy2Pa2Re(GeIr)6
_chemical_formula_sum   'Dy2 Pa2 Re1 Ge6 Ir6'
_cell_volume   299.98036326
_cell_formula_units_Z   1
loop_
 _symmetry_equiv_pos_site_id
 _symmetry_equiv_pos_as_xyz
  1  'x, y, z'
loop_
 _atom_site_type_symbol
 _atom_site_label
 _atom_site_symmetry_multiplicity
 _atom_site_fract_x
 _atom_site_fract_y
 _atom_site_fract_z
 _atom_site_occupancy
  Dy  Dy0  1  0.000000  0.500000  0.000000  1
  Dy  Dy1  1  0.500000  0.000000  0.000000  1
  Pa  Pa2  1  0.000000  0.000000  0.500000  1
  Pa  Pa3  1  0.500000  0.500000  0.500000  1
  Re  Re4  1  0.000000  0.000000  0.000000  1
  Ge  Ge5  1  0.684280  0.684280  0.000000  1
  Ge  Ge6  1  0.315455  0.994005  0.309460  1
  Ge  Ge7  1  0.994005  0.315455  0.309460  1
  Ge  Ge8  1  0.315720  0.315720  0.000000  1
  Ge  Ge9  1  0.684545  0.005995  0.690540  1
  Ge  Ge10  1  0.005995  0.684545  0.690540  1
  Ir  Ir11  1  0.750000  0.250000  0.500000  1
  Ir  Ir12  1  0.750109  0.506458  0.256567  1
  Ir  Ir13  1  0.493542  0.249891  0.743433  1
  Ir  Ir14  1  0.249891  0.493542  0.743433  1
  Ir  Ir15  1  0.250000  0.750000  0.500000  1
  Ir  Ir16  1  0.506458  0.750109  0.256567  1
