# generated using pymatgen
data_HoPa2Ga8Tc3
_symmetry_space_group_name_H-M   'P 1'
_cell_length_a   8.13803225
_cell_length_b   8.13803157
_cell_length_c   8.13803300
_cell_angle_alpha   149.19840939
_cell_angle_beta   105.33963065
_cell_angle_gamma   82.90667701
_symmetry_Int_Tables_number   1
_chemical_formula_structural   HoPa2Ga8Tc3
_chemical_formula_sum   'Ho1 Pa2 Ga8 Tc3'
_cell_volume   260.21342401
_cell_formula_units_Z   1
loop_
 _symmetry_equiv_pos_site_id
 _symmetry_equiv_pos_as_xyz
  1  'x, y, z'
loop_
 _atom_site_type_symbol
 _atom_site_label
 _atom_site_symmetry_multiplicity
 _atom_site_fract_x
 _atom_site_fract_y
 _atom_site_fract_z
 _atom_site_occupancy
  Ho  Ho0  1  0.500000  0.500000  0.000000  1
  Pa  Pa1  1  0.158548  0.158548  0.000000  1
  Pa  Pa2  1  0.841452  0.841452  0.000000  1
  Ga  Ga3  1  0.653647  0.375704  0.277943  1
  Ga  Ga4  1  0.346353  0.624296  0.722057  1
  Ga  Ga5  1  0.097761  0.375704  0.722057  1
  Ga  Ga6  1  0.902239  0.624296  0.277943  1
  Ga  Ga7  1  0.538228  0.166657  0.371571  1
  Ga  Ga8  1  0.461772  0.833343  0.628429  1
  Ga  Ga9  1  0.795086  0.166657  0.628429  1
  Ga  Ga10  1  0.204914  0.833343  0.371571  1
  Tc  Tc11  1  0.000000  0.500000  0.500000  1
  Tc  Tc12  1  0.210267  0.000000  0.210267  1
  Tc  Tc13  1  0.789733  0.000000  0.789733  1
