# generated using pymatgen
data_YbTm(Ga3Ir)3
_symmetry_space_group_name_H-M   'P 1'
_cell_length_a   7.54837575
_cell_length_b   7.55384624
_cell_length_c   9.56102000
_cell_angle_alpha   90.00000000
_cell_angle_beta   90.00000000
_cell_angle_gamma   119.79552277
_symmetry_Int_Tables_number   1
_chemical_formula_structural   YbTm(Ga3Ir)3
_chemical_formula_sum   'Yb2 Tm2 Ga18 Ir6'
_cell_volume   473.09424809
_cell_formula_units_Z   2
loop_
 _symmetry_equiv_pos_site_id
 _symmetry_equiv_pos_as_xyz
  1  'x, y, z'
loop_
 _atom_site_type_symbol
 _atom_site_label
 _atom_site_symmetry_multiplicity
 _atom_site_fract_x
 _atom_site_fract_y
 _atom_site_fract_z
 _atom_site_occupancy
  Yb  Yb0  1  0.996487  0.668811  0.750000  1
  Yb  Yb1  1  0.003513  0.331189  0.250000  1
  Tm  Tm2  1  0.668408  0.997639  0.750000  1
  Tm  Tm3  1  0.331592  0.002361  0.250000  1
  Ga  Ga4  1  0.126507  0.128407  0.750000  1
  Ga  Ga5  1  0.873493  0.871593  0.250000  1
  Ga  Ga6  1  0.999912  0.335254  0.578473  1
  Ga  Ga7  1  0.000088  0.664746  0.421527  1
  Ga  Ga8  1  0.000088  0.664746  0.078473  1
  Ga  Ga9  1  0.333347  0.998503  0.920243  1
  Ga  Ga10  1  0.999912  0.335254  0.921527  1
  Ga  Ga11  1  0.666653  0.001497  0.079757  1
  Ga  Ga12  1  0.666653  0.001497  0.420243  1
  Ga  Ga13  1  0.333347  0.998503  0.579757  1
  Ga  Ga14  1  0.331811  0.332341  0.064831  1
  Ga  Ga15  1  0.668189  0.667659  0.935169  1
  Ga  Ga16  1  0.668189  0.667659  0.564831  1
  Ga  Ga17  1  0.331811  0.332341  0.435169  1
  Ga  Ga18  1  0.339154  0.547042  0.750000  1
  Ga  Ga19  1  0.660846  0.452958  0.250000  1
  Ga  Ga20  1  0.546625  0.336801  0.750000  1
  Ga  Ga21  1  0.453375  0.663199  0.250000  1
  Ir  Ir22  1  0.671101  0.328414  0.500281  1
  Ir  Ir23  1  0.328899  0.671586  0.499719  1
  Ir  Ir24  1  0.328899  0.671586  0.000281  1
  Ir  Ir25  1  0.671101  0.328414  0.999719  1
  Ir  Ir26  1  0.000000  0.000000  0.500000  1
  Ir  Ir27  1  0.000000  0.000000  0.000000  1
