# generated using pymatgen
data_Th8Si12Tc3Pt
_symmetry_space_group_name_H-M   'P 1'
_cell_length_a   8.34254400
_cell_length_b   8.34254433
_cell_length_c   8.28251200
_cell_angle_alpha   90.00000000
_cell_angle_beta   90.00000000
_cell_angle_gamma   119.99999074
_symmetry_Int_Tables_number   1
_chemical_formula_structural   Th8Si12Tc3Pt
_chemical_formula_sum   'Th8 Si12 Tc3 Pt1'
_cell_volume   499.21747021
_cell_formula_units_Z   1
loop_
 _symmetry_equiv_pos_site_id
 _symmetry_equiv_pos_as_xyz
  1  'x, y, z'
loop_
 _atom_site_type_symbol
 _atom_site_label
 _atom_site_symmetry_multiplicity
 _atom_site_fract_x
 _atom_site_fract_y
 _atom_site_fract_z
 _atom_site_occupancy
  Th  Th0  1  0.496874  0.503126  0.755306  1
  Th  Th1  1  0.497173  0.502827  0.244645  1
  Th  Th2  1  0.006252  0.503126  0.755306  1
  Th  Th3  1  0.005655  0.502827  0.244645  1
  Th  Th4  1  0.496874  0.993748  0.755306  1
  Th  Th5  1  0.497173  0.994345  0.244645  1
  Th  Th6  1  0.000000  0.000000  0.749147  1
  Th  Th7  1  0.000000  0.000000  0.250878  1
  Si  Si8  1  0.834058  0.165942  0.999758  1
  Si  Si9  1  0.164835  0.835165  0.000224  1
  Si  Si10  1  0.331885  0.165942  0.999758  1
  Si  Si11  1  0.166488  0.833512  0.499785  1
  Si  Si12  1  0.670330  0.835165  0.000224  1
  Si  Si13  1  0.836038  0.163962  0.500171  1
  Si  Si14  1  0.834058  0.668115  0.999758  1
  Si  Si15  1  0.667023  0.833512  0.499785  1
  Si  Si16  1  0.164835  0.329670  0.000224  1
  Si  Si17  1  0.327925  0.163962  0.500171  1
  Si  Si18  1  0.166488  0.332977  0.499785  1
  Si  Si19  1  0.836038  0.672075  0.500171  1
  Tc  Tc20  1  0.666667  0.333333  0.999991  1
  Tc  Tc21  1  0.333333  0.666667  0.000164  1
  Tc  Tc22  1  0.333333  0.666667  0.499757  1
  Pt  Pt23  1  0.666667  0.333333  0.500396  1
