# generated using pymatgen
data_Pa3(GePd)4
_symmetry_space_group_name_H-M   'P 1'
_cell_length_a   8.20951232
_cell_length_b   8.20951259
_cell_length_c   8.20951255
_cell_angle_alpha   149.70080820
_cell_angle_beta   130.42344415
_cell_angle_gamma   59.21392055
_symmetry_Int_Tables_number   1
_chemical_formula_structural   Pa3(GePd)4
_chemical_formula_sum   'Pa3 Ge4 Pd4'
_cell_volume   210.83625602
_cell_formula_units_Z   1
loop_
 _symmetry_equiv_pos_site_id
 _symmetry_equiv_pos_as_xyz
  1  'x, y, z'
loop_
 _atom_site_type_symbol
 _atom_site_label
 _atom_site_symmetry_multiplicity
 _atom_site_fract_x
 _atom_site_fract_y
 _atom_site_fract_z
 _atom_site_occupancy
  Pa  Pa0  1  0.371895  0.871895  0.500000  1
  Pa  Pa1  1  0.627952  0.127952  0.500000  1
  Pa  Pa2  1  0.999755  0.999755  0.000000  1
  Ge  Ge3  1  0.789555  0.789555  0.000000  1
  Ge  Ge4  1  0.210808  0.210808  0.000000  1
  Ge  Ge5  1  0.308504  0.500182  0.808322  1
  Ge  Ge6  1  0.691860  0.500182  0.191678  1
  Pd  Pd7  1  0.376151  0.671232  0.704919  1
  Pd  Pd8  1  0.033320  0.328604  0.704718  1
  Pd  Pd9  1  0.966313  0.671232  0.295081  1
  Pd  Pd10  1  0.623886  0.328604  0.295282  1
