# generated using pymatgen
data_Tb4Ga4NiRh3
_symmetry_space_group_name_H-M   'P 1'
_cell_length_a   4.31695200
_cell_length_b   6.85468315
_cell_length_c   7.71763261
_cell_angle_alpha   89.85477058
_cell_angle_beta   90.00000000
_cell_angle_gamma   90.00000000
_symmetry_Int_Tables_number   1
_chemical_formula_structural   Tb4Ga4NiRh3
_chemical_formula_sum   'Tb4 Ga4 Ni1 Rh3'
_cell_volume   228.37434254
_cell_formula_units_Z   1
loop_
 _symmetry_equiv_pos_site_id
 _symmetry_equiv_pos_as_xyz
  1  'x, y, z'
loop_
 _atom_site_type_symbol
 _atom_site_label
 _atom_site_symmetry_multiplicity
 _atom_site_fract_x
 _atom_site_fract_y
 _atom_site_fract_z
 _atom_site_occupancy
  Tb  Tb0  1  0.250000  0.026260  0.813073  1
  Tb  Tb1  1  0.250000  0.526795  0.689635  1
  Tb  Tb2  1  0.750000  0.972663  0.190034  1
  Tb  Tb3  1  0.750000  0.476584  0.309172  1
  Ga  Ga4  1  0.250000  0.155508  0.429583  1
  Ga  Ga5  1  0.250000  0.660862  0.062209  1
  Ga  Ga6  1  0.750000  0.841469  0.577918  1
  Ga  Ga7  1  0.750000  0.348536  0.928677  1
  Ni  Ni8  1  0.750000  0.721744  0.892401  1
  Rh  Rh9  1  0.250000  0.768610  0.391631  1
  Rh  Rh10  1  0.250000  0.271355  0.106665  1
  Rh  Rh11  1  0.750000  0.229613  0.609000  1
