# generated using pymatgen
data_CaHo4(In2Rh)2
_symmetry_space_group_name_H-M   'P 1'
_cell_length_a   3.65376700
_cell_length_b   8.02929700
_cell_length_c   18.26569500
_cell_angle_alpha   90.00000000
_cell_angle_beta   90.00000000
_cell_angle_gamma   90.00000000
_symmetry_Int_Tables_number   1
_chemical_formula_structural   CaHo4(In2Rh)2
_chemical_formula_sum   'Ca2 Ho8 In8 Rh4'
_cell_volume   535.86398956
_cell_formula_units_Z   2
loop_
 _symmetry_equiv_pos_site_id
 _symmetry_equiv_pos_as_xyz
  1  'x, y, z'
loop_
 _atom_site_type_symbol
 _atom_site_label
 _atom_site_symmetry_multiplicity
 _atom_site_fract_x
 _atom_site_fract_y
 _atom_site_fract_z
 _atom_site_occupancy
  Ca  Ca0  1  0.000000  0.000000  0.000000  1
  Ca  Ca1  1  0.000000  0.500000  0.500000  1
  Ho  Ho2  1  0.000000  0.116549  0.411611  1
  Ho  Ho3  1  0.000000  0.883451  0.588389  1
  Ho  Ho4  1  0.000000  0.383451  0.911611  1
  Ho  Ho5  1  0.000000  0.616549  0.088389  1
  Ho  Ho6  1  0.000000  0.244346  0.220808  1
  Ho  Ho7  1  0.000000  0.755654  0.779192  1
  Ho  Ho8  1  0.000000  0.255654  0.720808  1
  Ho  Ho9  1  0.000000  0.744346  0.279192  1
  In  In10  1  0.500000  0.425689  0.348303  1
  In  In11  1  0.500000  0.574311  0.651697  1
  In  In12  1  0.500000  0.074311  0.848303  1
  In  In13  1  0.500000  0.925689  0.151697  1
  In  In14  1  0.500000  0.296467  0.067826  1
  In  In15  1  0.500000  0.703533  0.932174  1
  In  In16  1  0.500000  0.203533  0.567826  1
  In  In17  1  0.500000  0.796467  0.432174  1
  Rh  Rh18  1  0.500000  0.023002  0.305205  1
  Rh  Rh19  1  0.500000  0.976998  0.694795  1
  Rh  Rh20  1  0.500000  0.476998  0.805205  1
  Rh  Rh21  1  0.500000  0.523002  0.194795  1
