# generated using pymatgen
data_Tm20Si3GeSb8
_symmetry_space_group_name_H-M   'P 1'
_cell_length_a   7.86882708
_cell_length_b   8.96839900
_cell_length_c   11.73330500
_cell_angle_alpha   90.00000000
_cell_angle_beta   89.91781738
_cell_angle_gamma   90.00000000
_symmetry_Int_Tables_number   1
_chemical_formula_structural   Tm20Si3GeSb8
_chemical_formula_sum   'Tm20 Si3 Ge1 Sb8'
_cell_volume   828.02764531
_cell_formula_units_Z   1
loop_
 _symmetry_equiv_pos_site_id
 _symmetry_equiv_pos_as_xyz
  1  'x, y, z'
loop_
 _atom_site_type_symbol
 _atom_site_label
 _atom_site_symmetry_multiplicity
 _atom_site_fract_x
 _atom_site_fract_y
 _atom_site_fract_z
 _atom_site_occupancy
  Tm  Tm0  1  0.816034  0.947431  0.064898  1
  Tm  Tm1  1  0.315870  0.049380  0.433928  1
  Tm  Tm2  1  0.182150  0.447798  0.935629  1
  Tm  Tm3  1  0.684402  0.554037  0.565270  1
  Tm  Tm4  1  0.182150  0.052202  0.935629  1
  Tm  Tm5  1  0.684402  0.945963  0.565270  1
  Tm  Tm6  1  0.816034  0.552569  0.064898  1
  Tm  Tm7  1  0.315870  0.450620  0.433928  1
  Tm  Tm8  1  0.537598  0.250000  0.997394  1
  Tm  Tm9  1  0.040778  0.750000  0.502295  1
  Tm  Tm10  1  0.460245  0.750000  0.001630  1
  Tm  Tm11  1  0.963675  0.250000  0.497418  1
  Tm  Tm12  1  0.164847  0.750000  0.214176  1
  Tm  Tm13  1  0.667815  0.250000  0.282069  1
  Tm  Tm14  1  0.835410  0.250000  0.785978  1
  Tm  Tm15  1  0.334292  0.750000  0.715281  1
  Tm  Tm16  1  0.639455  0.750000  0.293522  1
  Tm  Tm17  1  0.139521  0.250000  0.206695  1
  Tm  Tm18  1  0.358623  0.250000  0.707852  1
  Tm  Tm19  1  0.860467  0.750000  0.793908  1
  Si  Si20  1  0.912977  0.250000  0.022523  1
  Si  Si21  1  0.416370  0.750000  0.480267  1
  Si  Si22  1  0.085158  0.750000  0.978857  1
  Ge  Ge23  1  0.587133  0.250000  0.521988  1
  Sb  Sb24  1  0.931430  0.988875  0.326551  1
  Sb  Sb25  1  0.431385  0.010459  0.173114  1
  Sb  Sb26  1  0.068588  0.489410  0.673480  1
  Sb  Sb27  1  0.567959  0.510397  0.826205  1
  Sb  Sb28  1  0.068588  0.010590  0.673480  1
  Sb  Sb29  1  0.567959  0.989603  0.826205  1
  Sb  Sb30  1  0.931430  0.511125  0.326551  1
  Sb  Sb31  1  0.431385  0.489541  0.173114  1
