# generated using pymatgen
data_CaDyTh2(Al3Rh)6
_symmetry_space_group_name_H-M   'P 1'
_cell_length_a   7.62982208
_cell_length_b   7.62362303
_cell_length_c   9.52568500
_cell_angle_alpha   90.00000000
_cell_angle_beta   90.00000000
_cell_angle_gamma   119.30397856
_symmetry_Int_Tables_number   1
_chemical_formula_structural   CaDyTh2(Al3Rh)6
_chemical_formula_sum   'Ca1 Dy1 Th2 Al18 Rh6'
_cell_volume   483.17682927
_cell_formula_units_Z   1
loop_
 _symmetry_equiv_pos_site_id
 _symmetry_equiv_pos_as_xyz
  1  'x, y, z'
loop_
 _atom_site_type_symbol
 _atom_site_label
 _atom_site_symmetry_multiplicity
 _atom_site_fract_x
 _atom_site_fract_y
 _atom_site_fract_z
 _atom_site_occupancy
  Ca  Ca0  1  0.005584  0.327333  0.250000  1
  Dy  Dy1  1  0.327528  0.004343  0.250000  1
  Th  Th2  1  0.994830  0.670971  0.750000  1
  Th  Th3  1  0.671975  0.994957  0.750000  1
  Al  Al4  1  0.134480  0.134858  0.750000  1
  Al  Al5  1  0.873873  0.872176  0.250000  1
  Al  Al6  1  0.005944  0.335822  0.568578  1
  Al  Al7  1  0.000118  0.663765  0.418699  1
  Al  Al8  1  0.000118  0.663765  0.081301  1
  Al  Al9  1  0.335749  0.005673  0.930198  1
  Al  Al10  1  0.005944  0.335822  0.931422  1
  Al  Al11  1  0.664252  0.000303  0.080977  1
  Al  Al12  1  0.664252  0.000303  0.419023  1
  Al  Al13  1  0.335749  0.005673  0.569802  1
  Al  Al14  1  0.332107  0.331917  0.055055  1
  Al  Al15  1  0.663491  0.663554  0.960714  1
  Al  Al16  1  0.663491  0.663554  0.539286  1
  Al  Al17  1  0.332107  0.331917  0.444945  1
  Al  Al18  1  0.339949  0.544204  0.750000  1
  Al  Al19  1  0.656142  0.446848  0.250000  1
  Al  Al20  1  0.544009  0.340024  0.750000  1
  Al  Al21  1  0.448850  0.661869  0.250000  1
  Rh  Rh22  1  0.671637  0.328496  0.502006  1
  Rh  Rh23  1  0.329493  0.673993  0.501744  1
  Rh  Rh24  1  0.329493  0.673993  0.998256  1
  Rh  Rh25  1  0.671637  0.328496  0.997994  1
  Rh  Rh26  1  0.998598  0.997685  0.501719  1
  Rh  Rh27  1  0.998598  0.997685  0.998281  1
