# generated using pymatgen
data_CaEu9Pb6F2
_symmetry_space_group_name_H-M   'P 1'
_cell_length_a   9.84270828
_cell_length_b   9.84270872
_cell_length_c   9.84270670
_cell_angle_alpha   128.46425140
_cell_angle_beta   128.46425005
_cell_angle_gamma   75.87415514
_symmetry_Int_Tables_number   1
_chemical_formula_structural   CaEu9Pb6F2
_chemical_formula_sum   'Ca1 Eu9 Pb6 F2'
_cell_volume   568.51224039
_cell_formula_units_Z   1
loop_
 _symmetry_equiv_pos_site_id
 _symmetry_equiv_pos_as_xyz
  1  'x, y, z'
loop_
 _atom_site_type_symbol
 _atom_site_label
 _atom_site_symmetry_multiplicity
 _atom_site_fract_x
 _atom_site_fract_y
 _atom_site_fract_z
 _atom_site_occupancy
  Ca  Ca0  1  0.500000  0.500000  0.000000  1
  Eu  Eu1  1  0.000000  0.000000  0.000000  1
  Eu  Eu2  1  0.510484  0.011673  0.822609  1
  Eu  Eu3  1  0.189064  0.687874  0.177391  1
  Eu  Eu4  1  0.011673  0.189064  0.501189  1
  Eu  Eu5  1  0.687874  0.510484  0.498811  1
  Eu  Eu6  1  0.489516  0.988327  0.177391  1
  Eu  Eu7  1  0.810936  0.312126  0.822609  1
  Eu  Eu8  1  0.988327  0.810936  0.498811  1
  Eu  Eu9  1  0.312126  0.489516  0.501189  1
  Pb  Pb10  1  0.250068  0.250068  0.000000  1
  Pb  Pb11  1  0.749932  0.749932  0.000000  1
  Pb  Pb12  1  0.866688  0.369170  0.235859  1
  Pb  Pb13  1  0.133312  0.630830  0.764142  1
  Pb  Pb14  1  0.369170  0.133312  0.502482  1
  Pb  Pb15  1  0.630830  0.866688  0.497518  1
  F  F16  1  0.250000  0.750000  0.500000  1
  F  F17  1  0.750000  0.250000  0.500000  1
