# generated using pymatgen
data_TbNdMo3P7Rh9
_symmetry_space_group_name_H-M   'P 1'
_cell_length_a   3.94048863
_cell_length_b   9.56720757
_cell_length_c   9.56536611
_cell_angle_alpha   119.97318828
_cell_angle_beta   89.97502137
_cell_angle_gamma   90.02534391
_symmetry_Int_Tables_number   1
_chemical_formula_structural   TbNdMo3P7Rh9
_chemical_formula_sum   'Tb1 Nd1 Mo3 P7 Rh9'
_cell_volume   312.38107792
_cell_formula_units_Z   1
loop_
 _symmetry_equiv_pos_site_id
 _symmetry_equiv_pos_as_xyz
  1  'x, y, z'
loop_
 _atom_site_type_symbol
 _atom_site_label
 _atom_site_symmetry_multiplicity
 _atom_site_fract_x
 _atom_site_fract_y
 _atom_site_fract_z
 _atom_site_occupancy
  Tb  Tb0  1  0.761922  0.333332  0.666674  1
  Nd  Nd1  1  0.261927  0.666668  0.333325  1
  Mo  Mo2  1  0.761944  0.091665  0.872172  1
  Mo  Mo3  1  0.761915  0.127866  0.219577  1
  Mo  Mo4  1  0.761935  0.780444  0.908297  1
  P  P5  1  0.262146  0.000029  0.999991  1
  P  P6  1  0.761876  0.885242  0.597235  1
  P  P7  1  0.761862  0.402794  0.288032  1
  P  P8  1  0.761866  0.711976  0.114733  1
  P  P9  1  0.261876  0.116562  0.412278  1
  P  P10  1  0.261862  0.587718  0.704255  1
  P  P11  1  0.261831  0.295738  0.883449  1
  Rh  Rh12  1  0.261926  0.884861  0.159248  1
  Rh  Rh13  1  0.261966  0.840765  0.725657  1
  Rh  Rh14  1  0.261958  0.274337  0.115143  1
  Rh  Rh15  1  0.761901  0.611145  0.562228  1
  Rh  Rh16  1  0.761859  0.437732  0.048825  1
  Rh  Rh17  1  0.761859  0.951054  0.388844  1
  Rh  Rh18  1  0.261859  0.368633  0.437937  1
  Rh  Rh19  1  0.261857  0.562099  0.930656  1
  Rh  Rh20  1  0.261852  0.069338  0.631443  1
