# generated using pymatgen
data_Pr4V3Fe(WO6)4
_symmetry_space_group_name_H-M   'P 1'
_cell_length_a   5.43161652
_cell_length_b   7.58979331
_cell_length_c   11.18556564
_cell_angle_alpha   89.99471286
_cell_angle_beta   90.03847494
_cell_angle_gamma   89.96767046
_symmetry_Int_Tables_number   1
_chemical_formula_structural   Pr4V3Fe(WO6)4
_chemical_formula_sum   'Pr4 V3 Fe1 W4 O24'
_cell_volume   461.12305001
_cell_formula_units_Z   1
loop_
 _symmetry_equiv_pos_site_id
 _symmetry_equiv_pos_as_xyz
  1  'x, y, z'
loop_
 _atom_site_type_symbol
 _atom_site_label
 _atom_site_symmetry_multiplicity
 _atom_site_fract_x
 _atom_site_fract_y
 _atom_site_fract_z
 _atom_site_occupancy
  Pr  Pr0  1  0.045063  0.252694  0.044672  1
  Pr  Pr1  1  0.543678  0.753574  0.454223  1
  Pr  Pr2  1  0.455485  0.252960  0.545673  1
  Pr  Pr3  1  0.955483  0.752493  0.955562  1
  V  V4  1  0.050073  0.005541  0.365318  1
  V  V5  1  0.950860  0.505973  0.634534  1
  V  V6  1  0.450376  0.005442  0.865966  1
  Fe  Fe7  1  0.543313  0.507897  0.137681  1
  W  W8  1  0.554929  0.999440  0.144353  1
  W  W9  1  0.051520  0.498500  0.355262  1
  W  W10  1  0.945161  0.999352  0.644268  1
  W  W11  1  0.446924  0.499171  0.856579  1
  O  O12  1  0.267289  0.539001  0.019396  1
  O  O13  1  0.271344  0.963166  0.030041  1
  O  O14  1  0.658536  0.756832  0.122280  1
  O  O15  1  0.450877  0.245484  0.143514  1
  O  O16  1  0.864780  0.062796  0.209706  1
  O  O17  1  0.882673  0.445855  0.213521  1
  O  O18  1  0.382623  0.944886  0.285120  1
  O  O19  1  0.364525  0.561197  0.288849  1
  O  O20  1  0.952445  0.745501  0.356561  1
  O  O21  1  0.157847  0.256516  0.378238  1
  O  O22  1  0.771064  0.463164  0.468578  1
  O  O23  1  0.766366  0.039644  0.480595  1
  O  O24  1  0.233086  0.539237  0.518724  1
  O  O25  1  0.228297  0.963518  0.529674  1
  O  O26  1  0.842023  0.755862  0.620999  1
  O  O27  1  0.048471  0.245904  0.642922  1
  O  O28  1  0.636308  0.062028  0.709714  1
  O  O29  1  0.619555  0.445160  0.715330  1
  O  O30  1  0.118015  0.944938  0.784857  1
  O  O31  1  0.137217  0.562155  0.790834  1
  O  O32  1  0.549670  0.745779  0.856632  1
  O  O33  1  0.342664  0.255590  0.877938  1
  O  O34  1  0.728222  0.463668  0.971195  1
  O  O35  1  0.733232  0.039483  0.980688  1
