# generated using pymatgen
data_ErTm9(RuRh)2
_symmetry_space_group_name_H-M   'P 1'
_cell_length_a   6.29317912
_cell_length_b   7.20673656
_cell_length_c   8.37472940
_cell_angle_alpha   96.78867421
_cell_angle_beta   112.05240512
_cell_angle_gamma   89.98999866
_symmetry_Int_Tables_number   1
_chemical_formula_structural   ErTm9(RuRh)2
_chemical_formula_sum   'Er1 Tm9 Ru2 Rh2'
_cell_volume   349.16241998
_cell_formula_units_Z   1
loop_
 _symmetry_equiv_pos_site_id
 _symmetry_equiv_pos_as_xyz
  1  'x, y, z'
loop_
 _atom_site_type_symbol
 _atom_site_label
 _atom_site_symmetry_multiplicity
 _atom_site_fract_x
 _atom_site_fract_y
 _atom_site_fract_z
 _atom_site_occupancy
  Er  Er0  1  0.792179  0.082088  0.812199  1
  Tm  Tm1  1  0.980139  0.417770  0.188028  1
  Tm  Tm2  1  0.209553  0.914719  0.184965  1
  Tm  Tm3  1  0.024675  0.585210  0.815139  1
  Tm  Tm4  1  0.207190  0.183554  0.564631  1
  Tm  Tm5  1  0.642807  0.316984  0.435016  1
  Tm  Tm6  1  0.792122  0.812915  0.437181  1
  Tm  Tm7  1  0.354689  0.686557  0.562663  1
  Tm  Tm8  1  0.418896  0.250096  0.000013  1
  Tm  Tm9  1  0.578260  0.749931  0.000080  1
  Ru  Ru10  1  0.396102  0.575250  0.220080  1
  Ru  Ru11  1  0.176708  0.924572  0.779644  1
  Rh  Rh12  1  0.602796  0.423776  0.779059  1
  Rh  Rh13  1  0.823881  0.076577  0.221301  1
