# generated using pymatgen
data_CeThB10Os
_symmetry_space_group_name_H-M   'P 1'
_cell_length_a   4.20352700
_cell_length_b   5.73764370
_cell_length_c   11.45993404
_cell_angle_alpha   90.00625238
_cell_angle_beta   90.00000000
_cell_angle_gamma   90.00000000
_symmetry_Int_Tables_number   1
_chemical_formula_structural   CeThB10Os
_chemical_formula_sum   'Ce2 Th2 B20 Os2'
_cell_volume   276.39458636
_cell_formula_units_Z   2
loop_
 _symmetry_equiv_pos_site_id
 _symmetry_equiv_pos_as_xyz
  1  'x, y, z'
loop_
 _atom_site_type_symbol
 _atom_site_label
 _atom_site_symmetry_multiplicity
 _atom_site_fract_x
 _atom_site_fract_y
 _atom_site_fract_z
 _atom_site_occupancy
  Ce  Ce0  1  0.500000  0.280088  0.870832  1
  Ce  Ce1  1  0.500000  0.719912  0.129168  1
  Th  Th2  1  0.500000  0.780483  0.633031  1
  Th  Th3  1  0.500000  0.219517  0.366969  1
  B  B4  1  0.000000  0.118309  0.542579  1
  B  B5  1  0.000000  0.881691  0.457421  1
  B  B6  1  0.000000  0.617893  0.957598  1
  B  B7  1  0.000000  0.382107  0.042402  1
  B  B8  1  0.000000  0.130855  0.697349  1
  B  B9  1  0.000000  0.869145  0.302651  1
  B  B10  1  0.301127  0.222386  0.118548  1
  B  B11  1  0.301127  0.777614  0.881452  1
  B  B12  1  0.699146  0.723252  0.380649  1
  B  B13  1  0.699146  0.276748  0.619351  1
  B  B14  1  0.698873  0.777614  0.881452  1
  B  B15  1  0.698873  0.222386  0.118548  1
  B  B16  1  0.300854  0.276748  0.619351  1
  B  B17  1  0.300854  0.723252  0.380649  1
  B  B18  1  0.000000  0.059989  0.192908  1
  B  B19  1  0.000000  0.940011  0.807092  1
  B  B20  1  0.000000  0.560756  0.306329  1
  B  B21  1  0.000000  0.439244  0.693671  1
  B  B22  1  0.000000  0.369736  0.196407  1
  B  B23  1  0.000000  0.630264  0.803593  1
  Os  Os24  1  0.000000  0.500000  0.500000  1
  Os  Os25  1  0.000000  0.000000  0.000000  1
