# generated using pymatgen
data_Ta18Al8GaGe
_symmetry_space_group_name_H-M   'P 1'
_cell_length_a   9.94222148
_cell_length_b   9.94222334
_cell_length_c   9.94222110
_cell_angle_alpha   93.87758369
_cell_angle_beta   93.87754179
_cell_angle_gamma   149.85424449
_symmetry_Int_Tables_number   1
_chemical_formula_structural   Ta18Al8GaGe
_chemical_formula_sum   'Ta18 Al8 Ga1 Ge1'
_cell_volume   476.56679003
_cell_formula_units_Z   1
loop_
 _symmetry_equiv_pos_site_id
 _symmetry_equiv_pos_as_xyz
  1  'x, y, z'
loop_
 _atom_site_type_symbol
 _atom_site_label
 _atom_site_symmetry_multiplicity
 _atom_site_fract_x
 _atom_site_fract_y
 _atom_site_fract_z
 _atom_site_occupancy
  Ta  Ta0  1  0.564044  0.791118  0.355020  1
  Ta  Ta1  1  0.084061  0.156714  0.241242  1
  Ta  Ta2  1  0.584528  0.343286  0.927346  1
  Ta  Ta3  1  0.657179  0.584528  0.241242  1
  Ta  Ta4  1  0.343288  0.415939  0.758758  1
  Ta  Ta5  1  0.791118  0.436098  0.227074  1
  Ta  Ta6  1  0.415939  0.657181  0.072654  1
  Ta  Ta7  1  0.156715  0.915472  0.072652  1
  Ta  Ta8  1  0.708883  0.935957  0.644980  1
  Ta  Ta9  1  0.436097  0.209023  0.644980  1
  Ta  Ta10  1  0.915472  0.842819  0.758758  1
  Ta  Ta11  1  0.063902  0.708882  0.772926  1
  Ta  Ta12  1  0.209023  0.564043  0.772926  1
  Ta  Ta13  1  0.250000  0.750000  0.500000  1
  Ta  Ta14  1  0.290976  0.063902  0.355020  1
  Ta  Ta15  1  0.750000  0.250000  0.500000  1
  Ta  Ta16  1  0.842818  0.084061  0.927348  1
  Ta  Ta17  1  0.935957  0.290977  0.227074  1
  Al  Al18  1  0.372338  0.872338  0.244677  1
  Al  Al19  1  0.872338  0.627662  0.500000  1
  Al  Al20  1  0.499998  0.000002  0.000000  1
  Al  Al21  1  0.127662  0.372338  0.500000  1
  Al  Al22  1  0.627662  0.127662  0.755323  1
  Al  Al23  1  0.000002  0.499998  0.000000  1
  Al  Al24  1  0.499998  0.499998  0.499995  1
  Al  Al25  1  0.000002  0.000002  0.500005  1
  Ga  Ga26  1  0.749999  0.750000  0.999999  1
  Ge  Ge27  1  0.250001  0.250000  0.000001  1
