# generated using pymatgen
data_Tb17Ho3Si15Os
_symmetry_space_group_name_H-M   'P 1'
_cell_length_a   7.41768713
_cell_length_b   7.77518572
_cell_length_c   14.65224000
_cell_angle_alpha   90.00000000
_cell_angle_beta   90.00000000
_cell_angle_gamma   90.08425079
_symmetry_Int_Tables_number   1
_chemical_formula_structural   Tb17Ho3Si15Os
_chemical_formula_sum   'Tb17 Ho3 Si15 Os1'
_cell_volume   845.05083880
_cell_formula_units_Z   1
loop_
 _symmetry_equiv_pos_site_id
 _symmetry_equiv_pos_as_xyz
  1  'x, y, z'
loop_
 _atom_site_type_symbol
 _atom_site_label
 _atom_site_symmetry_multiplicity
 _atom_site_fract_x
 _atom_site_fract_y
 _atom_site_fract_z
 _atom_site_occupancy
  Tb  Tb0  1  0.672189  0.185196  0.625080  1
  Tb  Tb1  1  0.190652  0.323616  0.873686  1
  Tb  Tb2  1  0.318849  0.818988  0.123366  1
  Tb  Tb3  1  0.817657  0.679278  0.377113  1
  Tb  Tb4  1  0.318849  0.818988  0.376634  1
  Tb  Tb5  1  0.817657  0.679278  0.122887  1
  Tb  Tb6  1  0.672189  0.185196  0.874920  1
  Tb  Tb7  1  0.190652  0.323616  0.626314  1
  Tb  Tb8  1  0.522804  0.674102  0.597560  1
  Tb  Tb9  1  0.027155  0.816060  0.903050  1
  Tb  Tb10  1  0.472988  0.315512  0.097353  1
  Tb  Tb11  1  0.973164  0.183843  0.402606  1
  Tb  Tb12  1  0.472988  0.315512  0.402647  1
  Tb  Tb13  1  0.973164  0.183843  0.097394  1
  Tb  Tb14  1  0.522804  0.674102  0.902440  1
  Tb  Tb15  1  0.027155  0.816060  0.596950  1
  Tb  Tb16  1  0.649851  0.014579  0.250000  1
  Ho  Ho17  1  0.840252  0.512463  0.750000  1
  Ho  Ho18  1  0.354325  0.986259  0.750000  1
  Ho  Ho19  1  0.150494  0.483974  0.250000  1
  Si  Si20  1  0.645388  0.971745  0.460379  1
  Si  Si21  1  0.148039  0.528255  0.039537  1
  Si  Si22  1  0.349953  0.025216  0.960930  1
  Si  Si23  1  0.856793  0.471632  0.539202  1
  Si  Si24  1  0.349953  0.025216  0.539070  1
  Si  Si25  1  0.856793  0.471632  0.960798  1
  Si  Si26  1  0.645388  0.971745  0.039621  1
  Si  Si27  1  0.148039  0.528255  0.460463  1
  Si  Si28  1  0.978909  0.099785  0.750000  1
  Si  Si29  1  0.524136  0.602560  0.250000  1
  Si  Si30  1  0.021940  0.895833  0.250000  1
  Si  Si31  1  0.741196  0.876029  0.750000  1
  Si  Si32  1  0.232055  0.632924  0.750000  1
  Si  Si33  1  0.266424  0.127518  0.250000  1
  Si  Si34  1  0.768213  0.374042  0.250000  1
  Os  Os35  1  0.480941  0.407143  0.750000  1
