# generated using pymatgen
data_Tb3Y(TcB4)4
_symmetry_space_group_name_H-M   'P 1'
_cell_length_a   5.97455504
_cell_length_b   11.57451408
_cell_length_c   3.60586100
_cell_angle_alpha   89.99999505
_cell_angle_beta   90.00000000
_cell_angle_gamma   90.01375643
_symmetry_Int_Tables_number   1
_chemical_formula_structural   Tb3Y(TcB4)4
_chemical_formula_sum   'Tb3 Y1 Tc4 B16'
_cell_volume   249.35455339
_cell_formula_units_Z   1
loop_
 _symmetry_equiv_pos_site_id
 _symmetry_equiv_pos_as_xyz
  1  'x, y, z'
loop_
 _atom_site_type_symbol
 _atom_site_label
 _atom_site_symmetry_multiplicity
 _atom_site_fract_x
 _atom_site_fract_y
 _atom_site_fract_z
 _atom_site_occupancy
  Tb  Tb0  1  0.873221  0.149931  0.000000  1
  Tb  Tb1  1  0.373226  0.350051  0.000000  1
  Tb  Tb2  1  0.626778  0.649988  0.000000  1
  Y  Y3  1  0.126767  0.850107  0.000000  1
  Tc  Tc4  1  0.366941  0.087382  0.999999  1
  Tc  Tc5  1  0.867006  0.412557  0.999999  1
  Tc  Tc6  1  0.133039  0.587580  0.000000  1
  Tc  Tc7  1  0.633083  0.912497  0.999999  1
  B  B8  1  0.136408  0.031484  0.499999  1
  B  B9  1  0.613094  0.046964  0.499999  1
  B  B10  1  0.213464  0.184853  0.499999  1
  B  B11  1  0.523503  0.192034  0.499999  1
  B  B12  1  0.023480  0.307942  0.499999  1
  B  B13  1  0.713481  0.315132  0.499999  1
  B  B14  1  0.113137  0.453016  0.499999  1
  B  B15  1  0.636503  0.468464  0.499999  1
  B  B16  1  0.363478  0.531554  0.499999  1
  B  B17  1  0.886891  0.547023  0.499999  1
  B  B18  1  0.286605  0.684917  0.499999  1
  B  B19  1  0.976507  0.692174  0.499999  1
  B  B20  1  0.476459  0.807892  0.499999  1
  B  B21  1  0.786662  0.815117  0.499999  1
  B  B22  1  0.386680  0.952905  0.499999  1
  B  B23  1  0.863584  0.968445  0.499999  1
