# generated using pymatgen
data_Ho8Si12Ir3Pt
_symmetry_space_group_name_H-M   'P 1'
_cell_length_a   8.15762100
_cell_length_b   8.15762173
_cell_length_c   7.89129500
_cell_angle_alpha   90.00000000
_cell_angle_beta   90.00000000
_cell_angle_gamma   120.00000920
_symmetry_Int_Tables_number   1
_chemical_formula_structural   Ho8Si12Ir3Pt
_chemical_formula_sum   'Ho8 Si12 Ir3 Pt1'
_cell_volume   454.78481762
_cell_formula_units_Z   1
loop_
 _symmetry_equiv_pos_site_id
 _symmetry_equiv_pos_as_xyz
  1  'x, y, z'
loop_
 _atom_site_type_symbol
 _atom_site_label
 _atom_site_symmetry_multiplicity
 _atom_site_fract_x
 _atom_site_fract_y
 _atom_site_fract_z
 _atom_site_occupancy
  Ho  Ho0  1  0.000000  0.000000  0.250024  1
  Ho  Ho1  1  0.000000  0.000000  0.750979  1
  Ho  Ho2  1  0.510880  0.489120  0.247379  1
  Ho  Ho3  1  0.510880  0.021761  0.247379  1
  Ho  Ho4  1  0.978239  0.489120  0.247379  1
  Ho  Ho5  1  0.491096  0.508904  0.752141  1
  Ho  Ho6  1  0.491096  0.982191  0.752141  1
  Ho  Ho7  1  0.017809  0.508904  0.752141  1
  Si  Si8  1  0.164459  0.835541  0.500336  1
  Si  Si9  1  0.164459  0.328917  0.500336  1
  Si  Si10  1  0.671083  0.835541  0.500336  1
  Si  Si11  1  0.832548  0.167452  0.499831  1
  Si  Si12  1  0.832548  0.665099  0.499831  1
  Si  Si13  1  0.334901  0.167452  0.499831  1
  Si  Si14  1  0.833511  0.166489  0.999052  1
  Si  Si15  1  0.833511  0.667023  0.999052  1
  Si  Si16  1  0.332977  0.166489  0.999052  1
  Si  Si17  1  0.166656  0.833344  0.001159  1
  Si  Si18  1  0.166656  0.333310  0.001159  1
  Si  Si19  1  0.666690  0.833344  0.001159  1
  Ir  Ir20  1  0.666667  0.333333  0.537207  1
  Ir  Ir21  1  0.666667  0.333333  0.963718  1
  Ir  Ir22  1  0.333333  0.666667  0.032781  1
  Pt  Pt23  1  0.333333  0.666667  0.465594  1
