# generated using pymatgen
data_Li8La8SbPt7
_symmetry_space_group_name_H-M   'P 1'
_cell_length_a   4.21339500
_cell_length_b   7.59956726
_cell_length_c   17.34631100
_cell_angle_alpha   89.67235324
_cell_angle_beta   90.00000000
_cell_angle_gamma   90.00000000
_symmetry_Int_Tables_number   1
_chemical_formula_structural   Li8La8SbPt7
_chemical_formula_sum   'Li8 La8 Sb1 Pt7'
_cell_volume   555.41942689
_cell_formula_units_Z   1
loop_
 _symmetry_equiv_pos_site_id
 _symmetry_equiv_pos_as_xyz
  1  'x, y, z'
loop_
 _atom_site_type_symbol
 _atom_site_label
 _atom_site_symmetry_multiplicity
 _atom_site_fract_x
 _atom_site_fract_y
 _atom_site_fract_z
 _atom_site_occupancy
  Li  Li0  1  0.250000  0.637742  0.350497  1
  Li  Li1  1  0.750000  0.370897  0.653113  1
  Li  Li2  1  0.750000  0.865680  0.857275  1
  Li  Li3  1  0.250000  0.127258  0.146767  1
  Li  Li4  1  0.250000  0.489651  0.058746  1
  Li  Li5  1  0.750000  0.511350  0.942009  1
  Li  Li6  1  0.750000  0.007067  0.561422  1
  Li  Li7  1  0.250000  0.992603  0.435141  1
  La  La8  1  0.250000  0.548814  0.786493  1
  La  La9  1  0.750000  0.452234  0.211024  1
  La  La10  1  0.750000  0.944065  0.285060  1
  La  La11  1  0.250000  0.040149  0.729400  1
  La  La12  1  0.250000  0.682822  0.560643  1
  La  La13  1  0.750000  0.341177  0.424419  1
  La  La14  1  0.750000  0.835401  0.060007  1
  La  La15  1  0.250000  0.168670  0.941149  1
  Sb  Sb16  1  0.250000  0.239233  0.564792  1
  Pt  Pt17  1  0.250000  0.743493  0.187219  1
  Pt  Pt18  1  0.750000  0.259092  0.811478  1
  Pt  Pt19  1  0.750000  0.752481  0.688212  1
  Pt  Pt20  1  0.250000  0.239147  0.306997  1
  Pt  Pt21  1  0.250000  0.757229  0.938868  1
  Pt  Pt22  1  0.750000  0.243159  0.060968  1
  Pt  Pt23  1  0.750000  0.750584  0.438301  1
