# generated using pymatgen
data_Li4Yb3(SiN3)2
_symmetry_space_group_name_H-M   'P 1'
_cell_length_a   5.62042224
_cell_length_b   5.62042240
_cell_length_c   5.96841309
_cell_angle_alpha   89.73777033
_cell_angle_beta   89.73776872
_cell_angle_gamma   118.41910983
_symmetry_Int_Tables_number   1
_chemical_formula_structural   Li4Yb3(SiN3)2
_chemical_formula_sum   'Li4 Yb3 Si2 N6'
_cell_volume   165.80982696
_cell_formula_units_Z   1
loop_
 _symmetry_equiv_pos_site_id
 _symmetry_equiv_pos_as_xyz
  1  'x, y, z'
loop_
 _atom_site_type_symbol
 _atom_site_label
 _atom_site_symmetry_multiplicity
 _atom_site_fract_x
 _atom_site_fract_y
 _atom_site_fract_z
 _atom_site_occupancy
  Li  Li0  1  0.314503  0.964718  0.126006  1
  Li  Li1  1  0.964718  0.314503  0.126006  1
  Li  Li2  1  0.685497  0.035282  0.873994  1
  Li  Li3  1  0.035282  0.685497  0.873994  1
  Yb  Yb4  1  0.312585  0.687415  0.500000  1
  Yb  Yb5  1  0.687415  0.312585  0.500000  1
  Yb  Yb6  1  0.500000  0.500000  0.000000  1
  Si  Si7  1  0.119142  0.119142  0.669652  1
  Si  Si8  1  0.880858  0.880858  0.330348  1
  N  N9  1  0.934693  0.633868  0.209339  1
  N  N10  1  0.196880  0.196880  0.366967  1
  N  N11  1  0.803120  0.803120  0.633033  1
  N  N12  1  0.065307  0.366132  0.790661  1
  N  N13  1  0.366132  0.065307  0.790661  1
  N  N14  1  0.633868  0.934693  0.209339  1
