# generated using pymatgen
data_LaPr(Ge2Rh3)2
_symmetry_space_group_name_H-M   'P 1'
_cell_length_a   6.84109350
_cell_length_b   6.84109315
_cell_length_c   6.84109200
_cell_angle_alpha   130.57090708
_cell_angle_beta   113.48978399
_cell_angle_gamma   87.19286537
_symmetry_Int_Tables_number   1
_chemical_formula_structural   LaPr(Ge2Rh3)2
_chemical_formula_sum   'La1 Pr1 Ge4 Rh6'
_cell_volume   212.64421541
_cell_formula_units_Z   1
loop_
 _symmetry_equiv_pos_site_id
 _symmetry_equiv_pos_as_xyz
  1  'x, y, z'
loop_
 _atom_site_type_symbol
 _atom_site_label
 _atom_site_symmetry_multiplicity
 _atom_site_fract_x
 _atom_site_fract_y
 _atom_site_fract_z
 _atom_site_occupancy
  La  La0  1  0.250000  0.959014  0.709014  1
  Pr  Pr1  1  0.750000  0.040744  0.290744  1
  Ge  Ge2  1  0.581039  0.377563  0.796525  1
  Ge  Ge3  1  0.419852  0.623755  0.203904  1
  Ge  Ge4  1  0.080148  0.284053  0.203904  1
  Ge  Ge5  1  0.918961  0.715486  0.796525  1
  Rh  Rh6  1  0.219643  0.499958  0.719782  1
  Rh  Rh7  1  0.719823  0.000139  0.719782  1
  Rh  Rh8  1  0.780177  0.499958  0.280316  1
  Rh  Rh9  1  0.280357  0.000139  0.280316  1
  Rh  Rh10  1  0.500551  0.499596  0.500147  1
  Rh  Rh11  1  0.999449  0.499596  0.999044  1
