# generated using pymatgen
data_Y20Cd2Ag3HgRu2
_symmetry_space_group_name_H-M   'P 1'
_cell_length_a   9.62716723
_cell_length_b   9.62716692
_cell_length_c   9.72917900
_cell_angle_alpha   90.00000000
_cell_angle_beta   90.00000000
_cell_angle_gamma   119.83296320
_symmetry_Int_Tables_number   1
_chemical_formula_structural   Y20Cd2Ag3HgRu2
_chemical_formula_sum   'Y20 Cd2 Ag3 Hg1 Ru2'
_cell_volume   782.22623578
_cell_formula_units_Z   1
loop_
 _symmetry_equiv_pos_site_id
 _symmetry_equiv_pos_as_xyz
  1  'x, y, z'
loop_
 _atom_site_type_symbol
 _atom_site_label
 _atom_site_symmetry_multiplicity
 _atom_site_fract_x
 _atom_site_fract_y
 _atom_site_fract_z
 _atom_site_occupancy
  Y  Y0  1  0.000829  0.999171  0.479555  1
  Y  Y1  1  0.000829  0.999171  0.020445  1
  Y  Y2  1  0.209797  0.790203  0.441017  1
  Y  Y3  1  0.210045  0.420056  0.441102  1
  Y  Y4  1  0.579944  0.789955  0.441102  1
  Y  Y5  1  0.791172  0.208828  0.560019  1
  Y  Y6  1  0.791279  0.582798  0.560353  1
  Y  Y7  1  0.417202  0.208721  0.560353  1
  Y  Y8  1  0.791172  0.208828  0.939981  1
  Y  Y9  1  0.791279  0.582798  0.939647  1
  Y  Y10  1  0.417202  0.208721  0.939647  1
  Y  Y11  1  0.209797  0.790203  0.058983  1
  Y  Y12  1  0.210045  0.420056  0.058898  1
  Y  Y13  1  0.579944  0.789955  0.058898  1
  Y  Y14  1  0.540826  0.459174  0.250000  1
  Y  Y15  1  0.540602  0.081452  0.250000  1
  Y  Y16  1  0.918548  0.459398  0.250000  1
  Y  Y17  1  0.459024  0.540976  0.750000  1
  Y  Y18  1  0.457153  0.918155  0.750000  1
  Y  Y19  1  0.081845  0.542847  0.750000  1
  Cd  Cd20  1  0.111591  0.223899  0.750000  1
  Cd  Cd21  1  0.776101  0.888409  0.750000  1
  Ag  Ag22  1  0.876120  0.123880  0.250000  1
  Ag  Ag23  1  0.876159  0.752340  0.250000  1
  Ag  Ag24  1  0.247660  0.123841  0.250000  1
  Hg  Hg25  1  0.114092  0.885908  0.750000  1
  Ru  Ru26  1  0.333241  0.666759  0.250000  1
  Ru  Ru27  1  0.666501  0.333499  0.750000  1
