# generated using pymatgen
data_LiCeCoH6
_symmetry_space_group_name_H-M   'P 1'
_cell_length_a   4.80298623
_cell_length_b   4.80212091
_cell_length_c   4.79744401
_cell_angle_alpha   60.03479824
_cell_angle_beta   60.04682245
_cell_angle_gamma   59.93629493
_symmetry_Int_Tables_number   1
_chemical_formula_structural   LiCeCoH6
_chemical_formula_sum   'Li1 Ce1 Co1 H6'
_cell_volume   78.25231130
_cell_formula_units_Z   1
loop_
 _symmetry_equiv_pos_site_id
 _symmetry_equiv_pos_as_xyz
  1  'x, y, z'
loop_
 _atom_site_type_symbol
 _atom_site_label
 _atom_site_symmetry_multiplicity
 _atom_site_fract_x
 _atom_site_fract_y
 _atom_site_fract_z
 _atom_site_occupancy
  Li  Li0  1  0.750093  0.749959  0.750004  1
  Ce  Ce1  1  0.249920  0.249934  0.250058  1
  Co  Co2  1  0.000051  0.999795  0.000133  1
  H  H3  1  0.764875  0.764878  0.235071  1
  H  H4  1  0.765236  0.234812  0.234736  1
  H  H5  1  0.234784  0.765272  0.234751  1
  H  H6  1  0.234672  0.765222  0.765225  1
  H  H7  1  0.765286  0.234833  0.765203  1
  H  H8  1  0.235084  0.235294  0.764815  1
