# generated using pymatgen
data_Ba7Sr5Si15Hg
_symmetry_space_group_name_H-M   'P 1'
_cell_length_a   8.60520805
_cell_length_b   8.58812193
_cell_length_c   11.40343234
_cell_angle_alpha   89.33398314
_cell_angle_beta   89.36359028
_cell_angle_gamma   89.46844109
_symmetry_Int_Tables_number   1
_chemical_formula_structural   Ba7Sr5Si15Hg
_chemical_formula_sum   'Ba7 Sr5 Si15 Hg1'
_cell_volume   842.59883712
_cell_formula_units_Z   1
loop_
 _symmetry_equiv_pos_site_id
 _symmetry_equiv_pos_as_xyz
  1  'x, y, z'
loop_
 _atom_site_type_symbol
 _atom_site_label
 _atom_site_symmetry_multiplicity
 _atom_site_fract_x
 _atom_site_fract_y
 _atom_site_fract_z
 _atom_site_occupancy
  Ba  Ba0  1  0.006838  0.498277  0.751378  1
  Ba  Ba1  1  0.995035  0.500164  0.249457  1
  Ba  Ba2  1  0.998555  0.998176  0.173119  1
  Ba  Ba3  1  0.660584  0.664026  0.996246  1
  Ba  Ba4  1  0.831399  0.183316  0.500985  1
  Ba  Ba5  1  0.181303  0.833421  0.501175  1
  Ba  Ba6  1  0.338713  0.335238  0.001821  1
  Sr  Sr7  1  0.498517  0.007634  0.748804  1
  Sr  Sr8  1  0.501366  0.994540  0.253089  1
  Sr  Sr9  1  0.009267  0.008233  0.834496  1
  Sr  Sr10  1  0.493170  0.494140  0.328283  1
  Sr  Sr11  1  0.491983  0.492094  0.665735  1
  Si  Si12  1  0.206708  0.196134  0.649916  1
  Si  Si13  1  0.798511  0.807726  0.376611  1
  Si  Si14  1  0.304249  0.709984  0.153840  1
  Si  Si15  1  0.696421  0.290582  0.154054  1
  Si  Si16  1  0.696783  0.297673  0.843264  1
  Si  Si17  1  0.309049  0.710365  0.842086  1
  Si  Si18  1  0.211364  0.200396  0.347812  1
  Si  Si19  1  0.695725  0.098497  0.997692  1
  Si  Si20  1  0.306332  0.906464  0.996904  1
  Si  Si21  1  0.113523  0.705796  0.997682  1
  Si  Si22  1  0.567924  0.781278  0.494905  1
  Si  Si23  1  0.891790  0.296295  0.997508  1
  Si  Si24  1  0.206757  0.397808  0.498703  1
  Si  Si25  1  0.773453  0.576699  0.494465  1
  Si  Si26  1  0.407772  0.198683  0.499440  1
  Hg  Hg27  1  0.806908  0.816358  0.650527  1
