# generated using pymatgen
data_ErPaCo2Sn
_symmetry_space_group_name_H-M   'P 1'
_cell_length_a   7.37036062
_cell_length_b   7.37051680
_cell_length_c   3.50268800
_cell_angle_alpha   90.00000000
_cell_angle_beta   90.00000000
_cell_angle_gamma   95.59027695
_symmetry_Int_Tables_number   1
_chemical_formula_structural   ErPaCo2Sn
_chemical_formula_sum   'Er2 Pa2 Co4 Sn2'
_cell_volume   189.37283330
_cell_formula_units_Z   2
loop_
 _symmetry_equiv_pos_site_id
 _symmetry_equiv_pos_as_xyz
  1  'x, y, z'
loop_
 _atom_site_type_symbol
 _atom_site_label
 _atom_site_symmetry_multiplicity
 _atom_site_fract_x
 _atom_site_fract_y
 _atom_site_fract_z
 _atom_site_occupancy
  Er  Er0  1  0.171852  0.328127  0.500000  1
  Er  Er1  1  0.828236  0.671775  0.500000  1
  Pa  Pa2  1  0.673105  0.173141  0.500000  1
  Pa  Pa3  1  0.326857  0.826886  0.500000  1
  Co  Co4  1  0.856027  0.356027  0.000000  1
  Co  Co5  1  0.144028  0.644013  0.000000  1
  Co  Co6  1  0.382630  0.117330  0.000000  1
  Co  Co7  1  0.617277  0.882689  0.000000  1
  Sn  Sn8  1  0.500011  0.500010  0.000000  1
  Sn  Sn9  1  0.999976  0.000005  0.000000  1
