# generated using pymatgen
data_Dy2Ho7Lu3(GaCo2)2
_symmetry_space_group_name_H-M   'P 1'
_cell_length_a   8.18466339
_cell_length_b   8.19013347
_cell_length_c   8.19055176
_cell_angle_alpha   112.04263394
_cell_angle_beta   109.54271753
_cell_angle_gamma   106.89949763
_symmetry_Int_Tables_number   1
_chemical_formula_structural   Dy2Ho7Lu3(GaCo2)2
_chemical_formula_sum   'Dy2 Ho7 Lu3 Ga2 Co4'
_cell_volume   421.64276686
_cell_formula_units_Z   1
loop_
 _symmetry_equiv_pos_site_id
 _symmetry_equiv_pos_as_xyz
  1  'x, y, z'
loop_
 _atom_site_type_symbol
 _atom_site_label
 _atom_site_symmetry_multiplicity
 _atom_site_fract_x
 _atom_site_fract_y
 _atom_site_fract_z
 _atom_site_occupancy
  Dy  Dy0  1  0.959339  0.260594  0.697906  1
  Dy  Dy1  1  0.042756  0.740020  0.303855  1
  Ho  Ho2  1  0.672742  0.484564  0.811548  1
  Ho  Ho3  1  0.562767  0.260916  0.300973  1
  Ho  Ho4  1  0.435992  0.739633  0.697462  1
  Ho  Ho5  1  0.182360  0.780951  0.962053  1
  Ho  Ho6  1  0.818770  0.780771  0.598687  1
  Ho  Ho7  1  0.180098  0.219129  0.399930  1
  Ho  Ho8  1  0.818974  0.218944  0.039002  1
  Lu  Lu9  1  0.672595  0.859923  0.187108  1
  Lu  Lu10  1  0.327317  0.513619  0.186525  1
  Lu  Lu11  1  0.326597  0.140055  0.813642  1
  Ga  Ga12  1  0.999669  0.499727  0.500018  1
  Ga  Ga13  1  0.499685  0.999057  0.499362  1
  Co  Co14  1  0.115304  0.115888  0.998765  1
  Co  Co15  1  0.885832  0.885204  0.001345  1
  Co  Co16  1  0.660346  0.500436  0.161758  1
  Co  Co17  1  0.338858  0.500566  0.840061  1
