# generated using pymatgen
data_Sm4TeC4Cl
_symmetry_space_group_name_H-M   'P 1'
_cell_length_a   7.43846062
_cell_length_b   7.43846011
_cell_length_c   6.71475900
_cell_angle_alpha   79.92219870
_cell_angle_beta   79.92219940
_cell_angle_gamma   33.40063040
_symmetry_Int_Tables_number   1
_chemical_formula_structural   Sm4TeC4Cl
_chemical_formula_sum   'Sm4 Te1 C4 Cl1'
_cell_volume   201.08269517
_cell_formula_units_Z   1
loop_
 _symmetry_equiv_pos_site_id
 _symmetry_equiv_pos_as_xyz
  1  'x, y, z'
loop_
 _atom_site_type_symbol
 _atom_site_label
 _atom_site_symmetry_multiplicity
 _atom_site_fract_x
 _atom_site_fract_y
 _atom_site_fract_z
 _atom_site_occupancy
  Sm  Sm0  1  0.531819  0.161272  0.146138  1
  Sm  Sm1  1  0.148450  0.547168  0.647086  1
  Sm  Sm2  1  0.452832  0.851550  0.852914  1
  Sm  Sm3  1  0.838728  0.468181  0.353862  1
  Te  Te4  1  0.794148  0.205852  0.750000  1
  C  C5  1  0.344835  0.108012  0.472721  1
  C  C6  1  0.891988  0.655165  0.027279  1
  C  C7  1  0.641419  0.906705  0.523887  1
  C  C8  1  0.093295  0.358581  0.976113  1
  Cl  Cl9  1  0.262486  0.737514  0.250000  1
