# generated using pymatgen
data_Dy10Rh2I15
_symmetry_space_group_name_H-M   'P 1'
_cell_length_a   9.81215523
_cell_length_b   10.60231445
_cell_length_c   11.56027092
_cell_angle_alpha   92.47797300
_cell_angle_beta   114.13893698
_cell_angle_gamma   110.28434173
_symmetry_Int_Tables_number   1
_chemical_formula_structural   Dy10Rh2I15
_chemical_formula_sum   'Dy10 Rh2 I15'
_cell_volume   1005.07607875
_cell_formula_units_Z   1
loop_
 _symmetry_equiv_pos_site_id
 _symmetry_equiv_pos_as_xyz
  1  'x, y, z'
loop_
 _atom_site_type_symbol
 _atom_site_label
 _atom_site_symmetry_multiplicity
 _atom_site_fract_x
 _atom_site_fract_y
 _atom_site_fract_z
 _atom_site_occupancy
  Dy  Dy0  1  0.788949  0.394481  0.268839  1
  Dy  Dy1  1  0.211051  0.605519  0.731161  1
  Dy  Dy2  1  0.665463  0.752566  0.824745  1
  Dy  Dy3  1  0.334537  0.247434  0.175255  1
  Dy  Dy4  1  0.525259  0.709118  0.093423  1
  Dy  Dy5  1  0.474741  0.290882  0.906577  1
  Dy  Dy6  1  0.585046  0.044327  0.324353  1
  Dy  Dy7  1  0.414954  0.955673  0.675647  1
  Dy  Dy8  1  0.722556  0.075567  0.048916  1
  Dy  Dy9  1  0.277444  0.924433  0.951084  1
  Rh  Rh10  1  0.470019  0.832358  0.884418  1
  Rh  Rh11  1  0.529981  0.167642  0.115582  1
  I  I12  1  0.000000  0.000000  0.000000  1
  I  I13  1  0.639377  0.884479  0.582404  1
  I  I14  1  0.360623  0.115521  0.417596  1
  I  I15  1  0.888077  0.304115  0.530015  1
  I  I16  1  0.111923  0.695885  0.469985  1
  I  I17  1  0.287583  0.758305  0.182958  1
  I  I18  1  0.712417  0.241695  0.817042  1
  I  I19  1  0.060365  0.340949  0.226110  1
  I  I20  1  0.160668  0.058661  0.697007  1
  I  I21  1  0.839332  0.941339  0.302993  1
  I  I22  1  0.234844  0.412163  0.943380  1
  I  I23  1  0.765156  0.587837  0.056620  1
  I  I24  1  0.410740  0.460124  0.666734  1
  I  I25  1  0.589260  0.539876  0.333266  1
  I  I26  1  0.939635  0.659051  0.773890  1
