# generated using pymatgen
data_Tb4ErNb3(Co4P3)4
_symmetry_space_group_name_H-M   'P 1'
_cell_length_a   12.19290900
_cell_length_b   12.19140455
_cell_length_c   3.70190600
_cell_angle_alpha   90.00000000
_cell_angle_beta   90.00000000
_cell_angle_gamma   120.00407950
_symmetry_Int_Tables_number   1
_chemical_formula_structural   Tb4ErNb3(Co4P3)4
_chemical_formula_sum   'Tb4 Er1 Nb3 Co16 P12'
_cell_volume   476.53986709
_cell_formula_units_Z   1
loop_
 _symmetry_equiv_pos_site_id
 _symmetry_equiv_pos_as_xyz
  1  'x, y, z'
loop_
 _atom_site_type_symbol
 _atom_site_label
 _atom_site_symmetry_multiplicity
 _atom_site_fract_x
 _atom_site_fract_y
 _atom_site_fract_z
 _atom_site_occupancy
  Tb  Tb0  1  0.999871  0.816051  0.500000  1
  Tb  Tb1  1  0.183820  0.183949  0.500000  1
  Tb  Tb2  1  0.333343  0.666655  0.000000  1
  Tb  Tb3  1  0.666689  0.333345  0.000000  1
  Er  Er4  1  0.815776  0.000000  0.500000  1
  Nb  Nb5  1  0.444137  0.000000  0.000000  1
  Nb  Nb6  1  0.999908  0.443517  0.000000  1
  Nb  Nb7  1  0.556391  0.556483  0.000000  1
  Co  Co8  1  0.279151  0.000000  0.500000  1
  Co  Co9  1  0.999420  0.278405  0.500000  1
  Co  Co10  1  0.721014  0.721595  0.500000  1
  Co  Co11  1  0.626804  0.804062  0.000000  1
  Co  Co12  1  0.196802  0.822839  0.000000  1
  Co  Co13  1  0.176991  0.373798  0.000000  1
  Co  Co14  1  0.373962  0.177161  0.000000  1
  Co  Co15  1  0.803193  0.626202  0.000000  1
  Co  Co16  1  0.822742  0.195938  0.000000  1
  Co  Co17  1  0.519782  0.873545  0.500000  1
  Co  Co18  1  0.126592  0.645923  0.500000  1
  Co  Co19  1  0.354085  0.480574  0.500000  1
  Co  Co20  1  0.480669  0.354077  0.500000  1
  Co  Co21  1  0.873511  0.519426  0.500000  1
  Co  Co22  1  0.646237  0.126455  0.500000  1
  Co  Co23  1  0.999296  0.000000  0.000000  1
  P  P24  1  0.178446  0.000000  0.000000  1
  P  P25  1  0.999008  0.177707  0.000000  1
  P  P26  1  0.821301  0.822293  0.000000  1
  P  P27  1  0.521160  0.688979  0.500000  1
  P  P28  1  0.311019  0.832176  0.500000  1
  P  P29  1  0.167729  0.478576  0.500000  1
  P  P30  1  0.478843  0.167824  0.500000  1
  P  P31  1  0.689153  0.521424  0.500000  1
  P  P32  1  0.832181  0.311021  0.500000  1
  P  P33  1  0.643931  0.000000  0.000000  1
  P  P34  1  0.999957  0.642873  0.000000  1
  P  P35  1  0.357084  0.357127  0.000000  1
