# generated using pymatgen
data_Li2Dy5Y(Co4P3)4
_symmetry_space_group_name_H-M   'P 1'
_cell_length_a   3.71042200
_cell_length_b   10.55805500
_cell_length_c   12.16923700
_cell_angle_alpha   90.00000000
_cell_angle_beta   90.00000000
_cell_angle_gamma   90.00000000
_symmetry_Int_Tables_number   1
_chemical_formula_structural   Li2Dy5Y(Co4P3)4
_chemical_formula_sum   'Li2 Dy5 Y1 Co16 P12'
_cell_volume   476.72790691
_cell_formula_units_Z   1
loop_
 _symmetry_equiv_pos_site_id
 _symmetry_equiv_pos_as_xyz
  1  'x, y, z'
loop_
 _atom_site_type_symbol
 _atom_site_label
 _atom_site_symmetry_multiplicity
 _atom_site_fract_x
 _atom_site_fract_y
 _atom_site_fract_z
 _atom_site_occupancy
  Li  Li0  1  0.500000  0.500000  0.152631  1
  Li  Li1  1  0.000000  0.000000  0.847479  1
  Dy  Dy2  1  0.000000  0.500000  0.522981  1
  Dy  Dy3  1  0.500000  0.819576  0.206059  1
  Dy  Dy4  1  0.500000  0.180424  0.206059  1
  Dy  Dy5  1  0.000000  0.680367  0.793942  1
  Dy  Dy6  1  0.000000  0.319633  0.793942  1
  Y  Y7  1  0.500000  0.000000  0.477058  1
  Co  Co8  1  0.500000  0.500000  0.704219  1
  Co  Co9  1  0.000000  0.000000  0.295462  1
  Co  Co10  1  0.000000  0.500000  0.987076  1
  Co  Co11  1  0.500000  0.000000  0.012878  1
  Co  Co12  1  0.500000  0.332930  0.996971  1
  Co  Co13  1  0.500000  0.667070  0.996971  1
  Co  Co14  1  0.000000  0.167094  0.003024  1
  Co  Co15  1  0.000000  0.832906  0.003024  1
  Co  Co16  1  0.500000  0.296821  0.431017  1
  Co  Co17  1  0.500000  0.703179  0.431017  1
  Co  Co18  1  0.000000  0.203558  0.569001  1
  Co  Co19  1  0.000000  0.796442  0.569001  1
  Co  Co20  1  0.500000  0.878743  0.706731  1
  Co  Co21  1  0.500000  0.121257  0.706731  1
  Co  Co22  1  0.000000  0.621132  0.293369  1
  Co  Co23  1  0.000000  0.378868  0.293369  1
  P  P24  1  0.500000  0.500000  0.885004  1
  P  P25  1  0.000000  0.000000  0.114969  1
  P  P26  1  0.500000  0.500000  0.345673  1
  P  P27  1  0.000000  0.000000  0.654623  1
  P  P28  1  0.500000  0.309667  0.615825  1
  P  P29  1  0.500000  0.690333  0.615825  1
  P  P30  1  0.000000  0.190566  0.384022  1
  P  P31  1  0.000000  0.809434  0.384022  1
  P  P32  1  0.500000  0.843420  0.893502  1
  P  P33  1  0.500000  0.156580  0.893502  1
  P  P34  1  0.000000  0.656515  0.106512  1
  P  P35  1  0.000000  0.343485  0.106512  1
