# generated using pymatgen
data_Sr2Ca(InAs2)2
_symmetry_space_group_name_H-M   'P 1'
_cell_length_a   4.46705800
_cell_length_b   6.75319100
_cell_length_c   16.83576200
_cell_angle_alpha   90.00000000
_cell_angle_beta   90.00000000
_cell_angle_gamma   90.00000000
_symmetry_Int_Tables_number   1
_chemical_formula_structural   Sr2Ca(InAs2)2
_chemical_formula_sum   'Sr4 Ca2 In4 As8'
_cell_volume   507.88267935
_cell_formula_units_Z   2
loop_
 _symmetry_equiv_pos_site_id
 _symmetry_equiv_pos_as_xyz
  1  'x, y, z'
loop_
 _atom_site_type_symbol
 _atom_site_label
 _atom_site_symmetry_multiplicity
 _atom_site_fract_x
 _atom_site_fract_y
 _atom_site_fract_z
 _atom_site_occupancy
  Sr  Sr0  1  0.000000  0.278408  0.804237  1
  Sr  Sr1  1  0.500000  0.778408  0.695763  1
  Sr  Sr2  1  0.000000  0.721592  0.195763  1
  Sr  Sr3  1  0.500000  0.221592  0.304237  1
  Ca  Ca4  1  0.000000  0.000000  0.000000  1
  Ca  Ca5  1  0.500000  0.500000  0.500000  1
  In  In6  1  0.000000  0.860584  0.413237  1
  In  In7  1  0.500000  0.360584  0.086763  1
  In  In8  1  0.000000  0.139416  0.586763  1
  In  In9  1  0.500000  0.639416  0.913237  1
  As  As10  1  0.500000  0.241713  0.933603  1
  As  As11  1  0.500000  0.758287  0.066397  1
  As  As12  1  0.000000  0.228149  0.167078  1
  As  As13  1  0.000000  0.258287  0.433603  1
  As  As14  1  0.500000  0.728149  0.332922  1
  As  As15  1  0.000000  0.771851  0.832922  1
  As  As16  1  0.000000  0.741713  0.566397  1
  As  As17  1  0.500000  0.271851  0.667078  1
