# generated using pymatgen
data_NdHoSn5Rh3
_symmetry_space_group_name_H-M   'P 1'
_cell_length_a   13.50203800
_cell_length_b   13.50203828
_cell_length_c   7.26364100
_cell_angle_alpha   90.00000000
_cell_angle_beta   90.00000000
_cell_angle_gamma   160.98156533
_symmetry_Int_Tables_number   1
_chemical_formula_structural   NdHoSn5Rh3
_chemical_formula_sum   'Nd2 Ho2 Sn10 Rh6'
_cell_volume   431.51962356
_cell_formula_units_Z   2
loop_
 _symmetry_equiv_pos_site_id
 _symmetry_equiv_pos_as_xyz
  1  'x, y, z'
loop_
 _atom_site_type_symbol
 _atom_site_label
 _atom_site_symmetry_multiplicity
 _atom_site_fract_x
 _atom_site_fract_y
 _atom_site_fract_z
 _atom_site_occupancy
  Nd  Nd0  1  0.171902  0.828098  0.752637  1
  Nd  Nd1  1  0.828098  0.171902  0.252637  1
  Ho  Ho2  1  0.476272  0.523728  0.738723  1
  Ho  Ho3  1  0.523728  0.476272  0.238723  1
  Sn  Sn4  1  0.881359  0.118641  0.732045  1
  Sn  Sn5  1  0.118641  0.881359  0.232045  1
  Sn  Sn6  1  0.704137  0.295863  0.048978  1
  Sn  Sn7  1  0.295863  0.704137  0.548978  1
  Sn  Sn8  1  0.594730  0.405270  0.614087  1
  Sn  Sn9  1  0.405270  0.594730  0.114087  1
  Sn  Sn10  1  0.953132  0.046868  0.399245  1
  Sn  Sn11  1  0.046868  0.953132  0.899245  1
  Sn  Sn12  1  0.290396  0.709604  0.974304  1
  Sn  Sn13  1  0.709604  0.290396  0.474304  1
  Rh  Rh14  1  0.049634  0.950366  0.517972  1
  Rh  Rh15  1  0.950366  0.049634  0.017972  1
  Rh  Rh16  1  0.778063  0.221937  0.762234  1
  Rh  Rh17  1  0.221937  0.778063  0.262234  1
  Rh  Rh18  1  0.395754  0.604246  0.487774  1
  Rh  Rh19  1  0.604246  0.395754  0.987774  1
