# generated using pymatgen
data_Sr2Si5Pt3
_symmetry_space_group_name_H-M   'P 1'
_cell_length_a   8.42926260
_cell_length_b   8.42926347
_cell_length_c   8.42926255
_cell_angle_alpha   138.04018513
_cell_angle_beta   105.41807675
_cell_angle_gamma   89.45716005
_symmetry_Int_Tables_number   1
_chemical_formula_structural   Sr2Si5Pt3
_chemical_formula_sum   'Sr4 Si10 Pt6'
_cell_volume   369.20533309
_cell_formula_units_Z   2
loop_
 _symmetry_equiv_pos_site_id
 _symmetry_equiv_pos_as_xyz
  1  'x, y, z'
loop_
 _atom_site_type_symbol
 _atom_site_label
 _atom_site_symmetry_multiplicity
 _atom_site_fract_x
 _atom_site_fract_y
 _atom_site_fract_z
 _atom_site_occupancy
  Sr  Sr0  1  0.864922  0.628956  0.235966  1
  Sr  Sr1  1  0.135078  0.371044  0.764034  1
  Sr  Sr2  1  0.392990  0.128956  0.264034  1
  Sr  Sr3  1  0.607010  0.871044  0.735966  1
  Si  Si4  1  0.500000  0.750000  0.250000  1
  Si  Si5  1  0.500000  0.250000  0.750000  1
  Si  Si6  1  0.231434  0.981434  0.750000  1
  Si  Si7  1  0.768566  0.518566  0.750000  1
  Si  Si8  1  0.768566  0.018566  0.250000  1
  Si  Si9  1  0.231434  0.481434  0.250000  1
  Si  Si10  1  0.033094  0.886630  0.146464  1
  Si  Si11  1  0.966906  0.113370  0.853536  1
  Si  Si12  1  0.740167  0.386630  0.353536  1
  Si  Si13  1  0.259833  0.613370  0.646464  1
  Pt  Pt14  1  0.000000  0.750000  0.750000  1
  Pt  Pt15  1  0.000000  0.250000  0.250000  1
  Pt  Pt16  1  0.253302  0.865236  0.388067  1
  Pt  Pt17  1  0.746698  0.134764  0.611933  1
  Pt  Pt18  1  0.477169  0.365236  0.111933  1
  Pt  Pt19  1  0.522831  0.634764  0.888067  1
