# generated using pymatgen
data_Sc2Ga9Ir2Pt
_symmetry_space_group_name_H-M   'P 1'
_cell_length_a   7.54251099
_cell_length_b   7.54251106
_cell_length_c   9.41135400
_cell_angle_alpha   90.00000000
_cell_angle_beta   90.00000000
_cell_angle_gamma   120.18346197
_symmetry_Int_Tables_number   1
_chemical_formula_structural   Sc2Ga9Ir2Pt
_chemical_formula_sum   'Sc4 Ga18 Ir4 Pt2'
_cell_volume   462.81646712
_cell_formula_units_Z   2
loop_
 _symmetry_equiv_pos_site_id
 _symmetry_equiv_pos_as_xyz
  1  'x, y, z'
loop_
 _atom_site_type_symbol
 _atom_site_label
 _atom_site_symmetry_multiplicity
 _atom_site_fract_x
 _atom_site_fract_y
 _atom_site_fract_z
 _atom_site_occupancy
  Sc  Sc0  1  0.997370  0.669140  0.250000  1
  Sc  Sc1  1  0.002630  0.330860  0.750000  1
  Sc  Sc2  1  0.669140  0.997370  0.250000  1
  Sc  Sc3  1  0.330860  0.002630  0.750000  1
  Ga  Ga4  1  0.128338  0.128337  0.250000  1
  Ga  Ga5  1  0.871663  0.871662  0.750000  1
  Ga  Ga6  1  0.994960  0.337160  0.084722  1
  Ga  Ga7  1  0.005040  0.662840  0.915278  1
  Ga  Ga8  1  0.005040  0.662840  0.584722  1
  Ga  Ga9  1  0.337160  0.994960  0.415278  1
  Ga  Ga10  1  0.994960  0.337160  0.415278  1
  Ga  Ga11  1  0.662840  0.005040  0.584722  1
  Ga  Ga12  1  0.662840  0.005040  0.915278  1
  Ga  Ga13  1  0.337160  0.994960  0.084722  1
  Ga  Ga14  1  0.331776  0.331776  0.573186  1
  Ga  Ga15  1  0.668224  0.668224  0.426814  1
  Ga  Ga16  1  0.668224  0.668224  0.073186  1
  Ga  Ga17  1  0.331776  0.331776  0.926814  1
  Ga  Ga18  1  0.338350  0.550340  0.250000  1
  Ga  Ga19  1  0.661650  0.449660  0.750000  1
  Ga  Ga20  1  0.550340  0.338350  0.250000  1
  Ga  Ga21  1  0.449660  0.661650  0.750000  1
  Ir  Ir22  1  0.671156  0.328844  0.000000  1
  Ir  Ir23  1  0.328844  0.671156  0.000000  1
  Ir  Ir24  1  0.328844  0.671156  0.500000  1
  Ir  Ir25  1  0.671156  0.328844  0.500000  1
  Pt  Pt26  1  0.000000  0.000000  0.000000  1
  Pt  Pt27  1  0.000000  0.000000  0.500000  1
