# generated using pymatgen
data_TaNb2B2Ru5
_symmetry_space_group_name_H-M   'P 1'
_cell_length_a   9.48778900
_cell_length_b   9.48778900
_cell_length_c   3.01256700
_cell_angle_alpha   90.00000000
_cell_angle_beta   90.00000000
_cell_angle_gamma   90.00000000
_symmetry_Int_Tables_number   1
_chemical_formula_structural   TaNb2B2Ru5
_chemical_formula_sum   'Ta2 Nb4 B4 Ru10'
_cell_volume   271.18567829
_cell_formula_units_Z   2
loop_
 _symmetry_equiv_pos_site_id
 _symmetry_equiv_pos_as_xyz
  1  'x, y, z'
loop_
 _atom_site_type_symbol
 _atom_site_label
 _atom_site_symmetry_multiplicity
 _atom_site_fract_x
 _atom_site_fract_y
 _atom_site_fract_z
 _atom_site_occupancy
  Ta  Ta0  1  0.500000  0.500000  0.000000  1
  Ta  Ta1  1  0.000000  0.000000  0.000000  1
  Nb  Nb2  1  0.823644  0.676356  0.000000  1
  Nb  Nb3  1  0.176356  0.323644  0.000000  1
  Nb  Nb4  1  0.323644  0.823644  0.000000  1
  Nb  Nb5  1  0.676356  0.176356  0.000000  1
  B  B6  1  0.621269  0.878731  0.000000  1
  B  B7  1  0.378731  0.121269  0.000000  1
  B  B8  1  0.121269  0.621269  0.000000  1
  B  B9  1  0.878731  0.378731  0.000000  1
  Ru  Ru10  1  0.571378  0.718747  0.500000  1
  Ru  Ru11  1  0.428622  0.281253  0.500000  1
  Ru  Ru12  1  0.071378  0.781253  0.500000  1
  Ru  Ru13  1  0.928622  0.218747  0.500000  1
  Ru  Ru14  1  0.281253  0.571378  0.500000  1
  Ru  Ru15  1  0.718747  0.428622  0.500000  1
  Ru  Ru16  1  0.218747  0.071378  0.500000  1
  Ru  Ru17  1  0.781253  0.928622  0.500000  1
  Ru  Ru18  1  0.500000  0.000000  0.500000  1
  Ru  Ru19  1  0.000000  0.500000  0.500000  1
