# generated using pymatgen
data_PrPa(NiP)2
_symmetry_space_group_name_H-M   'P 1'
_cell_length_a   3.94170000
_cell_length_b   3.94170058
_cell_length_c   15.88767100
_cell_angle_alpha   90.00000000
_cell_angle_beta   90.00000000
_cell_angle_gamma   119.99999516
_symmetry_Int_Tables_number   1
_chemical_formula_structural   PrPa(NiP)2
_chemical_formula_sum   'Pr2 Pa2 Ni4 P4'
_cell_volume   213.77557786
_cell_formula_units_Z   2
loop_
 _symmetry_equiv_pos_site_id
 _symmetry_equiv_pos_as_xyz
  1  'x, y, z'
loop_
 _atom_site_type_symbol
 _atom_site_label
 _atom_site_symmetry_multiplicity
 _atom_site_fract_x
 _atom_site_fract_y
 _atom_site_fract_z
 _atom_site_occupancy
  Pr  Pr0  1  0.000000  0.000000  0.003306  1
  Pr  Pr1  1  0.000000  0.000000  0.746528  1
  Pa  Pa2  1  0.000000  0.000000  0.495860  1
  Pa  Pa3  1  0.000000  0.000000  0.253694  1
  Ni  Ni4  1  0.333333  0.666667  0.376143  1
  Ni  Ni5  1  0.666667  0.333333  0.603164  1
  Ni  Ni6  1  0.666667  0.333333  0.877469  1
  Ni  Ni7  1  0.333333  0.666667  0.143163  1
  P  P8  1  0.333333  0.666667  0.874000  1
  P  P9  1  0.666667  0.333333  0.134836  1
  P  P10  1  0.666667  0.333333  0.374085  1
  P  P11  1  0.333333  0.666667  0.617751  1
