# generated using pymatgen
data_Y2MnPtF14
_symmetry_space_group_name_H-M   'P 1'
_cell_length_a   5.50202812
_cell_length_b   8.82321366
_cell_length_c   11.88138724
_cell_angle_alpha   62.44044447
_cell_angle_beta   90.13974284
_cell_angle_gamma   90.16844150
_symmetry_Int_Tables_number   1
_chemical_formula_structural   Y2MnPtF14
_chemical_formula_sum   'Y4 Mn2 Pt2 F28'
_cell_volume   511.33813597
_cell_formula_units_Z   2
loop_
 _symmetry_equiv_pos_site_id
 _symmetry_equiv_pos_as_xyz
  1  'x, y, z'
loop_
 _atom_site_type_symbol
 _atom_site_label
 _atom_site_symmetry_multiplicity
 _atom_site_fract_x
 _atom_site_fract_y
 _atom_site_fract_z
 _atom_site_occupancy
  Y  Y0  1  0.259761  0.815876  0.259751  1
  Y  Y1  1  0.740239  0.184124  0.740249  1
  Y  Y2  1  0.763305  0.191010  0.231371  1
  Y  Y3  1  0.236695  0.808990  0.768629  1
  Mn  Mn4  1  0.757728  0.725649  0.043228  1
  Mn  Mn5  1  0.242272  0.274351  0.956772  1
  Pt  Pt6  1  0.260293  0.273119  0.456510  1
  Pt  Pt7  1  0.739707  0.726881  0.543490  1
  F  F8  1  0.928691  0.701994  0.412786  1
  F  F9  1  0.071309  0.298006  0.587214  1
  F  F10  1  0.437394  0.292721  0.075157  1
  F  F11  1  0.562606  0.707279  0.924843  1
  F  F12  1  0.486754  0.732147  0.131775  1
  F  F13  1  0.513246  0.267853  0.868225  1
  F  F14  1  0.961706  0.279357  0.363084  1
  F  F15  1  0.038294  0.720643  0.636916  1
  F  F16  1  0.951525  0.743455  0.164840  1
  F  F17  1  0.048475  0.256545  0.835160  1
  F  F18  1  0.443667  0.256912  0.320051  1
  F  F19  1  0.556333  0.743088  0.679949  1
  F  F20  1  0.767650  0.490619  0.135578  1
  F  F21  1  0.232350  0.509381  0.864422  1
  F  F22  1  0.277373  0.523684  0.355418  1
  F  F23  1  0.722627  0.476316  0.644582  1
  F  F24  1  0.963099  0.283194  0.040853  1
  F  F25  1  0.036901  0.716806  0.959147  1
  F  F26  1  0.434447  0.723240  0.457774  1
  F  F27  1  0.565553  0.276760  0.542226  1
  F  F28  1  0.743982  0.977226  0.449472  1
  F  F29  1  0.256018  0.022774  0.550528  1
  F  F30  1  0.239943  0.039710  0.046844  1
  F  F31  1  0.760057  0.960290  0.953156  1
  F  F32  1  0.591391  0.969834  0.229328  1
  F  F33  1  0.408609  0.030166  0.770672  1
  F  F34  1  0.088959  0.031173  0.269816  1
  F  F35  1  0.911041  0.968827  0.730184  1
