# generated using pymatgen
data_Al20Co2Ir5Rh
_symmetry_space_group_name_H-M   'P 1'
_cell_length_a   7.89698100
_cell_length_b   7.90186340
_cell_length_c   7.83405600
_cell_angle_alpha   90.00000000
_cell_angle_beta   90.00000000
_cell_angle_gamma   119.97956700
_symmetry_Int_Tables_number   1
_chemical_formula_structural   Al20Co2Ir5Rh
_chemical_formula_sum   'Al20 Co2 Ir5 Rh1'
_cell_volume   423.44528078
_cell_formula_units_Z   1
loop_
 _symmetry_equiv_pos_site_id
 _symmetry_equiv_pos_as_xyz
  1  'x, y, z'
loop_
 _atom_site_type_symbol
 _atom_site_label
 _atom_site_symmetry_multiplicity
 _atom_site_fract_x
 _atom_site_fract_y
 _atom_site_fract_z
 _atom_site_occupancy
  Al  Al0  1  0.000022  0.000044  0.999660  1
  Al  Al1  1  0.000022  0.000044  0.500340  1
  Al  Al2  1  0.476488  0.952977  0.250000  1
  Al  Al3  1  0.526048  0.476566  0.750000  1
  Al  Al4  1  0.950518  0.476566  0.750000  1
  Al  Al5  1  0.046810  0.523577  0.250000  1
  Al  Al6  1  0.476767  0.523577  0.250000  1
  Al  Al7  1  0.523831  0.047662  0.750000  1
  Al  Al8  1  0.196244  0.392487  0.936816  1
  Al  Al9  1  0.803476  0.196587  0.437626  1
  Al  Al10  1  0.393111  0.196587  0.437626  1
  Al  Al11  1  0.606565  0.803796  0.937883  1
  Al  Al12  1  0.197230  0.803796  0.937883  1
  Al  Al13  1  0.802874  0.605748  0.061206  1
  Al  Al14  1  0.803476  0.196587  0.062374  1
  Al  Al15  1  0.802874  0.605748  0.438794  1
  Al  Al16  1  0.393111  0.196587  0.062374  1
  Al  Al17  1  0.606565  0.803796  0.562117  1
  Al  Al18  1  0.196244  0.392487  0.563184  1
  Al  Al19  1  0.197230  0.803796  0.562117  1
  Co  Co20  1  0.333248  0.666496  0.750000  1
  Co  Co21  1  0.666628  0.333254  0.250000  1
  Ir  Ir22  1  0.130596  0.261193  0.250000  1
  Ir  Ir23  1  0.869248  0.130394  0.750000  1
  Ir  Ir24  1  0.261147  0.130394  0.750000  1
  Ir  Ir25  1  0.739324  0.869457  0.250000  1
  Ir  Ir26  1  0.130133  0.869457  0.250000  1
  Rh  Rh27  1  0.870171  0.740341  0.750000  1
