# generated using pymatgen
data_Ba6Sr2YUSe12
_symmetry_space_group_name_H-M   'P 1'
_cell_length_a   8.97264615
_cell_length_b   8.97264369
_cell_length_c   8.97264505
_cell_angle_alpha   90.96738747
_cell_angle_beta   90.96739497
_cell_angle_gamma   90.96739849
_symmetry_Int_Tables_number   1
_chemical_formula_structural   Ba6Sr2YUSe12
_chemical_formula_sum   'Ba6 Sr2 Y1 U1 Se12'
_cell_volume   722.06049809
_cell_formula_units_Z   1
loop_
 _symmetry_equiv_pos_site_id
 _symmetry_equiv_pos_as_xyz
  1  'x, y, z'
loop_
 _atom_site_type_symbol
 _atom_site_label
 _atom_site_symmetry_multiplicity
 _atom_site_fract_x
 _atom_site_fract_y
 _atom_site_fract_z
 _atom_site_occupancy
  Ba  Ba0  1  0.870550  0.621811  0.257812  1
  Ba  Ba1  1  0.257812  0.870550  0.621811  1
  Ba  Ba2  1  0.621811  0.257812  0.870550  1
  Ba  Ba3  1  0.742188  0.129450  0.378189  1
  Ba  Ba4  1  0.378189  0.742188  0.129450  1
  Ba  Ba5  1  0.129450  0.378189  0.742188  1
  Sr  Sr6  1  0.254788  0.254788  0.254788  1
  Sr  Sr7  1  0.745212  0.745212  0.745212  1
  Y  Y8  1  0.500000  0.500000  0.500000  1
  U  U9  1  0.000000  0.000000  0.000000  1
  Se  Se10  1  0.197963  0.557049  0.413741  1
  Se  Se11  1  0.413741  0.197963  0.557049  1
  Se  Se12  1  0.557049  0.413741  0.197963  1
  Se  Se13  1  0.922989  0.051142  0.705777  1
  Se  Se14  1  0.705777  0.922989  0.051142  1
  Se  Se15  1  0.051142  0.705777  0.922989  1
  Se  Se16  1  0.802037  0.442951  0.586259  1
  Se  Se17  1  0.586259  0.802037  0.442951  1
  Se  Se18  1  0.442951  0.586259  0.802037  1
  Se  Se19  1  0.077011  0.948858  0.294223  1
  Se  Se20  1  0.294223  0.077011  0.948858  1
  Se  Se21  1  0.948858  0.294223  0.077011  1
