# generated using pymatgen
data_ErLu15In4Ir3Ru
_symmetry_space_group_name_H-M   'P 1'
_cell_length_a   9.48294714
_cell_length_b   9.47441888
_cell_length_c   9.48294842
_cell_angle_alpha   59.95597224
_cell_angle_beta   59.93204480
_cell_angle_gamma   59.95596943
_symmetry_Int_Tables_number   1
_chemical_formula_structural   ErLu15In4Ir3Ru
_chemical_formula_sum   'Er1 Lu15 In4 Ir3 Ru1'
_cell_volume   601.74392792
_cell_formula_units_Z   1
loop_
 _symmetry_equiv_pos_site_id
 _symmetry_equiv_pos_as_xyz
  1  'x, y, z'
loop_
 _atom_site_type_symbol
 _atom_site_label
 _atom_site_symmetry_multiplicity
 _atom_site_fract_x
 _atom_site_fract_y
 _atom_site_fract_z
 _atom_site_occupancy
  Er  Er0  1  0.060428  0.439923  0.060428  1
  Lu  Lu1  1  0.058275  0.058116  0.442224  1
  Lu  Lu2  1  0.650537  0.045520  0.650537  1
  Lu  Lu3  1  0.192547  0.807466  0.192547  1
  Lu  Lu4  1  0.438463  0.061804  0.438463  1
  Lu  Lu5  1  0.191813  0.191366  0.808260  1
  Lu  Lu6  1  0.650454  0.652834  0.650454  1
  Lu  Lu7  1  0.046432  0.650660  0.651620  1
  Lu  Lu8  1  0.442224  0.058116  0.058275  1
  Lu  Lu9  1  0.651620  0.650660  0.046432  1
  Lu  Lu10  1  0.191075  0.808964  0.808624  1
  Lu  Lu11  1  0.808578  0.190918  0.808578  1
  Lu  Lu12  1  0.808260  0.191366  0.191813  1
  Lu  Lu13  1  0.808624  0.808964  0.191075  1
  Lu  Lu14  1  0.058970  0.441107  0.441576  1
  Lu  Lu15  1  0.441576  0.441107  0.058970  1
  In  In16  1  0.749932  0.416563  0.416752  1
  In  In17  1  0.416752  0.416563  0.749932  1
  In  In18  1  0.416119  0.751412  0.416119  1
  In  In19  1  0.416288  0.416428  0.416288  1
  Ir  Ir20  1  0.422360  0.858483  0.860621  1
  Ir  Ir21  1  0.860621  0.858483  0.422360  1
  Ir  Ir22  1  0.858635  0.422424  0.858635  1
  Ru  Ru23  1  0.859420  0.860754  0.859420  1
