# generated using pymatgen
data_Li4La16Si15P
_symmetry_space_group_name_H-M   'P 1'
_cell_length_a   7.41448114
_cell_length_b   8.01464586
_cell_length_c   15.31814100
_cell_angle_alpha   90.10345157
_cell_angle_beta   89.60283162
_cell_angle_gamma   90.15955457
_symmetry_Int_Tables_number   1
_chemical_formula_structural   Li4La16Si15P
_chemical_formula_sum   'Li4 La16 Si15 P1'
_cell_volume   910.24510806
_cell_formula_units_Z   1
loop_
 _symmetry_equiv_pos_site_id
 _symmetry_equiv_pos_as_xyz
  1  'x, y, z'
loop_
 _atom_site_type_symbol
 _atom_site_label
 _atom_site_symmetry_multiplicity
 _atom_site_fract_x
 _atom_site_fract_y
 _atom_site_fract_z
 _atom_site_occupancy
  Li  Li0  1  0.664586  0.962942  0.248860  1
  Li  Li1  1  0.164303  0.536848  0.249097  1
  Li  Li2  1  0.833965  0.460850  0.742382  1
  Li  Li3  1  0.336317  0.037555  0.752925  1
  La  La4  1  0.977986  0.807942  0.100845  1
  La  La5  1  0.475763  0.690805  0.397794  1
  La  La6  1  0.524385  0.313330  0.899133  1
  La  La7  1  0.023638  0.188683  0.601882  1
  La  La8  1  0.020684  0.193205  0.899440  1
  La  La9  1  0.521880  0.308951  0.601940  1
  La  La10  1  0.476960  0.693057  0.101608  1
  La  La11  1  0.976247  0.808719  0.398230  1
  La  La12  1  0.675228  0.811341  0.870987  1
  La  La13  1  0.173067  0.684341  0.631554  1
  La  La14  1  0.827450  0.316680  0.128927  1
  La  La15  1  0.326602  0.182863  0.369429  1
  La  La16  1  0.326772  0.183472  0.129972  1
  La  La17  1  0.827214  0.316707  0.369519  1
  La  La18  1  0.168677  0.683385  0.869672  1
  La  La19  1  0.672837  0.817178  0.631035  1
  Si  Si20  1  0.766087  0.627849  0.249274  1
  Si  Si21  1  0.265053  0.871771  0.249125  1
  Si  Si22  1  0.731813  0.127262  0.751464  1
  Si  Si23  1  0.233341  0.371484  0.751251  1
  Si  Si24  1  0.019693  0.066462  0.249432  1
  Si  Si25  1  0.521120  0.432940  0.249667  1
  Si  Si26  1  0.478202  0.567770  0.750694  1
  Si  Si27  1  0.978605  0.934823  0.751473  1
  Si  Si28  1  0.351711  0.970653  0.532663  1
  Si  Si29  1  0.649741  0.030044  0.030448  1
  Si  Si30  1  0.148582  0.470521  0.468338  1
  Si  Si31  1  0.153541  0.471594  0.031668  1
  Si  Si32  1  0.648422  0.029045  0.467431  1
  Si  Si33  1  0.350984  0.971698  0.965909  1
  Si  Si34  1  0.852103  0.528075  0.534074  1
  P  P35  1  0.856441  0.529157  0.971860  1
