# generated using pymatgen
data_Ho4Al18(PtRh)3
_symmetry_space_group_name_H-M   'P 1'
_cell_length_a   7.59327746
_cell_length_b   7.59327702
_cell_length_c   9.41538200
_cell_angle_alpha   89.98764360
_cell_angle_beta   89.98764325
_cell_angle_gamma   119.62722598
_symmetry_Int_Tables_number   1
_chemical_formula_structural   Ho4Al18(PtRh)3
_chemical_formula_sum   'Ho4 Al18 Pt3 Rh3'
_cell_volume   471.89586652
_cell_formula_units_Z   1
loop_
 _symmetry_equiv_pos_site_id
 _symmetry_equiv_pos_as_xyz
  1  'x, y, z'
loop_
 _atom_site_type_symbol
 _atom_site_label
 _atom_site_symmetry_multiplicity
 _atom_site_fract_x
 _atom_site_fract_y
 _atom_site_fract_z
 _atom_site_occupancy
  Ho  Ho0  1  0.996321  0.669961  0.250257  1
  Ho  Ho1  1  0.006135  0.332140  0.749845  1
  Ho  Ho2  1  0.667860  0.993865  0.250155  1
  Ho  Ho3  1  0.330039  0.003679  0.749743  1
  Al  Al4  1  0.123761  0.124625  0.250691  1
  Al  Al5  1  0.875375  0.876239  0.749309  1
  Al  Al6  1  0.999355  0.330851  0.076793  1
  Al  Al7  1  0.999137  0.669512  0.922989  1
  Al  Al8  1  0.996878  0.665084  0.575428  1
  Al  Al9  1  0.334916  0.003122  0.424572  1
  Al  Al10  1  0.995657  0.330755  0.424482  1
  Al  Al11  1  0.669245  0.004343  0.575518  1
  Al  Al12  1  0.669149  0.000645  0.923207  1
  Al  Al13  1  0.330488  0.000863  0.077011  1
  Al  Al14  1  0.331938  0.328451  0.552764  1
  Al  Al15  1  0.671549  0.668062  0.447236  1
  Al  Al16  1  0.670220  0.670480  0.056103  1
  Al  Al17  1  0.329520  0.329780  0.943897  1
  Al  Al18  1  0.339970  0.544076  0.250509  1
  Al  Al19  1  0.659438  0.451100  0.746508  1
  Al  Al20  1  0.548900  0.340562  0.253492  1
  Al  Al21  1  0.455924  0.660030  0.749491  1
  Pt  Pt22  1  0.671958  0.328042  0.000000  1
  Pt  Pt23  1  0.327076  0.672924  0.000000  1
  Pt  Pt24  1  0.327460  0.672540  0.500000  1
  Rh  Rh25  1  0.672057  0.327943  0.500000  1
  Rh  Rh26  1  0.999580  0.000420  0.000000  1
  Rh  Rh27  1  0.000093  0.999907  0.500000  1
