# generated using pymatgen
data_Tm6InGa2
_symmetry_space_group_name_H-M   'P 1'
_cell_length_a   8.52872311
_cell_length_b   8.52872430
_cell_length_c   8.52872415
_cell_angle_alpha   112.46615934
_cell_angle_beta   112.37316241
_cell_angle_gamma   103.72281320
_symmetry_Int_Tables_number   1
_chemical_formula_structural   Tm6InGa2
_chemical_formula_sum   'Tm12 In2 Ga4'
_cell_volume   474.00593053
_cell_formula_units_Z   2
loop_
 _symmetry_equiv_pos_site_id
 _symmetry_equiv_pos_as_xyz
  1  'x, y, z'
loop_
 _atom_site_type_symbol
 _atom_site_label
 _atom_site_symmetry_multiplicity
 _atom_site_fract_x
 _atom_site_fract_y
 _atom_site_fract_z
 _atom_site_occupancy
  Tm  Tm0  1  0.442093  0.238741  0.203352  1
  Tm  Tm1  1  0.557907  0.761259  0.796648  1
  Tm  Tm2  1  0.035388  0.238741  0.796648  1
  Tm  Tm3  1  0.964612  0.761259  0.203352  1
  Tm  Tm4  1  0.187633  0.280870  0.468502  1
  Tm  Tm5  1  0.812367  0.719130  0.531498  1
  Tm  Tm6  1  0.187633  0.719130  0.906763  1
  Tm  Tm7  1  0.812367  0.280870  0.093237  1
  Tm  Tm8  1  0.320007  0.615710  0.295703  1
  Tm  Tm9  1  0.679993  0.384290  0.704297  1
  Tm  Tm10  1  0.320007  0.024304  0.704297  1
  Tm  Tm11  1  0.679993  0.975696  0.295703  1
  In  In12  1  0.500000  0.500000  0.000000  1
  In  In13  1  0.000000  0.000000  0.000000  1
  Ga  Ga14  1  0.353452  0.000000  0.353452  1
  Ga  Ga15  1  0.646548  0.000000  0.646548  1
  Ga  Ga16  1  0.121115  0.621115  0.500000  1
  Ga  Ga17  1  0.878885  0.378885  0.500000  1
