# generated using pymatgen
data_Tb3Dy5(MnS4)4
_symmetry_space_group_name_H-M   'P 1'
_cell_length_a   6.41712700
_cell_length_b   7.92581000
_cell_length_c   13.55146801
_cell_angle_alpha   89.99988297
_cell_angle_beta   89.99601753
_cell_angle_gamma   89.99985628
_symmetry_Int_Tables_number   1
_chemical_formula_structural   Tb3Dy5(MnS4)4
_chemical_formula_sum   'Tb3 Dy5 Mn4 S16'
_cell_volume   689.24025567
_cell_formula_units_Z   1
loop_
 _symmetry_equiv_pos_site_id
 _symmetry_equiv_pos_as_xyz
  1  'x, y, z'
loop_
 _atom_site_type_symbol
 _atom_site_label
 _atom_site_symmetry_multiplicity
 _atom_site_fract_x
 _atom_site_fract_y
 _atom_site_fract_z
 _atom_site_occupancy
  Tb  Tb0  1  0.994623  0.749999  0.266148  1
  Tb  Tb1  1  0.505384  0.750000  0.766153  1
  Tb  Tb2  1  0.005368  0.250000  0.733851  1
  Dy  Dy3  1  0.999989  0.499964  0.000031  1
  Dy  Dy4  1  0.499995  0.000024  0.499973  1
  Dy  Dy5  1  0.999989  0.000035  0.000031  1
  Dy  Dy6  1  0.499995  0.499975  0.499972  1
  Dy  Dy7  1  0.494726  0.250000  0.234038  1
  Mn  Mn8  1  0.411114  0.750000  0.092365  1
  Mn  Mn9  1  0.088938  0.750004  0.592341  1
  Mn  Mn10  1  0.588905  0.249996  0.907697  1
  Mn  Mn11  1  0.911116  0.250005  0.407627  1
  S  S12  1  0.778680  0.750000  0.089822  1
  S  S13  1  0.721412  0.750000  0.589809  1
  S  S14  1  0.221358  0.250000  0.910180  1
  S  S15  1  0.278932  0.250000  0.409847  1
  S  S16  1  0.244750  0.749999  0.430539  1
  S  S17  1  0.255201  0.750000  0.930543  1
  S  S18  1  0.755220  0.250000  0.569465  1
  S  S19  1  0.744229  0.249999  0.069776  1
  S  S20  1  0.741900  0.486328  0.331321  1
  S  S21  1  0.757704  0.013343  0.831517  1
  S  S22  1  0.257706  0.986672  0.668484  1
  S  S23  1  0.242727  0.512886  0.168574  1
  S  S24  1  0.257708  0.513328  0.668483  1
  S  S25  1  0.242728  0.987114  0.168574  1
  S  S26  1  0.741899  0.013671  0.331320  1
  S  S27  1  0.757703  0.486658  0.831518  1
