# generated using pymatgen
data_Dy6Al24Ru7Au
_symmetry_space_group_name_H-M   'P 1'
_cell_length_a   8.84518267
_cell_length_b   8.84518334
_cell_length_c   9.56671038
_cell_angle_alpha   90.16595532
_cell_angle_beta   89.83404209
_cell_angle_gamma   119.85196554
_symmetry_Int_Tables_number   1
_chemical_formula_structural   Dy6Al24Ru7Au
_chemical_formula_sum   'Dy6 Al24 Ru7 Au1'
_cell_volume   649.15794232
_cell_formula_units_Z   1
loop_
 _symmetry_equiv_pos_site_id
 _symmetry_equiv_pos_as_xyz
  1  'x, y, z'
loop_
 _atom_site_type_symbol
 _atom_site_label
 _atom_site_symmetry_multiplicity
 _atom_site_fract_x
 _atom_site_fract_y
 _atom_site_fract_z
 _atom_site_occupancy
  Dy  Dy0  1  0.194338  0.805662  0.246716  1
  Dy  Dy1  1  0.192021  0.386720  0.250264  1
  Dy  Dy2  1  0.613280  0.807979  0.250264  1
  Dy  Dy3  1  0.805662  0.194338  0.753284  1
  Dy  Dy4  1  0.807979  0.613280  0.749736  1
  Dy  Dy5  1  0.386720  0.192021  0.749736  1
  Al  Al6  1  0.563633  0.436367  0.243836  1
  Al  Al7  1  0.560623  0.121541  0.251405  1
  Al  Al8  1  0.878459  0.439377  0.251405  1
  Al  Al9  1  0.436367  0.563633  0.756164  1
  Al  Al10  1  0.439377  0.878459  0.748595  1
  Al  Al11  1  0.121541  0.560623  0.748595  1
  Al  Al12  1  0.321663  0.150588  0.420010  1
  Al  Al13  1  0.837567  0.162433  0.421748  1
  Al  Al14  1  0.849412  0.678337  0.420010  1
  Al  Al15  1  0.678337  0.849412  0.579990  1
  Al  Al16  1  0.162433  0.837567  0.578252  1
  Al  Al17  1  0.150588  0.321663  0.579990  1
  Al  Al18  1  0.675903  0.837988  0.922178  1
  Al  Al19  1  0.162845  0.837155  0.922133  1
  Al  Al20  1  0.162012  0.324097  0.922178  1
  Al  Al21  1  0.324097  0.162012  0.077822  1
  Al  Al22  1  0.837155  0.162845  0.077867  1
  Al  Al23  1  0.837988  0.675903  0.077822  1
  Al  Al24  1  0.671890  0.328110  0.521459  1
  Al  Al25  1  0.328110  0.671890  0.478541  1
  Al  Al26  1  0.333234  0.666766  0.017122  1
  Al  Al27  1  0.666766  0.333234  0.982878  1
  Al  Al28  1  0.999306  0.000694  0.249771  1
  Al  Al29  1  0.000694  0.999306  0.750229  1
  Ru  Ru30  1  0.000000  0.000000  0.500000  1
  Ru  Ru31  1  0.000000  0.000000  0.000000  1
  Ru  Ru32  1  0.500000  0.000000  0.500000  1
  Ru  Ru33  1  0.000000  0.500000  0.500000  1
  Ru  Ru34  1  0.500000  0.500000  0.000000  1
  Ru  Ru35  1  0.500000  0.000000  0.000000  1
  Ru  Ru36  1  0.000000  0.500000  0.000000  1
  Au  Au37  1  0.500000  0.500000  0.500000  1
