# generated using pymatgen
data_Th2SnRh5
_symmetry_space_group_name_H-M   'P 1'
_cell_length_a   5.94517919
_cell_length_b   5.94517826
_cell_length_c   8.58764300
_cell_angle_alpha   90.00000000
_cell_angle_beta   90.00000000
_cell_angle_gamma   98.67530569
_symmetry_Int_Tables_number   1
_chemical_formula_structural   Th2SnRh5
_chemical_formula_sum   'Th4 Sn2 Rh10'
_cell_volume   300.05882262
_cell_formula_units_Z   2
loop_
 _symmetry_equiv_pos_site_id
 _symmetry_equiv_pos_as_xyz
  1  'x, y, z'
loop_
 _atom_site_type_symbol
 _atom_site_label
 _atom_site_symmetry_multiplicity
 _atom_site_fract_x
 _atom_site_fract_y
 _atom_site_fract_z
 _atom_site_occupancy
  Th  Th0  1  0.786622  0.213378  0.500000  1
  Th  Th1  1  0.213378  0.786622  0.000000  1
  Th  Th2  1  0.213378  0.786622  0.500000  1
  Th  Th3  1  0.786622  0.213378  0.000000  1
  Sn  Sn4  1  0.502050  0.502050  0.750000  1
  Sn  Sn5  1  0.497950  0.497950  0.250000  1
  Rh  Rh6  1  0.719655  0.719655  0.001024  1
  Rh  Rh7  1  0.719655  0.719655  0.498976  1
  Rh  Rh8  1  0.280345  0.280345  0.998976  1
  Rh  Rh9  1  0.280345  0.280345  0.501024  1
  Rh  Rh10  1  0.499865  0.000321  0.750000  1
  Rh  Rh11  1  0.500135  0.999679  0.250000  1
  Rh  Rh12  1  0.000257  0.000257  0.250000  1
  Rh  Rh13  1  0.999743  0.999743  0.750000  1
  Rh  Rh14  1  0.000321  0.499865  0.750000  1
  Rh  Rh15  1  0.999679  0.500135  0.250000  1
