# generated using pymatgen
data_USnP2PbO10
_symmetry_space_group_name_H-M   'P 1'
_cell_length_a   6.94880649
_cell_length_b   10.62083756
_cell_length_c   6.73731415
_cell_angle_alpha   101.60331335
_cell_angle_beta   98.03928424
_cell_angle_gamma   86.74636833
_symmetry_Int_Tables_number   1
_chemical_formula_structural   USnP2PbO10
_chemical_formula_sum   'U2 Sn2 P4 Pb2 O20'
_cell_volume   482.06989930
_cell_formula_units_Z   2
loop_
 _symmetry_equiv_pos_site_id
 _symmetry_equiv_pos_as_xyz
  1  'x, y, z'
loop_
 _atom_site_type_symbol
 _atom_site_label
 _atom_site_symmetry_multiplicity
 _atom_site_fract_x
 _atom_site_fract_y
 _atom_site_fract_z
 _atom_site_occupancy
  U  U0  1  0.618095  0.839954  0.113578  1
  U  U1  1  0.382743  0.160119  0.881435  1
  Sn  Sn2  1  0.305160  0.561635  0.308331  1
  Sn  Sn3  1  0.938986  0.237738  0.272743  1
  P  P4  1  0.813791  0.552565  0.283568  1
  P  P5  1  0.471689  0.179200  0.360799  1
  P  P6  1  0.536199  0.819679  0.633407  1
  P  P7  1  0.178361  0.446986  0.717403  1
  Pb  Pb8  1  0.047961  0.770616  0.746639  1
  Pb  Pb9  1  0.702568  0.448626  0.730659  1
  O  O10  1  0.365906  0.787949  0.068009  1
  O  O11  1  0.711433  0.628621  0.121193  1
  O  O12  1  0.867989  0.889630  0.138761  1
  O  O13  1  0.891784  0.421786  0.168389  1
  O  O14  1  0.512933  0.054990  0.199909  1
  O  O15  1  0.330478  0.258550  0.228122  1
  O  O16  1  0.659974  0.532994  0.419919  1
  O  O17  1  0.989604  0.628951  0.412142  1
  O  O18  1  0.664689  0.249582  0.444680  1
  O  O19  1  0.639007  0.850596  0.461507  1
  O  O20  1  0.374375  0.147778  0.535938  1
  O  O21  1  0.343396  0.749988  0.546953  1
  O  O22  1  0.013628  0.364265  0.578799  1
  O  O23  1  0.332016  0.482804  0.591883  1
  O  O24  1  0.676200  0.738998  0.767346  1
  O  O25  1  0.494780  0.941941  0.795553  1
  O  O26  1  0.075801  0.567708  0.833033  1
  O  O27  1  0.137160  0.101982  0.845605  1
  O  O28  1  0.290295  0.369016  0.869713  1
  O  O29  1  0.632998  0.214753  0.923983  1
