# generated using pymatgen
data_Nd8YLuSn6
_symmetry_space_group_name_H-M   'P 1'
_cell_length_a   9.21799600
_cell_length_b   9.21799589
_cell_length_c   6.76843000
_cell_angle_alpha   90.00000000
_cell_angle_beta   90.00000000
_cell_angle_gamma   120.00000758
_symmetry_Int_Tables_number   1
_chemical_formula_structural   Nd8YLuSn6
_chemical_formula_sum   'Nd8 Y1 Lu1 Sn6'
_cell_volume   498.07135524
_cell_formula_units_Z   1
loop_
 _symmetry_equiv_pos_site_id
 _symmetry_equiv_pos_as_xyz
  1  'x, y, z'
loop_
 _atom_site_type_symbol
 _atom_site_label
 _atom_site_symmetry_multiplicity
 _atom_site_fract_x
 _atom_site_fract_y
 _atom_site_fract_z
 _atom_site_occupancy
  Nd  Nd0  1  0.666667  0.333333  0.000000  1
  Nd  Nd1  1  0.333333  0.666667  0.000000  1
  Nd  Nd2  1  0.758552  0.758396  0.747816  1
  Nd  Nd3  1  0.241604  0.000156  0.747816  1
  Nd  Nd4  1  0.999844  0.241448  0.747816  1
  Nd  Nd5  1  0.241604  0.241448  0.252184  1
  Nd  Nd6  1  0.758552  0.000156  0.252184  1
  Nd  Nd7  1  0.999844  0.758396  0.252184  1
  Y  Y8  1  0.333333  0.666667  0.500000  1
  Lu  Lu9  1  0.666667  0.333333  0.500000  1
  Sn  Sn10  1  0.397831  0.396807  0.740659  1
  Sn  Sn11  1  0.603193  0.001025  0.740659  1
  Sn  Sn12  1  0.998975  0.602169  0.740659  1
  Sn  Sn13  1  0.603193  0.602169  0.259341  1
  Sn  Sn14  1  0.397831  0.001025  0.259341  1
  Sn  Sn15  1  0.998975  0.396807  0.259341  1
