# generated using pymatgen
data_Zn6Fe6PdRh11
_symmetry_space_group_name_H-M   'P 1'
_cell_length_a   4.26753300
_cell_length_b   6.05791400
_cell_length_c   12.80014100
_cell_angle_alpha   90.00000000
_cell_angle_beta   89.99940473
_cell_angle_gamma   90.00000000
_symmetry_Int_Tables_number   1
_chemical_formula_structural   Zn6Fe6PdRh11
_chemical_formula_sum   'Zn6 Fe6 Pd1 Rh11'
_cell_volume   330.91369837
_cell_formula_units_Z   1
loop_
 _symmetry_equiv_pos_site_id
 _symmetry_equiv_pos_as_xyz
  1  'x, y, z'
loop_
 _atom_site_type_symbol
 _atom_site_label
 _atom_site_symmetry_multiplicity
 _atom_site_fract_x
 _atom_site_fract_y
 _atom_site_fract_z
 _atom_site_occupancy
  Zn  Zn0  1  0.000000  0.999055  0.000000  1
  Zn  Zn1  1  0.499654  0.500490  0.167327  1
  Zn  Zn2  1  0.999655  0.000006  0.333578  1
  Zn  Zn3  1  0.500001  0.499899  0.500000  1
  Zn  Zn4  1  0.000344  0.000006  0.666422  1
  Zn  Zn5  1  0.500345  0.500490  0.832673  1
  Fe  Fe6  1  0.000000  0.506236  0.000000  1
  Fe  Fe7  1  0.499670  0.997351  0.169146  1
  Fe  Fe8  1  0.999680  0.499558  0.333860  1
  Fe  Fe9  1  0.500001  0.000561  0.500000  1
  Fe  Fe10  1  0.000319  0.499558  0.666139  1
  Fe  Fe11  1  0.500331  0.997351  0.830855  1
  Pd  Pd12  1  0.499999  0.249952  0.000000  1
  Rh  Rh13  1  0.499999  0.749088  0.000000  1
  Rh  Rh14  1  0.999683  0.250046  0.166067  1
  Rh  Rh15  1  0.999683  0.749941  0.166191  1
  Rh  Rh16  1  0.499683  0.249823  0.332799  1
  Rh  Rh17  1  0.499689  0.750408  0.332994  1
  Rh  Rh18  1  0.000000  0.250206  0.500000  1
  Rh  Rh19  1  0.000000  0.749754  0.500000  1
  Rh  Rh20  1  0.500318  0.249823  0.667201  1
  Rh  Rh21  1  0.500312  0.750408  0.667006  1
  Rh  Rh22  1  0.000316  0.250046  0.833933  1
  Rh  Rh23  1  0.000316  0.749941  0.833809  1
