# generated using pymatgen
data_Yb2Ag3IrO6
_symmetry_space_group_name_H-M   'P 1'
_cell_length_a   5.74810300
_cell_length_b   5.74810429
_cell_length_c   18.96308000
_cell_angle_alpha   90.00000000
_cell_angle_beta   90.00000000
_cell_angle_gamma   119.99998682
_symmetry_Int_Tables_number   1
_chemical_formula_structural   Yb2Ag3IrO6
_chemical_formula_sum   'Yb6 Ag9 Ir3 O18'
_cell_volume   542.61119198
_cell_formula_units_Z   3
loop_
 _symmetry_equiv_pos_site_id
 _symmetry_equiv_pos_as_xyz
  1  'x, y, z'
loop_
 _atom_site_type_symbol
 _atom_site_label
 _atom_site_symmetry_multiplicity
 _atom_site_fract_x
 _atom_site_fract_y
 _atom_site_fract_z
 _atom_site_occupancy
  Yb  Yb0  1  0.107261  0.892739  0.333333  1
  Yb  Yb1  1  0.107261  0.214522  0.666667  1
  Yb  Yb2  1  0.785478  0.892739  0.000000  1
  Yb  Yb3  1  0.773612  0.226388  0.333333  1
  Yb  Yb4  1  0.773612  0.547223  0.666667  1
  Yb  Yb5  1  0.452777  0.226388  0.000000  1
  Ag  Ag6  1  0.441960  0.220979  0.500000  1
  Ag  Ag7  1  0.779021  0.220979  0.833333  1
  Ag  Ag8  1  0.779021  0.558040  0.166667  1
  Ag  Ag9  1  0.141906  0.570952  0.500000  1
  Ag  Ag10  1  0.429048  0.570952  0.833333  1
  Ag  Ag11  1  0.429048  0.858094  0.166667  1
  Ag  Ag12  1  0.737769  0.868884  0.500000  1
  Ag  Ag13  1  0.131116  0.868884  0.833333  1
  Ag  Ag14  1  0.131116  0.262231  0.166667  1
  Ir  Ir15  1  0.440829  0.559171  0.333333  1
  Ir  Ir16  1  0.440829  0.881657  0.666667  1
  Ir  Ir17  1  0.118343  0.559171  0.000000  1
  O  O18  1  0.733621  0.559138  0.276520  1
  O  O19  1  0.440862  0.174483  0.609853  1
  O  O20  1  0.825517  0.266379  0.943187  1
  O  O21  1  0.733621  0.174483  0.723480  1
  O  O22  1  0.440862  0.266379  0.390147  1
  O  O23  1  0.825517  0.559138  0.056813  1
  O  O24  1  0.441581  0.852815  0.276763  1
  O  O25  1  0.147185  0.588766  0.610096  1
  O  O26  1  0.411234  0.558419  0.943430  1
  O  O27  1  0.441581  0.588766  0.723237  1
  O  O28  1  0.147185  0.558419  0.389904  1
  O  O29  1  0.411234  0.852815  0.056570  1
  O  O30  1  0.148350  0.266406  0.276878  1
  O  O31  1  0.733594  0.881944  0.610211  1
  O  O32  1  0.118056  0.851650  0.943544  1
  O  O33  1  0.148350  0.881944  0.723122  1
  O  O34  1  0.733594  0.851650  0.389789  1
  O  O35  1  0.118056  0.266406  0.056456  1
