# generated using pymatgen
data_Ba2LiCeO4
_symmetry_space_group_name_H-M   'P 1'
_cell_length_a   12.29453200
_cell_length_b   3.69078800
_cell_length_c   12.01317300
_cell_angle_alpha   90.00000000
_cell_angle_beta   90.00000000
_cell_angle_gamma   90.00000000
_symmetry_Int_Tables_number   1
_chemical_formula_structural   Ba2LiCeO4
_chemical_formula_sum   'Ba8 Li4 Ce4 O16'
_cell_volume   545.11587884
_cell_formula_units_Z   4
loop_
 _symmetry_equiv_pos_site_id
 _symmetry_equiv_pos_as_xyz
  1  'x, y, z'
loop_
 _atom_site_type_symbol
 _atom_site_label
 _atom_site_symmetry_multiplicity
 _atom_site_fract_x
 _atom_site_fract_y
 _atom_site_fract_z
 _atom_site_occupancy
  Ba  Ba0  1  0.635741  0.499999  0.072146  1
  Ba  Ba1  1  0.094385  0.000000  0.121006  1
  Ba  Ba2  1  0.594385  0.000000  0.378994  1
  Ba  Ba3  1  0.135742  0.499999  0.427854  1
  Ba  Ba4  1  0.864258  0.000000  0.572146  1
  Ba  Ba5  1  0.405614  0.499999  0.621005  1
  Ba  Ba6  1  0.905614  0.499999  0.878994  1
  Ba  Ba7  1  0.364257  0.000000  0.927853  1
  Li  Li8  1  0.841952  0.000000  0.089032  1
  Li  Li9  1  0.341952  0.000000  0.410968  1
  Li  Li10  1  0.658048  0.499999  0.589031  1
  Li  Li11  1  0.158047  0.499999  0.910968  1
  Ce  Ce12  1  0.357239  0.499999  0.208253  1
  Ce  Ce13  1  0.857240  0.499999  0.291746  1
  Ce  Ce14  1  0.142760  0.000000  0.708254  1
  Ce  Ce15  1  0.642760  0.000000  0.791745  1
  O  O16  1  0.246892  0.499999  0.049203  1
  O  O17  1  0.924179  0.499999  0.109677  1
  O  O18  1  0.466079  0.000000  0.139881  1
  O  O19  1  0.749871  0.000000  0.219550  1
  O  O20  1  0.249871  0.000000  0.280449  1
  O  O21  1  0.966079  0.000000  0.360118  1
  O  O22  1  0.424178  0.499999  0.390322  1
  O  O23  1  0.746892  0.499999  0.450796  1
  O  O24  1  0.253107  0.000000  0.549203  1
  O  O25  1  0.575821  0.000000  0.609678  1
  O  O26  1  0.033920  0.499999  0.639881  1
  O  O27  1  0.750128  0.499999  0.719551  1
  O  O28  1  0.250129  0.499999  0.780449  1
  O  O29  1  0.533919  0.499999  0.860118  1
  O  O30  1  0.075821  0.000000  0.890322  1
  O  O31  1  0.753107  0.000000  0.950796  1
