# generated using pymatgen
data_SrTbNi12P5
_symmetry_space_group_name_H-M   'P 1'
_cell_length_a   3.63391800
_cell_length_b   10.79579809
_cell_length_c   13.22568004
_cell_angle_alpha   71.78282688
_cell_angle_beta   90.00000000
_cell_angle_gamma   90.00000000
_symmetry_Int_Tables_number   1
_chemical_formula_structural   SrTbNi12P5
_chemical_formula_sum   'Sr2 Tb2 Ni24 P10'
_cell_volume   492.85128967
_cell_formula_units_Z   2
loop_
 _symmetry_equiv_pos_site_id
 _symmetry_equiv_pos_as_xyz
  1  'x, y, z'
loop_
 _atom_site_type_symbol
 _atom_site_label
 _atom_site_symmetry_multiplicity
 _atom_site_fract_x
 _atom_site_fract_y
 _atom_site_fract_z
 _atom_site_occupancy
  Sr  Sr0  1  0.250000  0.245657  0.188264  1
  Sr  Sr1  1  0.750000  0.754343  0.811736  1
  Tb  Tb2  1  0.250000  0.281072  0.681272  1
  Tb  Tb3  1  0.750000  0.718928  0.318728  1
  Ni  Ni4  1  0.250000  0.836983  0.140067  1
  Ni  Ni5  1  0.750000  0.163017  0.859933  1
  Ni  Ni6  1  0.250000  0.288142  0.440093  1
  Ni  Ni7  1  0.750000  0.711858  0.559907  1
  Ni  Ni8  1  0.250000  0.069722  0.014894  1
  Ni  Ni9  1  0.750000  0.930278  0.985106  1
  Ni  Ni10  1  0.250000  0.064085  0.447548  1
  Ni  Ni11  1  0.750000  0.935915  0.552452  1
  Ni  Ni12  1  0.250000  0.592746  0.695123  1
  Ni  Ni13  1  0.750000  0.407254  0.304877  1
  Ni  Ni14  1  0.250000  0.581978  0.010143  1
  Ni  Ni15  1  0.750000  0.418022  0.989857  1
  Ni  Ni16  1  0.250000  0.579701  0.508049  1
  Ni  Ni17  1  0.750000  0.420299  0.491951  1
  Ni  Ni18  1  0.250000  0.297262  0.915109  1
  Ni  Ni19  1  0.750000  0.702738  0.084891  1
  Ni  Ni20  1  0.250000  0.997918  0.658030  1
  Ni  Ni21  1  0.750000  0.002082  0.341970  1
  Ni  Ni22  1  0.250000  0.837457  0.437281  1
  Ni  Ni23  1  0.750000  0.162543  0.562719  1
  Ni  Ni24  1  0.250000  0.994635  0.847842  1
  Ni  Ni25  1  0.750000  0.005365  0.152158  1
  Ni  Ni26  1  0.250000  0.567723  0.205047  1
  Ni  Ni27  1  0.750000  0.432277  0.794953  1
  P  P28  1  0.250000  0.507512  0.871590  1
  P  P29  1  0.750000  0.492488  0.128410  1
  P  P30  1  0.250000  0.802185  0.985001  1
  P  P31  1  0.750000  0.197815  0.014999  1
  P  P32  1  0.250000  0.496783  0.377824  1
  P  P33  1  0.750000  0.503217  0.622176  1
  P  P34  1  0.250000  0.811771  0.609789  1
  P  P35  1  0.750000  0.188229  0.390211  1
  P  P36  1  0.250000  0.943194  0.261521  1
  P  P37  1  0.750000  0.056806  0.738479  1
