# generated using pymatgen
data_Tb6Al24IrRu7
_symmetry_space_group_name_H-M   'P 1'
_cell_length_a   8.80876600
_cell_length_b   8.81954726
_cell_length_c   9.58345610
_cell_angle_alpha   90.08656096
_cell_angle_beta   90.00000000
_cell_angle_gamma   119.95957065
_symmetry_Int_Tables_number   1
_chemical_formula_structural   Tb6Al24IrRu7
_chemical_formula_sum   'Tb6 Al24 Ir1 Ru7'
_cell_volume   645.04539427
_cell_formula_units_Z   1
loop_
 _symmetry_equiv_pos_site_id
 _symmetry_equiv_pos_as_xyz
  1  'x, y, z'
loop_
 _atom_site_type_symbol
 _atom_site_label
 _atom_site_symmetry_multiplicity
 _atom_site_fract_x
 _atom_site_fract_y
 _atom_site_fract_z
 _atom_site_occupancy
  Tb  Tb0  1  0.385422  0.192718  0.249573  1
  Tb  Tb1  1  0.807296  0.192718  0.249573  1
  Tb  Tb2  1  0.806767  0.613536  0.249965  1
  Tb  Tb3  1  0.614578  0.807282  0.750427  1
  Tb  Tb4  1  0.192704  0.807282  0.750427  1
  Tb  Tb5  1  0.193233  0.386464  0.750035  1
  Al  Al6  1  0.438541  0.877082  0.248864  1
  Al  Al7  1  0.123223  0.561986  0.250230  1
  Al  Al8  1  0.438763  0.561986  0.250230  1
  Al  Al9  1  0.561459  0.122918  0.751136  1
  Al  Al10  1  0.876777  0.438014  0.749770  1
  Al  Al11  1  0.561237  0.438014  0.749770  1
  Al  Al12  1  0.161553  0.835541  0.423382  1
  Al  Al13  1  0.162825  0.325650  0.422411  1
  Al  Al14  1  0.673988  0.835541  0.423382  1
  Al  Al15  1  0.838447  0.164459  0.576618  1
  Al  Al16  1  0.837175  0.674350  0.577589  1
  Al  Al17  1  0.326012  0.164459  0.576618  1
  Al  Al18  1  0.837114  0.162971  0.923162  1
  Al  Al19  1  0.836921  0.673842  0.923246  1
  Al  Al20  1  0.325858  0.162971  0.923162  1
  Al  Al21  1  0.162886  0.837029  0.076838  1
  Al  Al22  1  0.163079  0.326158  0.076754  1
  Al  Al23  1  0.674142  0.837029  0.076838  1
  Al  Al24  1  0.332559  0.665119  0.516551  1
  Al  Al25  1  0.667441  0.334881  0.483449  1
  Al  Al26  1  0.666586  0.333171  0.016404  1
  Al  Al27  1  0.333414  0.666829  0.983596  1
  Al  Al28  1  0.999726  0.999453  0.250008  1
  Al  Al29  1  0.000274  0.000547  0.749992  1
  Ir  Ir30  1  0.500000  0.000000  0.500000  1
  Ru  Ru31  1  0.000000  0.000000  0.500000  1
  Ru  Ru32  1  0.000000  0.000000  0.000000  1
  Ru  Ru33  1  0.000000  0.500000  0.500000  1
  Ru  Ru34  1  0.500000  0.500000  0.500000  1
  Ru  Ru35  1  0.500000  0.000000  0.000000  1
  Ru  Ru36  1  0.000000  0.500000  0.000000  1
  Ru  Ru37  1  0.500000  0.500000  0.000000  1
