# generated using pymatgen
data_Sm5TmZn4Pt13
_symmetry_space_group_name_H-M   'P 1'
_cell_length_a   8.35522097
_cell_length_b   8.35522097
_cell_length_c   8.35522100
_cell_angle_alpha   109.49381607
_cell_angle_beta   109.45992058
_cell_angle_gamma   109.45992802
_symmetry_Int_Tables_number   1
_chemical_formula_structural   Sm5TmZn4Pt13
_chemical_formula_sum   'Sm5 Tm1 Zn4 Pt13'
_cell_volume   449.00572480
_cell_formula_units_Z   1
loop_
 _symmetry_equiv_pos_site_id
 _symmetry_equiv_pos_as_xyz
  1  'x, y, z'
loop_
 _atom_site_type_symbol
 _atom_site_label
 _atom_site_symmetry_multiplicity
 _atom_site_fract_x
 _atom_site_fract_y
 _atom_site_fract_z
 _atom_site_occupancy
  Sm  Sm0  1  0.698752  0.698614  0.999863  1
  Sm  Sm1  1  0.301248  0.999863  0.301112  1
  Sm  Sm2  1  0.000000  0.299339  0.299339  1
  Sm  Sm3  1  0.301248  0.301112  0.999863  1
  Sm  Sm4  1  0.698752  0.999863  0.698614  1
  Tm  Tm5  1  0.000000  0.694028  0.694028  1
  Zn  Zn6  1  0.000000  0.001052  0.501431  1
  Zn  Zn7  1  0.000000  0.501431  0.001052  1
  Zn  Zn8  1  0.499621  0.001052  0.001052  1
  Zn  Zn9  1  0.500379  0.501431  0.501431  1
  Pt  Pt10  1  0.330765  0.330591  0.661354  1
  Pt  Pt11  1  0.669235  0.999826  0.330591  1
  Pt  Pt12  1  0.000000  0.668270  0.334388  1
  Pt  Pt13  1  0.669235  0.330591  0.999826  1
  Pt  Pt14  1  0.330765  0.661354  0.330591  1
  Pt  Pt15  1  0.000000  0.334388  0.668270  1
  Pt  Pt16  1  0.327774  0.670621  0.998395  1
  Pt  Pt17  1  0.327774  0.998395  0.670621  1
  Pt  Pt18  1  0.666117  0.334388  0.334388  1
  Pt  Pt19  1  0.672226  0.670621  0.342848  1
  Pt  Pt20  1  0.672226  0.342848  0.670621  1
  Pt  Pt21  1  0.333883  0.668270  0.668270  1
  Pt  Pt22  1  0.000000  0.992052  0.992052  1
