# generated using pymatgen
data_Tb3Zn2In3Rh
_symmetry_space_group_name_H-M   'P 1'
_cell_length_a   7.79729500
_cell_length_b   7.79729441
_cell_length_c   3.82591900
_cell_angle_alpha   90.00000000
_cell_angle_beta   90.00000000
_cell_angle_gamma   120.00000790
_symmetry_Int_Tables_number   1
_chemical_formula_structural   Tb3Zn2In3Rh
_chemical_formula_sum   'Tb3 Zn2 In3 Rh1'
_cell_volume   201.44396742
_cell_formula_units_Z   1
loop_
 _symmetry_equiv_pos_site_id
 _symmetry_equiv_pos_as_xyz
  1  'x, y, z'
loop_
 _atom_site_type_symbol
 _atom_site_label
 _atom_site_symmetry_multiplicity
 _atom_site_fract_x
 _atom_site_fract_y
 _atom_site_fract_z
 _atom_site_occupancy
  Tb  Tb0  1  0.974806  0.584759  0.500000  1
  Tb  Tb1  1  0.415241  0.390047  0.500000  1
  Tb  Tb2  1  0.609953  0.025194  0.500000  1
  Zn  Zn3  1  0.333333  0.666667  0.000000  1
  Zn  Zn4  1  0.000000  0.000000  0.500000  1
  In  In5  1  0.735500  0.739646  0.000000  1
  In  In6  1  0.004146  0.264500  0.000000  1
  In  In7  1  0.260354  0.995854  0.000000  1
  Rh  Rh8  1  0.666667  0.333333  0.000000  1
