# generated using pymatgen
data_Ti3Zn3O
_symmetry_space_group_name_H-M   'P 1'
_cell_length_a   8.13512533
_cell_length_b   8.13512566
_cell_length_c   8.13512600
_cell_angle_alpha   59.99999860
_cell_angle_beta   59.99999726
_cell_angle_gamma   59.99999482
_symmetry_Int_Tables_number   1
_chemical_formula_structural   Ti3Zn3O
_chemical_formula_sum   'Ti12 Zn12 O4'
_cell_volume   380.69552236
_cell_formula_units_Z   4
loop_
 _symmetry_equiv_pos_site_id
 _symmetry_equiv_pos_as_xyz
  1  'x, y, z'
loop_
 _atom_site_type_symbol
 _atom_site_label
 _atom_site_symmetry_multiplicity
 _atom_site_fract_x
 _atom_site_fract_y
 _atom_site_fract_z
 _atom_site_occupancy
  Ti  Ti0  1  0.429805  0.429805  0.070195  1
  Ti  Ti1  1  0.070195  0.429805  0.070195  1
  Ti  Ti2  1  0.429805  0.070195  0.070195  1
  Ti  Ti3  1  0.070195  0.070195  0.429805  1
  Ti  Ti4  1  0.429805  0.070195  0.429805  1
  Ti  Ti5  1  0.070195  0.429805  0.429805  1
  Ti  Ti6  1  0.820195  0.820195  0.179805  1
  Ti  Ti7  1  0.179805  0.820195  0.179805  1
  Ti  Ti8  1  0.820195  0.179805  0.179805  1
  Ti  Ti9  1  0.179805  0.179805  0.820195  1
  Ti  Ti10  1  0.820195  0.179805  0.820195  1
  Ti  Ti11  1  0.179805  0.820195  0.820195  1
  Zn  Zn12  1  0.834812  0.834812  0.495564  1
  Zn  Zn13  1  0.834812  0.495564  0.834812  1
  Zn  Zn14  1  0.495564  0.834812  0.834812  1
  Zn  Zn15  1  0.834812  0.834812  0.834812  1
  Zn  Zn16  1  0.415188  0.415188  0.754436  1
  Zn  Zn17  1  0.415188  0.754436  0.415188  1
  Zn  Zn18  1  0.754436  0.415188  0.415188  1
  Zn  Zn19  1  0.415188  0.415188  0.415188  1
  Zn  Zn20  1  0.625000  0.625000  0.125000  1
  Zn  Zn21  1  0.625000  0.125000  0.625000  1
  Zn  Zn22  1  0.125000  0.625000  0.625000  1
  Zn  Zn23  1  0.625000  0.625000  0.625000  1
  O  O24  1  0.125000  0.125000  0.625000  1
  O  O25  1  0.125000  0.625000  0.125000  1
  O  O26  1  0.625000  0.125000  0.125000  1
  O  O27  1  0.125000  0.125000  0.125000  1
