# generated using pymatgen
data_LaPrCo2(As2Ir)2
_symmetry_space_group_name_H-M   'P 1'
_cell_length_a   4.22632000
_cell_length_b   4.22632000
_cell_length_c   9.78391700
_cell_angle_alpha   90.00000000
_cell_angle_beta   90.00000000
_cell_angle_gamma   90.00000000
_symmetry_Int_Tables_number   1
_chemical_formula_structural   LaPrCo2(As2Ir)2
_chemical_formula_sum   'La1 Pr1 Co2 As4 Ir2'
_cell_volume   174.75818026
_cell_formula_units_Z   1
loop_
 _symmetry_equiv_pos_site_id
 _symmetry_equiv_pos_as_xyz
  1  'x, y, z'
loop_
 _atom_site_type_symbol
 _atom_site_label
 _atom_site_symmetry_multiplicity
 _atom_site_fract_x
 _atom_site_fract_y
 _atom_site_fract_z
 _atom_site_occupancy
  La  La0  1  0.500000  0.000000  0.761751  1
  Pr  Pr1  1  0.000000  0.500000  0.238290  1
  Co  Co2  1  0.000000  0.500000  0.890648  1
  Co  Co3  1  0.500000  0.000000  0.109913  1
  As  As4  1  0.000000  0.000000  0.000354  1
  As  As5  1  0.500000  0.500000  0.000354  1
  As  As6  1  0.000000  0.500000  0.648599  1
  As  As7  1  0.500000  0.000000  0.350448  1
  Ir  Ir8  1  0.000000  0.000000  0.499822  1
  Ir  Ir9  1  0.500000  0.500000  0.499822  1
