# generated using pymatgen
data_TbYHf3Ge4
_symmetry_space_group_name_H-M   'P 1'
_cell_length_a   7.39785911
_cell_length_b   7.39737813
_cell_length_c   13.57681302
_cell_angle_alpha   89.99387286
_cell_angle_beta   89.99450440
_cell_angle_gamma   90.01354521
_symmetry_Int_Tables_number   1
_chemical_formula_structural   TbYHf3Ge4
_chemical_formula_sum   'Tb4 Y4 Hf12 Ge16'
_cell_volume   742.98782213
_cell_formula_units_Z   4
loop_
 _symmetry_equiv_pos_site_id
 _symmetry_equiv_pos_as_xyz
  1  'x, y, z'
loop_
 _atom_site_type_symbol
 _atom_site_label
 _atom_site_symmetry_multiplicity
 _atom_site_fract_x
 _atom_site_fract_y
 _atom_site_fract_z
 _atom_site_occupancy
  Tb  Tb0  1  0.842187  0.503295  0.967636  1
  Tb  Tb1  1  0.496632  0.157853  0.532257  1
  Tb  Tb2  1  0.342057  0.996559  0.782318  1
  Tb  Tb3  1  0.657916  0.003214  0.282221  1
  Y  Y4  1  0.996881  0.341920  0.217985  1
  Y  Y5  1  0.003287  0.658083  0.717837  1
  Y  Y6  1  0.158029  0.496736  0.467924  1
  Y  Y7  1  0.503322  0.841880  0.031999  1
  Hf  Hf8  1  0.173118  0.173177  0.999824  1
  Hf  Hf9  1  0.826730  0.827034  0.499973  1
  Hf  Hf10  1  0.326921  0.672934  0.250033  1
  Hf  Hf11  1  0.673050  0.327098  0.750010  1
  Hf  Hf12  1  0.155530  0.996671  0.375175  1
  Hf  Hf13  1  0.844514  0.003382  0.875164  1
  Hf  Hf14  1  0.503463  0.655500  0.625195  1
  Hf  Hf15  1  0.344490  0.496679  0.874859  1
  Hf  Hf16  1  0.496569  0.344687  0.125116  1
  Hf  Hf17  1  0.655364  0.503434  0.374976  1
  Hf  Hf18  1  0.996767  0.155342  0.624825  1
  Hf  Hf19  1  0.003184  0.844589  0.124914  1
  Ge  Ge20  1  0.365820  0.301068  0.322193  1
  Ge  Ge21  1  0.634272  0.698967  0.822000  1
  Ge  Ge22  1  0.198846  0.865820  0.572125  1
  Ge  Ge23  1  0.134004  0.801005  0.927943  1
  Ge  Ge24  1  0.801278  0.134352  0.072171  1
  Ge  Ge25  1  0.865769  0.198856  0.427893  1
  Ge  Ge26  1  0.301169  0.365717  0.677910  1
  Ge  Ge27  1  0.698748  0.634217  0.177773  1
  Ge  Ge28  1  0.296188  0.038601  0.181322  1
  Ge  Ge29  1  0.703854  0.961372  0.681470  1
  Ge  Ge30  1  0.461194  0.796116  0.431511  1
  Ge  Ge31  1  0.203690  0.538599  0.068515  1
  Ge  Ge32  1  0.538932  0.204017  0.931517  1
  Ge  Ge33  1  0.796190  0.461277  0.568477  1
  Ge  Ge34  1  0.038799  0.296062  0.818361  1
  Ge  Ge35  1  0.961240  0.703883  0.318581  1
