# generated using pymatgen
data_Sr2Fe2CuN3
_symmetry_space_group_name_H-M   'P 1'
_cell_length_a   6.53736218
_cell_length_b   6.53736237
_cell_length_c   6.48121202
_cell_angle_alpha   88.64267790
_cell_angle_beta   88.64267999
_cell_angle_gamma   118.37897100
_symmetry_Int_Tables_number   1
_chemical_formula_structural   Sr2Fe2CuN3
_chemical_formula_sum   'Sr4 Fe4 Cu2 N6'
_cell_volume   243.43990197
_cell_formula_units_Z   2
loop_
 _symmetry_equiv_pos_site_id
 _symmetry_equiv_pos_as_xyz
  1  'x, y, z'
loop_
 _atom_site_type_symbol
 _atom_site_label
 _atom_site_symmetry_multiplicity
 _atom_site_fract_x
 _atom_site_fract_y
 _atom_site_fract_z
 _atom_site_occupancy
  Sr  Sr0  1  0.825720  0.676219  0.895211  1
  Sr  Sr1  1  0.323781  0.174280  0.604789  1
  Sr  Sr2  1  0.174280  0.323781  0.104789  1
  Sr  Sr3  1  0.676219  0.825720  0.395211  1
  Fe  Fe4  1  0.563811  0.164462  0.105238  1
  Fe  Fe5  1  0.436189  0.835538  0.894762  1
  Fe  Fe6  1  0.835538  0.436189  0.394762  1
  Fe  Fe7  1  0.164462  0.563811  0.605238  1
  Cu  Cu8  1  0.824177  0.175823  0.750000  1
  Cu  Cu9  1  0.175823  0.824177  0.250000  1
  N  N10  1  0.412021  0.587979  0.750000  1
  N  N11  1  0.587979  0.412021  0.250000  1
  N  N12  1  0.007282  0.723741  0.511747  1
  N  N13  1  0.723741  0.007282  0.011747  1
  N  N14  1  0.992718  0.276259  0.488253  1
  N  N15  1  0.276259  0.992718  0.988253  1
