# generated using pymatgen
data_Ac16Ir9
_symmetry_space_group_name_H-M   'P 1'
_cell_length_a   8.81340600
_cell_length_b   10.33715621
_cell_length_c   10.24872618
_cell_angle_alpha   83.78523555
_cell_angle_beta   90.00000000
_cell_angle_gamma   90.00000000
_symmetry_Int_Tables_number   1
_chemical_formula_structural   Ac16Ir9
_chemical_formula_sum   'Ac16 Ir9'
_cell_volume   928.22852845
_cell_formula_units_Z   1
loop_
 _symmetry_equiv_pos_site_id
 _symmetry_equiv_pos_as_xyz
  1  'x, y, z'
loop_
 _atom_site_type_symbol
 _atom_site_label
 _atom_site_symmetry_multiplicity
 _atom_site_fract_x
 _atom_site_fract_y
 _atom_site_fract_z
 _atom_site_occupancy
  Ac  Ac0  1  0.751038  0.045642  0.789535  1
  Ac  Ac1  1  0.000000  0.294802  0.038546  1
  Ac  Ac2  1  0.500000  0.805887  0.526338  1
  Ac  Ac3  1  0.247027  0.560346  0.277806  1
  Ac  Ac4  1  0.248962  0.954358  0.210465  1
  Ac  Ac5  1  0.500000  0.194113  0.473662  1
  Ac  Ac6  1  0.000000  0.705198  0.961454  1
  Ac  Ac7  1  0.752973  0.439654  0.722194  1
  Ac  Ac8  1  0.000000  0.804524  0.522537  1
  Ac  Ac9  1  0.752973  0.560346  0.277806  1
  Ac  Ac10  1  0.500000  0.308413  0.033584  1
  Ac  Ac11  1  0.248962  0.045642  0.789535  1
  Ac  Ac12  1  0.500000  0.691587  0.966416  1
  Ac  Ac13  1  0.247027  0.439654  0.722194  1
  Ac  Ac14  1  0.000000  0.195476  0.477463  1
  Ac  Ac15  1  0.751038  0.954358  0.210465  1
  Ir  Ir16  1  0.500000  0.248641  0.753830  1
  Ir  Ir17  1  0.750527  0.500000  0.000000  1
  Ir  Ir18  1  0.249813  0.000000  0.500000  1
  Ir  Ir19  1  0.000000  0.757520  0.241559  1
  Ir  Ir20  1  0.500000  0.751359  0.246170  1
  Ir  Ir21  1  0.750187  0.000000  0.500000  1
  Ir  Ir22  1  0.249473  0.500000  0.000000  1
  Ir  Ir23  1  0.000000  0.242480  0.758441  1
  Ir  Ir24  1  0.000000  0.000000  0.000000  1
