# generated using pymatgen
data_Dy6Hg7Ir
_symmetry_space_group_name_H-M   'P 1'
_cell_length_a   8.19130804
_cell_length_b   8.19130765
_cell_length_c   8.19130689
_cell_angle_alpha   113.45305948
_cell_angle_beta   113.45305795
_cell_angle_gamma   113.45306081
_symmetry_Int_Tables_number   1
_chemical_formula_structural   Dy6Hg7Ir
_chemical_formula_sum   'Dy6 Hg7 Ir1'
_cell_volume   347.04539024
_cell_formula_units_Z   1
loop_
 _symmetry_equiv_pos_site_id
 _symmetry_equiv_pos_as_xyz
  1  'x, y, z'
loop_
 _atom_site_type_symbol
 _atom_site_label
 _atom_site_symmetry_multiplicity
 _atom_site_fract_x
 _atom_site_fract_y
 _atom_site_fract_z
 _atom_site_occupancy
  Dy  Dy0  1  0.362612  0.997349  0.242326  1
  Dy  Dy1  1  0.997349  0.242326  0.362612  1
  Dy  Dy2  1  0.242326  0.362612  0.997349  1
  Dy  Dy3  1  0.637388  0.002651  0.757674  1
  Dy  Dy4  1  0.002651  0.757674  0.637388  1
  Dy  Dy5  1  0.757674  0.637388  0.002651  1
  Hg  Hg6  1  0.500000  0.500000  0.500000  1
  Hg  Hg7  1  0.264375  0.105612  0.589173  1
  Hg  Hg8  1  0.105612  0.589173  0.264375  1
  Hg  Hg9  1  0.589173  0.264375  0.105612  1
  Hg  Hg10  1  0.735625  0.894388  0.410827  1
  Hg  Hg11  1  0.894388  0.410827  0.735625  1
  Hg  Hg12  1  0.410827  0.735625  0.894388  1
  Ir  Ir13  1  0.000000  0.000000  0.000000  1
