# generated using pymatgen
data_Nd3Ho17Sn13Bi3
_symmetry_space_group_name_H-M   'P 1'
_cell_length_a   8.14590101
_cell_length_b   8.18363216
_cell_length_c   15.46478700
_cell_angle_alpha   90.10485101
_cell_angle_beta   89.73978054
_cell_angle_gamma   89.92852492
_symmetry_Int_Tables_number   1
_chemical_formula_structural   Nd3Ho17Sn13Bi3
_chemical_formula_sum   'Nd3 Ho17 Sn13 Bi3'
_cell_volume   1030.91681289
_cell_formula_units_Z   1
loop_
 _symmetry_equiv_pos_site_id
 _symmetry_equiv_pos_as_xyz
  1  'x, y, z'
loop_
 _atom_site_type_symbol
 _atom_site_label
 _atom_site_symmetry_multiplicity
 _atom_site_fract_x
 _atom_site_fract_y
 _atom_site_fract_z
 _atom_site_occupancy
  Nd  Nd0  1  0.973348  0.824905  0.397443  1
  Nd  Nd1  1  0.525359  0.324698  0.601258  1
  Nd  Nd2  1  0.025427  0.180509  0.900470  1
  Ho  Ho3  1  0.377303  0.833619  0.877915  1
  Ho  Ho4  1  0.880332  0.661399  0.623533  1
  Ho  Ho5  1  0.620877  0.159585  0.375016  1
  Ho  Ho6  1  0.123534  0.340421  0.122028  1
  Ho  Ho7  1  0.628476  0.162078  0.121830  1
  Ho  Ho8  1  0.127106  0.337246  0.377477  1
  Ho  Ho9  1  0.373881  0.837738  0.622073  1
  Ho  Ho10  1  0.876767  0.662717  0.877903  1
  Ho  Ho11  1  0.539276  0.331895  0.896239  1
  Ho  Ho12  1  0.048981  0.173552  0.607635  1
  Ho  Ho13  1  0.451932  0.673011  0.393123  1
  Ho  Ho14  1  0.956436  0.821871  0.104283  1
  Ho  Ho15  1  0.469621  0.669344  0.100458  1
  Ho  Ho16  1  0.206563  0.502347  0.750859  1
  Ho  Ho17  1  0.705990  0.999120  0.754912  1
  Ho  Ho18  1  0.793063  0.498402  0.245620  1
  Ho  Ho19  1  0.294094  0.000983  0.252126  1
  Sn  Sn20  1  0.219210  0.531618  0.957786  1
  Sn  Sn21  1  0.712246  0.962926  0.958933  1
  Sn  Sn22  1  0.212764  0.536299  0.541647  1
  Sn  Sn23  1  0.287684  0.035745  0.458264  1
  Sn  Sn24  1  0.786793  0.466234  0.041694  1
  Sn  Sn25  1  0.573894  0.626197  0.748308  1
  Sn  Sn26  1  0.073750  0.876077  0.750578  1
  Sn  Sn27  1  0.427805  0.375346  0.248499  1
  Sn  Sn28  1  0.927782  0.124858  0.249961  1
  Sn  Sn29  1  0.342334  0.144996  0.753749  1
  Sn  Sn30  1  0.840758  0.355607  0.747668  1
  Sn  Sn31  1  0.654403  0.851165  0.249131  1
  Sn  Sn32  1  0.159042  0.644923  0.246340  1
  Bi  Bi33  1  0.282493  0.024342  0.045664  1
  Bi  Bi34  1  0.778054  0.473424  0.454221  1
  Bi  Bi35  1  0.722625  0.974800  0.545357  1
