# generated using pymatgen
data_Ce8Nb12Si15Ge
_symmetry_space_group_name_H-M   'P 1'
_cell_length_a   6.97865811
_cell_length_b   7.17424806
_cell_length_c   13.49861506
_cell_angle_alpha   90.03889054
_cell_angle_beta   89.92907143
_cell_angle_gamma   90.04323305
_symmetry_Int_Tables_number   1
_chemical_formula_structural   Ce8Nb12Si15Ge
_chemical_formula_sum   'Ce8 Nb12 Si15 Ge1'
_cell_volume   675.82922481
_cell_formula_units_Z   1
loop_
 _symmetry_equiv_pos_site_id
 _symmetry_equiv_pos_as_xyz
  1  'x, y, z'
loop_
 _atom_site_type_symbol
 _atom_site_label
 _atom_site_symmetry_multiplicity
 _atom_site_fract_x
 _atom_site_fract_y
 _atom_site_fract_z
 _atom_site_occupancy
  Ce  Ce0  1  0.503115  0.331291  0.094657  1
  Ce  Ce1  1  0.002520  0.168494  0.404523  1
  Ce  Ce2  1  0.500033  0.671097  0.595857  1
  Ce  Ce3  1  0.996451  0.831526  0.905812  1
  Ce  Ce4  1  0.496572  0.668625  0.905620  1
  Ce  Ce5  1  0.996543  0.831798  0.594870  1
  Ce  Ce6  1  0.503820  0.329778  0.403951  1
  Ce  Ce7  1  0.003589  0.169074  0.094540  1
  Nb  Nb8  1  0.664607  0.004672  0.750304  1
  Nb  Nb9  1  0.165091  0.494606  0.751790  1
  Nb  Nb10  1  0.335059  0.995528  0.249765  1
  Nb  Nb11  1  0.835261  0.505081  0.249605  1
  Nb  Nb12  1  0.835102  0.325984  0.625723  1
  Nb  Nb13  1  0.337407  0.173503  0.875132  1
  Nb  Nb14  1  0.162701  0.673742  0.124979  1
  Nb  Nb15  1  0.661642  0.826718  0.374401  1
  Nb  Nb16  1  0.161037  0.676099  0.373066  1
  Nb  Nb17  1  0.661762  0.825982  0.124973  1
  Nb  Nb18  1  0.837106  0.326105  0.875159  1
  Nb  Nb19  1  0.340346  0.169838  0.626539  1
  Si  Si20  1  0.799546  0.619478  0.750522  1
  Si  Si21  1  0.298196  0.879261  0.750742  1
  Si  Si22  1  0.201027  0.380552  0.249753  1
  Si  Si23  1  0.701725  0.119310  0.249270  1
  Si  Si24  1  0.541702  0.373212  0.750450  1
  Si  Si25  1  0.041718  0.127131  0.750058  1
  Si  Si26  1  0.457753  0.627057  0.249787  1
  Si  Si27  1  0.957310  0.873821  0.249110  1
  Si  Si28  1  0.660619  0.040943  0.542342  1
  Si  Si29  1  0.160009  0.459493  0.957509  1
  Si  Si30  1  0.339973  0.959901  0.042812  1
  Si  Si31  1  0.836342  0.541631  0.456188  1
  Si  Si32  1  0.339459  0.959088  0.457435  1
  Si  Si33  1  0.840029  0.540240  0.042782  1
  Si  Si34  1  0.659436  0.040080  0.957289  1
  Ge  Ge35  1  0.165395  0.459264  0.542685  1
