# generated using pymatgen
data_Er20Zn6OsRu
_symmetry_space_group_name_H-M   'P 1'
_cell_length_a   9.33375700
_cell_length_b   9.33375753
_cell_length_c   9.54855800
_cell_angle_alpha   90.00000000
_cell_angle_beta   90.00000000
_cell_angle_gamma   120.00000166
_symmetry_Int_Tables_number   1
_chemical_formula_structural   Er20Zn6OsRu
_chemical_formula_sum   'Er20 Zn6 Os1 Ru1'
_cell_volume   720.41279853
_cell_formula_units_Z   1
loop_
 _symmetry_equiv_pos_site_id
 _symmetry_equiv_pos_as_xyz
  1  'x, y, z'
loop_
 _atom_site_type_symbol
 _atom_site_label
 _atom_site_symmetry_multiplicity
 _atom_site_fract_x
 _atom_site_fract_y
 _atom_site_fract_z
 _atom_site_occupancy
  Er  Er0  1  0.000000  0.000000  0.499599  1
  Er  Er1  1  0.000000  0.000000  0.000401  1
  Er  Er2  1  0.207753  0.792247  0.442862  1
  Er  Er3  1  0.207753  0.415508  0.442862  1
  Er  Er4  1  0.584492  0.792247  0.442862  1
  Er  Er5  1  0.792120  0.207880  0.558049  1
  Er  Er6  1  0.792120  0.584237  0.558049  1
  Er  Er7  1  0.415763  0.207880  0.558049  1
  Er  Er8  1  0.792120  0.207880  0.941951  1
  Er  Er9  1  0.792120  0.584237  0.941951  1
  Er  Er10  1  0.415763  0.207880  0.941951  1
  Er  Er11  1  0.207753  0.792247  0.057138  1
  Er  Er12  1  0.207753  0.415508  0.057138  1
  Er  Er13  1  0.584492  0.792247  0.057138  1
  Er  Er14  1  0.539855  0.460145  0.250000  1
  Er  Er15  1  0.539855  0.079709  0.250000  1
  Er  Er16  1  0.920291  0.460145  0.250000  1
  Er  Er17  1  0.458922  0.541078  0.750000  1
  Er  Er18  1  0.458922  0.917843  0.750000  1
  Er  Er19  1  0.082157  0.541078  0.750000  1
  Zn  Zn20  1  0.886037  0.113963  0.250000  1
  Zn  Zn21  1  0.886037  0.772076  0.250000  1
  Zn  Zn22  1  0.227924  0.113963  0.250000  1
  Zn  Zn23  1  0.114005  0.885995  0.750000  1
  Zn  Zn24  1  0.114005  0.228009  0.750000  1
  Zn  Zn25  1  0.771991  0.885995  0.750000  1
  Os  Os26  1  0.333333  0.666667  0.250000  1
  Ru  Ru27  1  0.666667  0.333333  0.750000  1
