# generated using pymatgen
data_TlSO4
_symmetry_space_group_name_H-M   'P 1'
_cell_length_a   5.26288764
_cell_length_b   5.25760082
_cell_length_c   9.81641000
_cell_angle_alpha   60.81449736
_cell_angle_beta   78.72047731
_cell_angle_gamma   63.24375078
_symmetry_Int_Tables_number   1
_chemical_formula_structural   TlSO4
_chemical_formula_sum   'Tl2 S2 O8'
_cell_volume   211.64780874
_cell_formula_units_Z   2
loop_
 _symmetry_equiv_pos_site_id
 _symmetry_equiv_pos_as_xyz
  1  'x, y, z'
loop_
 _atom_site_type_symbol
 _atom_site_label
 _atom_site_symmetry_multiplicity
 _atom_site_fract_x
 _atom_site_fract_y
 _atom_site_fract_z
 _atom_site_occupancy
  Tl  Tl0  1  0.999990  0.499977  0.000009  1
  Tl  Tl1  1  0.000010  0.000004  0.499999  1
  S  S2  1  0.632356  0.835642  0.297063  1
  S  S3  1  0.367656  0.164414  0.702884  1
  O  O4  1  0.704285  0.040143  0.143715  1
  O  O5  1  0.738002  0.501592  0.312080  1
  O  O6  1  0.308556  0.966472  0.304783  1
  O  O7  1  0.748384  0.808932  0.432133  1
  O  O8  1  0.251614  0.191096  0.567875  1
  O  O9  1  0.691443  0.033490  0.695226  1
  O  O10  1  0.262017  0.498401  0.687929  1
  O  O11  1  0.295683  0.959836  0.856307  1
