# generated using pymatgen
data_Dy9Y11Cd6TcRu
_symmetry_space_group_name_H-M   'P 1'
_cell_length_a   9.59463937
_cell_length_b   9.59463931
_cell_length_c   9.90745943
_cell_angle_alpha   89.94669873
_cell_angle_beta   90.05330073
_cell_angle_gamma   119.96981686
_symmetry_Int_Tables_number   1
_chemical_formula_structural   Dy9Y11Cd6TcRu
_chemical_formula_sum   'Dy9 Y11 Cd6 Tc1 Ru1'
_cell_volume   790.09988894
_cell_formula_units_Z   1
loop_
 _symmetry_equiv_pos_site_id
 _symmetry_equiv_pos_as_xyz
  1  'x, y, z'
loop_
 _atom_site_type_symbol
 _atom_site_label
 _atom_site_symmetry_multiplicity
 _atom_site_fract_x
 _atom_site_fract_y
 _atom_site_fract_z
 _atom_site_occupancy
  Dy  Dy0  1  0.999992  0.000008  0.500114  1
  Dy  Dy1  1  0.999815  0.000185  0.999768  1
  Dy  Dy2  1  0.210018  0.789982  0.441109  1
  Dy  Dy3  1  0.209978  0.419958  0.441080  1
  Dy  Dy4  1  0.580042  0.790022  0.441080  1
  Dy  Dy5  1  0.789794  0.210206  0.559395  1
  Dy  Dy6  1  0.789721  0.579530  0.559334  1
  Dy  Dy7  1  0.420470  0.210279  0.559334  1
  Dy  Dy8  1  0.789759  0.210241  0.940327  1
  Y  Y9  1  0.790250  0.580325  0.941132  1
  Y  Y10  1  0.419675  0.209750  0.941132  1
  Y  Y11  1  0.209660  0.790340  0.058524  1
  Y  Y12  1  0.209556  0.419361  0.058518  1
  Y  Y13  1  0.580639  0.790444  0.058518  1
  Y  Y14  1  0.539967  0.460033  0.250446  1
  Y  Y15  1  0.540081  0.080057  0.250323  1
  Y  Y16  1  0.919943  0.459919  0.250323  1
  Y  Y17  1  0.458750  0.541250  0.749487  1
  Y  Y18  1  0.458906  0.917707  0.749581  1
  Y  Y19  1  0.082293  0.541094  0.749581  1
  Cd  Cd20  1  0.885547  0.114453  0.249919  1
  Cd  Cd21  1  0.885503  0.771050  0.249805  1
  Cd  Cd22  1  0.228950  0.114497  0.249805  1
  Cd  Cd23  1  0.114300  0.885700  0.750226  1
  Cd  Cd24  1  0.114383  0.228606  0.750140  1
  Cd  Cd25  1  0.771394  0.885617  0.750140  1
  Tc  Tc26  1  0.333345  0.666655  0.252567  1
  Ru  Ru27  1  0.667270  0.332730  0.748290  1
