# generated using pymatgen
data_Nd3TmFe8(PIr)12
_symmetry_space_group_name_H-M   'P 1'
_cell_length_a   3.89269000
_cell_length_b   10.55020036
_cell_length_c   12.37955342
_cell_angle_alpha   90.02979135
_cell_angle_beta   90.00000000
_cell_angle_gamma   90.00000000
_symmetry_Int_Tables_number   1
_chemical_formula_structural   Nd3TmFe8(PIr)12
_chemical_formula_sum   'Nd3 Tm1 Fe8 P12 Ir12'
_cell_volume   508.41159446
_cell_formula_units_Z   1
loop_
 _symmetry_equiv_pos_site_id
 _symmetry_equiv_pos_as_xyz
  1  'x, y, z'
loop_
 _atom_site_type_symbol
 _atom_site_label
 _atom_site_symmetry_multiplicity
 _atom_site_fract_x
 _atom_site_fract_y
 _atom_site_fract_z
 _atom_site_occupancy
  Nd  Nd0  1  0.250000  0.579136  0.712559  1
  Nd  Nd1  1  0.250000  0.921349  0.212828  1
  Nd  Nd2  1  0.750000  0.420583  0.287567  1
  Tm  Tm3  1  0.750000  0.078972  0.787625  1
  Fe  Fe4  1  0.250000  0.876509  0.698085  1
  Fe  Fe5  1  0.250000  0.625723  0.196346  1
  Fe  Fe6  1  0.750000  0.125751  0.304353  1
  Fe  Fe7  1  0.750000  0.372559  0.802521  1
  Fe  Fe8  1  0.250000  0.456060  0.935842  1
  Fe  Fe9  1  0.250000  0.042713  0.438854  1
  Fe  Fe10  1  0.750000  0.542343  0.062871  1
  Fe  Fe11  1  0.750000  0.958875  0.565719  1
  P  P12  1  0.250000  0.441511  0.109779  1
  P  P13  1  0.250000  0.058045  0.613918  1
  P  P14  1  0.750000  0.557712  0.889281  1
  P  P15  1  0.750000  0.942255  0.391285  1
  P  P16  1  0.250000  0.271099  0.861648  1
  P  P17  1  0.250000  0.225777  0.363390  1
  P  P18  1  0.750000  0.726687  0.136262  1
  P  P19  1  0.750000  0.773996  0.636877  1
  P  P20  1  0.250000  0.602995  0.379577  1
  P  P21  1  0.250000  0.900125  0.876680  1
  P  P22  1  0.750000  0.397275  0.620279  1
  P  P23  1  0.750000  0.102960  0.121482  1
  Ir  Ir24  1  0.250000  0.718920  0.989237  1
  Ir  Ir25  1  0.250000  0.783148  0.490888  1
  Ir  Ir26  1  0.750000  0.281499  0.008655  1
  Ir  Ir27  1  0.750000  0.217436  0.510539  1
  Ir  Ir28  1  0.250000  0.408523  0.478264  1
  Ir  Ir29  1  0.250000  0.091249  0.971865  1
  Ir  Ir30  1  0.750000  0.591694  0.522445  1
  Ir  Ir31  1  0.750000  0.910292  0.021994  1
  Ir  Ir32  1  0.250000  0.229110  0.171462  1
  Ir  Ir33  1  0.250000  0.265417  0.673841  1
  Ir  Ir34  1  0.750000  0.770638  0.827481  1
  Ir  Ir35  1  0.750000  0.731066  0.327704  1
