# generated using pymatgen
data_Tb3ZnGa6Co7Cu
_symmetry_space_group_name_H-M   'P 1'
_cell_length_a   4.08233700
_cell_length_b   8.78026344
_cell_length_c   8.87610160
_cell_angle_alpha   59.36029028
_cell_angle_beta   90.00000000
_cell_angle_gamma   90.00000000
_symmetry_Int_Tables_number   1
_chemical_formula_structural   Tb3ZnGa6Co7Cu
_chemical_formula_sum   'Tb3 Zn1 Ga6 Co7 Cu1'
_cell_volume   273.73701320
_cell_formula_units_Z   1
loop_
 _symmetry_equiv_pos_site_id
 _symmetry_equiv_pos_as_xyz
  1  'x, y, z'
loop_
 _atom_site_type_symbol
 _atom_site_label
 _atom_site_symmetry_multiplicity
 _atom_site_fract_x
 _atom_site_fract_y
 _atom_site_fract_z
 _atom_site_occupancy
  Tb  Tb0  1  0.500000  0.325263  0.332818  1
  Tb  Tb1  1  0.500000  0.677777  0.660083  1
  Tb  Tb2  1  0.000000  0.998421  0.000238  1
  Zn  Zn3  1  0.500000  0.295170  0.707732  1
  Ga  Ga4  1  0.000000  0.496796  0.506406  1
  Ga  Ga5  1  0.000000  0.506135  0.003488  1
  Ga  Ga6  1  0.000000  0.000328  0.489731  1
  Ga  Ga7  1  0.500000  0.726631  0.277474  1
  Ga  Ga8  1  0.500000  0.272108  0.008088  1
  Ga  Ga9  1  0.500000  0.996117  0.723113  1
  Co  Co10  1  0.000000  0.181534  0.178084  1
  Co  Co11  1  0.000000  0.178928  0.630594  1
  Co  Co12  1  0.000000  0.632586  0.189724  1
  Co  Co13  1  0.000000  0.820715  0.810449  1
  Co  Co14  1  0.000000  0.369710  0.822527  1
  Co  Co15  1  0.000000  0.820046  0.358007  1
  Co  Co16  1  0.500000  0.998821  0.297926  1
  Cu  Cu17  1  0.500000  0.702810  0.003617  1
