# generated using pymatgen
data_Eu2LuTiO6
_symmetry_space_group_name_H-M   'P 1'
_cell_length_a   5.57789245
_cell_length_b   5.76379600
_cell_length_c   9.72454800
_cell_angle_alpha   90.00000000
_cell_angle_beta   124.86802947
_cell_angle_gamma   90.00000000
_symmetry_Int_Tables_number   1
_chemical_formula_structural   Eu2LuTiO6
_chemical_formula_sum   'Eu4 Lu2 Ti2 O12'
_cell_volume   256.51419162
_cell_formula_units_Z   2
loop_
 _symmetry_equiv_pos_site_id
 _symmetry_equiv_pos_as_xyz
  1  'x, y, z'
loop_
 _atom_site_type_symbol
 _atom_site_label
 _atom_site_symmetry_multiplicity
 _atom_site_fract_x
 _atom_site_fract_y
 _atom_site_fract_z
 _atom_site_occupancy
  Eu  Eu0  1  0.239034  0.450446  0.751397  1
  Eu  Eu1  1  0.239034  0.049554  0.251397  1
  Eu  Eu2  1  0.760966  0.549554  0.248603  1
  Eu  Eu3  1  0.760966  0.950446  0.748603  1
  Lu  Lu4  1  0.500000  0.500000  0.500000  1
  Lu  Lu5  1  0.500000  0.000000  0.000000  1
  Ti  Ti6  1  0.000000  0.500000  0.000000  1
  Ti  Ti7  1  0.000000  0.000000  0.500000  1
  O  O8  1  0.335403  0.033993  0.736992  1
  O  O9  1  0.335403  0.466007  0.236992  1
  O  O10  1  0.664597  0.966007  0.263008  1
  O  O11  1  0.664597  0.533993  0.763008  1
  O  O12  1  0.764611  0.192233  0.549297  1
  O  O13  1  0.764611  0.307767  0.049297  1
  O  O14  1  0.235389  0.807767  0.450703  1
  O  O15  1  0.235389  0.692233  0.950703  1
  O  O16  1  0.134866  0.216025  0.945064  1
  O  O17  1  0.134866  0.283975  0.445064  1
  O  O18  1  0.865134  0.783975  0.054936  1
  O  O19  1  0.865134  0.716025  0.554936  1
