# generated using pymatgen
data_La3NdFe3Co4CuO20
_symmetry_space_group_name_H-M   'P 1'
_cell_length_a   5.75859300
_cell_length_b   7.75483096
_cell_length_c   8.67200902
_cell_angle_alpha   91.10834332
_cell_angle_beta   90.00000000
_cell_angle_gamma   90.00000000
_symmetry_Int_Tables_number   1
_chemical_formula_structural   La3NdFe3Co4CuO20
_chemical_formula_sum   'La3 Nd1 Fe3 Co4 Cu1 O20'
_cell_volume   387.19271724
_cell_formula_units_Z   1
loop_
 _symmetry_equiv_pos_site_id
 _symmetry_equiv_pos_as_xyz
  1  'x, y, z'
loop_
 _atom_site_type_symbol
 _atom_site_label
 _atom_site_symmetry_multiplicity
 _atom_site_fract_x
 _atom_site_fract_y
 _atom_site_fract_z
 _atom_site_occupancy
  La  La0  1  0.500000  0.359306  0.319930  1
  La  La1  1  0.500000  0.645192  0.671700  1
  La  La2  1  0.500000  0.149961  0.833068  1
  Nd  Nd3  1  0.500000  0.849289  0.173349  1
  Fe  Fe4  1  0.000000  0.887570  0.858121  1
  Fe  Fe5  1  0.000000  0.388275  0.637345  1
  Fe  Fe6  1  0.000000  0.615838  0.355519  1
  Co  Co7  1  0.245690  0.999327  0.502363  1
  Co  Co8  1  0.754310  0.999327  0.502363  1
  Co  Co9  1  0.757635  0.504942  0.994454  1
  Co  Co10  1  0.242365  0.504942  0.994454  1
  Cu  Cu11  1  0.000000  0.057258  0.162384  1
  O  O12  1  0.220728  0.999463  0.010100  1
  O  O13  1  0.779272  0.999463  0.010100  1
  O  O14  1  0.773079  0.499206  0.495661  1
  O  O15  1  0.226921  0.499206  0.495661  1
  O  O16  1  0.000000  0.368617  0.050264  1
  O  O17  1  0.000000  0.656423  0.928691  1
  O  O18  1  0.000000  0.149104  0.562635  1
  O  O19  1  0.000000  0.848108  0.445159  1
  O  O20  1  0.249059  0.083306  0.299272  1
  O  O21  1  0.747790  0.912935  0.706467  1
  O  O22  1  0.252210  0.912935  0.706467  1
  O  O23  1  0.749834  0.408043  0.792793  1
  O  O24  1  0.750941  0.083306  0.299272  1
  O  O25  1  0.249603  0.600749  0.201646  1
  O  O26  1  0.750397  0.600749  0.201646  1
  O  O27  1  0.250166  0.408043  0.792793  1
  O  O28  1  0.500000  0.354218  0.047931  1
  O  O29  1  0.500000  0.654588  0.948944  1
  O  O30  1  0.500000  0.150947  0.548687  1
  O  O31  1  0.500000  0.849365  0.450762  1
