# generated using pymatgen
data_Ho3Lu(ScSe3)4
_symmetry_space_group_name_H-M   'P 1'
_cell_length_a   12.96868068
_cell_length_b   12.36230604
_cell_length_c   6.90418900
_cell_angle_alpha   79.09023791
_cell_angle_beta   69.39270297
_cell_angle_gamma   31.53989465
_symmetry_Int_Tables_number   1
_chemical_formula_structural   Ho3Lu(ScSe3)4
_chemical_formula_sum   'Ho3 Lu1 Sc4 Se12'
_cell_volume   527.92697732
_cell_formula_units_Z   1
loop_
 _symmetry_equiv_pos_site_id
 _symmetry_equiv_pos_as_xyz
  1  'x, y, z'
loop_
 _atom_site_type_symbol
 _atom_site_label
 _atom_site_symmetry_multiplicity
 _atom_site_fract_x
 _atom_site_fract_y
 _atom_site_fract_z
 _atom_site_occupancy
  Ho  Ho0  1  0.503213  0.503213  0.996787  1
  Ho  Ho1  1  0.253231  0.253231  0.746769  1
  Ho  Ho2  1  0.746755  0.746755  0.253245  1
  Lu  Lu3  1  0.997081  0.997081  0.502919  1
  Sc  Sc4  1  0.333462  0.333462  0.166538  1
  Sc  Sc5  1  0.166629  0.166629  0.333371  1
  Sc  Sc6  1  0.916823  0.916823  0.083177  1
  Sc  Sc7  1  0.083206  0.083206  0.916794  1
  Se  Se8  1  0.012856  0.487161  0.487255  1
  Se  Se9  1  0.487161  0.012856  0.012727  1
  Se  Se10  1  0.235807  0.764077  0.760822  1
  Se  Se11  1  0.764077  0.235807  0.239294  1
  Se  Se12  1  0.666794  0.164740  0.847357  1
  Se  Se13  1  0.850870  0.317411  0.663117  1
  Se  Se14  1  0.317411  0.850870  0.168602  1
  Se  Se15  1  0.164740  0.666794  0.321107  1
  Se  Se16  1  0.585441  0.084189  0.400069  1
  Se  Se17  1  0.400055  0.930199  0.585658  1
  Se  Se18  1  0.930199  0.400055  0.084089  1
  Se  Se19  1  0.084189  0.585441  0.930300  1
