# generated using pymatgen
data_ErLu2Ni9
_symmetry_space_group_name_H-M   'P 1'
_cell_length_a   8.51826880
_cell_length_b   8.51826916
_cell_length_c   8.51826831
_cell_angle_alpha   33.45797904
_cell_angle_beta   33.45797434
_cell_angle_gamma   33.45797846
_symmetry_Int_Tables_number   1
_chemical_formula_structural   ErLu2Ni9
_chemical_formula_sum   'Er1 Lu2 Ni9'
_cell_volume   167.31768356
_cell_formula_units_Z   1
loop_
 _symmetry_equiv_pos_site_id
 _symmetry_equiv_pos_as_xyz
  1  'x, y, z'
loop_
 _atom_site_type_symbol
 _atom_site_label
 _atom_site_symmetry_multiplicity
 _atom_site_fract_x
 _atom_site_fract_y
 _atom_site_fract_z
 _atom_site_occupancy
  Er  Er0  1  0.000000  0.000000  0.000000  1
  Lu  Lu1  1  0.860882  0.860882  0.860882  1
  Lu  Lu2  1  0.139118  0.139118  0.139118  1
  Ni  Ni3  1  0.500000  0.500000  0.500000  1
  Ni  Ni4  1  0.666675  0.666675  0.666675  1
  Ni  Ni5  1  0.333325  0.333325  0.333325  1
  Ni  Ni6  1  0.416234  0.919307  0.416234  1
  Ni  Ni7  1  0.416234  0.416234  0.919307  1
  Ni  Ni8  1  0.919307  0.416234  0.416234  1
  Ni  Ni9  1  0.583766  0.080693  0.583766  1
  Ni  Ni10  1  0.583766  0.583766  0.080693  1
  Ni  Ni11  1  0.080693  0.583766  0.583766  1
