# generated using pymatgen
data_Y3Tm2LuMnSb2
_symmetry_space_group_name_H-M   'P 1'
_cell_length_a   8.09638336
_cell_length_b   8.09638399
_cell_length_c   4.25818700
_cell_angle_alpha   90.00000000
_cell_angle_beta   90.00000000
_cell_angle_gamma   119.96595262
_symmetry_Int_Tables_number   1
_chemical_formula_structural   Y3Tm2LuMnSb2
_chemical_formula_sum   'Y3 Tm2 Lu1 Mn1 Sb2'
_cell_volume   241.81677214
_cell_formula_units_Z   1
loop_
 _symmetry_equiv_pos_site_id
 _symmetry_equiv_pos_as_xyz
  1  'x, y, z'
loop_
 _atom_site_type_symbol
 _atom_site_label
 _atom_site_symmetry_multiplicity
 _atom_site_fract_x
 _atom_site_fract_y
 _atom_site_fract_z
 _atom_site_occupancy
  Y  Y0  1  0.603026  0.999494  0.000000  1
  Y  Y1  1  0.999494  0.603026  0.000000  1
  Y  Y2  1  0.397787  0.397787  0.000000  1
  Tm  Tm3  1  0.234195  0.999689  0.500000  1
  Tm  Tm4  1  0.999689  0.234195  0.500000  1
  Lu  Lu5  1  0.766130  0.766130  0.500000  1
  Mn  Mn6  1  0.998635  0.998635  0.000000  1
  Sb  Sb7  1  0.334313  0.666731  0.500000  1
  Sb  Sb8  1  0.666731  0.334313  0.500000  1
