# generated using pymatgen
data_Lu9Al(Ni2Bi)2
_symmetry_space_group_name_H-M   'P 1'
_cell_length_a   8.78184958
_cell_length_b   8.78184928
_cell_length_c   8.78185003
_cell_angle_alpha   131.78618950
_cell_angle_beta   131.78619028
_cell_angle_gamma   70.56692656
_symmetry_Int_Tables_number   1
_chemical_formula_structural   Lu9Al(Ni2Bi)2
_chemical_formula_sum   'Lu9 Al1 Ni4 Bi2'
_cell_volume   368.91610639
_cell_formula_units_Z   1
loop_
 _symmetry_equiv_pos_site_id
 _symmetry_equiv_pos_as_xyz
  1  'x, y, z'
loop_
 _atom_site_type_symbol
 _atom_site_label
 _atom_site_symmetry_multiplicity
 _atom_site_fract_x
 _atom_site_fract_y
 _atom_site_fract_z
 _atom_site_occupancy
  Lu  Lu0  1  0.500000  0.500000  0.000000  1
  Lu  Lu1  1  0.807611  0.277294  0.834023  1
  Lu  Lu2  1  0.192389  0.722706  0.165977  1
  Lu  Lu3  1  0.443273  0.973589  0.165977  1
  Lu  Lu4  1  0.277294  0.443273  0.469683  1
  Lu  Lu5  1  0.026411  0.192389  0.469683  1
  Lu  Lu6  1  0.556727  0.026411  0.834023  1
  Lu  Lu7  1  0.722706  0.556727  0.530317  1
  Lu  Lu8  1  0.973589  0.807611  0.530317  1
  Al  Al9  1  0.000000  0.000000  0.000000  1
  Ni  Ni10  1  0.126801  0.631982  0.758784  1
  Ni  Ni11  1  0.873199  0.368018  0.241216  1
  Ni  Ni12  1  0.631982  0.873199  0.505181  1
  Ni  Ni13  1  0.368018  0.126801  0.494819  1
  Bi  Bi14  1  0.267689  0.267689  0.000000  1
  Bi  Bi15  1  0.732311  0.732311  0.000000  1
