# generated using pymatgen
data_Ho7Tm13Sn3Pb13
_symmetry_space_group_name_H-M   'P 1'
_cell_length_a   8.12922322
_cell_length_b   15.46966435
_cell_length_c   8.17014811
_cell_angle_alpha   90.00964583
_cell_angle_beta   89.87595258
_cell_angle_gamma   90.02228486
_symmetry_Int_Tables_number   1
_chemical_formula_structural   Ho7Tm13Sn3Pb13
_chemical_formula_sum   'Ho7 Tm13 Sn3 Pb13'
_cell_volume   1027.44554305
_cell_formula_units_Z   1
loop_
 _symmetry_equiv_pos_site_id
 _symmetry_equiv_pos_as_xyz
  1  'x, y, z'
loop_
 _atom_site_type_symbol
 _atom_site_label
 _atom_site_symmetry_multiplicity
 _atom_site_fract_x
 _atom_site_fract_y
 _atom_site_fract_z
 _atom_site_occupancy
  Ho  Ho0  1  0.962982  0.898454  0.827696  1
  Ho  Ho1  1  0.537192  0.100754  0.327392  1
  Ho  Ho2  1  0.036878  0.400181  0.175888  1
  Ho  Ho3  1  0.537216  0.399282  0.327401  1
  Ho  Ho4  1  0.036859  0.099834  0.175930  1
  Ho  Ho5  1  0.462591  0.898502  0.672615  1
  Ho  Ho6  1  0.962952  0.601514  0.827689  1
  Tm  Tm7  1  0.620728  0.623315  0.161460  1
  Tm  Tm8  1  0.121507  0.876874  0.338262  1
  Tm  Tm9  1  0.381142  0.122350  0.838064  1
  Tm  Tm10  1  0.876709  0.378701  0.659411  1
  Tm  Tm11  1  0.381181  0.377707  0.838022  1
  Tm  Tm12  1  0.876683  0.121293  0.659380  1
  Tm  Tm13  1  0.620738  0.876682  0.161481  1
  Tm  Tm14  1  0.121534  0.623140  0.338314  1
  Tm  Tm15  1  0.462509  0.601588  0.672555  1
  Tm  Tm16  1  0.788775  0.749958  0.492431  1
  Tm  Tm17  1  0.288619  0.749973  0.007576  1
  Tm  Tm18  1  0.212098  0.249992  0.505849  1
  Tm  Tm19  1  0.708963  0.250006  0.993094  1
  Sn  Sn20  1  0.425342  0.749981  0.375643  1
  Sn  Sn21  1  0.925493  0.749999  0.125172  1
  Sn  Sn22  1  0.574972  0.250006  0.624387  1
  Pb  Pb23  1  0.717723  0.458240  0.967683  1
  Pb  Pb24  1  0.217769  0.041710  0.533128  1
  Pb  Pb25  1  0.282832  0.957970  0.032262  1
  Pb  Pb26  1  0.782035  0.542498  0.466633  1
  Pb  Pb27  1  0.283036  0.542066  0.032008  1
  Pb  Pb28  1  0.782461  0.957582  0.466286  1
  Pb  Pb29  1  0.717679  0.041707  0.967664  1
  Pb  Pb30  1  0.218025  0.458487  0.533354  1
  Pb  Pb31  1  0.072984  0.249968  0.874529  1
  Pb  Pb32  1  0.651456  0.749753  0.847106  1
  Pb  Pb33  1  0.152171  0.749927  0.652589  1
  Pb  Pb34  1  0.349650  0.250008  0.153721  1
  Pb  Pb35  1  0.848522  0.249999  0.347324  1
