# generated using pymatgen
data_Nd19LuSi15Rh
_symmetry_space_group_name_H-M   'P 1'
_cell_length_a   7.77805520
_cell_length_b   7.91353046
_cell_length_c   15.10005804
_cell_angle_alpha   89.66703672
_cell_angle_beta   89.54263335
_cell_angle_gamma   89.96997746
_symmetry_Int_Tables_number   1
_chemical_formula_structural   Nd19LuSi15Rh
_chemical_formula_sum   'Nd19 Lu1 Si15 Rh1'
_cell_volume   929.39149935
_cell_formula_units_Z   1
loop_
 _symmetry_equiv_pos_site_id
 _symmetry_equiv_pos_as_xyz
  1  'x, y, z'
loop_
 _atom_site_type_symbol
 _atom_site_label
 _atom_site_symmetry_multiplicity
 _atom_site_fract_x
 _atom_site_fract_y
 _atom_site_fract_z
 _atom_site_occupancy
  Nd  Nd0  1  0.813175  0.332474  0.615453  1
  Nd  Nd1  1  0.456092  0.686155  0.897497  1
  Nd  Nd2  1  0.958229  0.814952  0.897613  1
  Nd  Nd3  1  0.185368  0.682496  0.120408  1
  Nd  Nd4  1  0.691324  0.818610  0.120961  1
  Nd  Nd5  1  0.306584  0.178181  0.877768  1
  Nd  Nd6  1  0.187149  0.678526  0.380465  1
  Nd  Nd7  1  0.043399  0.188201  0.103210  1
  Nd  Nd8  1  0.311752  0.180458  0.622389  1
  Nd  Nd9  1  0.858457  0.491162  0.259978  1
  Nd  Nd10  1  0.364422  0.006938  0.253365  1
  Nd  Nd11  1  0.535914  0.315065  0.397990  1
  Nd  Nd12  1  0.810979  0.318270  0.877857  1
  Nd  Nd13  1  0.964892  0.814522  0.599848  1
  Nd  Nd14  1  0.458782  0.686647  0.603573  1
  Nd  Nd15  1  0.040952  0.185659  0.399919  1
  Nd  Nd16  1  0.692782  0.812736  0.384414  1
  Nd  Nd17  1  0.638556  0.994037  0.747903  1
  Nd  Nd18  1  0.544284  0.311713  0.102713  1
  Lu  Lu19  1  0.138441  0.511149  0.747854  1
  Si  Si20  1  0.479153  0.602466  0.246226  1
  Si  Si21  1  0.251939  0.378334  0.247501  1
  Si  Si22  1  0.512096  0.403237  0.751082  1
  Si  Si23  1  0.631432  0.025278  0.958166  1
  Si  Si24  1  0.015962  0.103933  0.748635  1
  Si  Si25  1  0.752847  0.620690  0.750007  1
  Si  Si26  1  0.751022  0.120216  0.248754  1
  Si  Si27  1  0.364893  0.970147  0.461484  1
  Si  Si28  1  0.981920  0.901110  0.248695  1
  Si  Si29  1  0.365115  0.974491  0.041173  1
  Si  Si30  1  0.635083  0.025354  0.542334  1
  Si  Si31  1  0.133809  0.476109  0.955609  1
  Si  Si32  1  0.145214  0.476861  0.544855  1
  Si  Si33  1  0.866406  0.525806  0.038718  1
  Si  Si34  1  0.244182  0.870315  0.750609  1
  Rh  Rh35  1  0.867391  0.517706  0.454977  1
