# generated using pymatgen
data_Tm12InFe2Co2Au
_symmetry_space_group_name_H-M   'P 1'
_cell_length_a   8.23219600
_cell_length_b   8.23219623
_cell_length_c   8.23219630
_cell_angle_alpha   110.72968388
_cell_angle_beta   110.25214830
_cell_angle_gamma   107.45089829
_symmetry_Int_Tables_number   1
_chemical_formula_structural   Tm12InFe2Co2Au
_chemical_formula_sum   'Tm12 In1 Fe2 Co2 Au1'
_cell_volume   429.05601647
_cell_formula_units_Z   1
loop_
 _symmetry_equiv_pos_site_id
 _symmetry_equiv_pos_as_xyz
  1  'x, y, z'
loop_
 _atom_site_type_symbol
 _atom_site_label
 _atom_site_symmetry_multiplicity
 _atom_site_fract_x
 _atom_site_fract_y
 _atom_site_fract_z
 _atom_site_occupancy
  Tm  Tm0  1  0.186809  0.292958  0.479768  1
  Tm  Tm1  1  0.813191  0.707042  0.520232  1
  Tm  Tm2  1  0.186809  0.707042  0.893851  1
  Tm  Tm3  1  0.813191  0.292958  0.106149  1
  Tm  Tm4  1  0.314292  0.616220  0.301930  1
  Tm  Tm5  1  0.685708  0.383780  0.698070  1
  Tm  Tm6  1  0.314292  0.012362  0.698070  1
  Tm  Tm7  1  0.685708  0.987638  0.301930  1
  Tm  Tm8  1  0.427075  0.220359  0.206716  1
  Tm  Tm9  1  0.572925  0.779641  0.793284  1
  Tm  Tm10  1  0.013643  0.220359  0.793284  1
  Tm  Tm11  1  0.986357  0.779641  0.206716  1
  In  In12  1  0.500000  0.500000  0.000000  1
  Fe  Fe13  1  0.109656  0.609656  0.500000  1
  Fe  Fe14  1  0.890344  0.390344  0.500000  1
  Co  Co15  1  0.381525  0.000000  0.381525  1
  Co  Co16  1  0.618475  0.000000  0.618475  1
  Au  Au17  1  0.000000  0.000000  0.000000  1
