# generated using pymatgen
data_AcLa(Ni2B)12
_symmetry_space_group_name_H-M   'P 1'
_cell_length_a   6.07753741
_cell_length_b   6.07753729
_cell_length_c   11.10739699
_cell_angle_alpha   89.74595187
_cell_angle_beta   89.74594719
_cell_angle_gamma   104.69234039
_symmetry_Int_Tables_number   1
_chemical_formula_structural   AcLa(Ni2B)12
_chemical_formula_sum   'Ac1 La1 Ni24 B12'
_cell_volume   396.84239690
_cell_formula_units_Z   1
loop_
 _symmetry_equiv_pos_site_id
 _symmetry_equiv_pos_as_xyz
  1  'x, y, z'
loop_
 _atom_site_type_symbol
 _atom_site_label
 _atom_site_symmetry_multiplicity
 _atom_site_fract_x
 _atom_site_fract_y
 _atom_site_fract_z
 _atom_site_occupancy
  Ac  Ac0  1  0.332840  0.332840  0.498038  1
  La  La1  1  0.667138  0.667138  0.999883  1
  Ni  Ni2  1  0.353032  0.621348  0.744315  1
  Ni  Ni3  1  0.379921  0.646933  0.241968  1
  Ni  Ni4  1  0.843199  0.225416  0.932889  1
  Ni  Ni5  1  0.155162  0.776474  0.432550  1
  Ni  Ni6  1  0.776474  0.155162  0.432550  1
  Ni  Ni7  1  0.621348  0.353032  0.744315  1
  Ni  Ni8  1  0.871367  0.507217  0.562703  1
  Ni  Ni9  1  0.129315  0.493472  0.062126  1
  Ni  Ni10  1  0.493472  0.129315  0.062126  1
  Ni  Ni11  1  0.507217  0.871367  0.562703  1
  Ni  Ni12  1  0.023978  0.289881  0.727071  1
  Ni  Ni13  1  0.975426  0.709091  0.224321  1
  Ni  Ni14  1  0.709091  0.975426  0.224321  1
  Ni  Ni15  1  0.289881  0.023978  0.727071  1
  Ni  Ni16  1  0.305266  0.038021  0.263120  1
  Ni  Ni17  1  0.694957  0.960927  0.765474  1
  Ni  Ni18  1  0.960927  0.694957  0.765474  1
  Ni  Ni19  1  0.038021  0.305266  0.263120  1
  Ni  Ni20  1  0.276019  0.276019  0.900496  1
  Ni  Ni21  1  0.726998  0.726998  0.399162  1
  Ni  Ni22  1  0.927301  0.927301  0.585697  1
  Ni  Ni23  1  0.069374  0.069374  0.083812  1
  Ni  Ni24  1  0.225416  0.843199  0.932889  1
  Ni  Ni25  1  0.646933  0.379921  0.241968  1
  B  B26  1  0.485678  0.894908  0.377288  1
  B  B27  1  0.513656  0.103033  0.878257  1
  B  B28  1  0.250031  0.823139  0.112964  1
  B  B29  1  0.753279  0.176954  0.614262  1
  B  B30  1  0.176954  0.753279  0.614262  1
  B  B31  1  0.823139  0.250031  0.112964  1
  B  B32  1  0.013681  0.013681  0.839124  1
  B  B33  1  0.985176  0.985176  0.333615  1
  B  B34  1  0.335273  0.335273  0.166876  1
  B  B35  1  0.665117  0.665117  0.670674  1
  B  B36  1  0.103033  0.513656  0.878257  1
  B  B37  1  0.894908  0.485678  0.377288  1
