# generated using pymatgen
data_SmY3(Si3Rh)2
_symmetry_space_group_name_H-M   'P 1'
_cell_length_a   8.19320800
_cell_length_b   8.19320814
_cell_length_c   8.00927300
_cell_angle_alpha   90.00000000
_cell_angle_beta   90.00000000
_cell_angle_gamma   119.99999138
_symmetry_Int_Tables_number   1
_chemical_formula_structural   SmY3(Si3Rh)2
_chemical_formula_sum   'Sm2 Y6 Si12 Rh4'
_cell_volume   465.62011569
_cell_formula_units_Z   2
loop_
 _symmetry_equiv_pos_site_id
 _symmetry_equiv_pos_as_xyz
  1  'x, y, z'
loop_
 _atom_site_type_symbol
 _atom_site_label
 _atom_site_symmetry_multiplicity
 _atom_site_fract_x
 _atom_site_fract_y
 _atom_site_fract_z
 _atom_site_occupancy
  Sm  Sm0  1  0.000000  0.000000  0.250000  1
  Sm  Sm1  1  0.000000  0.000000  0.750000  1
  Y  Y2  1  0.508597  0.491403  0.250000  1
  Y  Y3  1  0.508597  0.017195  0.250000  1
  Y  Y4  1  0.982805  0.491403  0.250000  1
  Y  Y5  1  0.491403  0.508597  0.750000  1
  Y  Y6  1  0.491403  0.982805  0.750000  1
  Y  Y7  1  0.017195  0.508597  0.750000  1
  Si  Si8  1  0.167683  0.832317  0.499968  1
  Si  Si9  1  0.167683  0.335366  0.499968  1
  Si  Si10  1  0.664634  0.832317  0.499968  1
  Si  Si11  1  0.832317  0.167683  0.500032  1
  Si  Si12  1  0.832317  0.664634  0.500032  1
  Si  Si13  1  0.335366  0.167683  0.500032  1
  Si  Si14  1  0.832317  0.167683  0.999968  1
  Si  Si15  1  0.832317  0.664634  0.999968  1
  Si  Si16  1  0.335366  0.167683  0.999968  1
  Si  Si17  1  0.167683  0.832317  0.000032  1
  Si  Si18  1  0.167683  0.335366  0.000032  1
  Si  Si19  1  0.664634  0.832317  0.000032  1
  Rh  Rh20  1  0.333333  0.666667  0.467746  1
  Rh  Rh21  1  0.666667  0.333333  0.532254  1
  Rh  Rh22  1  0.666667  0.333333  0.967746  1
  Rh  Rh23  1  0.333333  0.666667  0.032254  1
