# generated using pymatgen
data_DyEr3(MgPt)4
_symmetry_space_group_name_H-M   'P 1'
_cell_length_a   4.17374600
_cell_length_b   7.14387153
_cell_length_c   8.67530700
_cell_angle_alpha   91.31153296
_cell_angle_beta   90.00000000
_cell_angle_gamma   90.00000000
_symmetry_Int_Tables_number   1
_chemical_formula_structural   DyEr3(MgPt)4
_chemical_formula_sum   'Dy1 Er3 Mg4 Pt4'
_cell_volume   258.60130619
_cell_formula_units_Z   1
loop_
 _symmetry_equiv_pos_site_id
 _symmetry_equiv_pos_as_xyz
  1  'x, y, z'
loop_
 _atom_site_type_symbol
 _atom_site_label
 _atom_site_symmetry_multiplicity
 _atom_site_fract_x
 _atom_site_fract_y
 _atom_site_fract_z
 _atom_site_occupancy
  Dy  Dy0  1  0.250000  0.961504  0.324947  1
  Er  Er1  1  0.250000  0.461398  0.173204  1
  Er  Er2  1  0.750000  0.039586  0.674913  1
  Er  Er3  1  0.750000  0.538094  0.826220  1
  Mg  Mg4  1  0.250000  0.864676  0.939246  1
  Mg  Mg5  1  0.250000  0.365044  0.561383  1
  Mg  Mg6  1  0.750000  0.134992  0.060174  1
  Mg  Mg7  1  0.750000  0.634775  0.439880  1
  Pt  Pt8  1  0.250000  0.253796  0.872462  1
  Pt  Pt9  1  0.250000  0.754543  0.627728  1
  Pt  Pt10  1  0.750000  0.743981  0.126333  1
  Pt  Pt11  1  0.750000  0.247610  0.373510  1
