# generated using pymatgen
data_Ho2Tm4Al24Ir3Os5
_symmetry_space_group_name_H-M   'P 1'
_cell_length_a   8.77624361
_cell_length_b   8.80731552
_cell_length_c   9.54041914
_cell_angle_alpha   89.82754545
_cell_angle_beta   90.17995505
_cell_angle_gamma   119.93622912
_symmetry_Int_Tables_number   1
_chemical_formula_structural   Ho2Tm4Al24Ir3Os5
_chemical_formula_sum   'Ho2 Tm4 Al24 Ir3 Os5'
_cell_volume   639.03741412
_cell_formula_units_Z   1
loop_
 _symmetry_equiv_pos_site_id
 _symmetry_equiv_pos_as_xyz
  1  'x, y, z'
loop_
 _atom_site_type_symbol
 _atom_site_label
 _atom_site_symmetry_multiplicity
 _atom_site_fract_x
 _atom_site_fract_y
 _atom_site_fract_z
 _atom_site_occupancy
  Ho  Ho0  1  0.194359  0.386054  0.251212  1
  Ho  Ho1  1  0.805641  0.613946  0.748788  1
  Tm  Tm2  1  0.609149  0.807493  0.251633  1
  Tm  Tm3  1  0.390851  0.192507  0.748367  1
  Tm  Tm4  1  0.198585  0.810897  0.249960  1
  Tm  Tm5  1  0.801415  0.189103  0.750040  1
  Al  Al6  1  0.333408  0.667606  0.025222  1
  Al  Al7  1  0.666592  0.332394  0.974778  1
  Al  Al8  1  0.666067  0.332679  0.523920  1
  Al  Al9  1  0.333933  0.667321  0.476080  1
  Al  Al10  1  0.164547  0.326280  0.577293  1
  Al  Al11  1  0.835453  0.673720  0.422707  1
  Al  Al12  1  0.672879  0.835671  0.576135  1
  Al  Al13  1  0.837018  0.673829  0.077068  1
  Al  Al14  1  0.327121  0.164329  0.423865  1
  Al  Al15  1  0.162982  0.326171  0.922932  1
  Al  Al16  1  0.164366  0.837110  0.576013  1
  Al  Al17  1  0.326599  0.162602  0.075742  1
  Al  Al18  1  0.835634  0.162890  0.423987  1
  Al  Al19  1  0.673401  0.837398  0.924258  1
  Al  Al20  1  0.835432  0.162613  0.076494  1
  Al  Al21  1  0.164568  0.837387  0.923506  1
  Al  Al22  1  0.562528  0.125061  0.249556  1
  Al  Al23  1  0.437472  0.874939  0.750444  1
  Al  Al24  1  0.875956  0.439181  0.249494  1
  Al  Al25  1  0.124044  0.560819  0.750506  1
  Al  Al26  1  0.562488  0.439508  0.250291  1
  Al  Al27  1  0.437512  0.560492  0.749709  1
  Al  Al28  1  0.999803  0.001005  0.249985  1
  Al  Al29  1  0.000197  0.998995  0.750015  1
  Ir  Ir30  1  0.000000  0.500000  0.000000  1
  Ir  Ir31  1  0.500000  0.500000  0.000000  1
  Ir  Ir32  1  0.000000  0.500000  0.500000  1
  Os  Os33  1  0.500000  0.000000  0.000000  1
  Os  Os34  1  0.500000  0.000000  0.500000  1
  Os  Os35  1  0.500000  0.500000  0.500000  1
  Os  Os36  1  0.000000  0.000000  0.000000  1
  Os  Os37  1  0.000000  0.000000  0.500000  1
