# generated using pymatgen
data_SrCa(CoO2)6
_symmetry_space_group_name_H-M   'P 1'
_cell_length_a   4.92326545
_cell_length_b   5.87576894
_cell_length_c   8.49642300
_cell_angle_alpha   89.99996100
_cell_angle_beta   89.99998836
_cell_angle_gamma   74.38400447
_symmetry_Int_Tables_number   1
_chemical_formula_structural   SrCa(CoO2)6
_chemical_formula_sum   'Sr1 Ca1 Co6 O12'
_cell_volume   236.71174844
_cell_formula_units_Z   1
loop_
 _symmetry_equiv_pos_site_id
 _symmetry_equiv_pos_as_xyz
  1  'x, y, z'
loop_
 _atom_site_type_symbol
 _atom_site_label
 _atom_site_symmetry_multiplicity
 _atom_site_fract_x
 _atom_site_fract_y
 _atom_site_fract_z
 _atom_site_occupancy
  Sr  Sr0  1  0.500001  0.500000  0.667039  1
  Ca  Ca1  1  0.000000  0.499999  0.166166  1
  Co  Co2  1  0.000000  0.000000  0.666807  1
  Co  Co3  1  0.500000  0.000000  0.835482  1
  Co  Co4  1  0.500000  0.000000  0.497891  1
  Co  Co5  1  0.500000  0.000000  0.166608  1
  Co  Co6  1  0.000000  0.000000  0.332733  1
  Co  Co7  1  0.000000  0.000000  0.000539  1
  O  O8  1  0.776068  0.177192  0.166620  1
  O  O9  1  0.274771  0.171319  0.666828  1
  O  O10  1  0.223931  0.822808  0.166621  1
  O  O11  1  0.725229  0.828681  0.666828  1
  O  O12  1  0.275081  0.178506  0.004691  1
  O  O13  1  0.779737  0.172662  0.500920  1
  O  O14  1  0.275098  0.178422  0.328367  1
  O  O15  1  0.779345  0.173076  0.832608  1
  O  O16  1  0.724902  0.821578  0.328367  1
  O  O17  1  0.220655  0.826925  0.832608  1
  O  O18  1  0.724919  0.821493  0.004691  1
  O  O19  1  0.220263  0.827339  0.500920  1
