# generated using pymatgen
data_Dy15Ho4ErBi12
_symmetry_space_group_name_H-M   'P 1'
_cell_length_a   8.26039035
_cell_length_b   9.51239301
_cell_length_c   12.04420105
_cell_angle_alpha   90.00017934
_cell_angle_beta   90.02193323
_cell_angle_gamma   90.00321907
_symmetry_Int_Tables_number   1
_chemical_formula_structural   Dy15Ho4ErBi12
_chemical_formula_sum   'Dy15 Ho4 Er1 Bi12'
_cell_volume   946.38602792
_cell_formula_units_Z   1
loop_
 _symmetry_equiv_pos_site_id
 _symmetry_equiv_pos_as_xyz
  1  'x, y, z'
loop_
 _atom_site_type_symbol
 _atom_site_label
 _atom_site_symmetry_multiplicity
 _atom_site_fract_x
 _atom_site_fract_y
 _atom_site_fract_z
 _atom_site_occupancy
  Dy  Dy0  1  0.352668  0.749908  0.215330  1
  Dy  Dy1  1  0.852503  0.749991  0.284588  1
  Dy  Dy2  1  0.647322  0.250034  0.784678  1
  Dy  Dy3  1  0.147561  0.250176  0.715423  1
  Dy  Dy4  1  0.807357  0.064124  0.558561  1
  Dy  Dy5  1  0.692651  0.935770  0.058517  1
  Dy  Dy6  1  0.192673  0.564102  0.441454  1
  Dy  Dy7  1  0.475210  0.249936  0.488074  1
  Dy  Dy8  1  0.975284  0.250019  0.011858  1
  Dy  Dy9  1  0.524794  0.750104  0.511952  1
  Dy  Dy10  1  0.024763  0.749961  0.988128  1
  Dy  Dy11  1  0.312583  0.250025  0.218477  1
  Dy  Dy12  1  0.812576  0.250028  0.281460  1
  Dy  Dy13  1  0.687430  0.749918  0.781502  1
  Dy  Dy14  1  0.187427  0.750053  0.718521  1
  Ho  Ho15  1  0.192419  0.935670  0.441472  1
  Ho  Ho16  1  0.307479  0.064423  0.941494  1
  Ho  Ho17  1  0.807545  0.435691  0.558509  1
  Ho  Ho18  1  0.307330  0.435632  0.941468  1
  Er  Er19  1  0.692540  0.564550  0.058572  1
  Bi  Bi20  1  0.407330  0.749760  0.956818  1
  Bi  Bi21  1  0.907350  0.749718  0.543130  1
  Bi  Bi22  1  0.592545  0.250667  0.043115  1
  Bi  Bi23  1  0.092640  0.249699  0.456874  1
  Bi  Bi24  1  0.564835  0.995531  0.325192  1
  Bi  Bi25  1  0.064812  0.504494  0.174709  1
  Bi  Bi26  1  0.435118  0.495506  0.674897  1
  Bi  Bi27  1  0.935138  0.004488  0.825226  1
  Bi  Bi28  1  0.435014  0.004504  0.674827  1
  Bi  Bi29  1  0.935113  0.495481  0.825275  1
  Bi  Bi30  1  0.564977  0.504499  0.325111  1
  Bi  Bi31  1  0.065009  0.995538  0.174789  1
