# generated using pymatgen
data_Yb6HoErBi6
_symmetry_space_group_name_H-M   'P 1'
_cell_length_a   8.16647440
_cell_length_b   8.36033948
_cell_length_c   8.36033834
_cell_angle_alpha   109.93618581
_cell_angle_beta   109.00215729
_cell_angle_gamma   109.00216197
_symmetry_Int_Tables_number   1
_chemical_formula_structural   Yb6HoErBi6
_chemical_formula_sum   'Yb6 Ho1 Er1 Bi6'
_cell_volume   441.91814620
_cell_formula_units_Z   1
loop_
 _symmetry_equiv_pos_site_id
 _symmetry_equiv_pos_as_xyz
  1  'x, y, z'
loop_
 _atom_site_type_symbol
 _atom_site_label
 _atom_site_symmetry_multiplicity
 _atom_site_fract_x
 _atom_site_fract_y
 _atom_site_fract_z
 _atom_site_occupancy
  Yb  Yb0  1  0.500760  0.998773  0.646492  1
  Yb  Yb1  1  0.354355  0.352258  0.353631  1
  Yb  Yb2  1  0.502098  0.001373  0.147742  1
  Yb  Yb3  1  0.001986  0.647719  0.501227  1
  Yb  Yb4  1  0.854267  0.853508  0.852281  1
  Yb  Yb5  1  0.000724  0.146369  0.498627  1
  Ho  Ho6  1  0.141683  0.500000  0.000000  1
  Er  Er7  1  0.641511  0.500000  0.000000  1
  Bi  Bi8  1  0.377155  0.622727  0.756700  1
  Bi  Bi9  1  0.876641  0.256497  0.122847  1
  Bi  Bi10  1  0.620455  0.743300  0.366027  1
  Bi  Bi11  1  0.120144  0.866350  0.243503  1
  Bi  Bi12  1  0.254428  0.133973  0.877273  1
  Bi  Bi13  1  0.753794  0.377153  0.633650  1
