# generated using pymatgen
data_Hf12Zn5Cu6PdN4
_symmetry_space_group_name_H-M   'P 1'
_cell_length_a   8.41946222
_cell_length_b   8.41166610
_cell_length_c   8.40857400
_cell_angle_alpha   60.01214352
_cell_angle_beta   60.04272306
_cell_angle_gamma   60.01763953
_symmetry_Int_Tables_number   1
_chemical_formula_structural   Hf12Zn5Cu6PdN4
_chemical_formula_sum   'Hf12 Zn5 Cu6 Pd1 N4'
_cell_volume   421.31947736
_cell_formula_units_Z   1
loop_
 _symmetry_equiv_pos_site_id
 _symmetry_equiv_pos_as_xyz
  1  'x, y, z'
loop_
 _atom_site_type_symbol
 _atom_site_label
 _atom_site_symmetry_multiplicity
 _atom_site_fract_x
 _atom_site_fract_y
 _atom_site_fract_z
 _atom_site_occupancy
  Hf  Hf0  1  0.810869  0.188439  0.189175  1
  Hf  Hf1  1  0.186049  0.811053  0.191105  1
  Hf  Hf2  1  0.810632  0.810557  0.189406  1
  Hf  Hf3  1  0.186049  0.811054  0.811793  1
  Hf  Hf4  1  0.810870  0.188439  0.811517  1
  Hf  Hf5  1  0.186706  0.190830  0.811232  1
  Hf  Hf6  1  0.439882  0.059059  0.060673  1
  Hf  Hf7  1  0.064206  0.436545  0.062518  1
  Hf  Hf8  1  0.437673  0.437887  0.062220  1
  Hf  Hf9  1  0.064206  0.436544  0.436731  1
  Hf  Hf10  1  0.439881  0.059059  0.440387  1
  Hf  Hf11  1  0.063069  0.059868  0.438532  1
  Zn  Zn12  1  0.829825  0.513726  0.828224  1
  Zn  Zn13  1  0.626501  0.621728  0.132901  1
  Zn  Zn14  1  0.626501  0.621729  0.618870  1
  Zn  Zn15  1  0.128852  0.625773  0.622688  1
  Zn  Zn16  1  0.629179  0.128696  0.621062  1
  Cu  Cu17  1  0.415812  0.415770  0.750865  1
  Cu  Cu18  1  0.415813  0.415770  0.417553  1
  Cu  Cu19  1  0.753068  0.414518  0.416207  1
  Cu  Cu20  1  0.415456  0.750703  0.416920  1
  Cu  Cu21  1  0.834356  0.833907  0.498475  1
  Cu  Cu22  1  0.834357  0.833908  0.833262  1
  Pd  Pd23  1  0.491894  0.836183  0.835961  1
  N  N24  1  0.125091  0.124159  0.625340  1
  N  N25  1  0.125091  0.124159  0.125410  1
  N  N26  1  0.623704  0.124259  0.126019  1
  N  N27  1  0.124408  0.625680  0.124956  1
