# generated using pymatgen
data_Pr4TcBr4
_symmetry_space_group_name_H-M   'P 1'
_cell_length_a   9.48561784
_cell_length_b   9.48561720
_cell_length_c   6.78488938
_cell_angle_alpha   89.40698135
_cell_angle_beta   89.40697379
_cell_angle_gamma   89.39139344
_symmetry_Int_Tables_number   1
_chemical_formula_structural   Pr4TcBr4
_chemical_formula_sum   'Pr8 Tc2 Br8'
_cell_volume   610.38443321
_cell_formula_units_Z   2
loop_
 _symmetry_equiv_pos_site_id
 _symmetry_equiv_pos_as_xyz
  1  'x, y, z'
loop_
 _atom_site_type_symbol
 _atom_site_label
 _atom_site_symmetry_multiplicity
 _atom_site_fract_x
 _atom_site_fract_y
 _atom_site_fract_z
 _atom_site_occupancy
  Pr  Pr0  1  0.752439  0.099077  0.989470  1
  Pr  Pr1  1  0.099077  0.752439  0.489470  1
  Pr  Pr2  1  0.098663  0.248451  0.999108  1
  Pr  Pr3  1  0.248451  0.098663  0.499108  1
  Pr  Pr4  1  0.901337  0.751549  0.000892  1
  Pr  Pr5  1  0.900923  0.247561  0.510530  1
  Pr  Pr6  1  0.247561  0.900923  0.010530  1
  Pr  Pr7  1  0.751549  0.901337  0.500892  1
  Tc  Tc8  1  0.997656  0.002344  0.250000  1
  Tc  Tc9  1  0.002344  0.997656  0.750000  1
  Br  Br10  1  0.588260  0.180670  0.565649  1
  Br  Br11  1  0.820676  0.591507  0.428050  1
  Br  Br12  1  0.408493  0.179324  0.071950  1
  Br  Br13  1  0.179324  0.408493  0.571950  1
  Br  Br14  1  0.591507  0.820676  0.928050  1
  Br  Br15  1  0.411740  0.819330  0.434351  1
  Br  Br16  1  0.180670  0.588260  0.065649  1
  Br  Br17  1  0.819330  0.411740  0.934351  1
