# generated using pymatgen
data_Y3Co8P6Os
_symmetry_space_group_name_H-M   'P 1'
_cell_length_a   3.72958800
_cell_length_b   10.52016300
_cell_length_c   12.27220800
_cell_angle_alpha   90.00000000
_cell_angle_beta   90.00000000
_cell_angle_gamma   90.00000000
_symmetry_Int_Tables_number   1
_chemical_formula_structural   Y3Co8P6Os
_chemical_formula_sum   'Y6 Co16 P12 Os2'
_cell_volume   481.51080290
_cell_formula_units_Z   2
loop_
 _symmetry_equiv_pos_site_id
 _symmetry_equiv_pos_as_xyz
  1  'x, y, z'
loop_
 _atom_site_type_symbol
 _atom_site_label
 _atom_site_symmetry_multiplicity
 _atom_site_fract_x
 _atom_site_fract_y
 _atom_site_fract_z
 _atom_site_occupancy
  Y  Y0  1  0.000000  0.500000  0.524186  1
  Y  Y1  1  0.500000  0.000000  0.475814  1
  Y  Y2  1  0.500000  0.817099  0.207035  1
  Y  Y3  1  0.500000  0.182901  0.207035  1
  Y  Y4  1  0.000000  0.682901  0.792965  1
  Y  Y5  1  0.000000  0.317099  0.792965  1
  Co  Co6  1  0.500000  0.500000  0.703748  1
  Co  Co7  1  0.000000  0.000000  0.296252  1
  Co  Co8  1  0.000000  0.500000  0.987042  1
  Co  Co9  1  0.500000  0.000000  0.012958  1
  Co  Co10  1  0.500000  0.332732  0.990076  1
  Co  Co11  1  0.500000  0.667268  0.990076  1
  Co  Co12  1  0.000000  0.167268  0.009924  1
  Co  Co13  1  0.000000  0.832732  0.009924  1
  Co  Co14  1  0.500000  0.297781  0.430703  1
  Co  Co15  1  0.500000  0.702219  0.430703  1
  Co  Co16  1  0.000000  0.202219  0.569297  1
  Co  Co17  1  0.000000  0.797781  0.569297  1
  Co  Co18  1  0.500000  0.879699  0.708981  1
  Co  Co19  1  0.500000  0.120301  0.708981  1
  Co  Co20  1  0.000000  0.620301  0.291019  1
  Co  Co21  1  0.000000  0.379699  0.291019  1
  P  P22  1  0.500000  0.500000  0.881065  1
  P  P23  1  0.000000  0.000000  0.118935  1
  P  P24  1  0.500000  0.500000  0.349961  1
  P  P25  1  0.000000  0.000000  0.650039  1
  P  P26  1  0.500000  0.311410  0.615890  1
  P  P27  1  0.500000  0.688590  0.615890  1
  P  P28  1  0.000000  0.188590  0.384110  1
  P  P29  1  0.000000  0.811410  0.384110  1
  P  P30  1  0.500000  0.846765  0.893254  1
  P  P31  1  0.500000  0.153235  0.893254  1
  P  P32  1  0.000000  0.653235  0.106746  1
  P  P33  1  0.000000  0.346765  0.106746  1
  Os  Os34  1  0.500000  0.500000  0.158656  1
  Os  Os35  1  0.000000  0.000000  0.841344  1
