# generated using pymatgen
data_Dy3BiRu4F28
_symmetry_space_group_name_H-M   'P 1'
_cell_length_a   5.56643087
_cell_length_b   8.97827038
_cell_length_c   12.02823765
_cell_angle_alpha   63.24550312
_cell_angle_beta   89.93913376
_cell_angle_gamma   89.95454755
_symmetry_Int_Tables_number   1
_chemical_formula_structural   Dy3BiRu4F28
_chemical_formula_sum   'Dy3 Bi1 Ru4 F28'
_cell_volume   536.77868772
_cell_formula_units_Z   1
loop_
 _symmetry_equiv_pos_site_id
 _symmetry_equiv_pos_as_xyz
  1  'x, y, z'
loop_
 _atom_site_type_symbol
 _atom_site_label
 _atom_site_symmetry_multiplicity
 _atom_site_fract_x
 _atom_site_fract_y
 _atom_site_fract_z
 _atom_site_occupancy
  Dy  Dy0  1  0.259241  0.197367  0.729988  1
  Dy  Dy1  1  0.241495  0.188958  0.231520  1
  Dy  Dy2  1  0.741781  0.811925  0.268020  1
  Bi  Bi3  1  0.760935  0.817001  0.767549  1
  Ru  Ru4  1  0.755396  0.268234  0.957807  1
  Ru  Ru5  1  0.254077  0.727223  0.540830  1
  Ru  Ru6  1  0.244123  0.727325  0.047077  1
  Ru  Ru7  1  0.744531  0.275232  0.454105  1
  F  F8  1  0.439067  0.704332  0.919481  1
  F  F9  1  0.949767  0.294869  0.580343  1
  F  F10  1  0.551417  0.291466  0.082702  1
  F  F11  1  0.055091  0.705369  0.414237  1
  F  F12  1  0.453585  0.281664  0.546959  1
  F  F13  1  0.945470  0.718667  0.960843  1
  F  F14  1  0.551309  0.719768  0.452679  1
  F  F15  1  0.047953  0.278260  0.048032  1
  F  F16  1  0.770526  0.503503  0.862411  1
  F  F17  1  0.268910  0.488174  0.636981  1
  F  F18  1  0.233179  0.488744  0.140515  1
  F  F19  1  0.732813  0.512866  0.359850  1
  F  F20  1  0.754400  0.031286  0.050242  1
  F  F21  1  0.252957  0.964110  0.449895  1
  F  F22  1  0.244457  0.963330  0.953925  1
  F  F23  1  0.744762  0.037350  0.545711  1
  F  F24  1  0.963145  0.727645  0.631741  1
  F  F25  1  0.468696  0.267145  0.861385  1
  F  F26  1  0.028159  0.269315  0.357925  1
  F  F27  1  0.532018  0.730911  0.141104  1
  F  F28  1  0.046928  0.749590  0.175240  1
  F  F29  1  0.541302  0.252052  0.327964  1
  F  F30  1  0.956838  0.246903  0.829465  1
  F  F31  1  0.442518  0.745748  0.672223  1
  F  F32  1  0.424555  0.974126  0.233362  1
  F  F33  1  0.924819  0.026201  0.266725  1
  F  F34  1  0.583742  0.036086  0.769717  1
  F  F35  1  0.090035  0.977259  0.731445  1
