# generated using pymatgen
data_Tm5Lu3Tc3B24Rh
_symmetry_space_group_name_H-M   'P 1'
_cell_length_a   3.62513900
_cell_length_b   9.06502925
_cell_length_c   11.43396107
_cell_angle_alpha   90.10872307
_cell_angle_beta   90.00000000
_cell_angle_gamma   90.00000000
_symmetry_Int_Tables_number   1
_chemical_formula_structural   Tm5Lu3Tc3B24Rh
_chemical_formula_sum   'Tm5 Lu3 Tc3 B24 Rh1'
_cell_volume   375.74205012
_cell_formula_units_Z   1
loop_
 _symmetry_equiv_pos_site_id
 _symmetry_equiv_pos_as_xyz
  1  'x, y, z'
loop_
 _atom_site_type_symbol
 _atom_site_label
 _atom_site_symmetry_multiplicity
 _atom_site_fract_x
 _atom_site_fract_y
 _atom_site_fract_z
 _atom_site_occupancy
  Tm  Tm0  1  0.500000  0.317235  0.415946  1
  Tm  Tm1  1  0.500000  0.678940  0.591234  1
  Tm  Tm2  1  0.500000  0.177846  0.912656  1
  Tm  Tm3  1  0.500000  0.826776  0.080896  1
  Tm  Tm4  1  0.500000  0.440588  0.128646  1
  Lu  Lu5  1  0.500000  0.557379  0.870884  1
  Lu  Lu6  1  0.500000  0.056252  0.629462  1
  Lu  Lu7  1  0.500000  0.943835  0.370125  1
  Tc  Tc8  1  0.500000  0.137957  0.180596  1
  Tc  Tc9  1  0.500000  0.861668  0.820384  1
  Tc  Tc10  1  0.500000  0.362507  0.678052  1
  B  B11  1  0.000000  0.100124  0.471815  1
  B  B12  1  0.000000  0.896703  0.527776  1
  B  B13  1  0.000000  0.398534  0.971852  1
  B  B14  1  0.000000  0.603010  0.028555  1
  B  B15  1  0.000000  0.129885  0.315945  1
  B  B16  1  0.000000  0.869394  0.684591  1
  B  B17  1  0.000000  0.370197  0.815043  1
  B  B18  1  0.000000  0.631231  0.183427  1
  B  B19  1  0.000000  0.053345  0.066128  1
  B  B20  1  0.000000  0.947541  0.932962  1
  B  B21  1  0.000000  0.446601  0.566052  1
  B  B22  1  0.000000  0.553796  0.434332  1
  B  B23  1  0.000000  0.481950  0.288104  1
  B  B24  1  0.000000  0.519327  0.712431  1
  B  B25  1  0.000000  0.018981  0.786986  1
  B  B26  1  0.000000  0.981239  0.212127  1
  B  B27  1  0.000000  0.249674  0.080769  1
  B  B28  1  0.000000  0.750884  0.919286  1
  B  B29  1  0.000000  0.249292  0.580566  1
  B  B30  1  0.000000  0.749788  0.420709  1
  B  B31  1  0.000000  0.292016  0.236110  1
  B  B32  1  0.000000  0.707831  0.765250  1
  B  B33  1  0.000000  0.207977  0.734820  1
  B  B34  1  0.000000  0.791597  0.264386  1
  Rh  Rh35  1  0.500000  0.638100  0.321099  1
