# generated using pymatgen
data_HoLu7Ti10(NbSi8)2
_symmetry_space_group_name_H-M   'P 1'
_cell_length_a   6.99245193
_cell_length_b   6.99255851
_cell_length_c   12.85445293
_cell_angle_alpha   89.97070373
_cell_angle_beta   90.09712927
_cell_angle_gamma   89.98009462
_symmetry_Int_Tables_number   1
_chemical_formula_structural   HoLu7Ti10(NbSi8)2
_chemical_formula_sum   'Ho1 Lu7 Ti10 Nb2 Si16'
_cell_volume   628.51911430
_cell_formula_units_Z   1
loop_
 _symmetry_equiv_pos_site_id
 _symmetry_equiv_pos_as_xyz
  1  'x, y, z'
loop_
 _atom_site_type_symbol
 _atom_site_label
 _atom_site_symmetry_multiplicity
 _atom_site_fract_x
 _atom_site_fract_y
 _atom_site_fract_z
 _atom_site_occupancy
  Ho  Ho0  1  0.997382  0.658598  0.033250  1
  Lu  Lu1  1  0.341427  0.001993  0.466832  1
  Lu  Lu2  1  0.497794  0.840938  0.716819  1
  Lu  Lu3  1  0.501240  0.158167  0.217014  1
  Lu  Lu4  1  0.841427  0.498280  0.283274  1
  Lu  Lu5  1  0.158790  0.501813  0.782979  1
  Lu  Lu6  1  0.658301  0.998592  0.966741  1
  Lu  Lu7  1  0.002195  0.340888  0.533048  1
  Ti  Ti8  1  0.826966  0.173219  0.749611  1
  Ti  Ti9  1  0.672912  0.673326  0.500086  1
  Ti  Ti10  1  0.151974  0.007280  0.875194  1
  Ti  Ti11  1  0.492427  0.651234  0.125256  1
  Ti  Ti12  1  0.506737  0.349437  0.625391  1
  Ti  Ti13  1  0.650543  0.492201  0.874544  1
  Ti  Ti14  1  0.348793  0.507390  0.374686  1
  Ti  Ti15  1  0.849322  0.993147  0.375361  1
  Ti  Ti16  1  0.007670  0.151748  0.125090  1
  Ti  Ti17  1  0.993285  0.849526  0.624386  1
  Nb  Nb18  1  0.327253  0.326765  0.999861  1
  Nb  Nb19  1  0.173157  0.827252  0.250408  1
  Si  Si20  1  0.202909  0.132248  0.682720  1
  Si  Si21  1  0.369257  0.704473  0.932195  1
  Si  Si22  1  0.632484  0.296948  0.433228  1
  Si  Si23  1  0.703144  0.366747  0.066885  1
  Si  Si24  1  0.297115  0.632289  0.567181  1
  Si  Si25  1  0.795014  0.869058  0.184027  1
  Si  Si26  1  0.132118  0.204036  0.317629  1
  Si  Si27  1  0.867475  0.797332  0.816173  1
  Si  Si28  1  0.294604  0.953614  0.063828  1
  Si  Si29  1  0.547509  0.792918  0.315301  1
  Si  Si30  1  0.454152  0.205927  0.813400  1
  Si  Si31  1  0.793097  0.546505  0.684962  1
  Si  Si32  1  0.206905  0.452214  0.186840  1
  Si  Si33  1  0.706882  0.046550  0.564883  1
  Si  Si34  1  0.951921  0.291325  0.934445  1
  Si  Si35  1  0.045818  0.706023  0.436467  1
