# generated using pymatgen
data_Nb2B(IrRu2)2
_symmetry_space_group_name_H-M   'P 1'
_cell_length_a   5.65820513
_cell_length_b   5.65820593
_cell_length_c   5.64089200
_cell_angle_alpha   60.10117139
_cell_angle_beta   60.10116677
_cell_angle_gamma   59.77990192
_symmetry_Int_Tables_number   1
_chemical_formula_structural   Nb2B(IrRu2)2
_chemical_formula_sum   'Nb2 B1 Ir2 Ru4'
_cell_volume   127.67999064
_cell_formula_units_Z   1
loop_
 _symmetry_equiv_pos_site_id
 _symmetry_equiv_pos_as_xyz
  1  'x, y, z'
loop_
 _atom_site_type_symbol
 _atom_site_label
 _atom_site_symmetry_multiplicity
 _atom_site_fract_x
 _atom_site_fract_y
 _atom_site_fract_z
 _atom_site_occupancy
  Nb  Nb0  1  0.250017  0.250017  0.250161  1
  Nb  Nb1  1  0.749983  0.749983  0.750195  1
  B  B2  1  0.500000  0.500000  0.503722  1
  Ir  Ir3  1  0.759182  0.240818  0.240608  1
  Ir  Ir4  1  0.240818  0.759182  0.240608  1
  Ru  Ru5  1  0.757994  0.757994  0.241260  1
  Ru  Ru6  1  0.242006  0.242006  0.757249  1
  Ru  Ru7  1  0.759081  0.240919  0.758098  1
  Ru  Ru8  1  0.240919  0.759081  0.758098  1
