# generated using pymatgen
data_Ta4NbCo16Si7Tc
_symmetry_space_group_name_H-M   'P 1'
_cell_length_a   7.89243581
_cell_length_b   7.89526729
_cell_length_c   7.89719871
_cell_angle_alpha   59.97041390
_cell_angle_beta   60.01236894
_cell_angle_gamma   59.98904668
_symmetry_Int_Tables_number   1
_chemical_formula_structural   Ta4NbCo16Si7Tc
_chemical_formula_sum   'Ta4 Nb1 Co16 Si7 Tc1'
_cell_volume   347.89114241
_cell_formula_units_Z   1
loop_
 _symmetry_equiv_pos_site_id
 _symmetry_equiv_pos_as_xyz
  1  'x, y, z'
loop_
 _atom_site_type_symbol
 _atom_site_label
 _atom_site_symmetry_multiplicity
 _atom_site_fract_x
 _atom_site_fract_y
 _atom_site_fract_z
 _atom_site_occupancy
  Ta  Ta0  1  0.793921  0.206037  0.206001  1
  Ta  Ta1  1  0.800811  0.199179  0.796477  1
  Ta  Ta2  1  0.799936  0.796193  0.199693  1
  Ta  Ta3  1  0.203883  0.199980  0.795813  1
  Nb  Nb4  1  0.203141  0.796907  0.198843  1
  Co  Co5  1  0.382690  0.379652  0.381023  1
  Co  Co6  1  0.503495  0.834933  0.833653  1
  Co  Co7  1  0.620291  0.617384  0.143299  1
  Co  Co8  1  0.164886  0.172172  0.497696  1
  Co  Co9  1  0.832517  0.837712  0.495962  1
  Co  Co10  1  0.162279  0.167386  0.166190  1
  Co  Co11  1  0.827777  0.835199  0.834758  1
  Co  Co12  1  0.382002  0.382803  0.853811  1
  Co  Co13  1  0.833889  0.494362  0.837576  1
  Co  Co14  1  0.617123  0.618111  0.618565  1
  Co  Co15  1  0.382077  0.853817  0.383410  1
  Co  Co16  1  0.146112  0.618050  0.619273  1
  Co  Co17  1  0.619608  0.143691  0.617828  1
  Co  Co18  1  0.165123  0.496475  0.172073  1
  Co  Co19  1  0.856360  0.380352  0.381176  1
  Co  Co20  1  0.505724  0.166037  0.165861  1
  Si  Si21  1  0.006389  0.993655  0.504662  1
  Si  Si22  1  0.494733  0.994101  0.504633  1
  Si  Si23  1  0.502003  0.498119  0.497441  1
  Si  Si24  1  0.005755  0.505232  0.993612  1
  Si  Si25  1  0.494988  0.505064  0.993891  1
  Si  Si26  1  0.497455  0.002166  0.002470  1
  Si  Si27  1  0.997747  0.502517  0.502073  1
  Tc  Tc28  1  0.197287  0.802715  0.802236  1
