# generated using pymatgen
data_Nd4Ga5(Ir2Rh)3
_symmetry_space_group_name_H-M   'P 1'
_cell_length_a   12.29469938
_cell_length_b   12.29469959
_cell_length_c   12.29469971
_cell_angle_alpha   26.54413998
_cell_angle_beta   26.54414788
_cell_angle_gamma   26.54414391
_symmetry_Int_Tables_number   1
_chemical_formula_structural   Nd4Ga5(Ir2Rh)3
_chemical_formula_sum   'Nd4 Ga5 Ir6 Rh3'
_cell_volume   327.16932507
_cell_formula_units_Z   1
loop_
 _symmetry_equiv_pos_site_id
 _symmetry_equiv_pos_as_xyz
  1  'x, y, z'
loop_
 _atom_site_type_symbol
 _atom_site_label
 _atom_site_symmetry_multiplicity
 _atom_site_fract_x
 _atom_site_fract_y
 _atom_site_fract_z
 _atom_site_occupancy
  Nd  Nd0  1  0.949349  0.949349  0.949349  1
  Nd  Nd1  1  0.050651  0.050651  0.050651  1
  Nd  Nd2  1  0.852822  0.852822  0.852822  1
  Nd  Nd3  1  0.147178  0.147178  0.147178  1
  Ga  Ga4  1  0.500000  0.500000  0.500000  1
  Ga  Ga5  1  0.720769  0.720769  0.720769  1
  Ga  Ga6  1  0.279231  0.279231  0.279231  1
  Ga  Ga7  1  0.611758  0.611758  0.611758  1
  Ga  Ga8  1  0.388242  0.388242  0.388242  1
  Ir  Ir9  1  0.387593  0.896048  0.387593  1
  Ir  Ir10  1  0.387593  0.387593  0.896048  1
  Ir  Ir11  1  0.896048  0.387593  0.387593  1
  Ir  Ir12  1  0.612407  0.103952  0.612407  1
  Ir  Ir13  1  0.612407  0.612407  0.103952  1
  Ir  Ir14  1  0.103952  0.612407  0.612407  1
  Rh  Rh15  1  0.500000  0.500000  0.000000  1
  Rh  Rh16  1  0.000000  0.500000  0.500000  1
  Rh  Rh17  1  0.500000  0.000000  0.500000  1
