# generated using pymatgen
data_Na2InPd3
_symmetry_space_group_name_H-M   'P 1'
_cell_length_a   5.69026800
_cell_length_b   5.69026831
_cell_length_c   8.46617400
_cell_angle_alpha   90.00000000
_cell_angle_beta   90.00000000
_cell_angle_gamma   119.99999820
_symmetry_Int_Tables_number   1
_chemical_formula_structural   Na2InPd3
_chemical_formula_sum   'Na4 In2 Pd6'
_cell_volume   237.40141094
_cell_formula_units_Z   2
loop_
 _symmetry_equiv_pos_site_id
 _symmetry_equiv_pos_as_xyz
  1  'x, y, z'
loop_
 _atom_site_type_symbol
 _atom_site_label
 _atom_site_symmetry_multiplicity
 _atom_site_fract_x
 _atom_site_fract_y
 _atom_site_fract_z
 _atom_site_occupancy
  Na  Na0  1  0.333333  0.666666  0.071389  1
  Na  Na1  1  0.333333  0.666666  0.428611  1
  Na  Na2  1  0.666666  0.333333  0.571389  1
  Na  Na3  1  0.666666  0.333333  0.928611  1
  In  In4  1  0.000000  0.000000  0.000000  1
  In  In5  1  0.000000  0.000000  0.500000  1
  Pd  Pd6  1  0.346495  0.173247  0.250000  1
  Pd  Pd7  1  0.826753  0.173247  0.250000  1
  Pd  Pd8  1  0.826752  0.653504  0.250000  1
  Pd  Pd9  1  0.173247  0.346495  0.750000  1
  Pd  Pd10  1  0.173247  0.826753  0.750000  1
  Pd  Pd11  1  0.653505  0.826753  0.750000  1
