# generated using pymatgen
data_LaEr3(ScIr)4
_symmetry_space_group_name_H-M   'P 1'
_cell_length_a   7.15994495
_cell_length_b   4.26355100
_cell_length_c   8.78476695
_cell_angle_alpha   90.00000000
_cell_angle_beta   89.32380794
_cell_angle_gamma   90.00000000
_symmetry_Int_Tables_number   1
_chemical_formula_structural   LaEr3(ScIr)4
_chemical_formula_sum   'La1 Er3 Sc4 Ir4'
_cell_volume   268.15206424
_cell_formula_units_Z   1
loop_
 _symmetry_equiv_pos_site_id
 _symmetry_equiv_pos_as_xyz
  1  'x, y, z'
loop_
 _atom_site_type_symbol
 _atom_site_label
 _atom_site_symmetry_multiplicity
 _atom_site_fract_x
 _atom_site_fract_y
 _atom_site_fract_z
 _atom_site_occupancy
  La  La0  1  0.508946  0.750000  0.678218  1
  Er  Er1  1  0.978858  0.250000  0.174161  1
  Er  Er2  1  0.482095  0.250000  0.322829  1
  Er  Er3  1  0.018259  0.750000  0.830711  1
  Sc  Sc4  1  0.862682  0.250000  0.562209  1
  Sc  Sc5  1  0.358068  0.250000  0.944898  1
  Sc  Sc6  1  0.141151  0.750000  0.429457  1
  Sc  Sc7  1  0.645423  0.750000  0.068746  1
  Ir  Ir8  1  0.743900  0.250000  0.895858  1
  Ir  Ir9  1  0.234361  0.250000  0.600063  1
  Ir  Ir10  1  0.261321  0.750000  0.108534  1
  Ir  Ir11  1  0.764936  0.750000  0.384313  1
