# generated using pymatgen
data_Mg2InB2Rh5
_symmetry_space_group_name_H-M   'P 1'
_cell_length_a   9.66702900
_cell_length_b   9.66702900
_cell_length_c   2.97650900
_cell_angle_alpha   90.00000000
_cell_angle_beta   90.00000000
_cell_angle_gamma   90.00000000
_symmetry_Int_Tables_number   1
_chemical_formula_structural   Mg2InB2Rh5
_chemical_formula_sum   'Mg4 In2 B4 Rh10'
_cell_volume   278.15908106
_cell_formula_units_Z   2
loop_
 _symmetry_equiv_pos_site_id
 _symmetry_equiv_pos_as_xyz
  1  'x, y, z'
loop_
 _atom_site_type_symbol
 _atom_site_label
 _atom_site_symmetry_multiplicity
 _atom_site_fract_x
 _atom_site_fract_y
 _atom_site_fract_z
 _atom_site_occupancy
  Mg  Mg0  1  0.823416  0.323416  0.000000  1
  Mg  Mg1  1  0.323416  0.176584  0.000000  1
  Mg  Mg2  1  0.676584  0.823416  0.000000  1
  Mg  Mg3  1  0.176584  0.676584  0.000000  1
  In  In4  1  0.000000  0.000000  0.000000  1
  In  In5  1  0.500000  0.500000  0.000000  1
  B  B6  1  0.622842  0.122842  0.000000  1
  B  B7  1  0.122842  0.377158  0.000000  1
  B  B8  1  0.877158  0.622842  0.000000  1
  B  B9  1  0.377158  0.877158  0.000000  1
  Rh  Rh10  1  0.071520  0.224416  0.500000  1
  Rh  Rh11  1  0.224416  0.928480  0.500000  1
  Rh  Rh12  1  0.775584  0.071520  0.500000  1
  Rh  Rh13  1  0.928480  0.775584  0.500000  1
  Rh  Rh14  1  0.428480  0.724416  0.500000  1
  Rh  Rh15  1  0.571520  0.275584  0.500000  1
  Rh  Rh16  1  0.724416  0.571520  0.500000  1
  Rh  Rh17  1  0.275584  0.428480  0.500000  1
  Rh  Rh18  1  0.500000  0.000000  0.500000  1
  Rh  Rh19  1  0.000000  0.500000  0.500000  1
