# generated using pymatgen
data_Dy6Mn5P12Ir13
_symmetry_space_group_name_H-M   'P 1'
_cell_length_a   3.91862200
_cell_length_b   11.16140617
_cell_length_c   12.68104871
_cell_angle_alpha   90.17186889
_cell_angle_beta   90.00000000
_cell_angle_gamma   90.00000000
_symmetry_Int_Tables_number   1
_chemical_formula_structural   Dy6Mn5P12Ir13
_chemical_formula_sum   'Dy6 Mn5 P12 Ir13'
_cell_volume   554.63273911
_cell_formula_units_Z   1
loop_
 _symmetry_equiv_pos_site_id
 _symmetry_equiv_pos_as_xyz
  1  'x, y, z'
loop_
 _atom_site_type_symbol
 _atom_site_label
 _atom_site_symmetry_multiplicity
 _atom_site_fract_x
 _atom_site_fract_y
 _atom_site_fract_z
 _atom_site_occupancy
  Dy  Dy0  1  0.000000  0.501922  0.518009  1
  Dy  Dy1  1  0.500000  0.998425  0.482099  1
  Dy  Dy2  1  0.500000  0.820892  0.198711  1
  Dy  Dy3  1  0.500000  0.180452  0.201886  1
  Dy  Dy4  1  0.000000  0.677782  0.798874  1
  Dy  Dy5  1  0.000000  0.321158  0.797155  1
  Mn  Mn6  1  0.500000  0.489744  0.162992  1
  Mn  Mn7  1  0.000000  0.003334  0.837632  1
  Mn  Mn8  1  0.000000  0.494092  0.987945  1
  Mn  Mn9  1  0.500000  0.003141  0.010334  1
  Mn  Mn10  1  0.500000  0.336380  0.998928  1
  P  P11  1  0.500000  0.493759  0.884067  1
  P  P12  1  0.000000  0.002961  0.113804  1
  P  P13  1  0.500000  0.501587  0.345459  1
  P  P14  1  0.000000  0.999513  0.656328  1
  P  P15  1  0.500000  0.312810  0.619879  1
  P  P16  1  0.500000  0.686871  0.619612  1
  P  P17  1  0.000000  0.186021  0.380982  1
  P  P18  1  0.000000  0.814602  0.378766  1
  P  P19  1  0.500000  0.850102  0.896748  1
  P  P20  1  0.500000  0.154705  0.896063  1
  P  P21  1  0.000000  0.648792  0.101742  1
  P  P22  1  0.000000  0.350735  0.107733  1
  Ir  Ir23  1  0.500000  0.499823  0.698740  1
  Ir  Ir24  1  0.000000  0.001134  0.298383  1
  Ir  Ir25  1  0.500000  0.660980  0.996101  1
  Ir  Ir26  1  0.000000  0.172759  0.004456  1
  Ir  Ir27  1  0.000000  0.836138  0.002749  1
  Ir  Ir28  1  0.500000  0.291732  0.431021  1
  Ir  Ir29  1  0.500000  0.707813  0.428032  1
  Ir  Ir30  1  0.000000  0.205236  0.571134  1
  Ir  Ir31  1  0.000000  0.792815  0.570454  1
  Ir  Ir32  1  0.500000  0.872734  0.716553  1
  Ir  Ir33  1  0.500000  0.126654  0.715521  1
  Ir  Ir34  1  0.000000  0.627924  0.281835  1
  Ir  Ir35  1  0.000000  0.374479  0.289273  1
