# generated using pymatgen
data_Ca2Y(Bi2Rh)4
_symmetry_space_group_name_H-M   'P 1'
_cell_length_a   4.08377700
_cell_length_b   10.91481186
_cell_length_c   17.34690355
_cell_angle_alpha   89.65329983
_cell_angle_beta   90.00000000
_cell_angle_gamma   90.00000000
_symmetry_Int_Tables_number   1
_chemical_formula_structural   Ca2Y(Bi2Rh)4
_chemical_formula_sum   'Ca4 Y2 Bi16 Rh8'
_cell_volume   773.20078404
_cell_formula_units_Z   2
loop_
 _symmetry_equiv_pos_site_id
 _symmetry_equiv_pos_as_xyz
  1  'x, y, z'
loop_
 _atom_site_type_symbol
 _atom_site_label
 _atom_site_symmetry_multiplicity
 _atom_site_fract_x
 _atom_site_fract_y
 _atom_site_fract_z
 _atom_site_occupancy
  Ca  Ca0  1  0.500000  0.000000  0.500000  1
  Ca  Ca1  1  0.500000  0.500000  0.000000  1
  Ca  Ca2  1  0.500000  0.358359  0.300054  1
  Ca  Ca3  1  0.500000  0.641641  0.699946  1
  Y  Y4  1  0.500000  0.863555  0.194968  1
  Y  Y5  1  0.500000  0.136445  0.805032  1
  Bi  Bi6  1  0.000000  0.110809  0.213263  1
  Bi  Bi7  1  0.000000  0.889191  0.786737  1
  Bi  Bi8  1  0.000000  0.608257  0.286078  1
  Bi  Bi9  1  0.000000  0.391743  0.713922  1
  Bi  Bi10  1  0.000000  0.399269  0.143204  1
  Bi  Bi11  1  0.000000  0.600731  0.856796  1
  Bi  Bi12  1  0.000000  0.891597  0.354948  1
  Bi  Bi13  1  0.000000  0.108403  0.645052  1
  Bi  Bi14  1  0.500000  0.128387  0.037355  1
  Bi  Bi15  1  0.500000  0.871613  0.962645  1
  Bi  Bi16  1  0.500000  0.629247  0.464656  1
  Bi  Bi17  1  0.500000  0.370753  0.535344  1
  Bi  Bi18  1  0.000000  0.695190  0.087251  1
  Bi  Bi19  1  0.000000  0.304810  0.912749  1
  Bi  Bi20  1  0.000000  0.191653  0.409638  1
  Bi  Bi21  1  0.000000  0.808347  0.590362  1
  Rh  Rh22  1  0.000000  0.952555  0.081452  1
  Rh  Rh23  1  0.000000  0.047445  0.918548  1
  Rh  Rh24  1  0.000000  0.452265  0.422325  1
  Rh  Rh25  1  0.000000  0.547735  0.577675  1
  Rh  Rh26  1  0.500000  0.580846  0.176594  1
  Rh  Rh27  1  0.500000  0.419154  0.823406  1
  Rh  Rh28  1  0.500000  0.067638  0.321206  1
  Rh  Rh29  1  0.500000  0.932362  0.678794  1
