# generated using pymatgen
data_Tb3(GdPb2)2
_symmetry_space_group_name_H-M   'P 1'
_cell_length_a   8.18320200
_cell_length_b   8.23009900
_cell_length_c   15.68412200
_cell_angle_alpha   90.00000000
_cell_angle_beta   90.00000000
_cell_angle_gamma   90.00000000
_symmetry_Int_Tables_number   1
_chemical_formula_structural   Tb3(GdPb2)2
_chemical_formula_sum   'Tb12 Gd8 Pb16'
_cell_volume   1056.30307230
_cell_formula_units_Z   4
loop_
 _symmetry_equiv_pos_site_id
 _symmetry_equiv_pos_as_xyz
  1  'x, y, z'
loop_
 _atom_site_type_symbol
 _atom_site_label
 _atom_site_symmetry_multiplicity
 _atom_site_fract_x
 _atom_site_fract_y
 _atom_site_fract_z
 _atom_site_occupancy
  Tb  Tb0  1  0.874708  0.658033  0.120171  1
  Tb  Tb1  1  0.374708  0.841967  0.379829  1
  Tb  Tb2  1  0.625292  0.158033  0.879829  1
  Tb  Tb3  1  0.125292  0.341967  0.620171  1
  Tb  Tb4  1  0.125292  0.341967  0.879829  1
  Tb  Tb5  1  0.625292  0.158033  0.620171  1
  Tb  Tb6  1  0.374708  0.841967  0.120171  1
  Tb  Tb7  1  0.874708  0.658033  0.379829  1
  Tb  Tb8  1  0.707149  0.997380  0.250000  1
  Tb  Tb9  1  0.207149  0.502620  0.250000  1
  Tb  Tb10  1  0.792851  0.497380  0.750000  1
  Tb  Tb11  1  0.292851  0.002620  0.750000  1
  Gd  Gd12  1  0.029527  0.177455  0.098689  1
  Gd  Gd13  1  0.529527  0.322545  0.401311  1
  Gd  Gd14  1  0.470473  0.677455  0.901311  1
  Gd  Gd15  1  0.970473  0.822545  0.598689  1
  Gd  Gd16  1  0.970473  0.822545  0.901311  1
  Gd  Gd17  1  0.470473  0.677455  0.598689  1
  Gd  Gd18  1  0.529527  0.322545  0.098689  1
  Gd  Gd19  1  0.029527  0.177455  0.401311  1
  Pb  Pb20  1  0.070254  0.873386  0.250000  1
  Pb  Pb21  1  0.570254  0.626614  0.250000  1
  Pb  Pb22  1  0.429746  0.373386  0.750000  1
  Pb  Pb23  1  0.929746  0.126614  0.750000  1
  Pb  Pb24  1  0.841565  0.350571  0.250000  1
  Pb  Pb25  1  0.341565  0.149429  0.250000  1
  Pb  Pb26  1  0.658435  0.850571  0.750000  1
  Pb  Pb27  1  0.158435  0.649429  0.750000  1
  Pb  Pb28  1  0.784716  0.464601  0.956939  1
  Pb  Pb29  1  0.284716  0.035399  0.543061  1
  Pb  Pb30  1  0.715284  0.964601  0.043061  1
  Pb  Pb31  1  0.215284  0.535399  0.456939  1
  Pb  Pb32  1  0.215284  0.535399  0.043061  1
  Pb  Pb33  1  0.715284  0.964601  0.456939  1
  Pb  Pb34  1  0.284716  0.035399  0.956939  1
  Pb  Pb35  1  0.784716  0.464601  0.543061  1
