# generated using pymatgen
data_TbYEr3Pb4
_symmetry_space_group_name_H-M   'P 1'
_cell_length_a   8.18311700
_cell_length_b   8.26041900
_cell_length_c   15.58399900
_cell_angle_alpha   90.00000000
_cell_angle_beta   90.00000000
_cell_angle_gamma   90.00000000
_symmetry_Int_Tables_number   1
_chemical_formula_structural   TbYEr3Pb4
_chemical_formula_sum   'Tb4 Y4 Er12 Pb16'
_cell_volume   1053.41560908
_cell_formula_units_Z   4
loop_
 _symmetry_equiv_pos_site_id
 _symmetry_equiv_pos_as_xyz
  1  'x, y, z'
loop_
 _atom_site_type_symbol
 _atom_site_label
 _atom_site_symmetry_multiplicity
 _atom_site_fract_x
 _atom_site_fract_y
 _atom_site_fract_z
 _atom_site_occupancy
  Tb  Tb0  1  0.465581  0.677062  0.099922  1
  Tb  Tb1  1  0.965581  0.822938  0.400078  1
  Tb  Tb2  1  0.534419  0.322938  0.599922  1
  Tb  Tb3  1  0.034419  0.177062  0.900078  1
  Y  Y4  1  0.534545  0.323057  0.899991  1
  Y  Y5  1  0.034545  0.176943  0.600009  1
  Y  Y6  1  0.465455  0.676943  0.399991  1
  Y  Y7  1  0.965455  0.823057  0.100009  1
  Er  Er8  1  0.376579  0.840786  0.879205  1
  Er  Er9  1  0.876579  0.659214  0.620795  1
  Er  Er10  1  0.623421  0.159214  0.379205  1
  Er  Er11  1  0.123421  0.340786  0.120795  1
  Er  Er12  1  0.623505  0.159128  0.120828  1
  Er  Er13  1  0.123505  0.340872  0.379172  1
  Er  Er14  1  0.376495  0.840872  0.620828  1
  Er  Er15  1  0.876495  0.659128  0.879172  1
  Er  Er16  1  0.208101  0.504514  0.750047  1
  Er  Er17  1  0.708101  0.995486  0.749953  1
  Er  Er18  1  0.791899  0.495486  0.250047  1
  Er  Er19  1  0.291899  0.004514  0.249953  1
  Pb  Pb20  1  0.282365  0.033925  0.042806  1
  Pb  Pb21  1  0.782365  0.466075  0.457194  1
  Pb  Pb22  1  0.717635  0.966075  0.542806  1
  Pb  Pb23  1  0.217635  0.533925  0.957194  1
  Pb  Pb24  1  0.717615  0.965980  0.957284  1
  Pb  Pb25  1  0.217615  0.534020  0.542716  1
  Pb  Pb26  1  0.282385  0.034020  0.457284  1
  Pb  Pb27  1  0.782385  0.465980  0.042716  1
  Pb  Pb28  1  0.571315  0.627614  0.749958  1
  Pb  Pb29  1  0.071315  0.872386  0.750042  1
  Pb  Pb30  1  0.428685  0.372386  0.249958  1
  Pb  Pb31  1  0.928685  0.127614  0.250042  1
  Pb  Pb32  1  0.345504  0.151980  0.750054  1
  Pb  Pb33  1  0.845504  0.348020  0.749946  1
  Pb  Pb34  1  0.654496  0.848020  0.250054  1
  Pb  Pb35  1  0.154496  0.651980  0.249946  1
