# generated using pymatgen
data_Dy2LuCo8ReP6
_symmetry_space_group_name_H-M   'P 1'
_cell_length_a   3.71457700
_cell_length_b   10.50337700
_cell_length_c   12.20131900
_cell_angle_alpha   90.00000000
_cell_angle_beta   90.00000000
_cell_angle_gamma   90.00000000
_symmetry_Int_Tables_number   1
_chemical_formula_structural   Dy2LuCo8ReP6
_chemical_formula_sum   'Dy4 Lu2 Co16 Re2 P12'
_cell_volume   476.04181362
_cell_formula_units_Z   2
loop_
 _symmetry_equiv_pos_site_id
 _symmetry_equiv_pos_as_xyz
  1  'x, y, z'
loop_
 _atom_site_type_symbol
 _atom_site_label
 _atom_site_symmetry_multiplicity
 _atom_site_fract_x
 _atom_site_fract_y
 _atom_site_fract_z
 _atom_site_occupancy
  Dy  Dy0  1  0.000000  0.500000  0.524648  1
  Dy  Dy1  1  0.500000  0.000000  0.474675  1
  Dy  Dy2  1  0.000000  0.681925  0.794394  1
  Dy  Dy3  1  0.000000  0.318075  0.794394  1
  Lu  Lu4  1  0.500000  0.818873  0.205826  1
  Lu  Lu5  1  0.500000  0.181127  0.205826  1
  Co  Co6  1  0.500000  0.500000  0.701953  1
  Co  Co7  1  0.000000  0.000000  0.296892  1
  Co  Co8  1  0.000000  0.500000  0.988907  1
  Co  Co9  1  0.500000  0.000000  0.013368  1
  Co  Co10  1  0.500000  0.331877  0.990750  1
  Co  Co11  1  0.500000  0.668123  0.990750  1
  Co  Co12  1  0.000000  0.167083  0.011994  1
  Co  Co13  1  0.000000  0.832917  0.011994  1
  Co  Co14  1  0.500000  0.296304  0.429868  1
  Co  Co15  1  0.500000  0.703696  0.429868  1
  Co  Co16  1  0.000000  0.203158  0.568040  1
  Co  Co17  1  0.000000  0.796842  0.568040  1
  Co  Co18  1  0.500000  0.879202  0.708187  1
  Co  Co19  1  0.500000  0.120798  0.708187  1
  Co  Co20  1  0.000000  0.621971  0.290760  1
  Co  Co21  1  0.000000  0.378029  0.290760  1
  Re  Re22  1  0.500000  0.500000  0.156414  1
  Re  Re23  1  0.000000  0.000000  0.844089  1
  P  P24  1  0.500000  0.500000  0.880593  1
  P  P25  1  0.000000  0.000000  0.121537  1
  P  P26  1  0.500000  0.500000  0.349255  1
  P  P27  1  0.000000  0.000000  0.650439  1
  P  P28  1  0.500000  0.311483  0.615488  1
  P  P29  1  0.500000  0.688517  0.615488  1
  P  P30  1  0.000000  0.187649  0.382012  1
  P  P31  1  0.000000  0.812351  0.382012  1
  P  P32  1  0.500000  0.846214  0.892630  1
  P  P33  1  0.500000  0.153786  0.892630  1
  P  P34  1  0.000000  0.655516  0.108665  1
  P  P35  1  0.000000  0.344484  0.108665  1
