# generated using pymatgen
data_Tb2NbP7Rh9W2
_symmetry_space_group_name_H-M   'P 1'
_cell_length_a   3.95452400
_cell_length_b   9.56020079
_cell_length_c   9.54108602
_cell_angle_alpha   119.91290685
_cell_angle_beta   89.99995886
_cell_angle_gamma   90.00026465
_symmetry_Int_Tables_number   1
_chemical_formula_structural   Tb2NbP7Rh9W2
_chemical_formula_sum   'Tb2 Nb1 P7 Rh9 W2'
_cell_volume   312.65843121
_cell_formula_units_Z   1
loop_
 _symmetry_equiv_pos_site_id
 _symmetry_equiv_pos_as_xyz
  1  'x, y, z'
loop_
 _atom_site_type_symbol
 _atom_site_label
 _atom_site_symmetry_multiplicity
 _atom_site_fract_x
 _atom_site_fract_y
 _atom_site_fract_z
 _atom_site_occupancy
  Tb  Tb0  1  0.261841  0.667477  0.333722  1
  Tb  Tb1  1  0.761958  0.333042  0.666131  1
  Nb  Nb2  1  0.761935  0.781677  0.908060  1
  P  P3  1  0.261994  0.001525  0.000986  1
  P  P4  1  0.761836  0.880918  0.593781  1
  P  P5  1  0.761819  0.406962  0.287182  1
  P  P6  1  0.761879  0.711206  0.121690  1
  P  P7  1  0.261933  0.118024  0.414263  1
  P  P8  1  0.261929  0.583553  0.701237  1
  P  P9  1  0.261915  0.296758  0.882540  1
  Rh  Rh10  1  0.261892  0.887974  0.163614  1
  Rh  Rh11  1  0.261915  0.839412  0.723652  1
  Rh  Rh12  1  0.261887  0.273751  0.112622  1
  Rh  Rh13  1  0.761891  0.610894  0.558432  1
  Rh  Rh14  1  0.761902  0.438881  0.052910  1
  Rh  Rh15  1  0.761906  0.949164  0.389823  1
  Rh  Rh16  1  0.261901  0.366949  0.435232  1
  Rh  Rh17  1  0.261931  0.561169  0.930938  1
  Rh  Rh18  1  0.261913  0.070102  0.632957  1
  W  W19  1  0.761925  0.090248  0.872046  1
  W  W20  1  0.761898  0.130317  0.218180  1
