# generated using pymatgen
data_Er7Tm3CoBi5
_symmetry_space_group_name_H-M   'P 1'
_cell_length_a   7.99361301
_cell_length_b   9.33367902
_cell_length_c   11.99839300
_cell_angle_alpha   90.00000000
_cell_angle_beta   90.00000000
_cell_angle_gamma   90.00681875
_symmetry_Int_Tables_number   1
_chemical_formula_structural   Er7Tm3CoBi5
_chemical_formula_sum   'Er14 Tm6 Co2 Bi10'
_cell_volume   895.19791236
_cell_formula_units_Z   2
loop_
 _symmetry_equiv_pos_site_id
 _symmetry_equiv_pos_as_xyz
  1  'x, y, z'
loop_
 _atom_site_type_symbol
 _atom_site_label
 _atom_site_symmetry_multiplicity
 _atom_site_fract_x
 _atom_site_fract_y
 _atom_site_fract_z
 _atom_site_occupancy
  Er  Er0  1  0.069757  0.728828  0.436391  1
  Er  Er1  1  0.930243  0.271172  0.936391  1
  Er  Er2  1  0.069789  0.271053  0.436416  1
  Er  Er3  1  0.930211  0.728947  0.936416  1
  Er  Er4  1  0.428503  0.823960  0.563372  1
  Er  Er5  1  0.571497  0.176040  0.063372  1
  Er  Er6  1  0.572783  0.499904  0.772489  1
  Er  Er7  1  0.427217  0.500096  0.272489  1
  Er  Er8  1  0.260414  0.500083  0.993759  1
  Er  Er9  1  0.739586  0.499917  0.493759  1
  Er  Er10  1  0.090217  0.500066  0.718263  1
  Er  Er11  1  0.909783  0.499934  0.218263  1
  Er  Er12  1  0.372346  0.000026  0.308383  1
  Er  Er13  1  0.627654  0.999974  0.808383  1
  Tm  Tm14  1  0.428061  0.175647  0.563260  1
  Tm  Tm15  1  0.571939  0.824353  0.063260  1
  Tm  Tm16  1  0.907988  0.999892  0.200917  1
  Tm  Tm17  1  0.092012  0.000108  0.700917  1
  Tm  Tm18  1  0.198289  0.999915  0.996665  1
  Tm  Tm19  1  0.801711  0.000085  0.496665  1
  Co  Co20  1  0.171313  0.000266  0.488110  1
  Co  Co21  1  0.828687  0.999734  0.988110  1
  Bi  Bi22  1  0.813557  0.741378  0.672254  1
  Bi  Bi23  1  0.186443  0.258622  0.172254  1
  Bi  Bi24  1  0.680339  0.241688  0.325377  1
  Bi  Bi25  1  0.319661  0.758312  0.825377  1
  Bi  Bi26  1  0.680279  0.758376  0.325253  1
  Bi  Bi27  1  0.319721  0.241624  0.825253  1
  Bi  Bi28  1  0.813406  0.258609  0.672204  1
  Bi  Bi29  1  0.186594  0.741391  0.172204  1
  Bi  Bi30  1  0.346156  0.499659  0.526887  1
  Bi  Bi31  1  0.653844  0.500341  0.026887  1
