# generated using pymatgen
data_ErTlAg2(Pt2O7)2
_symmetry_space_group_name_H-M   'P 1'
_cell_length_a   7.34841830
_cell_length_b   7.23625478
_cell_length_c   7.23625462
_cell_angle_alpha   59.19830515
_cell_angle_beta   59.41111649
_cell_angle_gamma   59.41112494
_symmetry_Int_Tables_number   1
_chemical_formula_structural   ErTlAg2(Pt2O7)2
_chemical_formula_sum   'Er1 Tl1 Ag2 Pt4 O14'
_cell_volume   267.99684781
_cell_formula_units_Z   1
loop_
 _symmetry_equiv_pos_site_id
 _symmetry_equiv_pos_as_xyz
  1  'x, y, z'
loop_
 _atom_site_type_symbol
 _atom_site_label
 _atom_site_symmetry_multiplicity
 _atom_site_fract_x
 _atom_site_fract_y
 _atom_site_fract_z
 _atom_site_occupancy
  Er  Er0  1  0.625000  0.625000  0.625000  1
  Tl  Tl1  1  0.125000  0.625000  0.625000  1
  Ag  Ag2  1  0.625000  0.625000  0.125000  1
  Ag  Ag3  1  0.625000  0.125000  0.625000  1
  Pt  Pt4  1  0.625000  0.125000  0.125000  1
  Pt  Pt5  1  0.125000  0.125000  0.125000  1
  Pt  Pt6  1  0.125000  0.625000  0.125000  1
  Pt  Pt7  1  0.125000  0.125000  0.625000  1
  O  O8  1  0.026766  0.465253  0.465253  1
  O  O9  1  0.792281  0.789366  0.224042  1
  O  O10  1  0.794487  0.204416  0.204416  1
  O  O11  1  0.729732  0.765146  0.765146  1
  O  O12  1  0.045405  0.460587  0.037824  1
  O  O13  1  0.457719  0.025958  0.460634  1
  O  O14  1  0.045405  0.037824  0.460587  1
  O  O15  1  0.520268  0.484854  0.484854  1
  O  O16  1  0.204595  0.212176  0.789413  1
  O  O17  1  0.204595  0.789413  0.212176  1
  O  O18  1  0.792281  0.224042  0.789366  1
  O  O19  1  0.455513  0.045584  0.045584  1
  O  O20  1  0.457719  0.460634  0.025958  1
  O  O21  1  0.223234  0.784747  0.784747  1
