# generated using pymatgen
data_CsSrV2F9
_symmetry_space_group_name_H-M   'P 1'
_cell_length_a   8.05127005
_cell_length_b   8.05127037
_cell_length_c   25.19871400
_cell_angle_alpha   90.00624817
_cell_angle_beta   90.00624105
_cell_angle_gamma   119.96000388
_symmetry_Int_Tables_number   1
_chemical_formula_structural   CsSrV2F9
_chemical_formula_sum   'Cs6 Sr6 V12 F54'
_cell_volume   1415.18329934
_cell_formula_units_Z   6
loop_
 _symmetry_equiv_pos_site_id
 _symmetry_equiv_pos_as_xyz
  1  'x, y, z'
loop_
 _atom_site_type_symbol
 _atom_site_label
 _atom_site_symmetry_multiplicity
 _atom_site_fract_x
 _atom_site_fract_y
 _atom_site_fract_z
 _atom_site_occupancy
  Cs  Cs0  1  0.968825  0.012141  0.083156  1
  Cs  Cs1  1  0.989314  0.010686  0.750000  1
  Cs  Cs2  1  0.011434  0.968264  0.916817  1
  Cs  Cs3  1  0.987859  0.031175  0.416844  1
  Cs  Cs4  1  0.031736  0.988566  0.583183  1
  Cs  Cs5  1  0.010289  0.989711  0.250000  1
  Sr  Sr6  1  0.501055  0.989486  0.833278  1
  Sr  Sr7  1  0.512957  0.512753  0.499994  1
  Sr  Sr8  1  0.989545  0.501315  0.166747  1
  Sr  Sr9  1  0.487247  0.487043  0.000006  1
  Sr  Sr10  1  0.010514  0.498945  0.666722  1
  Sr  Sr11  1  0.498685  0.010455  0.333253  1
  V  V12  1  0.000928  0.485751  0.836409  1
  V  V13  1  0.514733  0.011675  0.503323  1
  V  V14  1  0.988325  0.485267  0.996677  1
  V  V15  1  0.485972  0.001093  0.163533  1
  V  V16  1  0.498010  0.511375  0.329878  1
  V  V17  1  0.998907  0.514028  0.336467  1
  V  V18  1  0.485443  0.988194  0.003256  1
  V  V19  1  0.011806  0.514557  0.496744  1
  V  V20  1  0.488625  0.501990  0.170122  1
  V  V21  1  0.511307  0.498096  0.670165  1
  V  V22  1  0.501904  0.488693  0.829835  1
  V  V23  1  0.514249  0.999072  0.663591  1
  F  F24  1  0.470618  0.511192  0.093866  1
  F  F25  1  0.229888  0.362170  0.666165  1
  F  F26  1  0.791980  0.632899  0.676603  1
  F  F27  1  0.511216  0.470451  0.906061  1
  F  F28  1  0.238105  0.733164  0.008607  1
  F  F29  1  0.442326  0.978038  0.927235  1
  F  F30  1  0.489894  0.510106  0.750000  1
  F  F31  1  0.867625  0.650989  0.488962  1
  F  F32  1  0.488808  0.529382  0.406134  1
  F  F33  1  0.207995  0.367270  0.176681  1
  F  F34  1  0.793215  0.149058  0.652835  1
  F  F35  1  0.529549  0.488784  0.593939  1
  F  F36  1  0.761895  0.266573  0.508680  1
  F  F37  1  0.621520  0.843284  0.998042  1
  F  F38  1  0.250056  0.483991  0.840377  1
  F  F39  1  0.998111  0.474746  0.416623  1
  F  F40  1  0.749723  0.515636  0.340437  1
  F  F41  1  0.557649  0.021868  0.427233  1
  F  F42  1  0.234035  0.853001  0.671927  1
  F  F43  1  0.509868  0.490132  0.250000  1
  F  F44  1  0.484364  0.250277  0.159563  1
  F  F45  1  0.651078  0.867476  0.511056  1
  F  F46  1  0.146999  0.765965  0.828073  1
  F  F47  1  0.997271  0.556297  0.260668  1
  F  F48  1  0.753838  0.490274  0.826051  1
  F  F49  1  0.850942  0.206785  0.847165  1
  F  F50  1  0.516009  0.749944  0.659623  1
  F  F51  1  0.632730  0.792005  0.323319  1
  F  F52  1  0.770169  0.638117  0.166417  1
  F  F53  1  0.852872  0.233806  0.328207  1
  F  F54  1  0.509726  0.246162  0.673949  1
  F  F55  1  0.266836  0.761895  0.491393  1
  F  F56  1  0.733427  0.238105  0.991320  1
  F  F57  1  0.148774  0.793045  0.347158  1
  F  F58  1  0.978132  0.442351  0.072767  1
  F  F59  1  0.002047  0.525408  0.916505  1
  F  F60  1  0.349011  0.132375  0.011038  1
  F  F61  1  0.474592  0.997953  0.583495  1
  F  F62  1  0.021962  0.557674  0.572765  1
  F  F63  1  0.002368  0.443201  0.760606  1
  F  F64  1  0.766194  0.147128  0.171793  1
  F  F65  1  0.637830  0.770112  0.833835  1
  F  F66  1  0.378611  0.156684  0.498103  1
  F  F67  1  0.361883  0.229831  0.333583  1
  F  F68  1  0.843316  0.621389  0.001897  1
  F  F69  1  0.490326  0.754102  0.173822  1
  F  F70  1  0.367101  0.208020  0.823397  1
  F  F71  1  0.132524  0.348922  0.988944  1
  F  F72  1  0.156716  0.378480  0.501958  1
  F  F73  1  0.206955  0.851226  0.152842  1
  F  F74  1  0.443703  0.002729  0.239332  1
  F  F75  1  0.556799  0.997632  0.739394  1
  F  F76  1  0.525254  0.001889  0.083377  1
  F  F77  1  0.245898  0.509674  0.326178  1
