# generated using pymatgen
data_Tm4ScTi3Ir4
_symmetry_space_group_name_H-M   'P 1'
_cell_length_a   4.34170900
_cell_length_b   6.87078084
_cell_length_c   8.16200239
_cell_angle_alpha   89.43056363
_cell_angle_beta   90.00000000
_cell_angle_gamma   90.00000000
_symmetry_Int_Tables_number   1
_chemical_formula_structural   Tm4ScTi3Ir4
_chemical_formula_sum   'Tm4 Sc1 Ti3 Ir4'
_cell_volume   243.46810551
_cell_formula_units_Z   1
loop_
 _symmetry_equiv_pos_site_id
 _symmetry_equiv_pos_as_xyz
  1  'x, y, z'
loop_
 _atom_site_type_symbol
 _atom_site_label
 _atom_site_symmetry_multiplicity
 _atom_site_fract_x
 _atom_site_fract_y
 _atom_site_fract_z
 _atom_site_occupancy
  Tm  Tm0  1  0.250000  0.480884  0.181689  1
  Tm  Tm1  1  0.750000  0.521182  0.825821  1
  Tm  Tm2  1  0.750000  0.010841  0.680802  1
  Tm  Tm3  1  0.250000  0.981212  0.313735  1
  Sc  Sc4  1  0.250000  0.354991  0.571414  1
  Ti  Ti5  1  0.250000  0.856860  0.934280  1
  Ti  Ti6  1  0.750000  0.139126  0.064937  1
  Ti  Ti7  1  0.750000  0.642914  0.435367  1
  Ir  Ir8  1  0.250000  0.738288  0.598779  1
  Ir  Ir9  1  0.750000  0.275430  0.383729  1
  Ir  Ir10  1  0.750000  0.776734  0.098883  1
  Ir  Ir11  1  0.250000  0.221538  0.910562  1
