# generated using pymatgen
data_Tm12TcRh3
_symmetry_space_group_name_H-M   'P 1'
_cell_length_a   6.27779521
_cell_length_b   7.20868620
_cell_length_c   9.06825300
_cell_angle_alpha   90.00000000
_cell_angle_beta   90.00000000
_cell_angle_gamma   89.95211738
_symmetry_Int_Tables_number   1
_chemical_formula_structural   Tm12TcRh3
_chemical_formula_sum   'Tm12 Tc1 Rh3'
_cell_volume   410.38052405
_cell_formula_units_Z   1
loop_
 _symmetry_equiv_pos_site_id
 _symmetry_equiv_pos_as_xyz
  1  'x, y, z'
loop_
 _atom_site_type_symbol
 _atom_site_label
 _atom_site_symmetry_multiplicity
 _atom_site_fract_x
 _atom_site_fract_y
 _atom_site_fract_z
 _atom_site_occupancy
  Tm  Tm0  1  0.628820  0.035828  0.250000  1
  Tm  Tm1  1  0.369463  0.963411  0.750000  1
  Tm  Tm2  1  0.128796  0.460953  0.750000  1
  Tm  Tm3  1  0.875472  0.536874  0.250000  1
  Tm  Tm4  1  0.175253  0.180160  0.064302  1
  Tm  Tm5  1  0.827582  0.820854  0.937178  1
  Tm  Tm6  1  0.666403  0.322776  0.940538  1
  Tm  Tm7  1  0.827582  0.820854  0.562822  1
  Tm  Tm8  1  0.327739  0.676972  0.063992  1
  Tm  Tm9  1  0.175253  0.180160  0.435698  1
  Tm  Tm10  1  0.327739  0.676972  0.436008  1
  Tm  Tm11  1  0.666403  0.322776  0.559462  1
  Tc  Tc12  1  0.465702  0.387460  0.250000  1
  Rh  Rh13  1  0.542353  0.615409  0.750000  1
  Rh  Rh14  1  0.955822  0.111986  0.750000  1
  Rh  Rh15  1  0.039618  0.886554  0.250000  1
