# generated using pymatgen
data_SmHo(Si2Rh3)2
_symmetry_space_group_name_H-M   'P 1'
_cell_length_a   6.64258241
_cell_length_b   6.64258234
_cell_length_c   6.64258204
_cell_angle_alpha   130.39980659
_cell_angle_beta   114.21123469
_cell_angle_gamma   86.66240486
_symmetry_Int_Tables_number   1
_chemical_formula_structural   SmHo(Si2Rh3)2
_chemical_formula_sum   'Sm1 Ho1 Si4 Rh6'
_cell_volume   194.26790795
_cell_formula_units_Z   1
loop_
 _symmetry_equiv_pos_site_id
 _symmetry_equiv_pos_as_xyz
  1  'x, y, z'
loop_
 _atom_site_type_symbol
 _atom_site_label
 _atom_site_symmetry_multiplicity
 _atom_site_fract_x
 _atom_site_fract_y
 _atom_site_fract_z
 _atom_site_occupancy
  Sm  Sm0  1  0.750000  0.039482  0.289482  1
  Ho  Ho1  1  0.250000  0.952343  0.702343  1
  Si  Si2  1  0.578029  0.383067  0.805038  1
  Si  Si3  1  0.921971  0.727008  0.805038  1
  Si  Si4  1  0.420965  0.615040  0.194075  1
  Si  Si5  1  0.079035  0.273110  0.194075  1
  Rh  Rh6  1  0.216007  0.504103  0.716765  1
  Rh  Rh7  1  0.787339  0.504103  0.288097  1
  Rh  Rh8  1  0.498791  0.500112  0.498903  1
  Rh  Rh9  1  0.001209  0.500112  0.001323  1
  Rh  Rh10  1  0.712661  0.000759  0.716765  1
  Rh  Rh11  1  0.283993  0.000759  0.288097  1
