# generated using pymatgen
data_Li3CaDy3AlPt4
_symmetry_space_group_name_H-M   'P 1'
_cell_length_a   4.05704600
_cell_length_b   7.03935222
_cell_length_c   8.48129302
_cell_angle_alpha   91.27311001
_cell_angle_beta   90.00000000
_cell_angle_gamma   90.00000000
_symmetry_Int_Tables_number   1
_chemical_formula_structural   Li3CaDy3AlPt4
_chemical_formula_sum   'Li3 Ca1 Dy3 Al1 Pt4'
_cell_volume   242.15724995
_cell_formula_units_Z   1
loop_
 _symmetry_equiv_pos_site_id
 _symmetry_equiv_pos_as_xyz
  1  'x, y, z'
loop_
 _atom_site_type_symbol
 _atom_site_label
 _atom_site_symmetry_multiplicity
 _atom_site_fract_x
 _atom_site_fract_y
 _atom_site_fract_z
 _atom_site_occupancy
  Li  Li0  1  0.250000  0.875702  0.943496  1
  Li  Li1  1  0.750000  0.131653  0.060462  1
  Li  Li2  1  0.750000  0.627984  0.438062  1
  Ca  Ca3  1  0.250000  0.454913  0.181402  1
  Dy  Dy4  1  0.750000  0.544754  0.819049  1
  Dy  Dy5  1  0.750000  0.040387  0.682501  1
  Dy  Dy6  1  0.250000  0.954549  0.319890  1
  Al  Al7  1  0.250000  0.369662  0.558419  1
  Pt  Pt8  1  0.250000  0.738311  0.618313  1
  Pt  Pt9  1  0.750000  0.249063  0.399929  1
  Pt  Pt10  1  0.750000  0.760868  0.121858  1
  Pt  Pt11  1  0.250000  0.252152  0.856617  1
