# generated using pymatgen
data_ErNb(Bi3O7)2
_symmetry_space_group_name_H-M   'P 1'
_cell_length_a   6.65378219
_cell_length_b   6.86873690
_cell_length_c   7.79402606
_cell_angle_alpha   106.38559785
_cell_angle_beta   89.68704804
_cell_angle_gamma   100.05230818
_symmetry_Int_Tables_number   1
_chemical_formula_structural   ErNb(Bi3O7)2
_chemical_formula_sum   'Er1 Nb1 Bi6 O14'
_cell_volume   336.13575200
_cell_formula_units_Z   1
loop_
 _symmetry_equiv_pos_site_id
 _symmetry_equiv_pos_as_xyz
  1  'x, y, z'
loop_
 _atom_site_type_symbol
 _atom_site_label
 _atom_site_symmetry_multiplicity
 _atom_site_fract_x
 _atom_site_fract_y
 _atom_site_fract_z
 _atom_site_occupancy
  Er  Er0  1  0.458062  0.997242  0.248576  1
  Nb  Nb1  1  0.997657  0.003822  0.002215  1
  Bi  Bi2  1  0.997433  0.003843  0.498116  1
  Bi  Bi3  1  0.522181  0.997598  0.750620  1
  Bi  Bi4  1  0.249326  0.526166  0.882709  1
  Bi  Bi5  1  0.734374  0.492842  0.114672  1
  Bi  Bi6  1  0.721270  0.469463  0.603513  1
  Bi  Bi7  1  0.266398  0.509761  0.384107  1
  O  O8  1  0.461971  0.654252  0.178557  1
  O  O9  1  0.531533  0.363430  0.818373  1
  O  O10  1  0.299874  0.942612  0.961806  1
  O  O11  1  0.731370  0.040448  0.081843  1
  O  O12  1  0.297354  0.925501  0.510805  1
  O  O13  1  0.704355  0.088317  0.486586  1
  O  O14  1  0.521697  0.341247  0.351442  1
  O  O15  1  0.461686  0.648536  0.635670  1
  O  O16  1  0.926939  0.687967  0.974865  1
  O  O17  1  0.088860  0.299531  0.021106  1
  O  O18  1  0.097602  0.333655  0.612639  1
  O  O19  1  0.890628  0.678949  0.378279  1
  O  O20  1  0.915305  0.929662  0.742717  1
  O  O21  1  0.124125  0.065156  0.260783  1
