# generated using pymatgen
data_Ca3Yb(SiPt2)4
_symmetry_space_group_name_H-M   'P 1'
_cell_length_a   5.55964303
_cell_length_b   6.91334800
_cell_length_c   7.41932104
_cell_angle_alpha   90.00000000
_cell_angle_beta   89.98786772
_cell_angle_gamma   90.00000000
_symmetry_Int_Tables_number   1
_chemical_formula_structural   Ca3Yb(SiPt2)4
_chemical_formula_sum   'Ca3 Yb1 Si4 Pt8'
_cell_volume   285.16714030
_cell_formula_units_Z   1
loop_
 _symmetry_equiv_pos_site_id
 _symmetry_equiv_pos_as_xyz
  1  'x, y, z'
loop_
 _atom_site_type_symbol
 _atom_site_label
 _atom_site_symmetry_multiplicity
 _atom_site_fract_x
 _atom_site_fract_y
 _atom_site_fract_z
 _atom_site_occupancy
  Ca  Ca0  1  0.125651  0.750000  0.477591  1
  Ca  Ca1  1  0.374293  0.750000  0.978135  1
  Ca  Ca2  1  0.625729  0.250000  0.022350  1
  Yb  Yb3  1  0.871352  0.250000  0.522604  1
  Si  Si4  1  0.127355  0.250000  0.875392  1
  Si  Si5  1  0.371334  0.250000  0.375658  1
  Si  Si6  1  0.626497  0.750000  0.624138  1
  Si  Si7  1  0.873563  0.750000  0.124102  1
  Pt  Pt8  1  0.101148  0.052930  0.171769  1
  Pt  Pt9  1  0.101148  0.447070  0.171769  1
  Pt  Pt10  1  0.397602  0.052879  0.669714  1
  Pt  Pt11  1  0.397602  0.447121  0.669714  1
  Pt  Pt12  1  0.605613  0.551880  0.330617  1
  Pt  Pt13  1  0.605613  0.948120  0.330617  1
  Pt  Pt14  1  0.897750  0.552274  0.827915  1
  Pt  Pt15  1  0.897750  0.947726  0.827915  1
