# generated using pymatgen
data_CsTc6SeS6
_symmetry_space_group_name_H-M   'P 1'
_cell_length_a   9.55266198
_cell_length_b   9.56984392
_cell_length_c   9.56779163
_cell_angle_alpha   60.21483843
_cell_angle_beta   60.41290312
_cell_angle_gamma   60.30032435
_symmetry_Int_Tables_number   1
_chemical_formula_structural   CsTc6SeS6
_chemical_formula_sum   'Cs2 Tc12 Se2 S12'
_cell_volume   622.80613151
_cell_formula_units_Z   2
loop_
 _symmetry_equiv_pos_site_id
 _symmetry_equiv_pos_as_xyz
  1  'x, y, z'
loop_
 _atom_site_type_symbol
 _atom_site_label
 _atom_site_symmetry_multiplicity
 _atom_site_fract_x
 _atom_site_fract_y
 _atom_site_fract_z
 _atom_site_occupancy
  Cs  Cs0  1  0.385688  0.376707  0.381323  1
  Cs  Cs1  1  0.622862  0.633911  0.613045  1
  Tc  Tc2  1  0.310355  0.127679  0.994791  1
  Tc  Tc3  1  0.198480  0.881954  0.064255  1
  Tc  Tc4  1  0.881555  0.062042  0.198267  1
  Tc  Tc5  1  0.936651  0.801211  0.119286  1
  Tc  Tc6  1  0.800956  0.118594  0.937286  1
  Tc  Tc7  1  0.118959  0.936763  0.801348  1
  Tc  Tc8  1  0.990831  0.310963  0.128131  1
  Tc  Tc9  1  0.870846  0.006865  0.689345  1
  Tc  Tc10  1  0.126114  0.992013  0.312648  1
  Tc  Tc11  1  0.005685  0.688017  0.874020  1
  Tc  Tc12  1  0.687679  0.873045  0.008301  1
  Tc  Tc13  1  0.062728  0.198804  0.882698  1
  Se  Se14  1  0.987867  0.244322  0.633876  1
  Se  Se15  1  0.245156  0.634005  0.987592  1
  S  S16  1  0.653198  0.985714  0.228641  1
  S  S17  1  0.014787  0.768246  0.347141  1
  S  S18  1  0.768922  0.346617  0.014401  1
  S  S19  1  0.345387  0.014682  0.771016  1
  S  S20  1  0.165304  0.409493  0.828430  1
  S  S21  1  0.408796  0.827354  0.168701  1
  S  S22  1  0.825425  0.165293  0.409769  1
  S  S23  1  0.832396  0.590348  0.174190  1
  S  S24  1  0.588952  0.172835  0.834760  1
  S  S25  1  0.169875  0.833235  0.592276  1
  S  S26  1  0.777993  0.781525  0.783970  1
  S  S27  1  0.216553  0.217764  0.220494  1
