# generated using pymatgen
data_Mg3Pb(BrO3)8
_symmetry_space_group_name_H-M   'P 1'
_cell_length_a   5.94256191
_cell_length_b   10.83489346
_cell_length_c   10.91912100
_cell_angle_alpha   119.03086795
_cell_angle_beta   90.30041797
_cell_angle_gamma   88.05466110
_symmetry_Int_Tables_number   1
_chemical_formula_structural   Mg3Pb(BrO3)8
_chemical_formula_sum   'Mg3 Pb1 Br8 O24'
_cell_volume   614.31240366
_cell_formula_units_Z   1
loop_
 _symmetry_equiv_pos_site_id
 _symmetry_equiv_pos_as_xyz
  1  'x, y, z'
loop_
 _atom_site_type_symbol
 _atom_site_label
 _atom_site_symmetry_multiplicity
 _atom_site_fract_x
 _atom_site_fract_y
 _atom_site_fract_z
 _atom_site_occupancy
  Mg  Mg0  1  0.647093  0.233106  0.491850  1
  Mg  Mg1  1  0.142509  0.261481  0.004164  1
  Mg  Mg2  1  0.645772  0.739941  0.990728  1
  Pb  Pb3  1  0.121720  0.772095  0.507443  1
  Br  Br4  1  0.277150  0.401590  0.340616  1
  Br  Br5  1  0.745889  0.570818  0.650476  1
  Br  Br6  1  0.268772  0.919301  0.868293  1
  Br  Br7  1  0.779795  0.084896  0.150900  1
  Br  Br8  1  0.769253  0.119664  0.719280  1
  Br  Br9  1  0.318749  0.927987  0.297424  1
  Br  Br10  1  0.289764  0.419048  0.814767  1
  Br  Br11  1  0.779474  0.571804  0.164388  1
  O  O12  1  0.436612  0.895367  0.980286  1
  O  O13  1  0.947082  0.125474  0.052345  1
  O  O14  1  0.373492  0.802136  0.708847  1
  O  O15  1  0.878443  0.180063  0.316278  1
  O  O16  1  0.363383  0.291232  0.174112  1
  O  O17  1  0.842634  0.682032  0.811925  1
  O  O18  1  0.940024  0.242103  0.836540  1
  O  O19  1  0.456239  0.783613  0.170550  1
  O  O20  1  0.873893  0.964602  0.698207  1
  O  O21  1  0.464166  0.070895  0.327484  1
  O  O22  1  0.343488  0.076898  0.886562  1
  O  O23  1  0.865080  0.916130  0.102379  1
  O  O24  1  0.423977  0.288140  0.672746  1
  O  O25  1  0.881983  0.714647  0.301905  1
  O  O26  1  0.356647  0.380813  0.944451  1
  O  O27  1  0.841984  0.595267  0.026211  1
  O  O28  1  0.423189  0.568505  0.853738  1
  O  O29  1  0.951166  0.436931  0.148219  1
  O  O30  1  0.369544  0.559373  0.369866  1
  O  O31  1  0.835775  0.408627  0.620830  1
  O  O32  1  0.446500  0.368119  0.445690  1
  O  O33  1  0.913271  0.597521  0.542529  1
  O  O34  1  0.831140  0.114897  0.565351  1
  O  O35  1  0.363949  0.914888  0.442620  1
