# generated using pymatgen
data_Y4HoCo2Pd
_symmetry_space_group_name_H-M   'P 1'
_cell_length_a   7.22196882
_cell_length_b   7.22196834
_cell_length_c   8.78008428
_cell_angle_alpha   114.28463565
_cell_angle_beta   114.28463301
_cell_angle_gamma   89.99999402
_symmetry_Int_Tables_number   1
_chemical_formula_structural   Y4HoCo2Pd
_chemical_formula_sum   'Y8 Ho2 Co4 Pd2'
_cell_volume   372.51612850
_cell_formula_units_Z   2
loop_
 _symmetry_equiv_pos_site_id
 _symmetry_equiv_pos_as_xyz
  1  'x, y, z'
loop_
 _atom_site_type_symbol
 _atom_site_label
 _atom_site_symmetry_multiplicity
 _atom_site_fract_x
 _atom_site_fract_y
 _atom_site_fract_z
 _atom_site_occupancy
  Y  Y0  1  0.463556  0.314195  0.277751  1
  Y  Y1  1  0.963557  0.463556  0.277751  1
  Y  Y2  1  0.314195  0.814194  0.277751  1
  Y  Y3  1  0.814194  0.963557  0.277751  1
  Y  Y4  1  0.185805  0.036444  0.722248  1
  Y  Y5  1  0.685804  0.185805  0.722248  1
  Y  Y6  1  0.036444  0.536443  0.722248  1
  Y  Y7  1  0.536443  0.685804  0.722248  1
  Ho  Ho8  1  0.000000  0.000000  0.000000  1
  Ho  Ho9  1  0.500000  0.500000  0.000000  1
  Co  Co10  1  0.613887  0.113887  0.000000  1
  Co  Co11  1  0.113887  0.386114  0.000000  1
  Co  Co12  1  0.886113  0.613887  0.000000  1
  Co  Co13  1  0.386114  0.886113  0.000000  1
  Pd  Pd14  1  0.250000  0.250000  0.500000  1
  Pd  Pd15  1  0.750000  0.750000  0.500000  1
