# generated using pymatgen
data_Pr3Sm(Lu3Sn4)2
_symmetry_space_group_name_H-M   'P 1'
_cell_length_a   8.01475100
_cell_length_b   8.22347601
_cell_length_c   15.42744001
_cell_angle_alpha   89.99497420
_cell_angle_beta   90.00000000
_cell_angle_gamma   90.00000000
_symmetry_Int_Tables_number   1
_chemical_formula_structural   Pr3Sm(Lu3Sn4)2
_chemical_formula_sum   'Pr6 Sm2 Lu12 Sn16'
_cell_volume   1016.80887651
_cell_formula_units_Z   2
loop_
 _symmetry_equiv_pos_site_id
 _symmetry_equiv_pos_as_xyz
  1  'x, y, z'
loop_
 _atom_site_type_symbol
 _atom_site_label
 _atom_site_symmetry_multiplicity
 _atom_site_fract_x
 _atom_site_fract_y
 _atom_site_fract_z
 _atom_site_occupancy
  Pr  Pr0  1  0.490265  0.675445  0.403984  1
  Pr  Pr1  1  0.990265  0.824555  0.096016  1
  Pr  Pr2  1  0.490112  0.675316  0.095936  1
  Pr  Pr3  1  0.990112  0.824684  0.404064  1
  Pr  Pr4  1  0.509610  0.324369  0.595997  1
  Pr  Pr5  1  0.009610  0.175631  0.904003  1
  Sm  Sm6  1  0.509955  0.324196  0.903498  1
  Sm  Sm7  1  0.009955  0.175804  0.596502  1
  Lu  Lu8  1  0.349195  0.835835  0.874898  1
  Lu  Lu9  1  0.849195  0.664165  0.625102  1
  Lu  Lu10  1  0.650880  0.164140  0.375062  1
  Lu  Lu11  1  0.150880  0.335860  0.124938  1
  Lu  Lu12  1  0.650685  0.164378  0.124925  1
  Lu  Lu13  1  0.150685  0.335622  0.375075  1
  Lu  Lu14  1  0.349013  0.836118  0.625112  1
  Lu  Lu15  1  0.849013  0.663882  0.874888  1
  Lu  Lu16  1  0.181678  0.502841  0.750027  1
  Lu  Lu17  1  0.681678  0.997159  0.749973  1
  Lu  Lu18  1  0.818377  0.496772  0.250046  1
  Lu  Lu19  1  0.318377  0.003228  0.249954  1
  Sn  Sn20  1  0.315159  0.042739  0.041770  1
  Sn  Sn21  1  0.815159  0.457261  0.458230  1
  Sn  Sn22  1  0.686854  0.958635  0.542321  1
  Sn  Sn23  1  0.186854  0.541365  0.957679  1
  Sn  Sn24  1  0.684687  0.958600  0.957811  1
  Sn  Sn25  1  0.184687  0.541400  0.542189  1
  Sn  Sn26  1  0.313457  0.042612  0.458407  1
  Sn  Sn27  1  0.813457  0.457388  0.041593  1
  Sn  Sn28  1  0.546018  0.625688  0.750248  1
  Sn  Sn29  1  0.046018  0.874312  0.749752  1
  Sn  Sn30  1  0.453878  0.373594  0.250032  1
  Sn  Sn31  1  0.953878  0.126406  0.249968  1
  Sn  Sn32  1  0.317394  0.144893  0.750314  1
  Sn  Sn33  1  0.817394  0.355107  0.749686  1
  Sn  Sn34  1  0.682784  0.856158  0.250008  1
  Sn  Sn35  1  0.182784  0.643842  0.249992  1
