# generated using pymatgen
data_Fe8Si3Mo13N4
_symmetry_space_group_name_H-M   'P 1'
_cell_length_a   7.89799585
_cell_length_b   7.88540922
_cell_length_c   7.89799500
_cell_angle_alpha   59.94718369
_cell_angle_beta   59.99999937
_cell_angle_gamma   59.94718390
_symmetry_Int_Tables_number   1
_chemical_formula_structural   Fe8Si3Mo13N4
_chemical_formula_sum   'Fe8 Si3 Mo13 N4'
_cell_volume   347.53282112
_cell_formula_units_Z   1
loop_
 _symmetry_equiv_pos_site_id
 _symmetry_equiv_pos_as_xyz
  1  'x, y, z'
loop_
 _atom_site_type_symbol
 _atom_site_label
 _atom_site_symmetry_multiplicity
 _atom_site_fract_x
 _atom_site_fract_y
 _atom_site_fract_z
 _atom_site_occupancy
  Fe  Fe0  1  0.914742  0.925534  0.244982  1
  Fe  Fe1  1  0.244982  0.925534  0.914742  1
  Fe  Fe2  1  0.919378  0.241866  0.919378  1
  Fe  Fe3  1  0.330622  0.008134  0.330622  1
  Fe  Fe4  1  0.335258  0.324466  0.005018  1
  Fe  Fe5  1  0.335258  0.324466  0.335258  1
  Fe  Fe6  1  0.914742  0.925534  0.914742  1
  Fe  Fe7  1  0.005018  0.324466  0.335258  1
  Si  Si8  1  0.625000  0.125000  0.125000  1
  Si  Si9  1  0.125000  0.125000  0.625000  1
  Si  Si10  1  0.125000  0.125000  0.125000  1
  Mo  Mo11  1  0.556019  0.943738  0.944225  1
  Mo  Mo12  1  0.305287  0.695852  0.305287  1
  Mo  Mo13  1  0.944225  0.943738  0.556019  1
  Mo  Mo14  1  0.944713  0.554148  0.556426  1
  Mo  Mo15  1  0.693981  0.306262  0.693981  1
  Mo  Mo16  1  0.305775  0.306262  0.693981  1
  Mo  Mo17  1  0.693981  0.306262  0.305775  1
  Mo  Mo18  1  0.556019  0.943738  0.556019  1
  Mo  Mo19  1  0.305287  0.695852  0.693574  1
  Mo  Mo20  1  0.944713  0.554148  0.944713  1
  Mo  Mo21  1  0.556426  0.554148  0.944713  1
  Mo  Mo22  1  0.693574  0.695852  0.305287  1
  Mo  Mo23  1  0.125000  0.625000  0.125000  1
  N  N24  1  0.625000  0.625000  0.625000  1
  N  N25  1  0.125000  0.625000  0.625000  1
  N  N26  1  0.625000  0.125000  0.625000  1
  N  N27  1  0.625000  0.625000  0.125000  1
