# generated using pymatgen
data_Hg3Os2F12
_symmetry_space_group_name_H-M   'P 1'
_cell_length_a   8.94902000
_cell_length_b   6.20459774
_cell_length_c   11.83536267
_cell_angle_alpha   86.16657684
_cell_angle_beta   90.00000000
_cell_angle_gamma   90.00000000
_symmetry_Int_Tables_number   1
_chemical_formula_structural   Hg3Os2F12
_chemical_formula_sum   'Hg6 Os4 F24'
_cell_volume   655.68902892
_cell_formula_units_Z   2
loop_
 _symmetry_equiv_pos_site_id
 _symmetry_equiv_pos_as_xyz
  1  'x, y, z'
loop_
 _atom_site_type_symbol
 _atom_site_label
 _atom_site_symmetry_multiplicity
 _atom_site_fract_x
 _atom_site_fract_y
 _atom_site_fract_z
 _atom_site_occupancy
  Hg  Hg0  1  0.731325  0.762260  0.570167  1
  Hg  Hg1  1  0.231325  0.237740  0.929833  1
  Hg  Hg2  1  0.268675  0.237740  0.429833  1
  Hg  Hg3  1  0.768675  0.762260  0.070167  1
  Hg  Hg4  1  0.500000  0.000000  0.500000  1
  Hg  Hg5  1  0.000000  0.000000  0.000000  1
  Os  Os6  1  0.140726  0.700720  0.671823  1
  Os  Os7  1  0.640726  0.299280  0.828177  1
  Os  Os8  1  0.859274  0.299280  0.328177  1
  Os  Os9  1  0.359274  0.700720  0.171823  1
  F  F10  1  0.955653  0.574314  0.619280  1
  F  F11  1  0.455653  0.425686  0.880720  1
  F  F12  1  0.044347  0.425686  0.380720  1
  F  F13  1  0.544347  0.574314  0.119280  1
  F  F14  1  0.215210  0.414618  0.708949  1
  F  F15  1  0.715210  0.585382  0.791051  1
  F  F16  1  0.784790  0.585382  0.291051  1
  F  F17  1  0.284790  0.414618  0.208949  1
  F  F18  1  0.057536  0.702412  0.820866  1
  F  F19  1  0.557536  0.297588  0.679134  1
  F  F20  1  0.178844  0.827339  0.219695  1
  F  F21  1  0.678844  0.172661  0.280305  1
  F  F22  1  0.821156  0.172661  0.780305  1
  F  F23  1  0.321156  0.827339  0.719695  1
  F  F24  1  0.273847  0.690392  0.023654  1
  F  F25  1  0.773847  0.309608  0.476346  1
  F  F26  1  0.726153  0.309608  0.976346  1
  F  F27  1  0.226153  0.690392  0.523654  1
  F  F28  1  0.442777  0.977644  0.131496  1
  F  F29  1  0.942777  0.022356  0.368504  1
  F  F30  1  0.557223  0.022356  0.868504  1
  F  F31  1  0.057223  0.977644  0.631496  1
  F  F32  1  0.442464  0.702412  0.320866  1
  F  F33  1  0.942464  0.297588  0.179134  1
