# generated using pymatgen
data_Yb2DyLuAl8
_symmetry_space_group_name_H-M   'P 1'
_cell_length_a   9.72295425
_cell_length_b   9.72295389
_cell_length_c   9.72295484
_cell_angle_alpha   33.30277690
_cell_angle_beta   33.30278171
_cell_angle_gamma   33.30277680
_symmetry_Int_Tables_number   1
_chemical_formula_structural   Yb2DyLuAl8
_chemical_formula_sum   'Yb2 Dy1 Lu1 Al8'
_cell_volume   246.71833367
_cell_formula_units_Z   1
loop_
 _symmetry_equiv_pos_site_id
 _symmetry_equiv_pos_as_xyz
  1  'x, y, z'
loop_
 _atom_site_type_symbol
 _atom_site_label
 _atom_site_symmetry_multiplicity
 _atom_site_fract_x
 _atom_site_fract_y
 _atom_site_fract_z
 _atom_site_occupancy
  Yb  Yb0  1  0.313609  0.313609  0.313609  1
  Yb  Yb1  1  0.686631  0.686631  0.686631  1
  Dy  Dy2  1  0.188017  0.188017  0.188017  1
  Lu  Lu3  1  0.812024  0.812024  0.812024  1
  Al  Al4  1  0.499914  0.499914  0.499914  1
  Al  Al5  1  0.000144  0.000144  0.000144  1
  Al  Al6  1  0.251217  0.251217  0.754172  1
  Al  Al7  1  0.748884  0.748884  0.245286  1
  Al  Al8  1  0.251217  0.754172  0.251217  1
  Al  Al9  1  0.748884  0.245286  0.748884  1
  Al  Al10  1  0.754172  0.251217  0.251217  1
  Al  Al11  1  0.245286  0.748884  0.748884  1
