# generated using pymatgen
data_SrMg2SiHg
_symmetry_space_group_name_H-M   'P 1'
_cell_length_a   4.46898215
_cell_length_b   4.46898251
_cell_length_c   6.92375651
_cell_angle_alpha   108.82799786
_cell_angle_beta   108.82799381
_cell_angle_gamma   89.99999780
_symmetry_Int_Tables_number   1
_chemical_formula_structural   SrMg2SiHg
_chemical_formula_sum   'Sr1 Mg2 Si1 Hg1'
_cell_volume   123.03749133
_cell_formula_units_Z   1
loop_
 _symmetry_equiv_pos_site_id
 _symmetry_equiv_pos_as_xyz
  1  'x, y, z'
loop_
 _atom_site_type_symbol
 _atom_site_label
 _atom_site_symmetry_multiplicity
 _atom_site_fract_x
 _atom_site_fract_y
 _atom_site_fract_z
 _atom_site_occupancy
  Sr  Sr0  1  0.009405  0.009405  0.018809  1
  Mg  Mg1  1  0.742196  0.242194  0.484390  1
  Mg  Mg2  1  0.242194  0.742196  0.484390  1
  Si  Si3  1  0.611626  0.611626  0.223250  1
  Hg  Hg4  1  0.394580  0.394580  0.789159  1
