# generated using pymatgen
data_Er4Co4HgI
_symmetry_space_group_name_H-M   'P 1'
_cell_length_a   3.89956300
_cell_length_b   3.89956394
_cell_length_c   16.48532900
_cell_angle_alpha   90.00000000
_cell_angle_beta   90.00000000
_cell_angle_gamma   119.99998351
_symmetry_Int_Tables_number   1
_chemical_formula_structural   Er4Co4HgI
_chemical_formula_sum   'Er4 Co4 Hg1 I1'
_cell_volume   217.10024316
_cell_formula_units_Z   1
loop_
 _symmetry_equiv_pos_site_id
 _symmetry_equiv_pos_as_xyz
  1  'x, y, z'
loop_
 _atom_site_type_symbol
 _atom_site_label
 _atom_site_symmetry_multiplicity
 _atom_site_fract_x
 _atom_site_fract_y
 _atom_site_fract_z
 _atom_site_occupancy
  Er  Er0  1  0.000000  0.000000  0.114738  1
  Er  Er1  1  0.000000  0.000000  0.899499  1
  Er  Er2  1  0.000000  0.000000  0.600501  1
  Er  Er3  1  0.000000  0.000000  0.385262  1
  Co  Co4  1  0.333333  0.666667  0.496752  1
  Co  Co5  1  0.666667  0.333333  0.495578  1
  Co  Co6  1  0.666667  0.333333  0.004422  1
  Co  Co7  1  0.333333  0.666667  0.003248  1
  Hg  Hg8  1  0.333333  0.666667  0.250000  1
  I  I9  1  0.666667  0.333333  0.750000  1
