# generated using pymatgen
data_CsSrWN3
_symmetry_space_group_name_H-M   'P 1'
_cell_length_a   6.85601541
_cell_length_b   6.85601507
_cell_length_c   12.94790496
_cell_angle_alpha   90.07986467
_cell_angle_beta   90.07986761
_cell_angle_gamma   126.24315280
_symmetry_Int_Tables_number   1
_chemical_formula_structural   CsSrWN3
_chemical_formula_sum   'Cs4 Sr4 W4 N12'
_cell_volume   490.85540586
_cell_formula_units_Z   4
loop_
 _symmetry_equiv_pos_site_id
 _symmetry_equiv_pos_as_xyz
  1  'x, y, z'
loop_
 _atom_site_type_symbol
 _atom_site_label
 _atom_site_symmetry_multiplicity
 _atom_site_fract_x
 _atom_site_fract_y
 _atom_site_fract_z
 _atom_site_occupancy
  Cs  Cs0  1  0.971738  0.540694  0.360299  1
  Cs  Cs1  1  0.459306  0.028262  0.139701  1
  Cs  Cs2  1  0.028262  0.459306  0.639701  1
  Cs  Cs3  1  0.540694  0.971738  0.860299  1
  Sr  Sr4  1  0.132755  0.340454  0.078979  1
  Sr  Sr5  1  0.659546  0.867245  0.421021  1
  Sr  Sr6  1  0.867245  0.659546  0.921021  1
  Sr  Sr7  1  0.340454  0.132755  0.578979  1
  W  W8  1  0.773368  0.722725  0.165121  1
  W  W9  1  0.277275  0.226632  0.334879  1
  W  W10  1  0.226632  0.277275  0.834879  1
  W  W11  1  0.722725  0.773368  0.665121  1
  N  N12  1  0.483101  0.516899  0.250000  1
  N  N13  1  0.516899  0.483101  0.750000  1
  N  N14  1  0.909478  0.574400  0.117822  1
  N  N15  1  0.425600  0.090522  0.382178  1
  N  N16  1  0.090522  0.425600  0.882178  1
  N  N17  1  0.574400  0.909478  0.617822  1
  N  N18  1  0.819955  0.703598  0.548756  1
  N  N19  1  0.296402  0.180045  0.951244  1
  N  N20  1  0.180045  0.296402  0.451244  1
  N  N21  1  0.703598  0.819955  0.048756  1
  N  N22  1  0.991912  0.008088  0.250000  1
  N  N23  1  0.008088  0.991912  0.750000  1
