# generated using pymatgen
data_Ho5Si12Ni16Mo3
_symmetry_space_group_name_H-M   'P 1'
_cell_length_a   12.34679900
_cell_length_b   12.34679924
_cell_length_c   3.78119200
_cell_angle_alpha   90.00000000
_cell_angle_beta   90.00000000
_cell_angle_gamma   120.00000740
_symmetry_Int_Tables_number   1
_chemical_formula_structural   Ho5Si12Ni16Mo3
_chemical_formula_sum   'Ho5 Si12 Ni16 Mo3'
_cell_volume   499.19254891
_cell_formula_units_Z   1
loop_
 _symmetry_equiv_pos_site_id
 _symmetry_equiv_pos_as_xyz
  1  'x, y, z'
loop_
 _atom_site_type_symbol
 _atom_site_label
 _atom_site_symmetry_multiplicity
 _atom_site_fract_x
 _atom_site_fract_y
 _atom_site_fract_z
 _atom_site_occupancy
  Ho  Ho0  1  0.187221  0.187221  0.500000  1
  Ho  Ho1  1  0.812779  0.000000  0.500000  1
  Ho  Ho2  1  0.000000  0.812779  0.500000  1
  Ho  Ho3  1  0.333333  0.666667  0.000000  1
  Ho  Ho4  1  0.666667  0.333333  0.000000  1
  Si  Si5  1  0.818835  0.818835  0.000000  1
  Si  Si6  1  0.181165  0.000000  0.000000  1
  Si  Si7  1  0.000000  0.181165  0.000000  1
  Si  Si8  1  0.164331  0.477603  0.500000  1
  Si  Si9  1  0.522397  0.686726  0.500000  1
  Si  Si10  1  0.313274  0.835669  0.500000  1
  Si  Si11  1  0.686726  0.522397  0.500000  1
  Si  Si12  1  0.835669  0.313274  0.500000  1
  Si  Si13  1  0.477603  0.164331  0.500000  1
  Si  Si14  1  0.366045  0.366045  0.000000  1
  Si  Si15  1  0.633955  0.000000  0.000000  1
  Si  Si16  1  0.000000  0.633955  0.000000  1
  Ni  Ni17  1  0.723762  0.723762  0.500000  1
  Ni  Ni18  1  0.276238  0.000000  0.500000  1
  Ni  Ni19  1  0.000000  0.276238  0.500000  1
  Ni  Ni20  1  0.182916  0.377069  0.000000  1
  Ni  Ni21  1  0.622931  0.805846  0.000000  1
  Ni  Ni22  1  0.194154  0.817084  0.000000  1
  Ni  Ni23  1  0.805846  0.622931  0.000000  1
  Ni  Ni24  1  0.817084  0.194154  0.000000  1
  Ni  Ni25  1  0.377069  0.182916  0.000000  1
  Ni  Ni26  1  0.356975  0.480192  0.500000  1
  Ni  Ni27  1  0.519808  0.876784  0.500000  1
  Ni  Ni28  1  0.123216  0.643025  0.500000  1
  Ni  Ni29  1  0.876784  0.519808  0.500000  1
  Ni  Ni30  1  0.643025  0.123216  0.500000  1
  Ni  Ni31  1  0.480192  0.356975  0.500000  1
  Ni  Ni32  1  0.000000  0.000000  0.000000  1
  Mo  Mo33  1  0.563506  0.563506  0.000000  1
  Mo  Mo34  1  0.436494  0.000000  0.000000  1
  Mo  Mo35  1  0.000000  0.436494  0.000000  1
