# generated using pymatgen
data_CaGa2(SnIr)4
_symmetry_space_group_name_H-M   'P 1'
_cell_length_a   6.84882477
_cell_length_b   6.84882464
_cell_length_c   6.85519740
_cell_angle_alpha   119.53252410
_cell_angle_beta   119.53252087
_cell_angle_gamma   90.75906108
_symmetry_Int_Tables_number   1
_chemical_formula_structural   CaGa2(SnIr)4
_chemical_formula_sum   'Ca1 Ga2 Sn4 Ir4'
_cell_volume   229.06006593
_cell_formula_units_Z   1
loop_
 _symmetry_equiv_pos_site_id
 _symmetry_equiv_pos_as_xyz
  1  'x, y, z'
loop_
 _atom_site_type_symbol
 _atom_site_label
 _atom_site_symmetry_multiplicity
 _atom_site_fract_x
 _atom_site_fract_y
 _atom_site_fract_z
 _atom_site_occupancy
  Ca  Ca0  1  0.981401  0.981401  0.000000  1
  Ga  Ga1  1  0.883573  0.531943  0.000000  1
  Ga  Ga2  1  0.531943  0.883573  0.000000  1
  Sn  Sn3  1  0.458982  0.458982  0.337422  1
  Sn  Sn4  1  0.505665  0.005666  0.499999  1
  Sn  Sn5  1  0.005666  0.505665  0.499999  1
  Sn  Sn6  1  0.121559  0.121559  0.662577  1
  Ir  Ir7  1  0.602558  0.238334  0.000000  1
  Ir  Ir8  1  0.238334  0.602558  0.000000  1
  Ir  Ir9  1  0.744866  0.744866  0.319415  1
  Ir  Ir10  1  0.425450  0.425450  0.680584  1
