# generated using pymatgen
data_Er2Th3TcIr2
_symmetry_space_group_name_H-M   'P 1'
_cell_length_a   6.42140900
_cell_length_b   8.38402495
_cell_length_c   8.36707701
_cell_angle_alpha   119.93270061
_cell_angle_beta   89.99984644
_cell_angle_gamma   89.99977937
_symmetry_Int_Tables_number   1
_chemical_formula_structural   Er2Th3TcIr2
_chemical_formula_sum   'Er4 Th6 Tc2 Ir4'
_cell_volume   390.37447346
_cell_formula_units_Z   2
loop_
 _symmetry_equiv_pos_site_id
 _symmetry_equiv_pos_as_xyz
  1  'x, y, z'
loop_
 _atom_site_type_symbol
 _atom_site_label
 _atom_site_symmetry_multiplicity
 _atom_site_fract_x
 _atom_site_fract_y
 _atom_site_fract_z
 _atom_site_occupancy
  Er  Er0  1  0.502165  0.333130  0.667156  1
  Er  Er1  1  0.502163  0.666869  0.334002  1
  Er  Er2  1  0.997837  0.666872  0.334005  1
  Er  Er3  1  0.997835  0.333136  0.667158  1
  Th  Th4  1  0.750003  0.258577  0.008165  1
  Th  Th5  1  0.749998  0.741409  0.749569  1
  Th  Th6  1  0.750002  0.000003  0.251887  1
  Th  Th7  1  0.250002  0.746222  0.000101  1
  Th  Th8  1  0.250003  0.253792  0.253893  1
  Th  Th9  1  0.249997  0.999996  0.743515  1
  Tc  Tc10  1  0.750006  0.625493  0.000246  1
  Tc  Tc11  1  0.750000  0.374500  0.374742  1
  Ir  Ir12  1  0.749995  0.999997  0.620937  1
  Ir  Ir13  1  0.249994  0.387540  0.996791  1
  Ir  Ir14  1  0.250000  0.612462  0.609250  1
  Ir  Ir15  1  0.250002  0.000003  0.388582  1
