# generated using pymatgen
data_Yb3(AsO4)2
_symmetry_space_group_name_H-M   'P 1'
_cell_length_a   7.00846134
_cell_length_b   7.00846163
_cell_length_c   7.00846165
_cell_angle_alpha   45.91582934
_cell_angle_beta   45.91582853
_cell_angle_gamma   45.91582578
_symmetry_Int_Tables_number   1
_chemical_formula_structural   Yb3(AsO4)2
_chemical_formula_sum   'Yb3 As2 O8'
_cell_volume   161.98627766
_cell_formula_units_Z   1
loop_
 _symmetry_equiv_pos_site_id
 _symmetry_equiv_pos_as_xyz
  1  'x, y, z'
loop_
 _atom_site_type_symbol
 _atom_site_label
 _atom_site_symmetry_multiplicity
 _atom_site_fract_x
 _atom_site_fract_y
 _atom_site_fract_z
 _atom_site_occupancy
  Yb  Yb0  1  0.000000  0.000000  0.000000  1
  Yb  Yb1  1  0.197472  0.197472  0.197472  1
  Yb  Yb2  1  0.802528  0.802528  0.802528  1
  As  As3  1  0.595191  0.595191  0.595191  1
  As  As4  1  0.404809  0.404809  0.404809  1
  O  O5  1  0.777978  0.262736  0.262736  1
  O  O6  1  0.737264  0.222022  0.737264  1
  O  O7  1  0.685499  0.685499  0.685499  1
  O  O8  1  0.314501  0.314501  0.314501  1
  O  O9  1  0.737264  0.737264  0.222022  1
  O  O10  1  0.262736  0.262736  0.777978  1
  O  O11  1  0.262736  0.777978  0.262736  1
  O  O12  1  0.222022  0.737264  0.737264  1
