# generated using pymatgen
data_Tm7Co5Sn23Ir
_symmetry_space_group_name_H-M   'P 1'
_cell_length_a   9.70254349
_cell_length_b   9.70254295
_cell_length_c   9.95650789
_cell_angle_alpha   90.11565126
_cell_angle_beta   89.88434688
_cell_angle_gamma   119.93332223
_symmetry_Int_Tables_number   1
_chemical_formula_structural   Tm7Co5Sn23Ir
_chemical_formula_sum   'Tm7 Co5 Sn23 Ir1'
_cell_volume   812.26748997
_cell_formula_units_Z   1
loop_
 _symmetry_equiv_pos_site_id
 _symmetry_equiv_pos_as_xyz
  1  'x, y, z'
loop_
 _atom_site_type_symbol
 _atom_site_label
 _atom_site_symmetry_multiplicity
 _atom_site_fract_x
 _atom_site_fract_y
 _atom_site_fract_z
 _atom_site_occupancy
  Tm  Tm0  1  0.479871  0.520129  0.307134  1
  Tm  Tm1  1  0.520494  0.479506  0.693309  1
  Tm  Tm2  1  0.480788  0.960172  0.305599  1
  Tm  Tm3  1  0.519368  0.040264  0.693526  1
  Tm  Tm4  1  0.039828  0.519212  0.305599  1
  Tm  Tm5  1  0.959736  0.480632  0.693526  1
  Tm  Tm6  1  0.996274  0.003726  0.004913  1
  Co  Co7  1  0.168399  0.831601  0.802950  1
  Co  Co8  1  0.832472  0.663158  0.196218  1
  Co  Co9  1  0.169969  0.335616  0.801494  1
  Co  Co10  1  0.336842  0.167528  0.196218  1
  Co  Co11  1  0.664384  0.830031  0.801494  1
  Sn  Sn12  1  0.118833  0.881167  0.273606  1
  Sn  Sn13  1  0.881950  0.118050  0.726073  1
  Sn  Sn14  1  0.126819  0.239375  0.279876  1
  Sn  Sn15  1  0.882785  0.763213  0.725829  1
  Sn  Sn16  1  0.760625  0.873181  0.279876  1
  Sn  Sn17  1  0.236787  0.117215  0.725829  1
  Sn  Sn18  1  0.778348  0.221652  0.458798  1
  Sn  Sn19  1  0.219235  0.780765  0.548080  1
  Sn  Sn20  1  0.780742  0.561188  0.451682  1
  Sn  Sn21  1  0.219315  0.439298  0.548666  1
  Sn  Sn22  1  0.438812  0.219258  0.451682  1
  Sn  Sn23  1  0.560702  0.780685  0.548666  1
  Sn  Sn24  1  0.343703  0.999205  0.999736  1
  Sn  Sn25  1  0.645795  0.994169  0.993805  1
  Sn  Sn26  1  0.005831  0.354205  0.993805  1
  Sn  Sn27  1  0.000795  0.656297  0.999736  1
  Sn  Sn28  1  0.653951  0.653725  0.999668  1
  Sn  Sn29  1  0.346275  0.346049  0.999668  1
  Sn  Sn30  1  0.333780  0.666220  0.123086  1
  Sn  Sn31  1  0.666667  0.333333  0.876024  1
  Sn  Sn32  1  0.333429  0.666571  0.818095  1
  Sn  Sn33  1  0.664078  0.335922  0.178322  1
  Sn  Sn34  1  0.999641  0.000359  0.500665  1
  Ir  Ir35  1  0.832674  0.167326  0.196749  1
