# generated using pymatgen
data_Ce3Th3Sb8
_symmetry_space_group_name_H-M   'P 1'
_cell_length_a   8.15557154
_cell_length_b   8.15557163
_cell_length_c   8.14887491
_cell_angle_alpha   109.69016769
_cell_angle_beta   109.27325927
_cell_angle_gamma   109.48378693
_symmetry_Int_Tables_number   1
_chemical_formula_structural   Ce3Th3Sb8
_chemical_formula_sum   'Ce3 Th3 Sb8'
_cell_volume   417.06168769
_cell_formula_units_Z   1
loop_
 _symmetry_equiv_pos_site_id
 _symmetry_equiv_pos_as_xyz
  1  'x, y, z'
loop_
 _atom_site_type_symbol
 _atom_site_label
 _atom_site_symmetry_multiplicity
 _atom_site_fract_x
 _atom_site_fract_y
 _atom_site_fract_z
 _atom_site_occupancy
  Ce  Ce0  1  0.875140  0.125140  0.750000  1
  Ce  Ce1  1  0.374846  0.250285  0.625546  1
  Ce  Ce2  1  0.124738  0.749300  0.874454  1
  Th  Th3  1  0.749627  0.875098  0.124462  1
  Th  Th4  1  0.250636  0.625165  0.375538  1
  Th  Th5  1  0.624938  0.374938  0.250000  1
  Sb  Sb6  1  0.660158  0.659125  0.661348  1
  Sb  Sb7  1  0.501194  0.001945  0.342649  1
  Sb  Sb8  1  0.001203  0.341328  0.503277  1
  Sb  Sb9  1  0.338051  0.497926  0.996723  1
  Sb  Sb10  1  0.002199  0.843501  0.503304  1
  Sb  Sb11  1  0.840197  0.498894  0.996696  1
  Sb  Sb12  1  0.159296  0.158545  0.157351  1
  Sb  Sb13  1  0.497778  0.998810  0.838652  1
