# generated using pymatgen
data_Lu12ZnCo4Sn
_symmetry_space_group_name_H-M   'P 1'
_cell_length_a   8.12324001
_cell_length_b   8.12323953
_cell_length_c   8.12323955
_cell_angle_alpha   111.63996369
_cell_angle_beta   109.95595996
_cell_angle_gamma   106.85371961
_symmetry_Int_Tables_number   1
_chemical_formula_structural   Lu12ZnCo4Sn
_chemical_formula_sum   'Lu12 Zn1 Co4 Sn1'
_cell_volume   411.89923054
_cell_formula_units_Z   1
loop_
 _symmetry_equiv_pos_site_id
 _symmetry_equiv_pos_as_xyz
  1  'x, y, z'
loop_
 _atom_site_type_symbol
 _atom_site_label
 _atom_site_symmetry_multiplicity
 _atom_site_fract_x
 _atom_site_fract_y
 _atom_site_fract_z
 _atom_site_occupancy
  Lu  Lu0  1  0.432380  0.228630  0.203748  1
  Lu  Lu1  1  0.567620  0.771370  0.796252  1
  Lu  Lu2  1  0.024882  0.228630  0.796252  1
  Lu  Lu3  1  0.975118  0.771370  0.203748  1
  Lu  Lu4  1  0.182458  0.282261  0.464720  1
  Lu  Lu5  1  0.817542  0.717739  0.535280  1
  Lu  Lu6  1  0.182458  0.717739  0.900197  1
  Lu  Lu7  1  0.817542  0.282261  0.099803  1
  Lu  Lu8  1  0.319055  0.626324  0.307270  1
  Lu  Lu9  1  0.680945  0.373676  0.692730  1
  Lu  Lu10  1  0.319055  0.011785  0.692730  1
  Lu  Lu11  1  0.680945  0.988215  0.307270  1
  Zn  Zn12  1  0.000000  0.000000  0.000000  1
  Co  Co13  1  0.362613  0.000000  0.362613  1
  Co  Co14  1  0.637387  0.000000  0.637387  1
  Co  Co15  1  0.114922  0.614922  0.500000  1
  Co  Co16  1  0.885078  0.385078  0.500000  1
  Sn  Sn17  1  0.500000  0.500000  0.000000  1
