# generated using pymatgen
data_K5(TlPd)3
_symmetry_space_group_name_H-M   'P 1'
_cell_length_a   16.60222548
_cell_length_b   16.60222449
_cell_length_c   5.46692500
_cell_angle_alpha   90.00000000
_cell_angle_beta   90.00000000
_cell_angle_gamma   164.16500006
_symmetry_Int_Tables_number   1
_chemical_formula_structural   K5(TlPd)3
_chemical_formula_sum   'K5 Tl3 Pd3'
_cell_volume   411.17649742
_cell_formula_units_Z   1
loop_
 _symmetry_equiv_pos_site_id
 _symmetry_equiv_pos_as_xyz
  1  'x, y, z'
loop_
 _atom_site_type_symbol
 _atom_site_label
 _atom_site_symmetry_multiplicity
 _atom_site_fract_x
 _atom_site_fract_y
 _atom_site_fract_z
 _atom_site_occupancy
  K  K0  1  0.999076  0.000924  0.000000  1
  K  K1  1  0.616548  0.383450  0.000000  1
  K  K2  1  0.385406  0.614592  0.000000  1
  K  K3  1  0.805882  0.194116  0.500001  1
  K  K4  1  0.195707  0.804291  0.500001  1
  Tl  Tl5  1  0.270308  0.729690  0.000000  1
  Tl  Tl6  1  0.457963  0.542035  0.500001  1
  Tl  Tl7  1  0.082332  0.917667  0.500001  1
  Pd  Pd8  1  0.728067  0.271931  0.000000  1
  Pd  Pd9  1  0.917045  0.082954  0.500001  1
  Pd  Pd10  1  0.541658  0.458340  0.500001  1
