# generated using pymatgen
data_U10S19O
_symmetry_space_group_name_H-M   'P 1'
_cell_length_a   10.13232421
_cell_length_b   10.15922676
_cell_length_c   6.25950235
_cell_angle_alpha   91.32831875
_cell_angle_beta   89.50623148
_cell_angle_gamma   89.94236881
_symmetry_Int_Tables_number   1
_chemical_formula_structural   U10S19O
_chemical_formula_sum   'U10 S19 O1'
_cell_volume   644.13422264
_cell_formula_units_Z   1
loop_
 _symmetry_equiv_pos_site_id
 _symmetry_equiv_pos_as_xyz
  1  'x, y, z'
loop_
 _atom_site_type_symbol
 _atom_site_label
 _atom_site_symmetry_multiplicity
 _atom_site_fract_x
 _atom_site_fract_y
 _atom_site_fract_z
 _atom_site_occupancy
  U  U0  1  0.840210  0.162906  0.272614  1
  U  U1  1  0.636965  0.681167  0.230409  1
  U  U2  1  0.353792  0.344988  0.246542  1
  U  U3  1  0.159784  0.854830  0.245009  1
  U  U4  1  0.496448  0.007218  0.860581  1
  U  U5  1  0.344926  0.652964  0.737002  1
  U  U6  1  0.151968  0.161065  0.747014  1
  U  U7  1  0.847411  0.839079  0.752495  1
  U  U8  1  0.671917  0.341721  0.729776  1
  U  U9  1  0.008735  0.505066  0.125318  1
  S  S10  1  0.708283  0.077119  0.628200  1
  S  S11  1  0.584586  0.790485  0.627094  1
  S  S12  1  0.412328  0.210612  0.613206  1
  S  S13  1  0.290423  0.913633  0.617388  1
  S  S14  1  0.707140  0.920087  0.112931  1
  S  S15  1  0.591479  0.218368  0.105678  1
  S  S16  1  0.407126  0.797797  0.101396  1
  S  S17  1  0.287484  0.094350  0.110101  1
  S  S18  1  0.500596  0.503759  0.983967  1
  S  S19  1  0.997926  0.003049  0.002660  1
  S  S20  1  0.213809  0.413661  0.884321  1
  S  S21  1  0.089181  0.710768  0.884518  1
  S  S22  1  0.913679  0.290152  0.905264  1
  S  S23  1  0.789788  0.585024  0.899337  1
  S  S24  1  0.518548  0.500653  0.483174  1
  S  S25  1  0.997405  0.998994  0.501988  1
  S  S26  1  0.212683  0.595116  0.372967  1
  S  S27  1  0.087924  0.301049  0.385541  1
  S  S28  1  0.893009  0.688782  0.388544  1
  O  O29  1  0.784445  0.335537  0.444968  1
