# generated using pymatgen
data_NpCdHg2(SeBr3)2
_symmetry_space_group_name_H-M   'P 1'
_cell_length_a   7.70047700
_cell_length_b   7.31837079
_cell_length_c   14.56838317
_cell_angle_alpha   90.26775533
_cell_angle_beta   90.00000000
_cell_angle_gamma   90.00000000
_symmetry_Int_Tables_number   1
_chemical_formula_structural   NpCdHg2(SeBr3)2
_chemical_formula_sum   'Np2 Cd2 Hg4 Se4 Br12'
_cell_volume   820.99148110
_cell_formula_units_Z   2
loop_
 _symmetry_equiv_pos_site_id
 _symmetry_equiv_pos_as_xyz
  1  'x, y, z'
loop_
 _atom_site_type_symbol
 _atom_site_label
 _atom_site_symmetry_multiplicity
 _atom_site_fract_x
 _atom_site_fract_y
 _atom_site_fract_z
 _atom_site_occupancy
  Np  Np0  1  0.000000  0.000000  0.000000  1
  Np  Np1  1  0.500000  0.000000  0.500000  1
  Cd  Cd2  1  0.000000  0.500000  0.500000  1
  Cd  Cd3  1  0.500000  0.500000  0.000000  1
  Hg  Hg4  1  0.716111  0.496689  0.253588  1
  Hg  Hg5  1  0.283889  0.503311  0.746412  1
  Hg  Hg6  1  0.216111  0.503311  0.246412  1
  Hg  Hg7  1  0.783889  0.496689  0.753588  1
  Se  Se8  1  0.968254  0.657620  0.331873  1
  Se  Se9  1  0.031746  0.342380  0.668127  1
  Se  Se10  1  0.468254  0.342380  0.168127  1
  Se  Se11  1  0.531746  0.657620  0.831873  1
  Br  Br12  1  0.460720  0.857219  0.326882  1
  Br  Br13  1  0.539280  0.142781  0.673118  1
  Br  Br14  1  0.960720  0.142781  0.173118  1
  Br  Br15  1  0.039280  0.857219  0.826882  1
  Br  Br16  1  0.307438  0.835637  0.057975  1
  Br  Br17  1  0.692562  0.164363  0.942025  1
  Br  Br18  1  0.807438  0.164363  0.442025  1
  Br  Br19  1  0.192562  0.835637  0.557975  1
  Br  Br20  1  0.824392  0.682173  0.055807  1
  Br  Br21  1  0.175608  0.317827  0.944193  1
  Br  Br22  1  0.324392  0.317827  0.444193  1
  Br  Br23  1  0.675608  0.682173  0.555807  1
