# generated using pymatgen
data_MgV2P3PbO12
_symmetry_space_group_name_H-M   'P 1'
_cell_length_a   9.22594551
_cell_length_b   9.22594494
_cell_length_c   9.22594505
_cell_angle_alpha   137.43669547
_cell_angle_beta   110.12855138
_cell_angle_gamma   85.37360814
_symmetry_Int_Tables_number   1
_chemical_formula_structural   MgV2P3PbO12
_chemical_formula_sum   'Mg2 V4 P6 Pb2 O24'
_cell_volume   479.91756249
_cell_formula_units_Z   2
loop_
 _symmetry_equiv_pos_site_id
 _symmetry_equiv_pos_as_xyz
  1  'x, y, z'
loop_
 _atom_site_type_symbol
 _atom_site_label
 _atom_site_symmetry_multiplicity
 _atom_site_fract_x
 _atom_site_fract_y
 _atom_site_fract_z
 _atom_site_occupancy
  Mg  Mg0  1  0.617775  0.617775  0.500000  1
  Mg  Mg1  1  0.882225  0.382225  0.000000  1
  V  V2  1  0.117163  0.617163  0.000000  1
  V  V3  1  0.382837  0.382837  0.500000  1
  V  V4  1  0.500420  0.000000  0.500420  1
  V  V5  1  0.999580  0.500000  0.499580  1
  P  P6  1  0.750000  0.344155  0.594155  1
  P  P7  1  0.250000  0.655845  0.405845  1
  P  P8  1  0.821975  0.821975  0.500000  1
  P  P9  1  0.678025  0.178025  0.000000  1
  P  P10  1  0.324060  0.824060  0.000000  1
  P  P11  1  0.175940  0.175940  0.500000  1
  Pb  Pb12  1  0.750000  0.857039  0.107039  1
  Pb  Pb13  1  0.250000  0.142961  0.892961  1
  O  O14  1  0.653749  0.117869  0.457072  1
  O  O15  1  0.339203  0.882131  0.535879  1
  O  O16  1  0.160797  0.696677  0.542928  1
  O  O17  1  0.846251  0.303323  0.464121  1
  O  O18  1  0.637261  0.489811  0.617309  1
  O  O19  1  0.127497  0.510189  0.147450  1
  O  O20  1  0.372503  0.519954  0.382691  1
  O  O21  1  0.862739  0.480046  0.852550  1
  O  O22  1  0.921834  0.066162  0.720653  1
  O  O23  1  0.654490  0.933838  0.855671  1
  O  O24  1  0.426365  0.706109  0.859880  1
  O  O25  1  0.153771  0.293891  0.720256  1
  O  O26  1  0.073635  0.933516  0.279744  1
  O  O27  1  0.346229  0.066484  0.140120  1
  O  O28  1  0.578166  0.298819  0.144329  1
  O  O29  1  0.845510  0.701181  0.279347  1
  O  O30  1  0.635405  0.792585  0.436682  1
  O  O31  1  0.644097  0.207415  0.842820  1
  O  O32  1  0.137641  0.701036  0.842151  1
  O  O33  1  0.141115  0.298964  0.436605  1
  O  O34  1  0.362359  0.204510  0.563395  1
  O  O35  1  0.358885  0.795490  0.157849  1
  O  O36  1  0.864595  0.301277  0.157180  1
  O  O37  1  0.855903  0.698723  0.563318  1
