# generated using pymatgen
data_Cr3InFeO12
_symmetry_space_group_name_H-M   'P 1'
_cell_length_a   9.04085764
_cell_length_b   9.04085778
_cell_length_c   9.67811300
_cell_angle_alpha   117.84474839
_cell_angle_beta   62.15523682
_cell_angle_gamma   120.00000665
_symmetry_Int_Tables_number   1
_chemical_formula_structural   Cr3InFeO12
_chemical_formula_sum   'Cr6 In2 Fe2 O24'
_cell_volume   576.89911664
_cell_formula_units_Z   2
loop_
 _symmetry_equiv_pos_site_id
 _symmetry_equiv_pos_as_xyz
  1  'x, y, z'
loop_
 _atom_site_type_symbol
 _atom_site_label
 _atom_site_symmetry_multiplicity
 _atom_site_fract_x
 _atom_site_fract_y
 _atom_site_fract_z
 _atom_site_occupancy
  Cr  Cr0  1  0.248812  0.041815  0.248384  1
  Cr  Cr1  1  0.958184  0.455381  0.248384  1
  Cr  Cr2  1  0.544619  0.751187  0.248384  1
  Cr  Cr3  1  0.472533  0.251035  0.750841  1
  Cr  Cr4  1  0.027661  0.527467  0.750841  1
  Cr  Cr5  1  0.748965  0.972339  0.750841  1
  In  In6  1  0.143364  0.856637  0.569909  1
  In  In7  1  0.352733  0.647268  0.941802  1
  Fe  Fe8  1  0.648707  0.351294  0.053883  1
  Fe  Fe9  1  0.855989  0.144012  0.432036  1
  O  O10  1  0.154271  0.478855  0.100421  1
  O  O11  1  0.521144  0.775836  0.100421  1
  O  O12  1  0.224164  0.845728  0.100421  1
  O  O13  1  0.451907  0.192498  0.191647  1
  O  O14  1  0.807502  0.451056  0.191647  1
  O  O15  1  0.548944  0.548093  0.191647  1
  O  O16  1  0.090357  0.111301  0.286864  1
  O  O17  1  0.888698  0.265919  0.286864  1
  O  O18  1  0.734081  0.909643  0.286864  1
  O  O19  1  0.223630  0.015324  0.417849  1
  O  O20  1  0.984677  0.626154  0.417849  1
  O  O21  1  0.373846  0.776370  0.417849  1
  O  O22  1  0.630275  0.198756  0.577716  1
  O  O23  1  0.990765  0.369725  0.577716  1
  O  O24  1  0.801243  0.009234  0.577716  1
  O  O25  1  0.272100  0.105430  0.730804  1
  O  O26  1  0.102525  0.727900  0.730804  1
  O  O27  1  0.894572  0.897475  0.730804  1
  O  O28  1  0.489109  0.458473  0.791203  1
  O  O29  1  0.178160  0.510891  0.791203  1
  O  O30  1  0.541526  0.821838  0.791203  1
  O  O31  1  0.762043  0.163138  0.905062  1
  O  O32  1  0.496032  0.237957  0.905062  1
  O  O33  1  0.836862  0.503969  0.905062  1
