# generated using pymatgen
data_Ba2Al5Ag3Au2
_symmetry_space_group_name_H-M   'P 1'
_cell_length_a   7.02424688
_cell_length_b   7.02424745
_cell_length_c   5.62462200
_cell_angle_alpha   90.00000000
_cell_angle_beta   90.00000000
_cell_angle_gamma   104.46149658
_symmetry_Int_Tables_number   1
_chemical_formula_structural   Ba2Al5Ag3Au2
_chemical_formula_sum   'Ba2 Al5 Ag3 Au2'
_cell_volume   268.72611593
_cell_formula_units_Z   1
loop_
 _symmetry_equiv_pos_site_id
 _symmetry_equiv_pos_as_xyz
  1  'x, y, z'
loop_
 _atom_site_type_symbol
 _atom_site_label
 _atom_site_symmetry_multiplicity
 _atom_site_fract_x
 _atom_site_fract_y
 _atom_site_fract_z
 _atom_site_occupancy
  Ba  Ba0  1  0.841403  0.841403  0.000000  1
  Ba  Ba1  1  0.178681  0.178681  0.500000  1
  Al  Al2  1  0.289632  0.696895  0.251232  1
  Al  Al3  1  0.289632  0.696895  0.748768  1
  Al  Al4  1  0.696895  0.289632  0.251232  1
  Al  Al5  1  0.696895  0.289632  0.748768  1
  Al  Al6  1  0.589946  0.589946  0.500000  1
  Ag  Ag7  1  0.406805  0.021126  0.000000  1
  Ag  Ag8  1  0.021126  0.406805  0.000000  1
  Ag  Ag9  1  0.441880  0.441880  0.000000  1
  Au  Au10  1  0.965876  0.581229  0.500000  1
  Au  Au11  1  0.581229  0.965876  0.500000  1
