# generated using pymatgen
data_Li2La4Zn2Ir3Pd
_symmetry_space_group_name_H-M   'P 1'
_cell_length_a   7.20445504
_cell_length_b   4.19512500
_cell_length_c   8.47725794
_cell_angle_alpha   90.00000000
_cell_angle_beta   90.46553802
_cell_angle_gamma   90.00000000
_symmetry_Int_Tables_number   1
_chemical_formula_structural   Li2La4Zn2Ir3Pd
_chemical_formula_sum   'Li2 La4 Zn2 Ir3 Pd1'
_cell_volume   256.20470644
_cell_formula_units_Z   1
loop_
 _symmetry_equiv_pos_site_id
 _symmetry_equiv_pos_as_xyz
  1  'x, y, z'
loop_
 _atom_site_type_symbol
 _atom_site_label
 _atom_site_symmetry_multiplicity
 _atom_site_fract_x
 _atom_site_fract_y
 _atom_site_fract_z
 _atom_site_occupancy
  Li  Li0  1  0.632882  0.250000  0.556439  1
  Li  Li1  1  0.130780  0.250000  0.939750  1
  La  La2  1  0.030607  0.250000  0.322824  1
  La  La3  1  0.546193  0.250000  0.188421  1
  La  La4  1  0.965196  0.750000  0.690435  1
  La  La5  1  0.473280  0.750000  0.803177  1
  Zn  Zn6  1  0.367678  0.750000  0.443035  1
  Zn  Zn7  1  0.861484  0.750000  0.061038  1
  Ir  Ir8  1  0.254190  0.250000  0.616256  1
  Ir  Ir9  1  0.755116  0.250000  0.886432  1
  Ir  Ir10  1  0.743178  0.750000  0.374821  1
  Pd  Pd11  1  0.239418  0.750000  0.117376  1
