# generated using pymatgen
data_HoErGeI2
_symmetry_space_group_name_H-M   'P 1'
_cell_length_a   4.21655402
_cell_length_b   4.21707123
_cell_length_c   11.62336636
_cell_angle_alpha   80.20495051
_cell_angle_beta   88.73638313
_cell_angle_gamma   60.10338164
_symmetry_Int_Tables_number   1
_chemical_formula_structural   HoErGeI2
_chemical_formula_sum   'Ho1 Er1 Ge1 I2'
_cell_volume   176.08835899
_cell_formula_units_Z   1
loop_
 _symmetry_equiv_pos_site_id
 _symmetry_equiv_pos_as_xyz
  1  'x, y, z'
loop_
 _atom_site_type_symbol
 _atom_site_label
 _atom_site_symmetry_multiplicity
 _atom_site_fract_x
 _atom_site_fract_y
 _atom_site_fract_z
 _atom_site_occupancy
  Ho  Ho0  1  0.364289  0.254861  0.134720  1
  Er  Er1  1  0.635724  0.745122  0.865319  1
  Ge  Ge2  1  0.999926  0.000186  0.999667  1
  I  I3  1  0.737854  0.485758  0.310151  1
  I  I4  1  0.262208  0.514070  0.690143  1
