# generated using pymatgen
data_Y2Th(Ni3As2)3
_symmetry_space_group_name_H-M   'P 1'
_cell_length_a   3.94635600
_cell_length_b   10.83879500
_cell_length_c   12.80028500
_cell_angle_alpha   90.00000000
_cell_angle_beta   90.00000000
_cell_angle_gamma   90.00000000
_symmetry_Int_Tables_number   1
_chemical_formula_structural   Y2Th(Ni3As2)3
_chemical_formula_sum   'Y4 Th2 Ni18 As12'
_cell_volume   547.51610963
_cell_formula_units_Z   2
loop_
 _symmetry_equiv_pos_site_id
 _symmetry_equiv_pos_as_xyz
  1  'x, y, z'
loop_
 _atom_site_type_symbol
 _atom_site_label
 _atom_site_symmetry_multiplicity
 _atom_site_fract_x
 _atom_site_fract_y
 _atom_site_fract_z
 _atom_site_occupancy
  Y  Y0  1  0.500000  0.814679  0.205295  1
  Y  Y1  1  0.500000  0.185321  0.205295  1
  Y  Y2  1  0.000000  0.685321  0.794705  1
  Y  Y3  1  0.000000  0.314679  0.794705  1
  Th  Th4  1  0.000000  0.500000  0.523273  1
  Th  Th5  1  0.500000  0.000000  0.476727  1
  Ni  Ni6  1  0.500000  0.500000  0.151057  1
  Ni  Ni7  1  0.000000  0.000000  0.848943  1
  Ni  Ni8  1  0.500000  0.500000  0.698050  1
  Ni  Ni9  1  0.000000  0.000000  0.301950  1
  Ni  Ni10  1  0.000000  0.500000  0.980008  1
  Ni  Ni11  1  0.500000  0.000000  0.019992  1
  Ni  Ni12  1  0.500000  0.333066  0.996279  1
  Ni  Ni13  1  0.500000  0.666934  0.996279  1
  Ni  Ni14  1  0.000000  0.166934  0.003721  1
  Ni  Ni15  1  0.000000  0.833066  0.003721  1
  Ni  Ni16  1  0.500000  0.302555  0.428776  1
  Ni  Ni17  1  0.500000  0.697445  0.428776  1
  Ni  Ni18  1  0.000000  0.197445  0.571224  1
  Ni  Ni19  1  0.000000  0.802555  0.571224  1
  Ni  Ni20  1  0.500000  0.881544  0.711796  1
  Ni  Ni21  1  0.500000  0.118456  0.711796  1
  Ni  Ni22  1  0.000000  0.618456  0.288204  1
  Ni  Ni23  1  0.000000  0.381544  0.288204  1
  As  As24  1  0.500000  0.500000  0.875540  1
  As  As25  1  0.000000  0.000000  0.124460  1
  As  As26  1  0.500000  0.500000  0.338214  1
  As  As27  1  0.000000  0.000000  0.661786  1
  As  As28  1  0.500000  0.308155  0.616689  1
  As  As29  1  0.500000  0.691845  0.616689  1
  As  As30  1  0.000000  0.191845  0.383311  1
  As  As31  1  0.000000  0.808155  0.383311  1
  As  As32  1  0.500000  0.848286  0.892978  1
  As  As33  1  0.500000  0.151714  0.892978  1
  As  As34  1  0.000000  0.651714  0.107022  1
  As  As35  1  0.000000  0.348286  0.107022  1
