# generated using pymatgen
data_CdNiPtO4
_symmetry_space_group_name_H-M   'P 1'
_cell_length_a   6.28567728
_cell_length_b   6.37484898
_cell_length_c   6.28565300
_cell_angle_alpha   59.98160358
_cell_angle_beta   88.82439371
_cell_angle_gamma   120.01864631
_symmetry_Int_Tables_number   1
_chemical_formula_structural   CdNiPtO4
_chemical_formula_sum   'Cd2 Ni2 Pt2 O8'
_cell_volume   176.08218015
_cell_formula_units_Z   2
loop_
 _symmetry_equiv_pos_site_id
 _symmetry_equiv_pos_as_xyz
  1  'x, y, z'
loop_
 _atom_site_type_symbol
 _atom_site_label
 _atom_site_symmetry_multiplicity
 _atom_site_fract_x
 _atom_site_fract_y
 _atom_site_fract_z
 _atom_site_occupancy
  Cd  Cd0  1  0.020935  0.999992  0.020952  1
  Cd  Cd1  1  0.729052  0.499994  0.729066  1
  Ni  Ni2  1  0.874759  0.249865  0.375095  1
  Ni  Ni3  1  0.375179  0.750233  0.874764  1
  Pt  Pt4  1  0.374964  0.249975  0.375025  1
  Pt  Pt5  1  0.374999  0.749991  0.374989  1
  O  O6  1  0.151347  0.289488  0.144889  1
  O  O7  1  0.597891  0.209535  0.173574  1
  O  O8  1  0.576436  0.709460  0.152151  1
  O  O9  1  0.144975  0.710597  0.151299  1
  O  O10  1  0.598653  0.210497  0.605134  1
  O  O11  1  0.152050  0.290430  0.576463  1
  O  O12  1  0.173545  0.790354  0.597993  1
  O  O13  1  0.605220  0.789591  0.598605  1
