# generated using pymatgen
data_Ho4Er8Co4BiIr
_symmetry_space_group_name_H-M   'P 1'
_cell_length_a   8.25949702
_cell_length_b   8.25949626
_cell_length_c   8.25949646
_cell_angle_alpha   110.69513524
_cell_angle_beta   111.21441083
_cell_angle_gamma   106.54363814
_symmetry_Int_Tables_number   1
_chemical_formula_structural   Ho4Er8Co4BiIr
_chemical_formula_sum   'Ho4 Er8 Co4 Bi1 Ir1'
_cell_volume   432.89614395
_cell_formula_units_Z   1
loop_
 _symmetry_equiv_pos_site_id
 _symmetry_equiv_pos_as_xyz
  1  'x, y, z'
loop_
 _atom_site_type_symbol
 _atom_site_label
 _atom_site_symmetry_multiplicity
 _atom_site_fract_x
 _atom_site_fract_y
 _atom_site_fract_z
 _atom_site_occupancy
  Ho  Ho0  1  0.284698  0.182588  0.467285  1
  Ho  Ho1  1  0.715302  0.817412  0.532715  1
  Ho  Ho2  1  0.284698  0.817412  0.102109  1
  Ho  Ho3  1  0.715302  0.182588  0.897891  1
  Er  Er4  1  0.620687  0.311942  0.308744  1
  Er  Er5  1  0.379313  0.688058  0.691256  1
  Er  Er6  1  0.003199  0.311942  0.691256  1
  Er  Er7  1  0.996801  0.688058  0.308744  1
  Er  Er8  1  0.212586  0.410634  0.198048  1
  Er  Er9  1  0.787414  0.589366  0.801952  1
  Er  Er10  1  0.212586  0.014538  0.801952  1
  Er  Er11  1  0.787414  0.985462  0.198048  1
  Co  Co12  1  0.000000  0.375950  0.375950  1
  Co  Co13  1  0.000000  0.624050  0.624050  1
  Co  Co14  1  0.388723  0.888723  0.500000  1
  Co  Co15  1  0.611277  0.111277  0.500000  1
  Bi  Bi16  1  0.500000  0.500000  0.000000  1
  Ir  Ir17  1  0.000000  0.000000  0.000000  1
