# generated using pymatgen
data_Ho3Sn3Ir2Au
_symmetry_space_group_name_H-M   'P 1'
_cell_length_a   7.63268200
_cell_length_b   7.63268192
_cell_length_c   3.89756200
_cell_angle_alpha   90.00000000
_cell_angle_beta   90.00000000
_cell_angle_gamma   119.99999917
_symmetry_Int_Tables_number   1
_chemical_formula_structural   Ho3Sn3Ir2Au
_chemical_formula_sum   'Ho3 Sn3 Ir2 Au1'
_cell_volume   196.64277800
_cell_formula_units_Z   1
loop_
 _symmetry_equiv_pos_site_id
 _symmetry_equiv_pos_as_xyz
  1  'x, y, z'
loop_
 _atom_site_type_symbol
 _atom_site_label
 _atom_site_symmetry_multiplicity
 _atom_site_fract_x
 _atom_site_fract_y
 _atom_site_fract_z
 _atom_site_occupancy
  Ho  Ho0  1  0.392412  0.409764  0.500000  1
  Ho  Ho1  1  0.590236  0.982648  0.500000  1
  Ho  Ho2  1  0.017352  0.607588  0.500000  1
  Sn  Sn3  1  0.740503  0.743069  0.000000  1
  Sn  Sn4  1  0.256931  0.997434  0.000000  1
  Sn  Sn5  1  0.002566  0.259497  0.000000  1
  Ir  Ir6  1  0.333333  0.666667  0.000000  1
  Ir  Ir7  1  0.000000  0.000000  0.500000  1
  Au  Au8  1  0.666667  0.333333  0.000000  1
