# generated using pymatgen
data_TbDy3(ZrSn)6
_symmetry_space_group_name_H-M   'P 1'
_cell_length_a   8.70260784
_cell_length_b   8.83310096
_cell_length_c   6.01801400
_cell_angle_alpha   90.00000000
_cell_angle_beta   90.00000000
_cell_angle_gamma   120.46830206
_symmetry_Int_Tables_number   1
_chemical_formula_structural   TbDy3(ZrSn)6
_chemical_formula_sum   'Tb1 Dy3 Zr6 Sn6'
_cell_volume   398.72882104
_cell_formula_units_Z   1
loop_
 _symmetry_equiv_pos_site_id
 _symmetry_equiv_pos_as_xyz
  1  'x, y, z'
loop_
 _atom_site_type_symbol
 _atom_site_label
 _atom_site_symmetry_multiplicity
 _atom_site_fract_x
 _atom_site_fract_y
 _atom_site_fract_z
 _atom_site_occupancy
  Tb  Tb0  1  0.762434  0.762397  0.250000  1
  Dy  Dy1  1  0.763362  0.999773  0.750000  1
  Dy  Dy2  1  0.237686  0.237815  0.750000  1
  Dy  Dy3  1  0.236568  0.000156  0.250000  1
  Zr  Zr4  1  0.000258  0.743363  0.750000  1
  Zr  Zr5  1  0.999874  0.256581  0.250000  1
  Zr  Zr6  1  0.333685  0.666960  0.500167  1
  Zr  Zr7  1  0.666423  0.333164  0.000131  1
  Zr  Zr8  1  0.666423  0.333164  0.499869  1
  Zr  Zr9  1  0.333685  0.666960  0.999833  1
  Sn  Sn10  1  0.393224  0.995072  0.750000  1
  Sn  Sn11  1  0.392487  0.397713  0.250000  1
  Sn  Sn12  1  0.000421  0.601246  0.250000  1
  Sn  Sn13  1  0.000072  0.398570  0.750000  1
  Sn  Sn14  1  0.606906  0.602003  0.750000  1
  Sn  Sn15  1  0.606493  0.005062  0.250000  1
