# generated using pymatgen
data_Ca2CdBPO7
_symmetry_space_group_name_H-M   'P 1'
_cell_length_a   5.17666100
_cell_length_b   9.07937500
_cell_length_c   13.65993300
_cell_angle_alpha   90.00000000
_cell_angle_beta   90.00000000
_cell_angle_gamma   90.00000000
_symmetry_Int_Tables_number   1
_chemical_formula_structural   Ca2CdBPO7
_chemical_formula_sum   'Ca8 Cd4 B4 P4 O28'
_cell_volume   642.02841368
_cell_formula_units_Z   4
loop_
 _symmetry_equiv_pos_site_id
 _symmetry_equiv_pos_as_xyz
  1  'x, y, z'
loop_
 _atom_site_type_symbol
 _atom_site_label
 _atom_site_symmetry_multiplicity
 _atom_site_fract_x
 _atom_site_fract_y
 _atom_site_fract_z
 _atom_site_occupancy
  Ca  Ca0  1  0.993592  0.907296  0.138251  1
  Ca  Ca1  1  0.493592  0.092704  0.861749  1
  Ca  Ca2  1  0.493592  0.407296  0.361749  1
  Ca  Ca3  1  0.993592  0.592704  0.638251  1
  Ca  Ca4  1  0.020793  0.905769  0.400251  1
  Ca  Ca5  1  0.520793  0.094231  0.599749  1
  Ca  Ca6  1  0.520793  0.405769  0.099749  1
  Ca  Ca7  1  0.020793  0.594231  0.900251  1
  Cd  Cd8  1  0.999400  0.238405  0.246197  1
  Cd  Cd9  1  0.499400  0.761595  0.753803  1
  Cd  Cd10  1  0.499400  0.738405  0.253803  1
  Cd  Cd11  1  0.999400  0.261595  0.746197  1
  B  B12  1  0.997850  0.569410  0.233388  1
  B  B13  1  0.497850  0.430590  0.766612  1
  B  B14  1  0.497850  0.069410  0.266612  1
  B  B15  1  0.997850  0.930590  0.733388  1
  P  P16  1  0.024623  0.234987  0.994026  1
  P  P17  1  0.524623  0.765013  0.005974  1
  P  P18  1  0.524623  0.734987  0.505974  1
  P  P19  1  0.024623  0.265013  0.494026  1
  O  O20  1  0.324602  0.244145  0.989124  1
  O  O21  1  0.824602  0.755855  0.010876  1
  O  O22  1  0.824602  0.744145  0.510876  1
  O  O23  1  0.324602  0.255855  0.489124  1
  O  O24  1  0.938436  0.148379  0.086854  1
  O  O25  1  0.438436  0.851621  0.913146  1
  O  O26  1  0.438436  0.648379  0.413146  1
  O  O27  1  0.938436  0.351621  0.586854  1
  O  O28  1  0.903797  0.391488  0.998778  1
  O  O29  1  0.403797  0.608512  0.001222  1
  O  O30  1  0.403797  0.891488  0.501222  1
  O  O31  1  0.903797  0.108512  0.498778  1
  O  O32  1  0.430302  0.850115  0.098164  1
  O  O33  1  0.930302  0.149885  0.901836  1
  O  O34  1  0.930302  0.350115  0.401836  1
  O  O35  1  0.430302  0.649885  0.598164  1
  O  O36  1  0.062607  0.715500  0.250981  1
  O  O37  1  0.562607  0.284500  0.749019  1
  O  O38  1  0.562607  0.215500  0.249019  1
  O  O39  1  0.062607  0.784500  0.750981  1
  O  O40  1  0.187105  0.461152  0.222747  1
  O  O41  1  0.687105  0.538848  0.777253  1
  O  O42  1  0.687105  0.961152  0.277253  1
  O  O43  1  0.187105  0.038848  0.722747  1
  O  O44  1  0.236674  0.032745  0.273398  1
  O  O45  1  0.736674  0.967255  0.726602  1
  O  O46  1  0.736674  0.532745  0.226602  1
  O  O47  1  0.236674  0.467255  0.773398  1
