# generated using pymatgen
data_CaFeSb12Os2Pd
_symmetry_space_group_name_H-M   'P 1'
_cell_length_a   8.09420297
_cell_length_b   8.13619282
_cell_length_c   8.12116012
_cell_angle_alpha   109.50955637
_cell_angle_beta   109.21456338
_cell_angle_gamma   109.36237732
_symmetry_Int_Tables_number   1
_chemical_formula_structural   CaFeSb12Os2Pd
_chemical_formula_sum   'Ca1 Fe1 Sb12 Os2 Pd1'
_cell_volume   413.36201342
_cell_formula_units_Z   1
loop_
 _symmetry_equiv_pos_site_id
 _symmetry_equiv_pos_as_xyz
  1  'x, y, z'
loop_
 _atom_site_type_symbol
 _atom_site_label
 _atom_site_symmetry_multiplicity
 _atom_site_fract_x
 _atom_site_fract_y
 _atom_site_fract_z
 _atom_site_occupancy
  Ca  Ca0  1  0.000000  0.000000  0.000000  1
  Fe  Fe1  1  0.500000  0.500000  0.500000  1
  Sb  Sb2  1  0.834121  0.660805  0.505314  1
  Sb  Sb3  1  0.165879  0.339195  0.494686  1
  Sb  Sb4  1  0.157009  0.659284  0.809019  1
  Sb  Sb5  1  0.842991  0.340716  0.190981  1
  Sb  Sb6  1  0.650229  0.504056  0.832838  1
  Sb  Sb7  1  0.349771  0.495944  0.167162  1
  Sb  Sb8  1  0.660725  0.818508  0.157443  1
  Sb  Sb9  1  0.339275  0.181492  0.842557  1
  Sb  Sb10  1  0.504825  0.832841  0.659530  1
  Sb  Sb11  1  0.495175  0.167159  0.340470  1
  Sb  Sb12  1  0.191393  0.849486  0.347608  1
  Sb  Sb13  1  0.808607  0.150514  0.652392  1
  Os  Os14  1  0.500000  0.000000  0.000000  1
  Os  Os15  1  0.000000  0.000000  0.500000  1
  Pd  Pd16  1  0.000000  0.500000  0.000000  1
