# generated using pymatgen
data_Ho2Er10Ga2Co3Ni
_symmetry_space_group_name_H-M   'P 1'
_cell_length_a   8.19589776
_cell_length_b   8.19674648
_cell_length_c   8.19674630
_cell_angle_alpha   112.41655253
_cell_angle_beta   109.58224544
_cell_angle_gamma   106.47320795
_symmetry_Int_Tables_number   1
_chemical_formula_structural   Ho2Er10Ga2Co3Ni
_chemical_formula_sum   'Ho2 Er10 Ga2 Co3 Ni1'
_cell_volume   422.73472949
_cell_formula_units_Z   1
loop_
 _symmetry_equiv_pos_site_id
 _symmetry_equiv_pos_as_xyz
  1  'x, y, z'
loop_
 _atom_site_type_symbol
 _atom_site_label
 _atom_site_symmetry_multiplicity
 _atom_site_fract_x
 _atom_site_fract_y
 _atom_site_fract_z
 _atom_site_occupancy
  Ho  Ho0  1  0.041059  0.738417  0.302642  1
  Ho  Ho1  1  0.957553  0.260715  0.696837  1
  Er  Er2  1  0.563859  0.260726  0.303132  1
  Er  Er3  1  0.435772  0.738391  0.697381  1
  Er  Er4  1  0.674150  0.862257  0.188017  1
  Er  Er5  1  0.330727  0.520592  0.189956  1
  Er  Er6  1  0.330727  0.140770  0.810135  1
  Er  Er7  1  0.674150  0.486132  0.811895  1
  Er  Er8  1  0.179212  0.219007  0.401545  1
  Er  Er9  1  0.817379  0.218921  0.039802  1
  Er  Er10  1  0.179212  0.777669  0.960205  1
  Er  Er11  1  0.817379  0.777577  0.598456  1
  Ga  Ga12  1  0.999588  0.499586  0.500002  1
  Ga  Ga13  1  0.499382  0.999384  0.499998  1
  Co  Co14  1  0.661114  0.498447  0.162667  1
  Co  Co15  1  0.335840  0.498505  0.837335  1
  Co  Co16  1  0.883626  0.883678  0.999948  1
  Ni  Ni17  1  0.119272  0.119227  0.000046  1
