# generated using pymatgen
data_Al2V12Zn3Ga3N4
_symmetry_space_group_name_H-M   'P 1'
_cell_length_a   6.59981018
_cell_length_b   6.59980936
_cell_length_c   6.59980998
_cell_angle_alpha   89.97620946
_cell_angle_beta   90.02379571
_cell_angle_gamma   90.02378156
_symmetry_Int_Tables_number   1
_chemical_formula_structural   Al2V12Zn3Ga3N4
_chemical_formula_sum   'Al2 V12 Zn3 Ga3 N4'
_cell_volume   287.47107638
_cell_formula_units_Z   1
loop_
 _symmetry_equiv_pos_site_id
 _symmetry_equiv_pos_as_xyz
  1  'x, y, z'
loop_
 _atom_site_type_symbol
 _atom_site_label
 _atom_site_symmetry_multiplicity
 _atom_site_fract_x
 _atom_site_fract_y
 _atom_site_fract_z
 _atom_site_occupancy
  Al  Al0  1  0.177644  0.822356  0.322356  1
  Al  Al1  1  0.571783  0.428217  0.928217  1
  V  V2  1  0.791117  0.959657  0.376174  1
  V  V3  1  0.708661  0.042071  0.875184  1
  V  V4  1  0.211692  0.460784  0.123165  1
  V  V5  1  0.290989  0.538367  0.626922  1
  V  V6  1  0.957929  0.375184  0.791339  1
  V  V7  1  0.040343  0.876174  0.708883  1
  V  V8  1  0.461633  0.126922  0.209011  1
  V  V9  1  0.539216  0.623165  0.288308  1
  V  V10  1  0.376835  0.788308  0.960784  1
  V  V11  1  0.873078  0.709011  0.038367  1
  V  V12  1  0.123826  0.208883  0.459657  1
  V  V13  1  0.624816  0.291339  0.542071  1
  Zn  Zn14  1  0.428905  0.930173  0.568177  1
  Zn  Zn15  1  0.931823  0.571095  0.430173  1
  Zn  Zn16  1  0.069827  0.068177  0.071095  1
  Ga  Ga17  1  0.318002  0.174311  0.821108  1
  Ga  Ga18  1  0.825689  0.321108  0.181998  1
  Ga  Ga19  1  0.678892  0.681998  0.674311  1
  N  N20  1  0.874014  0.125986  0.625986  1
  N  N21  1  0.625898  0.875834  0.126775  1
  N  N22  1  0.124166  0.626775  0.874102  1
  N  N23  1  0.373225  0.374102  0.375834  1
