# generated using pymatgen
data_Sr12Sn8Ir5Pd3
_symmetry_space_group_name_H-M   'P 1'
_cell_length_a   6.23542348
_cell_length_b   8.65474200
_cell_length_c   14.46933305
_cell_angle_alpha   90.19577411
_cell_angle_beta   89.97768331
_cell_angle_gamma   89.96030334
_symmetry_Int_Tables_number   1
_chemical_formula_structural   Sr12Sn8Ir5Pd3
_chemical_formula_sum   'Sr12 Sn8 Ir5 Pd3'
_cell_volume   780.84695367
_cell_formula_units_Z   1
loop_
 _symmetry_equiv_pos_site_id
 _symmetry_equiv_pos_as_xyz
  1  'x, y, z'
loop_
 _atom_site_type_symbol
 _atom_site_label
 _atom_site_symmetry_multiplicity
 _atom_site_fract_x
 _atom_site_fract_y
 _atom_site_fract_z
 _atom_site_occupancy
  Sr  Sr0  1  0.145513  0.390570  0.592865  1
  Sr  Sr1  1  0.854126  0.610070  0.095151  1
  Sr  Sr2  1  0.148734  0.102350  0.405451  1
  Sr  Sr3  1  0.855771  0.891363  0.905942  1
  Sr  Sr4  1  0.846420  0.606380  0.403395  1
  Sr  Sr5  1  0.152036  0.399853  0.902430  1
  Sr  Sr6  1  0.847715  0.900084  0.595122  1
  Sr  Sr7  1  0.152065  0.099463  0.098950  1
  Sr  Sr8  1  0.637863  0.244571  0.749936  1
  Sr  Sr9  1  0.363335  0.758413  0.251441  1
  Sr  Sr10  1  0.634264  0.255018  0.252554  1
  Sr  Sr11  1  0.362023  0.745807  0.748403  1
  Sn  Sn12  1  0.620801  0.243583  0.497109  1
  Sn  Sn13  1  0.382553  0.748516  0.999510  1
  Sn  Sn14  1  0.369335  0.753072  0.498260  1
  Sn  Sn15  1  0.634114  0.251000  0.000732  1
  Sn  Sn16  1  0.150851  0.096662  0.748494  1
  Sn  Sn17  1  0.843556  0.906961  0.249158  1
  Sn  Sn18  1  0.150407  0.405282  0.253224  1
  Sn  Sn19  1  0.847511  0.596627  0.751805  1
  Ir  Ir20  1  0.374108  0.033848  0.592758  1
  Ir  Ir21  1  0.627092  0.969014  0.089041  1
  Ir  Ir22  1  0.373499  0.467299  0.410009  1
  Ir  Ir23  1  0.628809  0.529505  0.910076  1
  Ir  Ir24  1  0.623392  0.960971  0.406508  1
  Pd  Pd25  1  0.375661  0.036018  0.909075  1
  Pd  Pd26  1  0.622244  0.533111  0.590686  1
  Pd  Pd27  1  0.376203  0.464587  0.091917  1
