# generated using pymatgen
data_NaVSnO4
_symmetry_space_group_name_H-M   'P 1'
_cell_length_a   3.14521100
_cell_length_b   9.46821800
_cell_length_c   11.11594400
_cell_angle_alpha   90.00000000
_cell_angle_beta   90.00000000
_cell_angle_gamma   90.00000000
_symmetry_Int_Tables_number   1
_chemical_formula_structural   NaVSnO4
_chemical_formula_sum   'Na4 V4 Sn4 O16'
_cell_volume   331.02773682
_cell_formula_units_Z   4
loop_
 _symmetry_equiv_pos_site_id
 _symmetry_equiv_pos_as_xyz
  1  'x, y, z'
loop_
 _atom_site_type_symbol
 _atom_site_label
 _atom_site_symmetry_multiplicity
 _atom_site_fract_x
 _atom_site_fract_y
 _atom_site_fract_z
 _atom_site_occupancy
  Na  Na0  1  0.500000  0.253498  0.895697  1
  Na  Na1  1  0.500000  0.753498  0.104303  1
  Na  Na2  1  0.000000  0.742066  0.599135  1
  Na  Na3  1  0.000000  0.242066  0.400865  1
  V  V4  1  0.500000  0.431899  0.136805  1
  V  V5  1  0.500000  0.931899  0.863195  1
  V  V6  1  0.500000  0.421915  0.646003  1
  V  V7  1  0.500000  0.921915  0.353997  1
  Sn  Sn8  1  0.000000  0.564050  0.362269  1
  Sn  Sn9  1  0.000000  0.064050  0.637731  1
  Sn  Sn10  1  0.000000  0.583262  0.856168  1
  Sn  Sn11  1  0.000000  0.083262  0.143832  1
  O  O12  1  0.500000  0.207564  0.597767  1
  O  O13  1  0.500000  0.707564  0.402233  1
  O  O14  1  0.000000  0.794638  0.906555  1
  O  O15  1  0.000000  0.294638  0.093445  1
  O  O16  1  0.500000  0.117081  0.268632  1
  O  O17  1  0.500000  0.617081  0.731368  1
  O  O18  1  0.000000  0.886866  0.235403  1
  O  O19  1  0.000000  0.386866  0.764597  1
  O  O20  1  0.500000  0.420281  0.321423  1
  O  O21  1  0.500000  0.920281  0.678577  1
  O  O22  1  0.000000  0.571528  0.175336  1
  O  O23  1  0.000000  0.071528  0.824664  1
  O  O24  1  0.500000  0.022428  0.030456  1
  O  O25  1  0.500000  0.522428  0.969544  1
  O  O26  1  0.000000  0.982922  0.464031  1
  O  O27  1  0.000000  0.482922  0.535969  1
