# generated using pymatgen
data_V6Si5Tc12W
_symmetry_space_group_name_H-M   'P 1'
_cell_length_a   4.24213600
_cell_length_b   6.05427600
_cell_length_c   12.78361700
_cell_angle_alpha   90.00000000
_cell_angle_beta   89.99703985
_cell_angle_gamma   90.00000000
_symmetry_Int_Tables_number   1
_chemical_formula_structural   V6Si5Tc12W
_chemical_formula_sum   'V6 Si5 Tc12 W1'
_cell_volume   328.32242999
_cell_formula_units_Z   1
loop_
 _symmetry_equiv_pos_site_id
 _symmetry_equiv_pos_as_xyz
  1  'x, y, z'
loop_
 _atom_site_type_symbol
 _atom_site_label
 _atom_site_symmetry_multiplicity
 _atom_site_fract_x
 _atom_site_fract_y
 _atom_site_fract_z
 _atom_site_occupancy
  V  V0  1  0.000000  0.500000  0.000000  1
  V  V1  1  0.499826  0.000000  0.172401  1
  V  V2  1  0.999747  0.500000  0.335749  1
  V  V3  1  0.500000  0.000000  0.500000  1
  V  V4  1  0.000253  0.500000  0.664251  1
  V  V5  1  0.500174  0.000000  0.827599  1
  Si  Si6  1  0.499782  0.500000  0.168376  1
  Si  Si7  1  0.999757  0.000000  0.334285  1
  Si  Si8  1  0.500000  0.500000  0.500000  1
  Si  Si9  1  0.000243  0.000000  0.665715  1
  Si  Si10  1  0.500218  0.500000  0.831623  1
  Tc  Tc11  1  0.499999  0.255193  0.000000  1
  Tc  Tc12  1  0.499999  0.744807  0.000000  1
  Tc  Tc13  1  0.999818  0.251430  0.168557  1
  Tc  Tc14  1  0.999818  0.748570  0.168557  1
  Tc  Tc15  1  0.499779  0.250080  0.334124  1
  Tc  Tc16  1  0.499779  0.749920  0.334124  1
  Tc  Tc17  1  0.000000  0.250880  0.500000  1
  Tc  Tc18  1  0.000000  0.749120  0.500000  1
  Tc  Tc19  1  0.500221  0.250080  0.665876  1
  Tc  Tc20  1  0.500221  0.749920  0.665876  1
  Tc  Tc21  1  0.000182  0.251430  0.831444  1
  Tc  Tc22  1  0.000182  0.748570  0.831444  1
  W  W23  1  0.000000  0.000000  0.000000  1
