# generated using pymatgen
data_Pr4NdGd3(WO6)4
_symmetry_space_group_name_H-M   'P 1'
_cell_length_a   5.44839760
_cell_length_b   9.40107566
_cell_length_c   10.24627590
_cell_angle_alpha   90.04333408
_cell_angle_beta   90.14615203
_cell_angle_gamma   89.93382985
_symmetry_Int_Tables_number   1
_chemical_formula_structural   Pr4NdGd3(WO6)4
_chemical_formula_sum   'Pr4 Nd1 Gd3 W4 O24'
_cell_volume   524.82022226
_cell_formula_units_Z   1
loop_
 _symmetry_equiv_pos_site_id
 _symmetry_equiv_pos_as_xyz
  1  'x, y, z'
loop_
 _atom_site_type_symbol
 _atom_site_label
 _atom_site_symmetry_multiplicity
 _atom_site_fract_x
 _atom_site_fract_y
 _atom_site_fract_z
 _atom_site_occupancy
  Pr  Pr0  1  0.024553  0.393079  0.038438  1
  Pr  Pr1  1  0.966567  0.780775  0.865123  1
  Pr  Pr2  1  0.466635  0.719321  0.134645  1
  Pr  Pr3  1  0.034631  0.280105  0.633011  1
  Nd  Nd4  1  0.533364  0.219738  0.366570  1
  Gd  Gd5  1  0.478622  0.604188  0.538797  1
  Gd  Gd6  1  0.978196  0.895891  0.461363  1
  Gd  Gd7  1  0.518910  0.100809  0.960476  1
  W  W8  1  0.460752  0.993903  0.646086  1
  W  W9  1  0.959433  0.506561  0.355438  1
  W  W10  1  0.541464  0.495309  0.850487  1
  W  W11  1  0.037743  0.005100  0.148485  1
  O  O12  1  0.250913  0.083008  0.505595  1
  O  O13  1  0.748913  0.416656  0.494665  1
  O  O14  1  0.748789  0.587746  0.989881  1
  O  O15  1  0.250619  0.915243  0.009167  1
  O  O16  1  0.720085  0.110931  0.563016  1
  O  O17  1  0.222340  0.388413  0.435722  1
  O  O18  1  0.278516  0.609633  0.935171  1
  O  O19  1  0.779747  0.886387  0.066208  1
  O  O20  1  0.592352  0.842599  0.533485  1
  O  O21  1  0.089405  0.657077  0.470152  1
  O  O22  1  0.427620  0.342002  0.966593  1
  O  O23  1  0.905038  0.150326  0.029275  1
  O  O24  1  0.182659  0.864899  0.262555  1
  O  O25  1  0.681329  0.637643  0.737168  1
  O  O26  1  0.814387  0.363667  0.243584  1
  O  O27  1  0.318069  0.135401  0.760640  1
  O  O28  1  0.830217  0.048291  0.292206  1
  O  O29  1  0.330922  0.453768  0.707368  1
  O  O30  1  0.165400  0.550739  0.212080  1
  O  O31  1  0.666583  0.952422  0.792016  1
  O  O32  1  0.305271  0.139581  0.174520  1
  O  O33  1  0.814056  0.366922  0.819763  1
  O  O34  1  0.687885  0.637300  0.327590  1
  O  O35  1  0.188011  0.864567  0.672664  1
