# generated using pymatgen
data_BaNd3(PPt3)8
_symmetry_space_group_name_H-M   'P 1'
_cell_length_a   8.58806065
_cell_length_b   8.58806065
_cell_length_c   8.58806065
_cell_angle_alpha   89.93634898
_cell_angle_beta   89.93634898
_cell_angle_gamma   89.93634898
_symmetry_Int_Tables_number   1
_chemical_formula_structural   BaNd3(PPt3)8
_chemical_formula_sum   'Ba1 Nd3 P8 Pt24'
_cell_volume   633.40940096
_cell_formula_units_Z   1
loop_
 _symmetry_equiv_pos_site_id
 _symmetry_equiv_pos_as_xyz
  1  'x, y, z'
loop_
 _atom_site_type_symbol
 _atom_site_label
 _atom_site_symmetry_multiplicity
 _atom_site_fract_x
 _atom_site_fract_y
 _atom_site_fract_z
 _atom_site_occupancy
  Ba  Ba0  1  0.000000  0.000000  0.000000  1
  Nd  Nd1  1  0.500000  0.500000  0.000000  1
  Nd  Nd2  1  0.500000  0.000000  0.500000  1
  Nd  Nd3  1  0.000000  0.500000  0.500000  1
  P  P4  1  0.802843  0.304589  0.192859  1
  P  P5  1  0.192859  0.802843  0.304589  1
  P  P6  1  0.694691  0.694691  0.694691  1
  P  P7  1  0.304589  0.192859  0.802843  1
  P  P8  1  0.197157  0.695411  0.807141  1
  P  P9  1  0.807141  0.197157  0.695411  1
  P  P10  1  0.305309  0.305309  0.305309  1
  P  P11  1  0.695411  0.807141  0.197157  1
  Pt  Pt12  1  0.420558  0.841945  0.158637  1
  Pt  Pt13  1  0.577109  0.343944  0.341827  1
  Pt  Pt14  1  0.075580  0.164227  0.649852  1
  Pt  Pt15  1  0.923876  0.651694  0.835087  1
  Pt  Pt16  1  0.158637  0.420558  0.841945  1
  Pt  Pt17  1  0.341827  0.577109  0.343944  1
  Pt  Pt18  1  0.649852  0.075580  0.164227  1
  Pt  Pt19  1  0.835087  0.923876  0.651694  1
  Pt  Pt20  1  0.841945  0.158637  0.420558  1
  Pt  Pt21  1  0.343944  0.341827  0.577109  1
  Pt  Pt22  1  0.164227  0.649852  0.075580  1
  Pt  Pt23  1  0.651694  0.835087  0.923876  1
  Pt  Pt24  1  0.579442  0.158055  0.841363  1
  Pt  Pt25  1  0.422891  0.656056  0.658173  1
  Pt  Pt26  1  0.924420  0.835773  0.350148  1
  Pt  Pt27  1  0.076124  0.348306  0.164913  1
  Pt  Pt28  1  0.841363  0.579442  0.158055  1
  Pt  Pt29  1  0.658173  0.422891  0.656056  1
  Pt  Pt30  1  0.350148  0.924420  0.835773  1
  Pt  Pt31  1  0.164913  0.076124  0.348306  1
  Pt  Pt32  1  0.158055  0.841363  0.579442  1
  Pt  Pt33  1  0.656056  0.658173  0.422891  1
  Pt  Pt34  1  0.835773  0.350148  0.924420  1
  Pt  Pt35  1  0.348306  0.164913  0.076124  1
