# generated using pymatgen
data_Er12Ga2TcNi3
_symmetry_space_group_name_H-M   'P 1'
_cell_length_a   8.26032010
_cell_length_b   8.26032108
_cell_length_c   8.26032129
_cell_angle_alpha   112.85324012
_cell_angle_beta   109.84540999
_cell_angle_gamma   105.79191395
_symmetry_Int_Tables_number   1
_chemical_formula_structural   Er12Ga2TcNi3
_chemical_formula_sum   'Er12 Ga2 Tc1 Ni3'
_cell_volume   432.22894218
_cell_formula_units_Z   1
loop_
 _symmetry_equiv_pos_site_id
 _symmetry_equiv_pos_as_xyz
  1  'x, y, z'
loop_
 _atom_site_type_symbol
 _atom_site_label
 _atom_site_symmetry_multiplicity
 _atom_site_fract_x
 _atom_site_fract_y
 _atom_site_fract_z
 _atom_site_occupancy
  Er  Er0  1  0.053659  0.748284  0.305376  1
  Er  Er1  1  0.962738  0.267806  0.694932  1
  Er  Er2  1  0.557092  0.251716  0.305376  1
  Er  Er3  1  0.427126  0.732194  0.694932  1
  Er  Er4  1  0.674725  0.862453  0.192443  1
  Er  Er5  1  0.329991  0.517718  0.192443  1
  Er  Er6  1  0.329991  0.137547  0.812273  1
  Er  Er7  1  0.674725  0.482282  0.812273  1
  Er  Er8  1  0.175013  0.221109  0.396122  1
  Er  Er9  1  0.814565  0.217963  0.032528  1
  Er  Er10  1  0.175013  0.778891  0.953904  1
  Er  Er11  1  0.814565  0.782037  0.596600  1
  Ga  Ga12  1  0.982007  0.500000  0.482007  1
  Ga  Ga13  1  0.505643  0.000000  0.505643  1
  Tc  Tc14  1  0.673298  0.500000  0.173298  1
  Ni  Ni15  1  0.346398  0.500000  0.846398  1
  Ni  Ni16  1  0.882801  0.881075  0.001725  1
  Ni  Ni17  1  0.120650  0.118925  0.001725  1
