# generated using pymatgen
data_Cs3Tc3(SI)4
_symmetry_space_group_name_H-M   'P 1'
_cell_length_a   11.57463926
_cell_length_b   11.57463848
_cell_length_c   11.57463800
_cell_angle_alpha   60.00000136
_cell_angle_beta   60.00000359
_cell_angle_gamma   60.00000346
_symmetry_Int_Tables_number   1
_chemical_formula_structural   Cs3Tc3(SI)4
_chemical_formula_sum   'Cs6 Tc6 S8 I8'
_cell_volume   1096.49674431
_cell_formula_units_Z   2
loop_
 _symmetry_equiv_pos_site_id
 _symmetry_equiv_pos_as_xyz
  1  'x, y, z'
loop_
 _atom_site_type_symbol
 _atom_site_label
 _atom_site_symmetry_multiplicity
 _atom_site_fract_x
 _atom_site_fract_y
 _atom_site_fract_z
 _atom_site_occupancy
  Cs  Cs0  1  0.500000  0.000000  0.000000  1
  Cs  Cs1  1  0.500000  0.000000  0.500000  1
  Cs  Cs2  1  0.000000  0.500000  0.000000  1
  Cs  Cs3  1  0.000000  0.000000  0.500000  1
  Cs  Cs4  1  0.000000  0.500000  0.500000  1
  Cs  Cs5  1  0.500000  0.500000  0.000000  1
  Tc  Tc6  1  0.612575  0.387425  0.387425  1
  Tc  Tc7  1  0.387425  0.612575  0.612575  1
  Tc  Tc8  1  0.387425  0.387425  0.612575  1
  Tc  Tc9  1  0.612575  0.387425  0.612575  1
  Tc  Tc10  1  0.612575  0.612575  0.387425  1
  Tc  Tc11  1  0.387425  0.612575  0.387425  1
  S  S12  1  0.396410  0.810771  0.396410  1
  S  S13  1  0.603590  0.603590  0.603590  1
  S  S14  1  0.189229  0.603590  0.603590  1
  S  S15  1  0.396410  0.396410  0.396410  1
  S  S16  1  0.603590  0.603590  0.189229  1
  S  S17  1  0.810771  0.396410  0.396410  1
  S  S18  1  0.603590  0.189229  0.603590  1
  S  S19  1  0.396410  0.396410  0.810771  1
  I  I20  1  0.215537  0.215537  0.784463  1
  I  I21  1  0.215537  0.784463  0.784463  1
  I  I22  1  0.784463  0.215537  0.215537  1
  I  I23  1  0.750000  0.750000  0.750000  1
  I  I24  1  0.215537  0.784463  0.215537  1
  I  I25  1  0.250000  0.250000  0.250000  1
  I  I26  1  0.784463  0.784463  0.215537  1
  I  I27  1  0.784463  0.215537  0.784463  1
