# generated using pymatgen
data_Al(BiBr)4
_symmetry_space_group_name_H-M   'P 1'
_cell_length_a   10.39943500
_cell_length_b   13.91837200
_cell_length_c   18.88824700
_cell_angle_alpha   90.00000000
_cell_angle_beta   90.00000000
_cell_angle_gamma   90.00000000
_symmetry_Int_Tables_number   1
_chemical_formula_structural   Al(BiBr)4
_chemical_formula_sum   'Al8 Bi32 Br32'
_cell_volume   2733.94540610
_cell_formula_units_Z   8
loop_
 _symmetry_equiv_pos_site_id
 _symmetry_equiv_pos_as_xyz
  1  'x, y, z'
loop_
 _atom_site_type_symbol
 _atom_site_label
 _atom_site_symmetry_multiplicity
 _atom_site_fract_x
 _atom_site_fract_y
 _atom_site_fract_z
 _atom_site_occupancy
  Al  Al0  1  0.022806  0.803372  0.676760  1
  Al  Al1  1  0.477194  0.803372  0.176760  1
  Al  Al2  1  0.977194  0.303372  0.323240  1
  Al  Al3  1  0.007377  0.487918  0.998043  1
  Al  Al4  1  0.492623  0.487918  0.498043  1
  Al  Al5  1  0.522806  0.303372  0.823240  1
  Al  Al6  1  0.507377  0.987918  0.501957  1
  Al  Al7  1  0.992623  0.987918  0.001957  1
  Bi  Bi8  1  0.379550  0.589984  0.822752  1
  Bi  Bi9  1  0.212954  0.754830  0.419397  1
  Bi  Bi10  1  0.825516  0.641408  0.297586  1
  Bi  Bi11  1  0.158345  0.361379  0.718552  1
  Bi  Bi12  1  0.060902  0.156878  0.551855  1
  Bi  Bi13  1  0.955121  0.878078  0.431969  1
  Bi  Bi14  1  0.939098  0.656878  0.448145  1
  Bi  Bi15  1  0.450435  0.733140  0.703484  1
  Bi  Bi16  1  0.544879  0.878078  0.931969  1
  Bi  Bi17  1  0.049565  0.733140  0.203484  1
  Bi  Bi18  1  0.560902  0.656878  0.948145  1
  Bi  Bi19  1  0.174484  0.141408  0.702414  1
  Bi  Bi20  1  0.643382  0.397805  0.199130  1
  Bi  Bi21  1  0.455121  0.378078  0.068031  1
  Bi  Bi22  1  0.044879  0.378078  0.568031  1
  Bi  Bi23  1  0.287046  0.754830  0.919397  1
  Bi  Bi24  1  0.712954  0.254830  0.080603  1
  Bi  Bi25  1  0.341655  0.361379  0.218552  1
  Bi  Bi26  1  0.674484  0.641408  0.797586  1
  Bi  Bi27  1  0.620450  0.089984  0.177248  1
  Bi  Bi28  1  0.143382  0.897805  0.300870  1
  Bi  Bi29  1  0.658345  0.861379  0.781448  1
  Bi  Bi30  1  0.325516  0.141408  0.202414  1
  Bi  Bi31  1  0.120450  0.589984  0.322752  1
  Bi  Bi32  1  0.950435  0.233140  0.796516  1
  Bi  Bi33  1  0.439098  0.156878  0.051855  1
  Bi  Bi34  1  0.841655  0.861379  0.281448  1
  Bi  Bi35  1  0.549565  0.233140  0.296516  1
  Bi  Bi36  1  0.356618  0.897805  0.800870  1
  Bi  Bi37  1  0.787046  0.254830  0.580603  1
  Bi  Bi38  1  0.856618  0.397805  0.699130  1
  Bi  Bi39  1  0.879550  0.089984  0.677248  1
  Br  Br40  1  0.522920  0.821560  0.499136  1
  Br  Br41  1  0.820611  0.536644  0.056996  1
  Br  Br42  1  0.317540  0.886476  0.115770  1
  Br  Br43  1  0.169086  0.311694  0.386459  1
  Br  Br44  1  0.179389  0.036644  0.943004  1
  Br  Br45  1  0.185546  0.555645  0.054962  1
  Br  Br46  1  0.182460  0.886476  0.615770  1
  Br  Br47  1  0.921794  0.143591  0.307637  1
  Br  Br48  1  0.505291  0.045500  0.617731  1
  Br  Br49  1  0.503439  0.874717  0.287835  1
  Br  Br50  1  0.578206  0.143591  0.807637  1
  Br  Br51  1  0.314454  0.555645  0.554962  1
  Br  Br52  1  0.003439  0.374717  0.212165  1
  Br  Br53  1  0.682460  0.386476  0.884230  1
  Br  Br54  1  0.830914  0.811694  0.613541  1
  Br  Br55  1  0.817540  0.386476  0.384230  1
  Br  Br56  1  0.005291  0.545500  0.882269  1
  Br  Br57  1  0.078206  0.643591  0.692363  1
  Br  Br58  1  0.669086  0.811694  0.113541  1
  Br  Br59  1  0.814454  0.055645  0.945038  1
  Br  Br60  1  0.320611  0.036644  0.443004  1
  Br  Br61  1  0.421794  0.643591  0.192363  1
  Br  Br62  1  0.977080  0.821560  0.999136  1
  Br  Br63  1  0.477080  0.321560  0.500864  1
  Br  Br64  1  0.679389  0.536644  0.556996  1
  Br  Br65  1  0.022920  0.321560  0.000864  1
  Br  Br66  1  0.996561  0.874717  0.787835  1
  Br  Br67  1  0.494709  0.545500  0.382269  1
  Br  Br68  1  0.496561  0.374717  0.712165  1
  Br  Br69  1  0.685546  0.055645  0.445038  1
  Br  Br70  1  0.994709  0.045500  0.117731  1
  Br  Br71  1  0.330914  0.311694  0.886459  1
