# generated using pymatgen
data_Ho13Tm7(CoBi2)4
_symmetry_space_group_name_H-M   'P 1'
_cell_length_a   7.91423328
_cell_length_b   8.86321826
_cell_length_c   12.35586439
_cell_angle_alpha   89.98137885
_cell_angle_beta   90.02191036
_cell_angle_gamma   90.02075465
_symmetry_Int_Tables_number   1
_chemical_formula_structural   Ho13Tm7(CoBi2)4
_chemical_formula_sum   'Ho13 Tm7 Co4 Bi8'
_cell_volume   866.70906957
_cell_formula_units_Z   1
loop_
 _symmetry_equiv_pos_site_id
 _symmetry_equiv_pos_as_xyz
  1  'x, y, z'
loop_
 _atom_site_type_symbol
 _atom_site_label
 _atom_site_symmetry_multiplicity
 _atom_site_fract_x
 _atom_site_fract_y
 _atom_site_fract_z
 _atom_site_occupancy
  Ho  Ho0  1  0.347147  0.749955  0.699455  1
  Ho  Ho1  1  0.652909  0.250015  0.300394  1
  Ho  Ho2  1  0.846739  0.250191  0.800290  1
  Ho  Ho3  1  0.152957  0.749922  0.199642  1
  Ho  Ho4  1  0.884938  0.749772  0.811740  1
  Ho  Ho5  1  0.114504  0.250372  0.188454  1
  Ho  Ho6  1  0.385346  0.249947  0.688109  1
  Ho  Ho7  1  0.614707  0.750010  0.311876  1
  Ho  Ho8  1  0.175354  0.037970  0.937183  1
  Ho  Ho9  1  0.053838  0.749986  0.497869  1
  Ho  Ho10  1  0.946101  0.250056  0.502094  1
  Ho  Ho11  1  0.554137  0.250236  0.002111  1
  Ho  Ho12  1  0.446915  0.749677  0.997957  1
  Tm  Tm13  1  0.673663  0.538227  0.562604  1
  Tm  Tm14  1  0.326297  0.461771  0.437350  1
  Tm  Tm15  1  0.173685  0.461876  0.937385  1
  Tm  Tm16  1  0.326294  0.038252  0.437392  1
  Tm  Tm17  1  0.826398  0.538525  0.062714  1
  Tm  Tm18  1  0.673702  0.961802  0.562600  1
  Tm  Tm19  1  0.826037  0.961608  0.062760  1
  Co  Co20  1  0.065629  0.749588  0.992065  1
  Co  Co21  1  0.932671  0.250418  0.008338  1
  Co  Co22  1  0.565988  0.250010  0.507885  1
  Co  Co23  1  0.434110  0.750002  0.492086  1
  Bi  Bi24  1  0.570758  0.509556  0.826697  1
  Bi  Bi25  1  0.429063  0.490435  0.173257  1
  Bi  Bi26  1  0.070805  0.490429  0.673233  1
  Bi  Bi27  1  0.428902  0.009551  0.173195  1
  Bi  Bi28  1  0.929067  0.509621  0.326881  1
  Bi  Bi29  1  0.571542  0.990286  0.826551  1
  Bi  Bi30  1  0.929141  0.990405  0.326803  1
  Bi  Bi31  1  0.070655  0.009530  0.673031  1
