# generated using pymatgen
data_Y3Ho17Cd6OsRu
_symmetry_space_group_name_H-M   'P 1'
_cell_length_a   9.56410400
_cell_length_b   9.56410311
_cell_length_c   9.83507500
_cell_angle_alpha   90.00000000
_cell_angle_beta   90.00000000
_cell_angle_gamma   120.00000308
_symmetry_Int_Tables_number   1
_chemical_formula_structural   Y3Ho17Cd6OsRu
_chemical_formula_sum   'Y3 Ho17 Cd6 Os1 Ru1'
_cell_volume   779.10651113
_cell_formula_units_Z   1
loop_
 _symmetry_equiv_pos_site_id
 _symmetry_equiv_pos_as_xyz
  1  'x, y, z'
loop_
 _atom_site_type_symbol
 _atom_site_label
 _atom_site_symmetry_multiplicity
 _atom_site_fract_x
 _atom_site_fract_y
 _atom_site_fract_z
 _atom_site_occupancy
  Y  Y0  1  0.539901  0.460099  0.250000  1
  Y  Y1  1  0.539901  0.079803  0.250000  1
  Y  Y2  1  0.920197  0.460099  0.250000  1
  Ho  Ho3  1  0.000000  0.000000  0.499660  1
  Ho  Ho4  1  0.000000  0.000000  0.000340  1
  Ho  Ho5  1  0.209949  0.790051  0.440879  1
  Ho  Ho6  1  0.209949  0.419898  0.440879  1
  Ho  Ho7  1  0.580102  0.790051  0.440879  1
  Ho  Ho8  1  0.790033  0.209967  0.560025  1
  Ho  Ho9  1  0.790033  0.580065  0.560025  1
  Ho  Ho10  1  0.419935  0.209967  0.560025  1
  Ho  Ho11  1  0.790033  0.209967  0.939975  1
  Ho  Ho12  1  0.790033  0.580065  0.939975  1
  Ho  Ho13  1  0.419935  0.209967  0.939975  1
  Ho  Ho14  1  0.209949  0.790051  0.059121  1
  Ho  Ho15  1  0.209949  0.419898  0.059121  1
  Ho  Ho16  1  0.580102  0.790051  0.059121  1
  Ho  Ho17  1  0.458740  0.541260  0.750000  1
  Ho  Ho18  1  0.458740  0.917481  0.750000  1
  Ho  Ho19  1  0.082519  0.541260  0.750000  1
  Cd  Cd20  1  0.885451  0.114549  0.250000  1
  Cd  Cd21  1  0.885451  0.770903  0.250000  1
  Cd  Cd22  1  0.229097  0.114549  0.250000  1
  Cd  Cd23  1  0.114713  0.885287  0.750000  1
  Cd  Cd24  1  0.114713  0.229425  0.750000  1
  Cd  Cd25  1  0.770575  0.885287  0.750000  1
  Os  Os26  1  0.333333  0.666667  0.250000  1
  Ru  Ru27  1  0.666667  0.333333  0.750000  1
