# generated using pymatgen
data_Yb2ReCN
_symmetry_space_group_name_H-M   'P 1'
_cell_length_a   5.11380100
_cell_length_b   6.42421400
_cell_length_c   9.94750100
_cell_angle_alpha   90.00000000
_cell_angle_beta   90.00000000
_cell_angle_gamma   90.00000000
_symmetry_Int_Tables_number   1
_chemical_formula_structural   Yb2ReCN
_chemical_formula_sum   'Yb8 Re4 C4 N4'
_cell_volume   326.79681465
_cell_formula_units_Z   4
loop_
 _symmetry_equiv_pos_site_id
 _symmetry_equiv_pos_as_xyz
  1  'x, y, z'
loop_
 _atom_site_type_symbol
 _atom_site_label
 _atom_site_symmetry_multiplicity
 _atom_site_fract_x
 _atom_site_fract_y
 _atom_site_fract_z
 _atom_site_occupancy
  Yb  Yb0  1  0.250000  0.684078  0.548789  1
  Yb  Yb1  1  0.750000  0.315922  0.451211  1
  Yb  Yb2  1  0.750000  0.815922  0.048789  1
  Yb  Yb3  1  0.250000  0.184078  0.951211  1
  Yb  Yb4  1  0.250000  0.549719  0.223136  1
  Yb  Yb5  1  0.750000  0.450281  0.776864  1
  Yb  Yb6  1  0.750000  0.950281  0.723136  1
  Yb  Yb7  1  0.250000  0.049719  0.276864  1
  Re  Re8  1  0.250000  0.721970  0.862977  1
  Re  Re9  1  0.750000  0.278030  0.137023  1
  Re  Re10  1  0.750000  0.778030  0.362977  1
  Re  Re11  1  0.250000  0.221970  0.637023  1
  C  C12  1  0.250000  0.454199  0.759362  1
  C  C13  1  0.750000  0.545801  0.240638  1
  C  C14  1  0.750000  0.045801  0.259362  1
  C  C15  1  0.250000  0.954199  0.740638  1
  N  N16  1  0.250000  0.810208  0.042049  1
  N  N17  1  0.750000  0.189792  0.957951  1
  N  N18  1  0.750000  0.689792  0.542049  1
  N  N19  1  0.250000  0.310208  0.457951  1
