# generated using pymatgen
data_Gd3Pd3Rh
_symmetry_space_group_name_H-M   'P 1'
_cell_length_a   7.92147337
_cell_length_b   7.92147420
_cell_length_c   7.92147500
_cell_angle_alpha   114.20912173
_cell_angle_beta   114.20912443
_cell_angle_gamma   114.20911698
_symmetry_Int_Tables_number   1
_chemical_formula_structural   Gd3Pd3Rh
_chemical_formula_sum   'Gd6 Pd6 Rh2'
_cell_volume   297.25538324
_cell_formula_units_Z   2
loop_
 _symmetry_equiv_pos_site_id
 _symmetry_equiv_pos_as_xyz
  1  'x, y, z'
loop_
 _atom_site_type_symbol
 _atom_site_label
 _atom_site_symmetry_multiplicity
 _atom_site_fract_x
 _atom_site_fract_y
 _atom_site_fract_z
 _atom_site_occupancy
  Gd  Gd0  1  0.403024  0.038261  0.281712  1
  Gd  Gd1  1  0.038261  0.281712  0.403024  1
  Gd  Gd2  1  0.281712  0.403024  0.038261  1
  Gd  Gd3  1  0.596976  0.961739  0.718288  1
  Gd  Gd4  1  0.961739  0.718288  0.596976  1
  Gd  Gd5  1  0.718288  0.596976  0.961739  1
  Pd  Pd6  1  0.225501  0.058306  0.554097  1
  Pd  Pd7  1  0.058306  0.554097  0.225501  1
  Pd  Pd8  1  0.554097  0.225501  0.058306  1
  Pd  Pd9  1  0.774499  0.941694  0.445903  1
  Pd  Pd10  1  0.941694  0.445903  0.774499  1
  Pd  Pd11  1  0.445903  0.774499  0.941694  1
  Rh  Rh12  1  0.000000  0.000000  0.000000  1
  Rh  Rh13  1  0.500000  0.500000  0.500000  1
