# generated using pymatgen
data_Y8Tc3B24Ru
_symmetry_space_group_name_H-M   'P 1'
_cell_length_a   3.68282400
_cell_length_b   9.16966337
_cell_length_c   11.55565997
_cell_angle_alpha   89.91772242
_cell_angle_beta   90.00000000
_cell_angle_gamma   90.00000000
_symmetry_Int_Tables_number   1
_chemical_formula_structural   Y8Tc3B24Ru
_chemical_formula_sum   'Y8 Tc3 B24 Ru1'
_cell_volume   390.23719692
_cell_formula_units_Z   1
loop_
 _symmetry_equiv_pos_site_id
 _symmetry_equiv_pos_as_xyz
  1  'x, y, z'
loop_
 _atom_site_type_symbol
 _atom_site_label
 _atom_site_symmetry_multiplicity
 _atom_site_fract_x
 _atom_site_fract_y
 _atom_site_fract_z
 _atom_site_occupancy
  Y  Y0  1  0.000000  0.323597  0.414077  1
  Y  Y1  1  0.000000  0.675156  0.584236  1
  Y  Y2  1  0.000000  0.823189  0.087216  1
  Y  Y3  1  0.000000  0.177924  0.914395  1
  Y  Y4  1  0.000000  0.942582  0.370377  1
  Y  Y5  1  0.000000  0.057745  0.630653  1
  Y  Y6  1  0.000000  0.443006  0.129890  1
  Y  Y7  1  0.000000  0.557823  0.869230  1
  Tc  Tc8  1  0.000000  0.638420  0.320397  1
  Tc  Tc9  1  0.000000  0.361720  0.679997  1
  Tc  Tc10  1  0.000000  0.137987  0.178288  1
  B  B11  1  0.500000  0.553021  0.432626  1
  B  B12  1  0.500000  0.446580  0.566909  1
  B  B13  1  0.500000  0.053043  0.067002  1
  B  B14  1  0.500000  0.946088  0.932676  1
  B  B15  1  0.500000  0.748034  0.418630  1
  B  B16  1  0.500000  0.251220  0.581517  1
  B  B17  1  0.500000  0.248688  0.081301  1
  B  B18  1  0.500000  0.751913  0.918361  1
  B  B19  1  0.500000  0.791493  0.265624  1
  B  B20  1  0.500000  0.208813  0.735005  1
  B  B21  1  0.500000  0.291466  0.234562  1
  B  B22  1  0.500000  0.709584  0.765376  1
  B  B23  1  0.500000  0.631171  0.185771  1
  B  B24  1  0.500000  0.368988  0.814751  1
  B  B25  1  0.500000  0.130590  0.313876  1
  B  B26  1  0.500000  0.868793  0.685932  1
  B  B27  1  0.500000  0.982049  0.211722  1
  B  B28  1  0.500000  0.016373  0.788515  1
  B  B29  1  0.500000  0.482397  0.288064  1
  B  B30  1  0.500000  0.517366  0.711473  1
  B  B31  1  0.500000  0.603002  0.028335  1
  B  B32  1  0.500000  0.398752  0.971311  1
  B  B33  1  0.500000  0.102275  0.471820  1
  B  B34  1  0.500000  0.897457  0.529035  1
  Ru  Ru35  1  0.000000  0.861693  0.821051  1
