# generated using pymatgen
data_Tb7Ho7Th2(CdIr)4
_symmetry_space_group_name_H-M   'P 1'
_cell_length_a   9.69567691
_cell_length_b   9.69566833
_cell_length_c   9.68515700
_cell_angle_alpha   60.03539076
_cell_angle_beta   60.03555509
_cell_angle_gamma   60.21387495
_symmetry_Int_Tables_number   1
_chemical_formula_structural   Tb7Ho7Th2(CdIr)4
_chemical_formula_sum   'Tb7 Ho7 Th2 Cd4 Ir4'
_cell_volume   645.17572655
_cell_formula_units_Z   1
loop_
 _symmetry_equiv_pos_site_id
 _symmetry_equiv_pos_as_xyz
  1  'x, y, z'
loop_
 _atom_site_type_symbol
 _atom_site_label
 _atom_site_symmetry_multiplicity
 _atom_site_fract_x
 _atom_site_fract_y
 _atom_site_fract_z
 _atom_site_occupancy
  Tb  Tb0  1  0.061100  0.061105  0.438900  1
  Tb  Tb1  1  0.188327  0.813473  0.813252  1
  Tb  Tb2  1  0.813472  0.188325  0.184950  1
  Tb  Tb3  1  0.813477  0.188324  0.813255  1
  Tb  Tb4  1  0.188325  0.813468  0.184953  1
  Tb  Tb5  1  0.814849  0.814842  0.185154  1
  Tb  Tb6  1  0.190730  0.190731  0.809266  1
  Ho  Ho7  1  0.601160  0.198423  0.600216  1
  Ho  Ho8  1  0.198422  0.601158  0.600217  1
  Ho  Ho9  1  0.062360  0.438955  0.438530  1
  Ho  Ho10  1  0.438962  0.062369  0.060146  1
  Ho  Ho11  1  0.438951  0.062363  0.438528  1
  Ho  Ho12  1  0.062371  0.438960  0.060149  1
  Ho  Ho13  1  0.436430  0.436423  0.063561  1
  Th  Th14  1  0.596599  0.596598  0.600229  1
  Th  Th15  1  0.596591  0.596595  0.206572  1
  Cd  Cd16  1  0.831403  0.831405  0.829845  1
  Cd  Cd17  1  0.831405  0.831402  0.507352  1
  Cd  Cd18  1  0.832604  0.503680  0.831857  1
  Cd  Cd19  1  0.503679  0.832605  0.831858  1
  Ir  Ir20  1  0.391276  0.391278  0.394648  1
  Ir  Ir21  1  0.391280  0.391281  0.822796  1
  Ir  Ir22  1  0.393674  0.822556  0.391884  1
  Ir  Ir23  1  0.822554  0.393682  0.391881  1
