# generated using pymatgen
data_SmYBe4(B5O11)2
_symmetry_space_group_name_H-M   'P 1'
_cell_length_a   4.37982811
_cell_length_b   6.76306700
_cell_length_c   25.94131491
_cell_angle_alpha   90.00000000
_cell_angle_beta   90.23367145
_cell_angle_gamma   90.00000000
_symmetry_Int_Tables_number   1
_chemical_formula_structural   SmYBe4(B5O11)2
_chemical_formula_sum   'Sm2 Y2 Be8 B20 O44'
_cell_volume   768.40313930
_cell_formula_units_Z   2
loop_
 _symmetry_equiv_pos_site_id
 _symmetry_equiv_pos_as_xyz
  1  'x, y, z'
loop_
 _atom_site_type_symbol
 _atom_site_label
 _atom_site_symmetry_multiplicity
 _atom_site_fract_x
 _atom_site_fract_y
 _atom_site_fract_z
 _atom_site_occupancy
  Sm  Sm0  1  0.860212  0.369967  0.919189  1
  Sm  Sm1  1  0.139788  0.869967  0.080811  1
  Y  Y2  1  0.369104  0.866825  0.580330  1
  Y  Y3  1  0.630896  0.366825  0.419670  1
  Be  Be4  1  0.166349  0.452724  0.789306  1
  Be  Be5  1  0.833651  0.952724  0.210694  1
  Be  Be6  1  0.663762  0.953140  0.708942  1
  Be  Be7  1  0.336238  0.453140  0.291058  1
  Be  Be8  1  0.662457  0.229677  0.791557  1
  Be  Be9  1  0.337543  0.729677  0.208443  1
  Be  Be10  1  0.160983  0.729403  0.706617  1
  Be  Be11  1  0.839017  0.229403  0.293383  1
  B  B12  1  0.375805  0.039690  0.868073  1
  B  B13  1  0.624195  0.539690  0.131927  1
  B  B14  1  0.874283  0.539665  0.629960  1
  B  B15  1  0.125717  0.039665  0.370040  1
  B  B16  1  0.151699  0.710443  0.868911  1
  B  B17  1  0.848301  0.210443  0.131089  1
  B  B18  1  0.647968  0.210314  0.628988  1
  B  B19  1  0.352032  0.710314  0.371012  1
  B  B20  1  0.033765  0.937525  0.941622  1
  B  B21  1  0.966235  0.437525  0.058378  1
  B  B22  1  0.527529  0.437299  0.556227  1
  B  B23  1  0.472471  0.937299  0.443773  1
  B  B24  1  0.544724  0.956107  0.995993  1
  B  B25  1  0.455276  0.456107  0.004007  1
  B  B26  1  0.037496  0.456716  0.501829  1
  B  B27  1  0.962504  0.956716  0.498171  1
  B  B28  1  0.175522  0.088683  0.750901  1
  B  B29  1  0.824478  0.588683  0.249099  1
  B  B30  1  0.676166  0.588549  0.747392  1
  B  B31  1  0.323834  0.088549  0.252608  1
  O  O32  1  0.355709  0.847107  0.848348  1
  O  O33  1  0.644291  0.347107  0.151652  1
  O  O34  1  0.851428  0.347390  0.649919  1
  O  O35  1  0.148572  0.847390  0.350081  1
  O  O36  1  0.637462  0.924942  0.045213  1
  O  O37  1  0.362538  0.424942  0.954787  1
  O  O38  1  0.125906  0.424753  0.452518  1
  O  O39  1  0.874094  0.924753  0.547482  1
  O  O40  1  0.000393  0.745998  0.915304  1
  O  O41  1  0.999607  0.245998  0.084696  1
  O  O42  1  0.498033  0.245106  0.582327  1
  O  O43  1  0.501967  0.745106  0.417673  1
  O  O44  1  0.230101  0.924661  0.988426  1
  O  O45  1  0.769899  0.424661  0.011574  1
  O  O46  1  0.721936  0.426074  0.509251  1
  O  O47  1  0.278064  0.926074  0.490749  1
  O  O48  1  0.162124  0.086204  0.906150  1
  O  O49  1  0.837876  0.586204  0.093850  1
  O  O50  1  0.657579  0.586081  0.591886  1
  O  O51  1  0.342421  0.086081  0.408114  1
  O  O52  1  0.092816  0.530004  0.847748  1
  O  O53  1  0.907184  0.030004  0.152252  1
  O  O54  1  0.586392  0.029740  0.650183  1
  O  O55  1  0.413608  0.529740  0.349817  1
  O  O56  1  0.576708  0.178948  0.851915  1
  O  O57  1  0.423292  0.678948  0.148085  1
  O  O58  1  0.077708  0.678825  0.645908  1
  O  O59  1  0.922292  0.178825  0.354092  1
  O  O60  1  0.730851  0.015988  0.955606  1
  O  O61  1  0.269149  0.515988  0.044394  1
  O  O62  1  0.224600  0.515873  0.542339  1
  O  O63  1  0.775400  0.015873  0.457661  1
  O  O64  1  0.026925  0.224831  0.781871  1
  O  O65  1  0.973075  0.724831  0.218129  1
  O  O66  1  0.525789  0.725382  0.716664  1
  O  O67  1  0.474211  0.225382  0.283336  1
  O  O68  1  0.489403  0.088313  0.750875  1
  O  O69  1  0.510597  0.588313  0.249125  1
  O  O70  1  0.990029  0.586989  0.747038  1
  O  O71  1  0.009971  0.086989  0.252962  1
  O  O72  1  0.024349  0.953408  0.720620  1
  O  O73  1  0.975651  0.453408  0.279380  1
  O  O74  1  0.526546  0.453872  0.777836  1
  O  O75  1  0.473454  0.953872  0.222164  1
