# generated using pymatgen
data_Pr2Ga2Ru2C
_symmetry_space_group_name_H-M   'P 1'
_cell_length_a   6.08632174
_cell_length_b   6.08632129
_cell_length_c   7.36056408
_cell_angle_alpha   126.57882960
_cell_angle_beta   126.57882789
_cell_angle_gamma   40.75579027
_symmetry_Int_Tables_number   1
_chemical_formula_structural   Pr2Ga2Ru2C
_chemical_formula_sum   'Pr2 Ga2 Ru2 C1'
_cell_volume   137.40431572
_cell_formula_units_Z   1
loop_
 _symmetry_equiv_pos_site_id
 _symmetry_equiv_pos_as_xyz
  1  'x, y, z'
loop_
 _atom_site_type_symbol
 _atom_site_label
 _atom_site_symmetry_multiplicity
 _atom_site_fract_x
 _atom_site_fract_y
 _atom_site_fract_z
 _atom_site_occupancy
  Pr  Pr0  1  0.559390  0.559390  0.291336  1
  Pr  Pr1  1  0.440610  0.440610  0.708662  1
  Ga  Ga2  1  0.839163  0.839163  0.288063  1
  Ga  Ga3  1  0.160837  0.160837  0.711937  1
  Ru  Ru4  1  0.195293  0.195293  0.089070  1
  Ru  Ru5  1  0.804708  0.804708  0.910930  1
  C  C6  1  0.000000  0.000000  0.000000  1
