# generated using pymatgen
data_Yb4Er5TmRu4
_symmetry_space_group_name_H-M   'P 1'
_cell_length_a   6.38670062
_cell_length_b   7.20369670
_cell_length_c   8.47002730
_cell_angle_alpha   97.39188947
_cell_angle_beta   112.14908250
_cell_angle_gamma   90.00000178
_symmetry_Int_Tables_number   1
_chemical_formula_structural   Yb4Er5TmRu4
_chemical_formula_sum   'Yb4 Er5 Tm1 Ru4'
_cell_volume   357.43215695
_cell_formula_units_Z   1
loop_
 _symmetry_equiv_pos_site_id
 _symmetry_equiv_pos_as_xyz
  1  'x, y, z'
loop_
 _atom_site_type_symbol
 _atom_site_label
 _atom_site_symmetry_multiplicity
 _atom_site_fract_x
 _atom_site_fract_y
 _atom_site_fract_z
 _atom_site_occupancy
  Yb  Yb0  1  0.794850  0.078852  0.816350  1
  Yb  Yb1  1  0.978501  0.421148  0.183650  1
  Yb  Yb2  1  0.205240  0.920892  0.183645  1
  Yb  Yb3  1  0.021595  0.579108  0.816355  1
  Er  Er4  1  0.197955  0.184426  0.565725  1
  Er  Er5  1  0.632231  0.315574  0.434275  1
  Er  Er6  1  0.802027  0.815397  0.434137  1
  Er  Er7  1  0.367890  0.684603  0.565863  1
  Er  Er8  1  0.431125  0.250000  0.000000  1
  Tm  Tm9  1  0.568150  0.750000  0.000000  1
  Ru  Ru10  1  0.581938  0.424950  0.768385  1
  Ru  Ru11  1  0.813553  0.075050  0.231615  1
  Ru  Ru12  1  0.418287  0.575453  0.231627  1
  Ru  Ru13  1  0.186659  0.924547  0.768373  1
