# generated using pymatgen
data_Dy5Si12Ni14Ru5
_symmetry_space_group_name_H-M   'P 1'
_cell_length_a   12.39939075
_cell_length_b   12.36590587
_cell_length_c   3.80003500
_cell_angle_alpha   90.00000000
_cell_angle_beta   90.00000000
_cell_angle_gamma   119.70847443
_symmetry_Int_Tables_number   1
_chemical_formula_structural   Dy5Si12Ni14Ru5
_chemical_formula_sum   'Dy5 Si12 Ni14 Ru5'
_cell_volume   506.07259008
_cell_formula_units_Z   1
loop_
 _symmetry_equiv_pos_site_id
 _symmetry_equiv_pos_as_xyz
  1  'x, y, z'
loop_
 _atom_site_type_symbol
 _atom_site_label
 _atom_site_symmetry_multiplicity
 _atom_site_fract_x
 _atom_site_fract_y
 _atom_site_fract_z
 _atom_site_occupancy
  Dy  Dy0  1  0.664101  0.332469  0.000000  1
  Dy  Dy1  1  0.332940  0.665956  0.000000  1
  Dy  Dy2  1  0.188242  0.186251  0.500000  1
  Dy  Dy3  1  0.815782  0.002414  0.500000  1
  Dy  Dy4  1  0.999164  0.815122  0.500000  1
  Si  Si5  1  0.369157  0.368847  0.000000  1
  Si  Si6  1  0.628096  0.997172  0.000000  1
  Si  Si7  1  0.003035  0.631899  0.000000  1
  Si  Si8  1  0.843137  0.319801  0.500000  1
  Si  Si9  1  0.677900  0.521250  0.500000  1
  Si  Si10  1  0.474283  0.158297  0.500000  1
  Si  Si11  1  0.317238  0.839435  0.500000  1
  Si  Si12  1  0.521075  0.680560  0.500000  1
  Si  Si13  1  0.161388  0.476988  0.500000  1
  Si  Si14  1  0.816337  0.820794  0.000000  1
  Si  Si15  1  0.182379  0.999919  0.000000  1
  Si  Si16  1  0.004785  0.183437  0.000000  1
  Ni  Ni17  1  0.825373  0.197171  0.000000  1
  Ni  Ni18  1  0.801654  0.627599  0.000000  1
  Ni  Ni19  1  0.375713  0.181538  0.000000  1
  Ni  Ni20  1  0.193531  0.817533  0.000000  1
  Ni  Ni21  1  0.622187  0.804661  0.000000  1
  Ni  Ni22  1  0.183929  0.376575  0.000000  1
  Ni  Ni23  1  0.476842  0.354611  0.500000  1
  Ni  Ni24  1  0.129477  0.646114  0.500000  1
  Ni  Ni25  1  0.516990  0.870657  0.500000  1
  Ni  Ni26  1  0.354780  0.479389  0.500000  1
  Ni  Ni27  1  0.721129  0.721231  0.500000  1
  Ni  Ni28  1  0.276786  0.997756  0.500000  1
  Ni  Ni29  1  0.000644  0.278059  0.500000  1
  Ni  Ni30  1  0.999643  0.999128  0.000000  1
  Ru  Ru31  1  0.558238  0.560674  0.000000  1
  Ru  Ru32  1  0.435343  0.996406  0.000000  1
  Ru  Ru33  1  0.005962  0.441158  0.000000  1
  Ru  Ru34  1  0.646846  0.124671  0.500000  1
  Ru  Ru35  1  0.875894  0.524460  0.500000  1
