# generated using pymatgen
data_Tb8Yb11SmSn16
_symmetry_space_group_name_H-M   'P 1'
_cell_length_a   7.86320508
_cell_length_b   8.43534279
_cell_length_c   16.06954106
_cell_angle_alpha   90.00466088
_cell_angle_beta   90.14585537
_cell_angle_gamma   89.95075299
_symmetry_Int_Tables_number   1
_chemical_formula_structural   Tb8Yb11SmSn16
_chemical_formula_sum   'Tb8 Yb11 Sm1 Sn16'
_cell_volume   1065.87001051
_cell_formula_units_Z   1
loop_
 _symmetry_equiv_pos_site_id
 _symmetry_equiv_pos_as_xyz
  1  'x, y, z'
loop_
 _atom_site_type_symbol
 _atom_site_label
 _atom_site_symmetry_multiplicity
 _atom_site_fract_x
 _atom_site_fract_y
 _atom_site_fract_z
 _atom_site_occupancy
  Tb  Tb0  1  0.669581  0.168377  0.622697  1
  Tb  Tb1  1  0.171472  0.333005  0.877775  1
  Tb  Tb2  1  0.328101  0.833749  0.122269  1
  Tb  Tb3  1  0.828902  0.666889  0.378147  1
  Tb  Tb4  1  0.328685  0.833320  0.376833  1
  Tb  Tb5  1  0.828329  0.666562  0.122092  1
  Tb  Tb6  1  0.672170  0.166414  0.877333  1
  Tb  Tb7  1  0.169785  0.331728  0.621566  1
  Yb  Yb8  1  0.003417  0.813048  0.907353  1
  Yb  Yb9  1  0.496442  0.313426  0.092907  1
  Yb  Yb10  1  0.997205  0.187149  0.407133  1
  Yb  Yb11  1  0.496540  0.314966  0.407048  1
  Yb  Yb12  1  0.996316  0.187558  0.093049  1
  Yb  Yb13  1  0.503220  0.686680  0.906684  1
  Yb  Yb14  1  0.003675  0.813295  0.592539  1
  Yb  Yb15  1  0.835545  0.509877  0.751040  1
  Yb  Yb16  1  0.333348  0.990489  0.750580  1
  Yb  Yb17  1  0.165980  0.489135  0.250017  1
  Yb  Yb18  1  0.665757  0.010834  0.249910  1
  Sm  Sm19  1  0.505559  0.686252  0.593408  1
  Sn  Sn20  1  0.671678  0.962240  0.461398  1
  Sn  Sn21  1  0.172504  0.536555  0.039853  1
  Sn  Sn22  1  0.328850  0.035033  0.958787  1
  Sn  Sn23  1  0.825199  0.464567  0.541044  1
  Sn  Sn24  1  0.328642  0.031117  0.541993  1
  Sn  Sn25  1  0.828108  0.464107  0.959307  1
  Sn  Sn26  1  0.671729  0.964762  0.040397  1
  Sn  Sn27  1  0.176733  0.538645  0.461013  1
  Sn  Sn28  1  0.469519  0.378717  0.749167  1
  Sn  Sn29  1  0.968289  0.122355  0.749123  1
  Sn  Sn30  1  0.529873  0.622316  0.249581  1
  Sn  Sn31  1  0.029433  0.877462  0.249711  1
  Sn  Sn32  1  0.711664  0.868403  0.749420  1
  Sn  Sn33  1  0.217318  0.630114  0.748163  1
  Sn  Sn34  1  0.285268  0.129255  0.250104  1
  Sn  Sn35  1  0.785167  0.371600  0.250556  1
