# generated using pymatgen
data_Hf4Zr2BeBi2
_symmetry_space_group_name_H-M   'P 1'
_cell_length_a   7.70769734
_cell_length_b   7.71730767
_cell_length_c   3.80801100
_cell_angle_alpha   90.00000000
_cell_angle_beta   90.00000000
_cell_angle_gamma   120.04125544
_symmetry_Int_Tables_number   1
_chemical_formula_structural   Hf4Zr2BeBi2
_chemical_formula_sum   'Hf4 Zr2 Be1 Bi2'
_cell_volume   196.08239366
_cell_formula_units_Z   1
loop_
 _symmetry_equiv_pos_site_id
 _symmetry_equiv_pos_as_xyz
  1  'x, y, z'
loop_
 _atom_site_type_symbol
 _atom_site_label
 _atom_site_symmetry_multiplicity
 _atom_site_fract_x
 _atom_site_fract_y
 _atom_site_fract_z
 _atom_site_occupancy
  Hf  Hf0  1  0.000000  0.617261  0.500000  1
  Hf  Hf1  1  0.227462  0.998905  0.000000  1
  Hf  Hf2  1  0.772538  0.771441  0.000000  1
  Hf  Hf3  1  0.000000  0.226546  0.000000  1
  Zr  Zr4  1  0.611972  0.999799  0.500000  1
  Zr  Zr5  1  0.388028  0.387828  0.500000  1
  Be  Be6  1  0.000000  0.998470  0.500000  1
  Bi  Bi7  1  0.331779  0.665764  0.000000  1
  Bi  Bi8  1  0.668221  0.333984  0.000000  1
