# generated using pymatgen
data_Ho4LuPPb3
_symmetry_space_group_name_H-M   'P 1'
_cell_length_a   9.09211700
_cell_length_b   9.09211799
_cell_length_c   6.74467500
_cell_angle_alpha   90.00000000
_cell_angle_beta   90.00000000
_cell_angle_gamma   120.00001458
_symmetry_Int_Tables_number   1
_chemical_formula_structural   Ho4LuPPb3
_chemical_formula_sum   'Ho8 Lu2 P2 Pb6'
_cell_volume   482.86049396
_cell_formula_units_Z   2
loop_
 _symmetry_equiv_pos_site_id
 _symmetry_equiv_pos_as_xyz
  1  'x, y, z'
loop_
 _atom_site_type_symbol
 _atom_site_label
 _atom_site_symmetry_multiplicity
 _atom_site_fract_x
 _atom_site_fract_y
 _atom_site_fract_z
 _atom_site_occupancy
  Ho  Ho0  1  0.761783  0.761783  0.750355  1
  Ho  Ho1  1  0.238217  0.000000  0.750355  1
  Ho  Ho2  1  0.000000  0.238217  0.750355  1
  Ho  Ho3  1  0.238217  0.238217  0.249645  1
  Ho  Ho4  1  0.761783  0.000000  0.249645  1
  Ho  Ho5  1  0.000000  0.761783  0.249645  1
  Ho  Ho6  1  0.333333  0.666667  0.500000  1
  Ho  Ho7  1  0.666667  0.333333  0.500000  1
  Lu  Lu8  1  0.666667  0.333333  0.000000  1
  Lu  Lu9  1  0.333333  0.666667  0.000000  1
  P  P10  1  0.000000  0.000000  0.000000  1
  P  P11  1  0.000000  0.000000  0.500000  1
  Pb  Pb12  1  0.400082  0.400082  0.750984  1
  Pb  Pb13  1  0.599918  0.000000  0.750984  1
  Pb  Pb14  1  0.000000  0.599918  0.750984  1
  Pb  Pb15  1  0.599918  0.599918  0.249016  1
  Pb  Pb16  1  0.400082  0.000000  0.249016  1
  Pb  Pb17  1  0.000000  0.400082  0.249016  1
