# generated using pymatgen
data_Hf4Nb3CrSi3P
_symmetry_space_group_name_H-M   'P 1'
_cell_length_a   3.54089600
_cell_length_b   6.91600771
_cell_length_c   8.29663813
_cell_angle_alpha   89.46263974
_cell_angle_beta   90.00000000
_cell_angle_gamma   90.00000000
_symmetry_Int_Tables_number   1
_chemical_formula_structural   Hf4Nb3CrSi3P
_chemical_formula_sum   'Hf4 Nb3 Cr1 Si3 P1'
_cell_volume   203.16630763
_cell_formula_units_Z   1
loop_
 _symmetry_equiv_pos_site_id
 _symmetry_equiv_pos_as_xyz
  1  'x, y, z'
loop_
 _atom_site_type_symbol
 _atom_site_label
 _atom_site_symmetry_multiplicity
 _atom_site_fract_x
 _atom_site_fract_y
 _atom_site_fract_z
 _atom_site_occupancy
  Hf  Hf0  1  0.250000  0.042081  0.666991  1
  Hf  Hf1  1  0.250000  0.538767  0.831248  1
  Hf  Hf2  1  0.750000  0.461427  0.170145  1
  Hf  Hf3  1  0.750000  0.952388  0.339016  1
  Nb  Nb4  1  0.750000  0.861810  0.938950  1
  Nb  Nb5  1  0.750000  0.374008  0.559191  1
  Nb  Nb6  1  0.250000  0.137080  0.058252  1
  Cr  Cr7  1  0.250000  0.631888  0.441035  1
  Si  Si8  1  0.250000  0.258326  0.359856  1
  Si  Si9  1  0.250000  0.756126  0.149817  1
  Si  Si10  1  0.750000  0.743190  0.629273  1
  P  P11  1  0.750000  0.242910  0.856227  1
