# generated using pymatgen
data_LaDy(Si2Rh3)2
_symmetry_space_group_name_H-M   'P 1'
_cell_length_a   5.61203229
_cell_length_b   6.68355589
_cell_length_c   6.68357676
_cell_angle_alpha   65.25465137
_cell_angle_beta   65.17675030
_cell_angle_gamma   65.17632264
_symmetry_Int_Tables_number   1
_chemical_formula_structural   LaDy(Si2Rh3)2
_chemical_formula_sum   'La1 Dy1 Si4 Rh6'
_cell_volume   197.36708319
_cell_formula_units_Z   1
loop_
 _symmetry_equiv_pos_site_id
 _symmetry_equiv_pos_as_xyz
  1  'x, y, z'
loop_
 _atom_site_type_symbol
 _atom_site_label
 _atom_site_symmetry_multiplicity
 _atom_site_fract_x
 _atom_site_fract_y
 _atom_site_fract_z
 _atom_site_occupancy
  La  La0  1  0.463729  0.249999  0.249995  1
  Dy  Dy1  1  0.547009  0.749996  0.749995  1
  Si  Si2  1  0.224399  0.580346  0.580343  1
  Si  Si3  1  0.774762  0.422502  0.422509  1
  Si  Si4  1  0.119781  0.077491  0.077498  1
  Si  Si5  1  0.885089  0.919664  0.919662  1
  Rh  Rh6  1  0.499174  0.212145  0.781742  1
  Rh  Rh7  1  0.993067  0.718263  0.287860  1
  Rh  Rh8  1  0.499169  0.781744  0.212150  1
  Rh  Rh9  1  0.993065  0.287852  0.718257  1
  Rh  Rh10  1  0.000380  0.502682  0.997311  1
  Rh  Rh11  1  0.000375  0.997317  0.502678  1
