# generated using pymatgen
data_Sm2UTc2
_symmetry_space_group_name_H-M   'P 1'
_cell_length_a   6.06113521
_cell_length_b   6.06113626
_cell_length_c   6.06113641
_cell_angle_alpha   139.44933775
_cell_angle_beta   123.67846711
_cell_angle_gamma   71.67762613
_symmetry_Int_Tables_number   1
_chemical_formula_structural   Sm2UTc2
_chemical_formula_sum   'Sm2 U1 Tc2'
_cell_volume   118.08677492
_cell_formula_units_Z   1
loop_
 _symmetry_equiv_pos_site_id
 _symmetry_equiv_pos_as_xyz
  1  'x, y, z'
loop_
 _atom_site_type_symbol
 _atom_site_label
 _atom_site_symmetry_multiplicity
 _atom_site_fract_x
 _atom_site_fract_y
 _atom_site_fract_z
 _atom_site_occupancy
  Sm  Sm0  1  0.698535  0.198536  0.500000  1
  Sm  Sm1  1  0.301464  0.801464  0.500000  1
  U  U2  1  0.000000  0.000000  0.000000  1
  Tc  Tc3  1  0.754507  0.500000  0.254507  1
  Tc  Tc4  1  0.245492  0.500000  0.745492  1
