# generated using pymatgen
data_NbVCd2O7
_symmetry_space_group_name_H-M   'P 1'
_cell_length_a   5.84853933
_cell_length_b   5.84853994
_cell_length_c   5.35803635
_cell_angle_alpha   97.35299593
_cell_angle_beta   97.35299421
_cell_angle_gamma   107.25520346
_symmetry_Int_Tables_number   1
_chemical_formula_structural   NbVCd2O7
_chemical_formula_sum   'Nb1 V1 Cd2 O7'
_cell_volume   170.90085490
_cell_formula_units_Z   1
loop_
 _symmetry_equiv_pos_site_id
 _symmetry_equiv_pos_as_xyz
  1  'x, y, z'
loop_
 _atom_site_type_symbol
 _atom_site_label
 _atom_site_symmetry_multiplicity
 _atom_site_fract_x
 _atom_site_fract_y
 _atom_site_fract_z
 _atom_site_occupancy
  Nb  Nb0  1  0.765363  0.765363  0.086556  1
  V  V1  1  0.282418  0.282418  0.280722  1
  Cd  Cd2  1  0.824606  0.205264  0.684521  1
  Cd  Cd3  1  0.205264  0.824606  0.684521  1
  O  O4  1  0.501071  0.501071  0.159092  1
  O  O5  1  0.910311  0.910311  0.429130  1
  O  O6  1  0.435469  0.133996  0.464333  1
  O  O7  1  0.133996  0.435469  0.464333  1
  O  O8  1  0.918247  0.582235  0.895645  1
  O  O9  1  0.582235  0.918247  0.895645  1
  O  O10  1  0.081825  0.081825  0.009015  1
