# generated using pymatgen
data_Yb(IrCl5)2
_symmetry_space_group_name_H-M   'P 1'
_cell_length_a   9.81507123
_cell_length_b   9.81507073
_cell_length_c   12.39370600
_cell_angle_alpha   87.54845221
_cell_angle_beta   87.54845233
_cell_angle_gamma   141.50782454
_symmetry_Int_Tables_number   1
_chemical_formula_structural   Yb(IrCl5)2
_chemical_formula_sum   'Yb2 Ir4 Cl20'
_cell_volume   736.84357985
_cell_formula_units_Z   2
loop_
 _symmetry_equiv_pos_site_id
 _symmetry_equiv_pos_as_xyz
  1  'x, y, z'
loop_
 _atom_site_type_symbol
 _atom_site_label
 _atom_site_symmetry_multiplicity
 _atom_site_fract_x
 _atom_site_fract_y
 _atom_site_fract_z
 _atom_site_occupancy
  Yb  Yb0  1  0.051259  0.948741  0.750000  1
  Yb  Yb1  1  0.948741  0.051259  0.250000  1
  Ir  Ir2  1  0.446041  0.553959  0.750000  1
  Ir  Ir3  1  0.553959  0.446041  0.250000  1
  Ir  Ir4  1  0.255023  0.744977  0.750000  1
  Ir  Ir5  1  0.744977  0.255023  0.250000  1
  Cl  Cl6  1  0.758519  0.460542  0.358291  1
  Cl  Cl7  1  0.539458  0.241481  0.141709  1
  Cl  Cl8  1  0.241481  0.539458  0.641709  1
  Cl  Cl9  1  0.460542  0.758519  0.858291  1
  Cl  Cl10  1  0.878132  0.769195  0.139215  1
  Cl  Cl11  1  0.230805  0.121868  0.360785  1
  Cl  Cl12  1  0.121868  0.230805  0.860785  1
  Cl  Cl13  1  0.769195  0.878132  0.639215  1
  Cl  Cl14  1  0.063693  0.576091  0.149671  1
  Cl  Cl15  1  0.423909  0.936307  0.350329  1
  Cl  Cl16  1  0.936307  0.423909  0.850329  1
  Cl  Cl17  1  0.576091  0.063693  0.649671  1
  Cl  Cl18  1  0.581512  0.650196  0.363794  1
  Cl  Cl19  1  0.349804  0.418488  0.136206  1
  Cl  Cl20  1  0.418488  0.349804  0.636206  1
  Cl  Cl21  1  0.650196  0.581512  0.863795  1
  Cl  Cl22  1  0.945873  0.278929  0.366048  1
  Cl  Cl23  1  0.721071  0.054127  0.133952  1
  Cl  Cl24  1  0.054127  0.721071  0.633952  1
  Cl  Cl25  1  0.278929  0.945873  0.866048  1
