# generated using pymatgen
data_Sc4Co2IrRu
_symmetry_space_group_name_H-M   'P 1'
_cell_length_a   6.33573500
_cell_length_b   4.50069900
_cell_length_c   9.00785100
_cell_angle_alpha   90.00000000
_cell_angle_beta   90.00000000
_cell_angle_gamma   90.00000000
_symmetry_Int_Tables_number   1
_chemical_formula_structural   Sc4Co2IrRu
_chemical_formula_sum   'Sc8 Co4 Ir2 Ru2'
_cell_volume   256.86099873
_cell_formula_units_Z   2
loop_
 _symmetry_equiv_pos_site_id
 _symmetry_equiv_pos_as_xyz
  1  'x, y, z'
loop_
 _atom_site_type_symbol
 _atom_site_label
 _atom_site_symmetry_multiplicity
 _atom_site_fract_x
 _atom_site_fract_y
 _atom_site_fract_z
 _atom_site_occupancy
  Sc  Sc0  1  0.999100  0.749999  0.122924  1
  Sc  Sc1  1  0.501304  0.749999  0.122951  1
  Sc  Sc2  1  0.001306  0.249999  0.377049  1
  Sc  Sc3  1  0.499099  0.249999  0.377076  1
  Sc  Sc4  1  0.498904  0.749999  0.626917  1
  Sc  Sc5  1  0.000680  0.749999  0.626988  1
  Sc  Sc6  1  0.500680  0.249999  0.873012  1
  Sc  Sc7  1  0.998904  0.249999  0.873083  1
  Co  Co8  1  0.750133  0.249999  0.125537  1
  Co  Co9  1  0.250132  0.749999  0.374463  1
  Co  Co10  1  0.749874  0.249999  0.624608  1
  Co  Co11  1  0.249874  0.749999  0.875391  1
  Ir  Ir12  1  0.250136  0.249999  0.125405  1
  Ir  Ir13  1  0.750135  0.749999  0.374595  1
  Ru  Ru14  1  0.249871  0.249999  0.624654  1
  Ru  Ru15  1  0.749872  0.749999  0.875346  1
