# generated using pymatgen
data_Li4HoTh3Si8
_symmetry_space_group_name_H-M   'P 1'
_cell_length_a   3.84692700
_cell_length_b   7.76995204
_cell_length_c   10.37236115
_cell_angle_alpha   89.89033376
_cell_angle_beta   90.00000000
_cell_angle_gamma   90.00000000
_symmetry_Int_Tables_number   1
_chemical_formula_structural   Li4HoTh3Si8
_chemical_formula_sum   'Li4 Ho1 Th3 Si8'
_cell_volume   310.03385305
_cell_formula_units_Z   1
loop_
 _symmetry_equiv_pos_site_id
 _symmetry_equiv_pos_as_xyz
  1  'x, y, z'
loop_
 _atom_site_type_symbol
 _atom_site_label
 _atom_site_symmetry_multiplicity
 _atom_site_fract_x
 _atom_site_fract_y
 _atom_site_fract_z
 _atom_site_occupancy
  Li  Li0  1  0.250000  0.990586  0.396355  1
  Li  Li1  1  0.750000  0.011317  0.600944  1
  Li  Li2  1  0.250000  0.487955  0.107891  1
  Li  Li3  1  0.750000  0.508928  0.896388  1
  Ho  Ho4  1  0.750000  0.368742  0.362982  1
  Th  Th5  1  0.250000  0.139385  0.862122  1
  Th  Th6  1  0.750000  0.863051  0.137845  1
  Th  Th7  1  0.250000  0.634411  0.638129  1
  Si  Si8  1  0.750000  0.266861  0.070870  1
  Si  Si9  1  0.250000  0.732925  0.930868  1
  Si  Si10  1  0.750000  0.761147  0.431710  1
  Si  Si11  1  0.250000  0.238451  0.563106  1
  Si  Si12  1  0.750000  0.839180  0.817042  1
  Si  Si13  1  0.250000  0.162965  0.185245  1
  Si  Si14  1  0.750000  0.335473  0.682046  1
  Si  Si15  1  0.250000  0.658622  0.316459  1
