# generated using pymatgen
data_Y3HoAl18(OsPd2)2
_symmetry_space_group_name_H-M   'P 1'
_cell_length_a   7.59191510
_cell_length_b   7.59330094
_cell_length_c   9.50988500
_cell_angle_alpha   90.00000000
_cell_angle_beta   90.00000000
_cell_angle_gamma   119.32142696
_symmetry_Int_Tables_number   1
_chemical_formula_structural   Y3HoAl18(OsPd2)2
_chemical_formula_sum   'Y3 Ho1 Al18 Os2 Pd4'
_cell_volume   477.98803132
_cell_formula_units_Z   1
loop_
 _symmetry_equiv_pos_site_id
 _symmetry_equiv_pos_as_xyz
  1  'x, y, z'
loop_
 _atom_site_type_symbol
 _atom_site_label
 _atom_site_symmetry_multiplicity
 _atom_site_fract_x
 _atom_site_fract_y
 _atom_site_fract_z
 _atom_site_occupancy
  Y  Y0  1  0.994363  0.672158  0.250000  1
  Y  Y1  1  0.005784  0.327861  0.750000  1
  Y  Y2  1  0.672174  0.994333  0.250000  1
  Ho  Ho3  1  0.327627  0.005869  0.750000  1
  Al  Al4  1  0.127441  0.127408  0.250000  1
  Al  Al5  1  0.872790  0.872572  0.750000  1
  Al  Al6  1  0.000618  0.331162  0.076002  1
  Al  Al7  1  0.999651  0.669042  0.923728  1
  Al  Al8  1  0.999651  0.669042  0.576272  1
  Al  Al9  1  0.331208  0.000615  0.424236  1
  Al  Al10  1  0.000618  0.331162  0.423998  1
  Al  Al11  1  0.668538  0.999376  0.576257  1
  Al  Al12  1  0.668538  0.999376  0.923743  1
  Al  Al13  1  0.331208  0.000615  0.075764  1
  Al  Al14  1  0.329436  0.329214  0.555163  1
  Al  Al15  1  0.670624  0.670626  0.445170  1
  Al  Al16  1  0.670624  0.670626  0.054830  1
  Al  Al17  1  0.329436  0.329214  0.944837  1
  Al  Al18  1  0.342378  0.548507  0.250000  1
  Al  Al19  1  0.657222  0.451027  0.750000  1
  Al  Al20  1  0.548477  0.342327  0.250000  1
  Al  Al21  1  0.451310  0.657784  0.750000  1
  Os  Os22  1  0.000191  0.000044  0.999792  1
  Os  Os23  1  0.000191  0.000044  0.500208  1
  Pd  Pd24  1  0.672044  0.327895  0.000002  1
  Pd  Pd25  1  0.327908  0.672103  0.999988  1
  Pd  Pd26  1  0.327908  0.672103  0.500012  1
  Pd  Pd27  1  0.672044  0.327895  0.499998  1
