# generated using pymatgen
data_Li12NiGe4Pt3
_symmetry_space_group_name_H-M   'P 1'
_cell_length_a   6.66009616
_cell_length_b   6.66009616
_cell_length_c   6.66009616
_cell_angle_alpha   89.81592371
_cell_angle_beta   90.18407629
_cell_angle_gamma   90.18407629
_symmetry_Int_Tables_number   1
_chemical_formula_structural   Li12NiGe4Pt3
_chemical_formula_sum   'Li12 Ni1 Ge4 Pt3'
_cell_volume   295.41652758
_cell_formula_units_Z   1
loop_
 _symmetry_equiv_pos_site_id
 _symmetry_equiv_pos_as_xyz
  1  'x, y, z'
loop_
 _atom_site_type_symbol
 _atom_site_label
 _atom_site_symmetry_multiplicity
 _atom_site_fract_x
 _atom_site_fract_y
 _atom_site_fract_z
 _atom_site_occupancy
  Li  Li0  1  0.123834  0.199440  0.453791  1
  Li  Li1  1  0.375834  0.802168  0.952510  1
  Li  Li2  1  0.875877  0.697630  0.046535  1
  Li  Li3  1  0.453465  0.124123  0.197630  1
  Li  Li4  1  0.624396  0.301842  0.545764  1
  Li  Li5  1  0.954236  0.375604  0.801842  1
  Li  Li6  1  0.046209  0.876166  0.699440  1
  Li  Li7  1  0.547490  0.624166  0.302168  1
  Li  Li8  1  0.197832  0.452510  0.124166  1
  Li  Li9  1  0.698158  0.045764  0.875604  1
  Li  Li10  1  0.302370  0.546535  0.624123  1
  Li  Li11  1  0.800560  0.953791  0.376166  1
  Ni  Ni12  1  0.183088  0.816912  0.316912  1
  Ge  Ge13  1  0.064727  0.051015  0.071280  1
  Ge  Ge14  1  0.428720  0.935273  0.551015  1
  Ge  Ge15  1  0.948985  0.571280  0.435273  1
  Ge  Ge16  1  0.558368  0.441632  0.941632  1
  Pt  Pt17  1  0.685735  0.687466  0.682417  1
  Pt  Pt18  1  0.817583  0.314265  0.187466  1
  Pt  Pt19  1  0.312534  0.182417  0.814265  1
