# generated using pymatgen
data_CaYbAl20IrOs3
_symmetry_space_group_name_H-M   'P 1'
_cell_length_a   6.88170526
_cell_length_b   6.88193022
_cell_length_c   9.15242556
_cell_angle_alpha   90.22154723
_cell_angle_beta   90.03536326
_cell_angle_gamma   96.42272445
_symmetry_Int_Tables_number   1
_chemical_formula_structural   CaYbAl20IrOs3
_chemical_formula_sum   'Ca1 Yb1 Al20 Ir1 Os3'
_cell_volume   430.72954874
_cell_formula_units_Z   1
loop_
 _symmetry_equiv_pos_site_id
 _symmetry_equiv_pos_as_xyz
  1  'x, y, z'
loop_
 _atom_site_type_symbol
 _atom_site_label
 _atom_site_symmetry_multiplicity
 _atom_site_fract_x
 _atom_site_fract_y
 _atom_site_fract_z
 _atom_site_occupancy
  Ca  Ca0  1  0.627328  0.374920  0.749941  1
  Yb  Yb1  1  0.372554  0.625108  0.250114  1
  Al  Al2  1  0.280186  0.020346  0.747882  1
  Al  Al3  1  0.020352  0.281820  0.249322  1
  Al  Al4  1  0.719591  0.979541  0.252099  1
  Al  Al5  1  0.979738  0.718348  0.750661  1
  Al  Al6  1  0.878360  0.124557  0.953845  1
  Al  Al7  1  0.121766  0.875357  0.046549  1
  Al  Al8  1  0.876267  0.124156  0.545220  1
  Al  Al9  1  0.123819  0.875756  0.454433  1
  Al  Al10  1  0.645612  0.916008  0.749001  1
  Al  Al11  1  0.916668  0.645165  0.250241  1
  Al  Al12  1  0.354139  0.083874  0.250966  1
  Al  Al13  1  0.083396  0.355094  0.749740  1
  Al  Al14  1  0.342256  0.655442  0.898539  1
  Al  Al15  1  0.657659  0.344697  0.101748  1
  Al  Al16  1  0.343417  0.657779  0.600054  1
  Al  Al17  1  0.656473  0.342361  0.399677  1
  Al  Al18  1  0.723892  0.722314  0.999172  1
  Al  Al19  1  0.723765  0.723305  0.499928  1
  Al  Al20  1  0.276039  0.277725  0.001189  1
  Al  Al21  1  0.276168  0.276731  0.499753  1
  Ir  Ir22  1  0.499879  0.999672  0.000084  1
  Os  Os23  1  0.000395  0.500137  0.000102  1
  Os  Os24  1  0.499871  0.999651  0.499885  1
  Os  Os25  1  0.000407  0.500134  0.499854  1
