# generated using pymatgen
data_TbNd15Cd4Co3Pd
_symmetry_space_group_name_H-M   'P 1'
_cell_length_a   9.84486547
_cell_length_b   9.85680755
_cell_length_c   9.84560546
_cell_angle_alpha   60.02558656
_cell_angle_beta   59.91311244
_cell_angle_gamma   59.98577729
_symmetry_Int_Tables_number   1
_chemical_formula_structural   TbNd15Cd4Co3Pd
_chemical_formula_sum   'Tb1 Nd15 Cd4 Co3 Pd1'
_cell_volume   675.18788327
_cell_formula_units_Z   1
loop_
 _symmetry_equiv_pos_site_id
 _symmetry_equiv_pos_as_xyz
  1  'x, y, z'
loop_
 _atom_site_type_symbol
 _atom_site_label
 _atom_site_symmetry_multiplicity
 _atom_site_fract_x
 _atom_site_fract_y
 _atom_site_fract_z
 _atom_site_occupancy
  Tb  Tb0  1  0.059729  0.437996  0.059658  1
  Nd  Nd1  1  0.437136  0.440027  0.049299  1
  Nd  Nd2  1  0.595020  0.595567  0.595165  1
  Nd  Nd3  1  0.188373  0.813237  0.814590  1
  Nd  Nd4  1  0.060153  0.061425  0.434981  1
  Nd  Nd5  1  0.435051  0.061454  0.060076  1
  Nd  Nd6  1  0.814157  0.189196  0.814124  1
  Nd  Nd7  1  0.439608  0.048864  0.439467  1
  Nd  Nd8  1  0.604020  0.203972  0.604152  1
  Nd  Nd9  1  0.814605  0.813213  0.188421  1
  Nd  Nd10  1  0.204144  0.602698  0.606451  1
  Nd  Nd11  1  0.811399  0.190219  0.188705  1
  Nd  Nd12  1  0.049375  0.440146  0.437083  1
  Nd  Nd13  1  0.189864  0.810012  0.189897  1
  Nd  Nd14  1  0.606348  0.602828  0.204048  1
  Nd  Nd15  1  0.188618  0.190115  0.811570  1
  Cd  Cd16  1  0.829344  0.829045  0.510376  1
  Cd  Cd17  1  0.831147  0.828972  0.831108  1
  Cd  Cd18  1  0.510347  0.829060  0.829315  1
  Cd  Cd19  1  0.829917  0.510302  0.829879  1
  Co  Co20  1  0.827906  0.391720  0.389931  1
  Co  Co21  1  0.391937  0.826207  0.391950  1
  Co  Co22  1  0.389888  0.391720  0.827912  1
  Pd  Pd23  1  0.391913  0.392006  0.391837  1
