# generated using pymatgen
data_TaTiNb2O6
_symmetry_space_group_name_H-M   'P 1'
_cell_length_a   6.70599864
_cell_length_b   6.69813035
_cell_length_c   6.69314144
_cell_angle_alpha   73.39238647
_cell_angle_beta   73.20625812
_cell_angle_gamma   73.25040446
_symmetry_Int_Tables_number   1
_chemical_formula_structural   TaTiNb2O6
_chemical_formula_sum   'Ta2 Ti2 Nb4 O12'
_cell_volume   268.79564488
_cell_formula_units_Z   2
loop_
 _symmetry_equiv_pos_site_id
 _symmetry_equiv_pos_as_xyz
  1  'x, y, z'
loop_
 _atom_site_type_symbol
 _atom_site_label
 _atom_site_symmetry_multiplicity
 _atom_site_fract_x
 _atom_site_fract_y
 _atom_site_fract_z
 _atom_site_occupancy
  Ta  Ta0  1  0.945353  0.118001  0.704566  1
  Ta  Ta1  1  0.704341  0.944250  0.119187  1
  Ti  Ti2  1  0.273347  0.275789  0.271736  1
  Ti  Ti3  1  0.726879  0.724347  0.726122  1
  Nb  Nb4  1  0.118624  0.705532  0.944312  1
  Nb  Nb5  1  0.056895  0.882505  0.294825  1
  Nb  Nb6  1  0.295603  0.055547  0.882345  1
  Nb  Nb7  1  0.883538  0.294766  0.056630  1
  O  O8  1  0.173059  0.570137  0.259705  1
  O  O9  1  0.254331  0.172509  0.570207  1
  O  O10  1  0.570197  0.254999  0.172864  1
  O  O11  1  0.827976  0.426993  0.737870  1
  O  O12  1  0.738462  0.827893  0.426680  1
  O  O13  1  0.431115  0.740454  0.826758  1
  O  O14  1  0.650518  0.035681  0.799601  1
  O  O15  1  0.794809  0.651488  0.035066  1
  O  O16  1  0.965125  0.199964  0.357106  1
  O  O17  1  0.200776  0.352044  0.967347  1
  O  O18  1  0.357348  0.963957  0.200015  1
  O  O19  1  0.031704  0.803144  0.647056  1
