# generated using pymatgen
data_TmLuThNi9
_symmetry_space_group_name_H-M   'P 1'
_cell_length_a   4.94274988
_cell_length_b   4.94275007
_cell_length_c   8.59196176
_cell_angle_alpha   73.28340137
_cell_angle_beta   73.28340023
_cell_angle_gamma   60.00000652
_symmetry_Int_Tables_number   1
_chemical_formula_structural   TmLuThNi9
_chemical_formula_sum   'Tm1 Lu1 Th1 Ni9'
_cell_volume   171.46623757
_cell_formula_units_Z   1
loop_
 _symmetry_equiv_pos_site_id
 _symmetry_equiv_pos_as_xyz
  1  'x, y, z'
loop_
 _atom_site_type_symbol
 _atom_site_label
 _atom_site_symmetry_multiplicity
 _atom_site_fract_x
 _atom_site_fract_y
 _atom_site_fract_z
 _atom_site_occupancy
  Tm  Tm0  1  0.859119  0.859119  0.422643  1
  Lu  Lu1  1  0.140644  0.140644  0.578068  1
  Th  Th2  1  0.000266  0.000266  0.999201  1
  Ni  Ni3  1  0.081889  0.585260  0.747591  1
  Ni  Ni4  1  0.585260  0.585260  0.747591  1
  Ni  Ni5  1  0.585260  0.081889  0.747591  1
  Ni  Ni6  1  0.918251  0.414684  0.252381  1
  Ni  Ni7  1  0.414684  0.414684  0.252381  1
  Ni  Ni8  1  0.414684  0.918251  0.252381  1
  Ni  Ni9  1  0.333214  0.333214  0.000358  1
  Ni  Ni10  1  0.666743  0.666743  0.999771  1
  Ni  Ni11  1  0.499986  0.499986  0.500043  1
