# generated using pymatgen
data_LiErMg(Ni10P3)2
_symmetry_space_group_name_H-M   'P 1'
_cell_length_a   7.87242162
_cell_length_b   7.87242162
_cell_length_c   7.87242100
_cell_angle_alpha   59.99999841
_cell_angle_beta   59.99999839
_cell_angle_gamma   59.99999410
_symmetry_Int_Tables_number   1
_chemical_formula_structural   LiErMg(Ni10P3)2
_chemical_formula_sum   'Li1 Er1 Mg1 Ni20 P6'
_cell_volume   344.99275454
_cell_formula_units_Z   1
loop_
 _symmetry_equiv_pos_site_id
 _symmetry_equiv_pos_as_xyz
  1  'x, y, z'
loop_
 _atom_site_type_symbol
 _atom_site_label
 _atom_site_symmetry_multiplicity
 _atom_site_fract_x
 _atom_site_fract_y
 _atom_site_fract_z
 _atom_site_occupancy
  Li  Li0  1  0.000000  0.000000  0.000000  1
  Er  Er1  1  0.250000  0.250000  0.250000  1
  Mg  Mg2  1  0.750000  0.750000  0.750000  1
  Ni  Ni3  1  0.387286  0.387286  0.838143  1
  Ni  Ni4  1  0.616267  0.616267  0.616266  1
  Ni  Ni5  1  0.998867  0.350967  0.998867  1
  Ni  Ni6  1  0.350967  0.998867  0.998867  1
  Ni  Ni7  1  0.998867  0.350967  0.651300  1
  Ni  Ni8  1  0.838143  0.387286  0.387285  1
  Ni  Ni9  1  0.350967  0.998867  0.651300  1
  Ni  Ni10  1  0.998867  0.998867  0.350967  1
  Ni  Ni11  1  0.651300  0.350967  0.998867  1
  Ni  Ni12  1  0.998867  0.651300  0.350967  1
  Ni  Ni13  1  0.998867  0.998867  0.651300  1
  Ni  Ni14  1  0.350967  0.651300  0.998867  1
  Ni  Ni15  1  0.651300  0.998867  0.998867  1
  Ni  Ni16  1  0.998867  0.651300  0.998867  1
  Ni  Ni17  1  0.387286  0.838144  0.387286  1
  Ni  Ni18  1  0.616266  0.616267  0.151201  1
  Ni  Ni19  1  0.616266  0.151202  0.616266  1
  Ni  Ni20  1  0.151202  0.616267  0.616267  1
  Ni  Ni21  1  0.387285  0.387286  0.387285  1
  Ni  Ni22  1  0.651300  0.998867  0.350967  1
  P  P23  1  0.261915  0.261915  0.738085  1
  P  P24  1  0.738085  0.738085  0.261915  1
  P  P25  1  0.738085  0.261915  0.261915  1
  P  P26  1  0.261915  0.738085  0.738085  1
  P  P27  1  0.261915  0.738085  0.261915  1
  P  P28  1  0.738085  0.261915  0.738085  1
