# generated using pymatgen
data_Ba3Sr3Sn8BiAu
_symmetry_space_group_name_H-M   'P 1'
_cell_length_a   9.08744258
_cell_length_b   9.11404167
_cell_length_c   9.17874531
_cell_angle_alpha   119.81250115
_cell_angle_beta   119.71699479
_cell_angle_gamma   89.92038857
_symmetry_Int_Tables_number   1
_chemical_formula_structural   Ba3Sr3Sn8BiAu
_chemical_formula_sum   'Ba3 Sr3 Sn8 Bi1 Au1'
_cell_volume   541.71705659
_cell_formula_units_Z   1
loop_
 _symmetry_equiv_pos_site_id
 _symmetry_equiv_pos_as_xyz
  1  'x, y, z'
loop_
 _atom_site_type_symbol
 _atom_site_label
 _atom_site_symmetry_multiplicity
 _atom_site_fract_x
 _atom_site_fract_y
 _atom_site_fract_z
 _atom_site_occupancy
  Ba  Ba0  1  0.340518  0.835941  0.000000  1
  Ba  Ba1  1  0.834310  0.658684  0.000000  1
  Ba  Ba2  1  0.165594  0.341326  0.000000  1
  Sr  Sr3  1  0.252455  0.252202  0.504299  1
  Sr  Sr4  1  0.748156  0.747903  0.495701  1
  Sr  Sr5  1  0.662256  0.167125  0.000000  1
  Sn  Sn6  1  0.337996  0.835286  0.385626  1
  Sn  Sn7  1  0.662017  0.165150  0.617284  1
  Sn  Sn8  1  0.044735  0.547868  0.382716  1
  Sn  Sn9  1  0.551840  0.336095  0.383573  1
  Sn  Sn10  1  0.168266  0.952521  0.616427  1
  Sn  Sn11  1  0.952369  0.449659  0.614374  1
  Sn  Sn12  1  0.449561  0.664719  0.615836  1
  Sn  Sn13  1  0.833726  0.048884  0.384164  1
  Bi  Bi14  1  0.993617  0.002790  0.000000  1
  Au  Au15  1  0.502583  0.493848  0.000000  1
