# generated using pymatgen
data_Nd8Tm12Si15Rh
_symmetry_space_group_name_H-M   'P 1'
_cell_length_a   7.70152709
_cell_length_b   7.73247274
_cell_length_c   14.15770331
_cell_angle_alpha   89.62214704
_cell_angle_beta   89.91676094
_cell_angle_gamma   90.10135239
_symmetry_Int_Tables_number   1
_chemical_formula_structural   Nd8Tm12Si15Rh
_chemical_formula_sum   'Nd8 Tm12 Si15 Rh1'
_cell_volume   843.09684169
_cell_formula_units_Z   1
loop_
 _symmetry_equiv_pos_site_id
 _symmetry_equiv_pos_as_xyz
  1  'x, y, z'
loop_
 _atom_site_type_symbol
 _atom_site_label
 _atom_site_symmetry_multiplicity
 _atom_site_fract_x
 _atom_site_fract_y
 _atom_site_fract_z
 _atom_site_occupancy
  Nd  Nd0  1  0.640956  0.991651  0.461795  1
  Nd  Nd1  1  0.357503  0.006113  0.958901  1
  Nd  Nd2  1  0.991320  0.641742  0.539015  1
  Nd  Nd3  1  0.492409  0.856534  0.209958  1
  Nd  Nd4  1  0.508523  0.145713  0.708833  1
  Nd  Nd5  1  0.856056  0.492752  0.790637  1
  Nd  Nd6  1  0.143666  0.504933  0.289693  1
  Nd  Nd7  1  0.008915  0.355261  0.040191  1
  Tm  Tm8  1  0.491851  0.358155  0.123432  1
  Tm  Tm9  1  0.995182  0.141271  0.626736  1
  Tm  Tm10  1  0.859992  0.006315  0.874930  1
  Tm  Tm11  1  0.141010  0.987384  0.377941  1
  Tm  Tm12  1  0.505860  0.642961  0.620488  1
  Tm  Tm13  1  0.360035  0.494853  0.876988  1
  Tm  Tm14  1  0.640364  0.504806  0.375991  1
  Tm  Tm15  1  0.007069  0.862044  0.125724  1
  Tm  Tm16  1  0.316535  0.310096  0.502231  1
  Tm  Tm17  1  0.186922  0.825924  0.743202  1
  Tm  Tm18  1  0.820428  0.180921  0.251502  1
  Tm  Tm19  1  0.682505  0.682002  0.000606  1
  Si  Si20  1  0.709829  0.062610  0.062239  1
  Si  Si21  1  0.937260  0.292836  0.437855  1
  Si  Si22  1  0.437602  0.210279  0.310842  1
  Si  Si23  1  0.564396  0.790603  0.811595  1
  Si  Si24  1  0.210441  0.440508  0.690273  1
  Si  Si25  1  0.790159  0.562954  0.188161  1
  Si  Si26  1  0.060451  0.710416  0.937775  1
  Si  Si27  1  0.793860  0.850683  0.688400  1
  Si  Si28  1  0.205125  0.148438  0.187831  1
  Si  Si29  1  0.848201  0.793924  0.311507  1
  Si  Si30  1  0.351625  0.700559  0.435739  1
  Si  Si31  1  0.651023  0.296806  0.939178  1
  Si  Si32  1  0.707197  0.351587  0.562433  1
  Si  Si33  1  0.294986  0.650645  0.061985  1
  Si  Si34  1  0.148193  0.210002  0.814868  1
  Rh  Rh35  1  0.282551  0.935719  0.560526  1
