# generated using pymatgen
data_KV4Tc2Se7
_symmetry_space_group_name_H-M   'P 1'
_cell_length_a   9.54291102
_cell_length_b   9.59795363
_cell_length_c   9.55301000
_cell_angle_alpha   60.78554479
_cell_angle_beta   60.72072245
_cell_angle_gamma   60.53462540
_symmetry_Int_Tables_number   1
_chemical_formula_structural   KV4Tc2Se7
_chemical_formula_sum   'K2 V8 Tc4 Se14'
_cell_volume   628.20138573
_cell_formula_units_Z   2
loop_
 _symmetry_equiv_pos_site_id
 _symmetry_equiv_pos_as_xyz
  1  'x, y, z'
loop_
 _atom_site_type_symbol
 _atom_site_label
 _atom_site_symmetry_multiplicity
 _atom_site_fract_x
 _atom_site_fract_y
 _atom_site_fract_z
 _atom_site_occupancy
  K  K0  1  0.125577  0.125573  0.131888  1
  K  K1  1  0.876584  0.880659  0.875231  1
  V  V2  1  0.691528  0.558863  0.383614  1
  V  V3  1  0.557254  0.385133  0.692661  1
  V  V4  1  0.383982  0.195227  0.499673  1
  V  V5  1  0.196118  0.493909  0.384428  1
  V  V6  1  0.501747  0.382704  0.193178  1
  V  V7  1  0.622080  0.821707  0.486399  1
  V  V8  1  0.824033  0.483283  0.620706  1
  V  V9  1  0.486503  0.622109  0.820613  1
  Tc  Tc10  1  0.619408  0.305999  0.438028  1
  Tc  Tc11  1  0.304636  0.440555  0.617048  1
  Tc  Tc12  1  0.436953  0.618100  0.305253  1
  Tc  Tc13  1  0.387451  0.694239  0.560262  1
  Se  Se14  1  0.663805  0.317993  0.913825  1
  Se  Se15  1  0.087974  0.315141  0.693483  1
  Se  Se16  1  0.278619  0.272223  0.272535  1
  Se  Se17  1  0.724666  0.720252  0.722323  1
  Se  Se18  1  0.864620  0.253734  0.520476  1
  Se  Se19  1  0.248677  0.526048  0.863362  1
  Se  Se20  1  0.515965  0.865456  0.253145  1
  Se  Se21  1  0.134411  0.743691  0.484160  1
  Se  Se22  1  0.741715  0.485065  0.135596  1
  Se  Se23  1  0.484412  0.138493  0.741158  1
  Se  Se24  1  0.315427  0.687741  0.088064  1
  Se  Se25  1  0.692641  0.086318  0.316193  1
  Se  Se26  1  0.916100  0.661158  0.316792  1
  Se  Se27  1  0.317118  0.918627  0.669906  1
