# generated using pymatgen
data_CaYb2Be2(SiPd5)4
_symmetry_space_group_name_H-M   'P 1'
_cell_length_a   8.66853590
_cell_length_b   8.59653731
_cell_length_c   8.59653672
_cell_angle_alpha   60.55488493
_cell_angle_beta   59.72256674
_cell_angle_gamma   59.72255999
_symmetry_Int_Tables_number   1
_chemical_formula_structural   CaYb2Be2(SiPd5)4
_chemical_formula_sum   'Ca1 Yb2 Be2 Si4 Pd20'
_cell_volume   452.91470346
_cell_formula_units_Z   1
loop_
 _symmetry_equiv_pos_site_id
 _symmetry_equiv_pos_as_xyz
  1  'x, y, z'
loop_
 _atom_site_type_symbol
 _atom_site_label
 _atom_site_symmetry_multiplicity
 _atom_site_fract_x
 _atom_site_fract_y
 _atom_site_fract_z
 _atom_site_occupancy
  Ca  Ca0  1  0.250000  0.250000  0.250000  1
  Yb  Yb1  1  0.750000  0.750000  0.750000  1
  Yb  Yb2  1  0.000000  0.000000  0.000000  1
  Be  Be3  1  0.727335  0.272665  0.272665  1
  Be  Be4  1  0.272665  0.727335  0.727335  1
  Si  Si5  1  0.270827  0.729173  0.270827  1
  Si  Si6  1  0.729173  0.270827  0.729173  1
  Si  Si7  1  0.270827  0.270827  0.729173  1
  Si  Si8  1  0.729173  0.729173  0.270827  1
  Pd  Pd9  1  0.388215  0.381989  0.381989  1
  Pd  Pd10  1  0.612952  0.619017  0.619017  1
  Pd  Pd11  1  0.381989  0.388215  0.847807  1
  Pd  Pd12  1  0.381989  0.847807  0.388215  1
  Pd  Pd13  1  0.619017  0.612952  0.149012  1
  Pd  Pd14  1  0.619017  0.149012  0.612952  1
  Pd  Pd15  1  0.847807  0.381989  0.381989  1
  Pd  Pd16  1  0.149012  0.619017  0.619017  1
  Pd  Pd17  1  0.342904  0.999473  0.999473  1
  Pd  Pd18  1  0.658151  0.999473  0.999473  1
  Pd  Pd19  1  0.999473  0.342904  0.658151  1
  Pd  Pd20  1  0.999473  0.658151  0.342904  1
  Pd  Pd21  1  0.994362  0.340611  0.004790  1
  Pd  Pd22  1  0.660236  0.004790  0.340611  1
  Pd  Pd23  1  0.004790  0.660236  0.994362  1
  Pd  Pd24  1  0.340611  0.994362  0.660236  1
  Pd  Pd25  1  0.994362  0.004790  0.340611  1
  Pd  Pd26  1  0.004790  0.994362  0.660236  1
  Pd  Pd27  1  0.660236  0.340611  0.004790  1
  Pd  Pd28  1  0.340611  0.660236  0.994362  1
