# generated using pymatgen
data_Hf7Co8Si14Mo
_symmetry_space_group_name_H-M   'P 1'
_cell_length_a   9.39407134
_cell_length_b   9.39410699
_cell_length_c   9.39378835
_cell_angle_alpha   94.14313363
_cell_angle_beta   94.14297851
_cell_angle_gamma   148.81383366
_symmetry_Int_Tables_number   1
_chemical_formula_structural   Hf7Co8Si14Mo
_chemical_formula_sum   'Hf7 Co8 Si14 Mo1'
_cell_volume   413.47332264
_cell_formula_units_Z   1
loop_
 _symmetry_equiv_pos_site_id
 _symmetry_equiv_pos_as_xyz
  1  'x, y, z'
loop_
 _atom_site_type_symbol
 _atom_site_label
 _atom_site_symmetry_multiplicity
 _atom_site_fract_x
 _atom_site_fract_y
 _atom_site_fract_z
 _atom_site_occupancy
  Hf  Hf0  1  0.864395  0.864394  0.728762  1
  Hf  Hf1  1  0.136960  0.862602  0.999552  1
  Hf  Hf2  1  0.862592  0.136951  0.999553  1
  Hf  Hf3  1  0.305248  0.499670  0.804908  1
  Hf  Hf4  1  0.695337  0.502598  0.197937  1
  Hf  Hf5  1  0.502596  0.695335  0.197937  1
  Hf  Hf6  1  0.499659  0.305237  0.804907  1
  Co  Co7  1  0.102115  0.602119  0.204248  1
  Co  Co8  1  0.398182  0.898187  0.796361  1
  Co  Co9  1  0.897934  0.102010  0.498847  1
  Co  Co10  1  0.600919  0.396843  0.498847  1
  Co  Co11  1  0.602120  0.102116  0.204249  1
  Co  Co12  1  0.898188  0.398183  0.796363  1
  Co  Co13  1  0.102009  0.897926  0.498848  1
  Co  Co14  1  0.396844  0.600927  0.498849  1
  Si  Si15  1  0.285892  0.285891  0.571915  1
  Si  Si16  1  0.710913  0.710912  0.421696  1
  Si  Si17  1  0.291369  0.709286  0.000606  1
  Si  Si18  1  0.709235  0.291318  0.000606  1
  Si  Si19  1  0.091628  0.500135  0.591794  1
  Si  Si20  1  0.908253  0.500202  0.408464  1
  Si  Si21  1  0.500234  0.908285  0.408464  1
  Si  Si22  1  0.500146  0.091640  0.591794  1
  Si  Si23  1  0.249690  0.249691  0.004682  1
  Si  Si24  1  0.754986  0.754986  0.004674  1
  Si  Si25  1  0.298290  0.002790  0.301103  1
  Si  Si26  1  0.698752  0.999280  0.697993  1
  Si  Si27  1  0.999278  0.698751  0.697991  1
  Si  Si28  1  0.002756  0.298255  0.301103  1
  Mo  Mo29  1  0.133479  0.133479  0.266946  1
