# generated using pymatgen
data_PrGd11Fe2I17
_symmetry_space_group_name_H-M   'P 1'
_cell_length_a   9.78924754
_cell_length_b   11.84733585
_cell_length_c   11.77602600
_cell_angle_alpha   74.07602175
_cell_angle_beta   75.36885754
_cell_angle_gamma   65.55679311
_symmetry_Int_Tables_number   1
_chemical_formula_structural   PrGd11Fe2I17
_chemical_formula_sum   'Pr1 Gd11 Fe2 I17'
_cell_volume   1180.44050285
_cell_formula_units_Z   1
loop_
 _symmetry_equiv_pos_site_id
 _symmetry_equiv_pos_as_xyz
  1  'x, y, z'
loop_
 _atom_site_type_symbol
 _atom_site_label
 _atom_site_symmetry_multiplicity
 _atom_site_fract_x
 _atom_site_fract_y
 _atom_site_fract_z
 _atom_site_occupancy
  Pr  Pr0  1  0.140826  0.711998  0.152468  1
  Gd  Gd1  1  0.454394  0.490731  0.322250  1
  Gd  Gd2  1  0.551774  0.670001  0.010721  1
  Gd  Gd3  1  0.276205  0.982056  0.109028  1
  Gd  Gd4  1  0.857544  0.289352  0.846895  1
  Gd  Gd5  1  0.409430  0.241989  0.718596  1
  Gd  Gd6  1  0.721985  0.024251  0.889243  1
  Gd  Gd7  1  0.549754  0.502520  0.677936  1
  Gd  Gd8  1  0.453511  0.327527  0.983241  1
  Gd  Gd9  1  0.581570  0.756956  0.279895  1
  Gd  Gd10  1  0.813868  0.194184  0.588851  1
  Gd  Gd11  1  0.179478  0.809696  0.417137  1
  Fe  Fe12  1  0.366711  0.736526  0.214242  1
  Fe  Fe13  1  0.632459  0.263385  0.785428  1
  I  I14  1  0.055003  0.102867  0.326502  1
  I  I15  1  0.466860  0.946069  0.841657  1
  I  I16  1  0.431264  0.810690  0.537770  1
  I  I17  1  0.569476  0.185712  0.461385  1
  I  I18  1  0.836161  0.712992  0.045182  1
  I  I19  1  0.231113  0.410835  0.240586  1
  I  I20  1  0.690445  0.368972  0.104266  1
  I  I21  1  0.534743  0.051554  0.158504  1
  I  I22  1  0.747584  0.471535  0.415676  1
  I  I23  1  0.883372  0.786903  0.375691  1
  I  I24  1  0.949559  0.897906  0.675676  1
  I  I25  1  0.156678  0.290813  0.956853  1
  I  I26  1  0.314072  0.631924  0.892554  1
  I  I27  1  0.999555  0.003051  0.999966  1
  I  I28  1  0.113724  0.215918  0.631118  1
  I  I29  1  0.777856  0.582995  0.758607  1
  I  I30  1  0.253023  0.528089  0.582075  1
