# generated using pymatgen
data_YLuAl20(RuRh)2
_symmetry_space_group_name_H-M   'P 1'
_cell_length_a   6.84135596
_cell_length_b   6.82610315
_cell_length_c   9.13442800
_cell_angle_alpha   90.00000000
_cell_angle_beta   90.00000000
_cell_angle_gamma   97.05066585
_symmetry_Int_Tables_number   1
_chemical_formula_structural   YLuAl20(RuRh)2
_chemical_formula_sum   'Y1 Lu1 Al20 Ru2 Rh2'
_cell_volume   423.35020522
_cell_formula_units_Z   1
loop_
 _symmetry_equiv_pos_site_id
 _symmetry_equiv_pos_as_xyz
  1  'x, y, z'
loop_
 _atom_site_type_symbol
 _atom_site_label
 _atom_site_symmetry_multiplicity
 _atom_site_fract_x
 _atom_site_fract_y
 _atom_site_fract_z
 _atom_site_occupancy
  Y  Y0  1  0.131543  0.875066  0.250000  1
  Lu  Lu1  1  0.866353  0.125590  0.750000  1
  Al  Al2  1  0.621370  0.375741  0.550587  1
  Al  Al3  1  0.379399  0.623832  0.450459  1
  Al  Al4  1  0.379399  0.623832  0.049541  1
  Al  Al5  1  0.621370  0.375741  0.949413  1
  Al  Al6  1  0.224400  0.223094  0.499900  1
  Al  Al7  1  0.775416  0.777131  0.501843  1
  Al  Al8  1  0.775416  0.777131  0.998157  1
  Al  Al9  1  0.224400  0.223094  0.000100  1
  Al  Al10  1  0.844202  0.154752  0.100708  1
  Al  Al11  1  0.154937  0.846148  0.898311  1
  Al  Al12  1  0.154937  0.846148  0.601689  1
  Al  Al13  1  0.844202  0.154752  0.399292  1
  Al  Al14  1  0.855543  0.586082  0.750000  1
  Al  Al15  1  0.143418  0.411547  0.250000  1
  Al  Al16  1  0.413636  0.142268  0.750000  1
  Al  Al17  1  0.588442  0.858693  0.250000  1
  Al  Al18  1  0.222731  0.479254  0.750000  1
  Al  Al19  1  0.776183  0.519618  0.250000  1
  Al  Al20  1  0.519719  0.778232  0.750000  1
  Al  Al21  1  0.481443  0.222585  0.250000  1
  Ru  Ru22  1  0.500633  0.000146  0.999008  1
  Ru  Ru23  1  0.500633  0.000146  0.500992  1
  Rh  Rh24  1  0.000138  0.499687  0.500631  1
  Rh  Rh25  1  0.000138  0.499687  0.999369  1
