# generated using pymatgen
data_Ho3TmInPt11
_symmetry_space_group_name_H-M   'P 1'
_cell_length_a   4.17936600
_cell_length_b   5.82488162
_cell_length_c   11.63964142
_cell_angle_alpha   87.85129454
_cell_angle_beta   90.00000000
_cell_angle_gamma   90.00000000
_symmetry_Int_Tables_number   1
_chemical_formula_structural   Ho3TmInPt11
_chemical_formula_sum   'Ho3 Tm1 In1 Pt11'
_cell_volume   283.15982991
_cell_formula_units_Z   1
loop_
 _symmetry_equiv_pos_site_id
 _symmetry_equiv_pos_as_xyz
  1  'x, y, z'
loop_
 _atom_site_type_symbol
 _atom_site_label
 _atom_site_symmetry_multiplicity
 _atom_site_fract_x
 _atom_site_fract_y
 _atom_site_fract_z
 _atom_site_occupancy
  Ho  Ho0  1  0.500000  0.753191  0.375997  1
  Ho  Ho1  1  0.500000  0.720851  0.862258  1
  Ho  Ho2  1  0.500000  0.279147  0.137684  1
  Tm  Tm3  1  0.500000  0.246806  0.624002  1
  In  In4  1  0.000000  0.000012  0.999964  1
  Pt  Pt5  1  0.000000  0.012188  0.249590  1
  Pt  Pt6  1  0.000000  0.988430  0.750107  1
  Pt  Pt7  1  0.000000  0.499980  0.999965  1
  Pt  Pt8  1  0.000000  0.499396  0.500344  1
  Pt  Pt9  1  0.000000  0.514143  0.250139  1
  Pt  Pt10  1  0.000000  0.485297  0.749578  1
  Pt  Pt11  1  0.500000  0.251671  0.378062  1
  Pt  Pt12  1  0.500000  0.231500  0.879722  1
  Pt  Pt13  1  0.500000  0.768527  0.119967  1
  Pt  Pt14  1  0.500000  0.748360  0.622326  1
  Pt  Pt15  1  0.000000  0.000501  0.500295  1
