# generated using pymatgen
data_Dy2TmCu4Si3Ge
_symmetry_space_group_name_H-M   'P 1'
_cell_length_a   7.86179641
_cell_length_b   7.86103681
_cell_length_c   7.86103665
_cell_angle_alpha   149.48504414
_cell_angle_beta   130.64012957
_cell_angle_gamma   59.14842617
_symmetry_Int_Tables_number   1
_chemical_formula_structural   Dy2TmCu4Si3Ge
_chemical_formula_sum   'Dy2 Tm1 Cu4 Si3 Ge1'
_cell_volume   185.71284651
_cell_formula_units_Z   1
loop_
 _symmetry_equiv_pos_site_id
 _symmetry_equiv_pos_as_xyz
  1  'x, y, z'
loop_
 _atom_site_type_symbol
 _atom_site_label
 _atom_site_symmetry_multiplicity
 _atom_site_fract_x
 _atom_site_fract_y
 _atom_site_fract_z
 _atom_site_occupancy
  Dy  Dy0  1  0.129963  0.629186  0.500777  1
  Dy  Dy1  1  0.497422  0.499773  0.997649  1
  Tm  Tm2  1  0.871417  0.370500  0.500917  1
  Cu  Cu3  1  0.517827  0.826145  0.691682  1
  Cu  Cu4  1  0.864973  0.174351  0.690622  1
  Cu  Cu5  1  0.140208  0.831288  0.308920  1
  Cu  Cu6  1  0.479068  0.169122  0.309945  1
  Si  Si7  1  0.187590  0.999596  0.187994  1
  Si  Si8  1  0.284112  0.284040  0.000072  1
  Si  Si9  1  0.716556  0.716456  0.000100  1
  Ge  Ge10  1  0.810864  0.999542  0.811322  1
