# generated using pymatgen
data_Tb4Er2Tm6Co5Bi
_symmetry_space_group_name_H-M   'P 1'
_cell_length_a   8.25802120
_cell_length_b   8.25625790
_cell_length_c   8.25802075
_cell_angle_alpha   110.87770421
_cell_angle_beta   110.62748650
_cell_angle_gamma   106.94617663
_symmetry_Int_Tables_number   1
_chemical_formula_structural   Tb4Er2Tm6Co5Bi
_chemical_formula_sum   'Tb4 Er2 Tm6 Co5 Bi1'
_cell_volume   432.74798761
_cell_formula_units_Z   1
loop_
 _symmetry_equiv_pos_site_id
 _symmetry_equiv_pos_as_xyz
  1  'x, y, z'
loop_
 _atom_site_type_symbol
 _atom_site_label
 _atom_site_symmetry_multiplicity
 _atom_site_fract_x
 _atom_site_fract_y
 _atom_site_fract_z
 _atom_site_occupancy
  Tb  Tb0  1  0.288119  0.185182  0.472748  1
  Tb  Tb1  1  0.711881  0.814818  0.527252  1
  Tb  Tb2  1  0.287566  0.814818  0.102938  1
  Tb  Tb3  1  0.712434  0.185182  0.897062  1
  Er  Er4  1  0.207711  0.013435  0.805724  1
  Er  Er5  1  0.792289  0.986565  0.194276  1
  Tm  Tm6  1  0.622834  0.312472  0.311232  1
  Tm  Tm7  1  0.377166  0.687528  0.688768  1
  Tm  Tm8  1  0.001241  0.312472  0.689636  1
  Tm  Tm9  1  0.998759  0.687528  0.310364  1
  Tm  Tm10  1  0.207716  0.401968  0.194252  1
  Tm  Tm11  1  0.792284  0.598032  0.805748  1
  Co  Co12  1  0.000327  0.375690  0.375363  1
  Co  Co13  1  0.999673  0.624310  0.624637  1
  Co  Co14  1  0.387545  0.887144  0.499599  1
  Co  Co15  1  0.612455  0.112856  0.500401  1
  Co  Co16  1  0.000000  0.000000  0.000000  1
  Bi  Bi17  1  0.500000  0.500000  0.000000  1
