# generated using pymatgen
data_Eu4I2O3F
_symmetry_space_group_name_H-M   'P 1'
_cell_length_a   7.43780908
_cell_length_b   7.43780982
_cell_length_c   5.91373000
_cell_angle_alpha   90.00000000
_cell_angle_beta   90.00000000
_cell_angle_gamma   133.13912370
_symmetry_Int_Tables_number   1
_chemical_formula_structural   Eu4I2O3F
_chemical_formula_sum   'Eu4 I2 O3 F1'
_cell_volume   238.72245975
_cell_formula_units_Z   1
loop_
 _symmetry_equiv_pos_site_id
 _symmetry_equiv_pos_as_xyz
  1  'x, y, z'
loop_
 _atom_site_type_symbol
 _atom_site_label
 _atom_site_symmetry_multiplicity
 _atom_site_fract_x
 _atom_site_fract_y
 _atom_site_fract_z
 _atom_site_occupancy
  Eu  Eu0  1  0.429795  0.592599  0.261369  1
  Eu  Eu1  1  0.592599  0.429795  0.738631  1
  Eu  Eu2  1  0.070205  0.907401  0.261369  1
  Eu  Eu3  1  0.907401  0.070205  0.738631  1
  I  I4  1  0.750000  0.250000  0.250037  1
  I  I5  1  0.250000  0.750000  0.749963  1
  O  O6  1  0.750000  0.750000  0.000000  1
  O  O7  1  0.250000  0.250000  0.500000  1
  O  O8  1  0.750000  0.750000  0.500000  1
  F  F9  1  0.250000  0.250000  0.000000  1
