# generated using pymatgen
data_Dy4Ga4NiIr3
_symmetry_space_group_name_H-M   'P 1'
_cell_length_a   4.31665200
_cell_length_b   6.79557620
_cell_length_c   7.72474510
_cell_angle_alpha   90.08834570
_cell_angle_beta   90.00000000
_cell_angle_gamma   90.00000000
_symmetry_Int_Tables_number   1
_chemical_formula_structural   Dy4Ga4NiIr3
_chemical_formula_sum   'Dy4 Ga4 Ni1 Ir3'
_cell_volume   226.59846625
_cell_formula_units_Z   1
loop_
 _symmetry_equiv_pos_site_id
 _symmetry_equiv_pos_as_xyz
  1  'x, y, z'
loop_
 _atom_site_type_symbol
 _atom_site_label
 _atom_site_symmetry_multiplicity
 _atom_site_fract_x
 _atom_site_fract_y
 _atom_site_fract_z
 _atom_site_occupancy
  Dy  Dy0  1  0.250000  0.025294  0.812124  1
  Dy  Dy1  1  0.250000  0.523303  0.689359  1
  Dy  Dy2  1  0.750000  0.974617  0.189590  1
  Dy  Dy3  1  0.750000  0.477991  0.310866  1
  Ga  Ga4  1  0.250000  0.154347  0.429839  1
  Ga  Ga5  1  0.250000  0.661378  0.059709  1
  Ga  Ga6  1  0.750000  0.839935  0.576137  1
  Ga  Ga7  1  0.750000  0.350471  0.930734  1
  Ni  Ni8  1  0.750000  0.725977  0.891053  1
  Ir  Ir9  1  0.250000  0.766431  0.389131  1
  Ir  Ir10  1  0.250000  0.270895  0.109153  1
  Ir  Ir11  1  0.750000  0.229361  0.612304  1
