# generated using pymatgen
data_TiNb3Cu4Si4Mo
_symmetry_space_group_name_H-M   'P 1'
_cell_length_a   7.37729967
_cell_length_b   7.37729820
_cell_length_c   7.38639928
_cell_angle_alpha   93.76898730
_cell_angle_beta   93.14820305
_cell_angle_gamma   151.54582711
_symmetry_Int_Tables_number   1
_chemical_formula_structural   TiNb3Cu4Si4Mo
_chemical_formula_sum   'Ti1 Nb3 Cu4 Si4 Mo1'
_cell_volume   185.67292697
_cell_formula_units_Z   1
loop_
 _symmetry_equiv_pos_site_id
 _symmetry_equiv_pos_as_xyz
  1  'x, y, z'
loop_
 _atom_site_type_symbol
 _atom_site_label
 _atom_site_symmetry_multiplicity
 _atom_site_fract_x
 _atom_site_fract_y
 _atom_site_fract_z
 _atom_site_occupancy
  Ti  Ti0  1  0.125479  0.806703  0.932182  1
  Nb  Nb1  1  0.195824  0.127331  0.323155  1
  Nb  Nb2  1  0.805095  0.871708  0.676803  1
  Nb  Nb3  1  0.873723  0.193420  0.067143  1
  Cu  Cu4  1  0.394362  0.917353  0.311714  1
  Cu  Cu5  1  0.605206  0.083641  0.688848  1
  Cu  Cu6  1  0.917726  0.604665  0.522391  1
  Cu  Cu7  1  0.082233  0.396138  0.478371  1
  Si  Si8  1  0.249627  0.560203  0.809830  1
  Si  Si9  1  0.442945  0.250689  0.693632  1
  Si  Si10  1  0.558935  0.750195  0.309131  1
  Si  Si11  1  0.748286  0.438962  0.187249  1
  Mo  Mo12  1  0.500560  0.498993  0.999553  1
