# generated using pymatgen
data_Zr10Bi6Pb
_symmetry_space_group_name_H-M   'P 1'
_cell_length_a   6.03723653
_cell_length_b   8.83799615
_cell_length_c   8.85791278
_cell_angle_alpha   119.92470988
_cell_angle_beta   89.93930484
_cell_angle_gamma   90.12467789
_symmetry_Int_Tables_number   1
_chemical_formula_structural   Zr10Bi6Pb
_chemical_formula_sum   'Zr10 Bi6 Pb1'
_cell_volume   409.62078965
_cell_formula_units_Z   1
loop_
 _symmetry_equiv_pos_site_id
 _symmetry_equiv_pos_as_xyz
  1  'x, y, z'
loop_
 _atom_site_type_symbol
 _atom_site_label
 _atom_site_symmetry_multiplicity
 _atom_site_fract_x
 _atom_site_fract_y
 _atom_site_fract_z
 _atom_site_occupancy
  Zr  Zr0  1  0.500109  0.333971  0.667839  1
  Zr  Zr1  1  0.500109  0.666136  0.332161  1
  Zr  Zr2  1  0.999052  0.666440  0.332998  1
  Zr  Zr3  1  0.999045  0.333425  0.667002  1
  Zr  Zr4  1  0.780650  0.268430  0.999997  1
  Zr  Zr5  1  0.781421  0.732055  0.732858  1
  Zr  Zr6  1  0.781427  0.999188  0.267138  1
  Zr  Zr7  1  0.217952  0.732650  0.000005  1
  Zr  Zr8  1  0.219795  0.267707  0.268305  1
  Zr  Zr9  1  0.219800  0.999410  0.731699  1
  Bi  Bi10  1  0.740248  0.385455  0.385570  1
  Bi  Bi11  1  0.740252  0.999890  0.614417  1
  Bi  Bi12  1  0.259589  0.386370  0.999984  1
  Bi  Bi13  1  0.259777  0.614172  0.614572  1
  Bi  Bi14  1  0.259783  0.999593  0.385441  1
  Bi  Bi15  1  0.500484  0.999731  0.000001  1
  Pb  Pb16  1  0.740508  0.615382  0.000014  1
