# generated using pymatgen
data_Y13Er7CdIn5Ru2
_symmetry_space_group_name_H-M   'P 1'
_cell_length_a   9.72953683
_cell_length_b   9.80410187
_cell_length_c   9.65947556
_cell_angle_alpha   90.00000078
_cell_angle_beta   89.94406533
_cell_angle_gamma   120.25384532
_symmetry_Int_Tables_number   1
_chemical_formula_structural   Y13Er7CdIn5Ru2
_chemical_formula_sum   'Y13 Er7 Cd1 In5 Ru2'
_cell_volume   795.91612478
_cell_formula_units_Z   1
loop_
 _symmetry_equiv_pos_site_id
 _symmetry_equiv_pos_as_xyz
  1  'x, y, z'
loop_
 _atom_site_type_symbol
 _atom_site_label
 _atom_site_symmetry_multiplicity
 _atom_site_fract_x
 _atom_site_fract_y
 _atom_site_fract_z
 _atom_site_occupancy
  Y  Y0  1  0.418898  0.209448  0.560645  1
  Y  Y1  1  0.790566  0.210928  0.939717  1
  Y  Y2  1  0.790566  0.579638  0.939717  1
  Y  Y3  1  0.419485  0.209742  0.938103  1
  Y  Y4  1  0.210364  0.790378  0.060235  1
  Y  Y5  1  0.210364  0.419987  0.060235  1
  Y  Y6  1  0.580058  0.790030  0.062881  1
  Y  Y7  1  0.541527  0.460679  0.252301  1
  Y  Y8  1  0.541527  0.080849  0.252301  1
  Y  Y9  1  0.922399  0.461199  0.252841  1
  Y  Y10  1  0.461625  0.542850  0.747588  1
  Y  Y11  1  0.461625  0.918774  0.747588  1
  Y  Y12  1  0.081443  0.540721  0.747303  1
  Er  Er13  1  0.994668  0.997334  0.501697  1
  Er  Er14  1  0.996633  0.998316  0.998094  1
  Er  Er15  1  0.210612  0.789172  0.440430  1
  Er  Er16  1  0.210612  0.421441  0.440430  1
  Er  Er17  1  0.577443  0.788722  0.438306  1
  Er  Er18  1  0.790090  0.211901  0.559645  1
  Er  Er19  1  0.790090  0.578188  0.559645  1
  Cd  Cd20  1  0.767369  0.883684  0.750450  1
  In  In21  1  0.884560  0.118066  0.249933  1
  In  In22  1  0.884560  0.766494  0.249933  1
  In  In23  1  0.230775  0.115388  0.249887  1
  In  In24  1  0.115747  0.882144  0.749746  1
  In  In25  1  0.115747  0.233602  0.749746  1
  Ru  Ru26  1  0.330513  0.665257  0.253076  1
  Ru  Ru27  1  0.670136  0.335068  0.747528  1
