# generated using pymatgen
data_Nd8Ag2IrPt
_symmetry_space_group_name_H-M   'P 1'
_cell_length_a   9.86446435
_cell_length_b   9.86443192
_cell_length_c   9.83019188
_cell_angle_alpha   60.60989269
_cell_angle_beta   60.61016324
_cell_angle_gamma   60.75402686
_symmetry_Int_Tables_number   1
_chemical_formula_structural   Nd8Ag2IrPt
_chemical_formula_sum   'Nd16 Ag4 Ir2 Pt2'
_cell_volume   686.42830045
_cell_formula_units_Z   2
loop_
 _symmetry_equiv_pos_site_id
 _symmetry_equiv_pos_as_xyz
  1  'x, y, z'
loop_
 _atom_site_type_symbol
 _atom_site_label
 _atom_site_symmetry_multiplicity
 _atom_site_fract_x
 _atom_site_fract_y
 _atom_site_fract_z
 _atom_site_occupancy
  Nd  Nd0  1  0.351468  0.351472  0.348572  1
  Nd  Nd1  1  0.354163  0.354164  0.941270  1
  Nd  Nd2  1  0.358428  0.934768  0.353683  1
  Nd  Nd3  1  0.934772  0.358425  0.353680  1
  Nd  Nd4  1  0.808405  0.189579  0.188603  1
  Nd  Nd5  1  0.190319  0.806164  0.812823  1
  Nd  Nd6  1  0.189583  0.808401  0.188606  1
  Nd  Nd7  1  0.806163  0.190320  0.812823  1
  Nd  Nd8  1  0.189897  0.189895  0.810869  1
  Nd  Nd9  1  0.810856  0.810859  0.188421  1
  Nd  Nd10  1  0.939153  0.565207  0.561062  1
  Nd  Nd11  1  0.564890  0.937493  0.936327  1
  Nd  Nd12  1  0.565205  0.939157  0.561062  1
  Nd  Nd13  1  0.937495  0.564893  0.936322  1
  Nd  Nd14  1  0.563307  0.563306  0.937980  1
  Nd  Nd15  1  0.937634  0.937634  0.562682  1
  Ag  Ag16  1  0.582439  0.582438  0.582557  1
  Ag  Ag17  1  0.581541  0.581541  0.254925  1
  Ag  Ag18  1  0.581230  0.256217  0.581529  1
  Ag  Ag19  1  0.256213  0.581231  0.581529  1
  Ir  Ir20  1  0.141228  0.571179  0.144104  1
  Ir  Ir21  1  0.571177  0.141231  0.144103  1
  Pt  Pt22  1  0.142564  0.142560  0.146974  1
  Pt  Pt23  1  0.141870  0.141867  0.569491  1
