# generated using pymatgen
data_RbPd2O3
_symmetry_space_group_name_H-M   'P 1'
_cell_length_a   7.41252016
_cell_length_b   7.41251961
_cell_length_c   7.41251975
_cell_angle_alpha   50.07700827
_cell_angle_beta   50.07701342
_cell_angle_gamma   50.07700890
_symmetry_Int_Tables_number   1
_chemical_formula_structural   RbPd2O3
_chemical_formula_sum   'Rb2 Pd4 O6'
_cell_volume   220.48383106
_cell_formula_units_Z   2
loop_
 _symmetry_equiv_pos_site_id
 _symmetry_equiv_pos_as_xyz
  1  'x, y, z'
loop_
 _atom_site_type_symbol
 _atom_site_label
 _atom_site_symmetry_multiplicity
 _atom_site_fract_x
 _atom_site_fract_y
 _atom_site_fract_z
 _atom_site_occupancy
  Rb  Rb0  1  0.829777  0.829777  0.829777  1
  Rb  Rb1  1  0.170223  0.170223  0.170223  1
  Pd  Pd2  1  0.000000  0.500000  0.500000  1
  Pd  Pd3  1  0.500000  0.000000  0.500000  1
  Pd  Pd4  1  0.500000  0.500000  0.000000  1
  Pd  Pd5  1  0.000000  0.000000  0.000000  1
  O  O6  1  0.882945  0.387125  0.882945  1
  O  O7  1  0.882945  0.882945  0.387125  1
  O  O8  1  0.387125  0.882945  0.882945  1
  O  O9  1  0.117055  0.612875  0.117055  1
  O  O10  1  0.117055  0.117055  0.612875  1
  O  O11  1  0.612875  0.117055  0.117055  1
