# generated using pymatgen
data_TbYb3Cu2Sn5
_symmetry_space_group_name_H-M   'P 1'
_cell_length_a   4.44292000
_cell_length_b   8.81197100
_cell_length_c   14.08858200
_cell_angle_alpha   90.00000000
_cell_angle_beta   90.00000000
_cell_angle_gamma   90.00000000
_symmetry_Int_Tables_number   1
_chemical_formula_structural   TbYb3Cu2Sn5
_chemical_formula_sum   'Tb2 Yb6 Cu4 Sn10'
_cell_volume   551.58041418
_cell_formula_units_Z   2
loop_
 _symmetry_equiv_pos_site_id
 _symmetry_equiv_pos_as_xyz
  1  'x, y, z'
loop_
 _atom_site_type_symbol
 _atom_site_label
 _atom_site_symmetry_multiplicity
 _atom_site_fract_x
 _atom_site_fract_y
 _atom_site_fract_z
 _atom_site_occupancy
  Tb  Tb0  1  0.500000  0.699302  0.000000  1
  Tb  Tb1  1  0.000000  0.300698  0.500000  1
  Yb  Yb2  1  0.500000  0.792723  0.742468  1
  Yb  Yb3  1  0.000000  0.207277  0.757532  1
  Yb  Yb4  1  0.000000  0.207277  0.242468  1
  Yb  Yb5  1  0.500000  0.137365  0.000000  1
  Yb  Yb6  1  0.000000  0.862635  0.500000  1
  Yb  Yb7  1  0.500000  0.792723  0.257532  1
  Cu  Cu8  1  0.500000  0.377737  0.644663  1
  Cu  Cu9  1  0.000000  0.622263  0.855337  1
  Cu  Cu10  1  0.000000  0.622263  0.144663  1
  Cu  Cu11  1  0.500000  0.377737  0.355337  1
  Sn  Sn12  1  0.500000  0.085189  0.395976  1
  Sn  Sn13  1  0.000000  0.555099  0.663862  1
  Sn  Sn14  1  0.000000  0.406608  0.000000  1
  Sn  Sn15  1  0.500000  0.444901  0.163862  1
  Sn  Sn16  1  0.500000  0.593392  0.500000  1
  Sn  Sn17  1  0.500000  0.444901  0.836138  1
  Sn  Sn18  1  0.000000  0.914811  0.895976  1
  Sn  Sn19  1  0.000000  0.555099  0.336138  1
  Sn  Sn20  1  0.500000  0.085189  0.604024  1
  Sn  Sn21  1  0.000000  0.914811  0.104024  1
