# generated using pymatgen
data_Tb8Yb12Si15P
_symmetry_space_group_name_H-M   'P 1'
_cell_length_a   7.41799600
_cell_length_b   7.83280899
_cell_length_c   15.19467700
_cell_angle_alpha   90.00000000
_cell_angle_beta   90.00000000
_cell_angle_gamma   89.95915391
_symmetry_Int_Tables_number   1
_chemical_formula_structural   Tb8Yb12Si15P
_chemical_formula_sum   'Tb8 Yb12 Si15 P1'
_cell_volume   882.86742496
_cell_formula_units_Z   1
loop_
 _symmetry_equiv_pos_site_id
 _symmetry_equiv_pos_as_xyz
  1  'x, y, z'
loop_
 _atom_site_type_symbol
 _atom_site_label
 _atom_site_symmetry_multiplicity
 _atom_site_fract_x
 _atom_site_fract_y
 _atom_site_fract_z
 _atom_site_occupancy
  Tb  Tb0  1  0.317653  0.180088  0.121465  1
  Tb  Tb1  1  0.814419  0.320808  0.378315  1
  Tb  Tb2  1  0.183700  0.677791  0.878524  1
  Tb  Tb3  1  0.683798  0.822434  0.621520  1
  Tb  Tb4  1  0.317653  0.180088  0.378535  1
  Tb  Tb5  1  0.814419  0.320808  0.121685  1
  Tb  Tb6  1  0.183700  0.677791  0.621476  1
  Tb  Tb7  1  0.683798  0.822434  0.878480  1
  Yb  Yb8  1  0.979435  0.819593  0.405686  1
  Yb  Yb9  1  0.474208  0.681196  0.096190  1
  Yb  Yb10  1  0.525419  0.316149  0.595312  1
  Yb  Yb11  1  0.025295  0.183818  0.904767  1
  Yb  Yb12  1  0.025295  0.183818  0.595233  1
  Yb  Yb13  1  0.525419  0.316149  0.904688  1
  Yb  Yb14  1  0.474208  0.681196  0.403810  1
  Yb  Yb15  1  0.979435  0.819593  0.094314  1
  Yb  Yb16  1  0.351095  0.021891  0.750000  1
  Yb  Yb17  1  0.850938  0.478381  0.750000  1
  Yb  Yb18  1  0.142708  0.522516  0.250000  1
  Yb  Yb19  1  0.651075  0.972011  0.250000  1
  Si  Si20  1  0.855562  0.533375  0.536204  1
  Si  Si21  1  0.356984  0.966850  0.963411  1
  Si  Si22  1  0.644132  0.030362  0.460888  1
  Si  Si23  1  0.141838  0.469096  0.038811  1
  Si  Si24  1  0.141838  0.469096  0.461189  1
  Si  Si25  1  0.644132  0.030362  0.039112  1
  Si  Si26  1  0.356984  0.966850  0.536589  1
  Si  Si27  1  0.855562  0.533375  0.963796  1
  Si  Si28  1  0.976281  0.886682  0.750000  1
  Si  Si29  1  0.476166  0.613787  0.750000  1
  Si  Si30  1  0.523543  0.391826  0.250000  1
  Si  Si31  1  0.024564  0.113893  0.250000  1
  Si  Si32  1  0.246786  0.393808  0.750000  1
  Si  Si33  1  0.746587  0.106443  0.750000  1
  Si  Si34  1  0.252817  0.892399  0.250000  1
  P  P35  1  0.752555  0.603239  0.250000  1
