# generated using pymatgen
data_Pr3LuSb10
_symmetry_space_group_name_H-M   'P 1'
_cell_length_a   4.30238500
_cell_length_b   13.49200290
_cell_length_c   15.02513219
_cell_angle_alpha   78.06917154
_cell_angle_beta   90.00000000
_cell_angle_gamma   90.00000000
_symmetry_Int_Tables_number   1
_chemical_formula_structural   Pr3LuSb10
_chemical_formula_sum   'Pr6 Lu2 Sb20'
_cell_volume   853.33489864
_cell_formula_units_Z   2
loop_
 _symmetry_equiv_pos_site_id
 _symmetry_equiv_pos_as_xyz
  1  'x, y, z'
loop_
 _atom_site_type_symbol
 _atom_site_label
 _atom_site_symmetry_multiplicity
 _atom_site_fract_x
 _atom_site_fract_y
 _atom_site_fract_z
 _atom_site_occupancy
  Pr  Pr0  1  0.250000  0.664328  0.857658  1
  Pr  Pr1  1  0.750000  0.335672  0.142342  1
  Pr  Pr2  1  0.250000  0.667286  0.576183  1
  Pr  Pr3  1  0.750000  0.332714  0.423817  1
  Pr  Pr4  1  0.250000  0.948119  0.360137  1
  Pr  Pr5  1  0.750000  0.051881  0.639863  1
  Lu  Lu6  1  0.250000  0.397678  0.772394  1
  Lu  Lu7  1  0.750000  0.602322  0.227606  1
  Sb  Sb8  1  0.250000  0.149345  0.785162  1
  Sb  Sb9  1  0.750000  0.850655  0.214838  1
  Sb  Sb10  1  0.250000  0.143499  0.477048  1
  Sb  Sb11  1  0.750000  0.856501  0.522952  1
  Sb  Sb12  1  0.250000  0.147123  0.177918  1
  Sb  Sb13  1  0.750000  0.852877  0.822082  1
  Sb  Sb14  1  0.250000  0.419538  0.971189  1
  Sb  Sb15  1  0.750000  0.580462  0.028811  1
  Sb  Sb16  1  0.750000  0.034331  0.894467  1
  Sb  Sb17  1  0.250000  0.965669  0.105533  1
  Sb  Sb18  1  0.750000  0.137274  0.323071  1
  Sb  Sb19  1  0.250000  0.862726  0.676929  1
  Sb  Sb20  1  0.750000  0.285498  0.931965  1
  Sb  Sb21  1  0.250000  0.714502  0.068035  1
  Sb  Sb22  1  0.750000  0.295201  0.651212  1
  Sb  Sb23  1  0.250000  0.704799  0.348788  1
  Sb  Sb24  1  0.750000  0.568130  0.737744  1
  Sb  Sb25  1  0.250000  0.431870  0.262256  1
  Sb  Sb26  1  0.750000  0.575576  0.439337  1
  Sb  Sb27  1  0.250000  0.424424  0.560663  1
