# generated using pymatgen
data_Ho7Lu13Sn16
_symmetry_space_group_name_H-M   'P 1'
_cell_length_a   7.92759891
_cell_length_b   8.05332159
_cell_length_c   15.21498603
_cell_angle_alpha   90.01107237
_cell_angle_beta   90.20646585
_cell_angle_gamma   89.91083848
_symmetry_Int_Tables_number   1
_chemical_formula_structural   Ho7Lu13Sn16
_chemical_formula_sum   'Ho7 Lu13 Sn16'
_cell_volume   971.37051362
_cell_formula_units_Z   1
loop_
 _symmetry_equiv_pos_site_id
 _symmetry_equiv_pos_as_xyz
  1  'x, y, z'
loop_
 _atom_site_type_symbol
 _atom_site_label
 _atom_site_symmetry_multiplicity
 _atom_site_fract_x
 _atom_site_fract_y
 _atom_site_fract_z
 _atom_site_occupancy
  Ho  Ho0  1  0.019503  0.179173  0.596450  1
  Ho  Ho1  1  0.480672  0.678905  0.404463  1
  Ho  Ho2  1  0.979395  0.820867  0.095934  1
  Ho  Ho3  1  0.479331  0.678056  0.095844  1
  Ho  Ho4  1  0.980529  0.821305  0.404433  1
  Ho  Ho5  1  0.518558  0.321777  0.595429  1
  Ho  Ho6  1  0.020390  0.179130  0.903783  1
  Lu  Lu7  1  0.364946  0.838309  0.876431  1
  Lu  Lu8  1  0.863469  0.662213  0.623987  1
  Lu  Lu9  1  0.635735  0.162165  0.376061  1
  Lu  Lu10  1  0.134055  0.338250  0.123186  1
  Lu  Lu11  1  0.634201  0.161810  0.123174  1
  Lu  Lu12  1  0.135905  0.337997  0.376301  1
  Lu  Lu13  1  0.364286  0.838462  0.624476  1
  Lu  Lu14  1  0.866016  0.661312  0.876664  1
  Lu  Lu15  1  0.522812  0.321250  0.903169  1
  Lu  Lu16  1  0.195830  0.504778  0.750473  1
  Lu  Lu17  1  0.695353  0.995239  0.750515  1
  Lu  Lu18  1  0.804314  0.494839  0.249740  1
  Lu  Lu19  1  0.304399  0.005007  0.249802  1
  Sn  Sn20  1  0.295845  0.039248  0.041585  1
  Sn  Sn21  1  0.797418  0.459503  0.458728  1
  Sn  Sn22  1  0.701782  0.960596  0.541317  1
  Sn  Sn23  1  0.207190  0.537280  0.957809  1
  Sn  Sn24  1  0.703120  0.960917  0.958218  1
  Sn  Sn25  1  0.201873  0.541044  0.541439  1
  Sn  Sn26  1  0.297779  0.040178  0.458706  1
  Sn  Sn27  1  0.794874  0.459059  0.040427  1
  Sn  Sn28  1  0.561400  0.619661  0.750452  1
  Sn  Sn29  1  0.061090  0.879640  0.750273  1
  Sn  Sn30  1  0.438725  0.380127  0.249608  1
  Sn  Sn31  1  0.938710  0.120004  0.249817  1
  Sn  Sn32  1  0.331591  0.151561  0.750876  1
  Sn  Sn33  1  0.829196  0.350148  0.750143  1
  Sn  Sn34  1  0.669841  0.850108  0.250148  1
  Sn  Sn35  1  0.169865  0.650084  0.250138  1
