# generated using pymatgen
data_MoI35
_symmetry_space_group_name_H-M   'P 1'
_cell_length_a   17.58017498
_cell_length_b   12.54030950
_cell_length_c   11.87107100
_cell_angle_alpha   88.81408644
_cell_angle_beta   66.02770740
_cell_angle_gamma   92.31545562
_symmetry_Int_Tables_number   1
_chemical_formula_structural   MoI35
_chemical_formula_sum   'Mo1 I35'
_cell_volume   2387.43274716
_cell_formula_units_Z   1
loop_
 _symmetry_equiv_pos_site_id
 _symmetry_equiv_pos_as_xyz
  1  'x, y, z'
loop_
 _atom_site_type_symbol
 _atom_site_label
 _atom_site_symmetry_multiplicity
 _atom_site_fract_x
 _atom_site_fract_y
 _atom_site_fract_z
 _atom_site_occupancy
  Mo  Mo0  1  0.221920  0.434373  0.485261  1
  I  I1  1  0.522043  0.260141  0.528854  1
  I  I2  1  0.749719  0.588758  0.586001  1
  I  I3  1  0.458534  0.687344  0.726327  1
  I  I4  1  0.073201  0.884716  0.832531  1
  I  I5  1  0.903668  0.159032  0.017754  1
  I  I6  1  0.658649  0.303350  0.278556  1
  I  I7  1  0.589839  0.337293  0.840625  1
  I  I8  1  0.319385  0.764301  0.675462  1
  I  I9  1  0.326728  0.565207  0.237059  1
  I  I10  1  0.646874  0.132570  0.811107  1
  I  I11  1  0.916848  0.558040  0.406334  1
  I  I12  1  0.083045  0.947282  0.590841  1
  I  I13  1  0.906294  0.114662  0.264207  1
  I  I14  1  0.895583  0.206288  0.785051  1
  I  I15  1  0.649678  0.043271  0.234572  1
  I  I16  1  0.041409  0.816703  0.089356  1
  I  I17  1  0.348158  0.986696  0.721821  1
  I  I18  1  0.909903  0.333806  0.337945  1
  I  I19  1  0.891783  0.927738  0.689199  1
  I  I20  1  0.885711  0.671547  0.806144  1
  I  I21  1  0.310253  0.032747  0.261286  1
  I  I22  1  0.331552  0.306527  0.317567  1
  I  I23  1  0.589281  0.616434  0.796752  1
  I  I24  1  0.124820  0.396822  0.364150  1
  I  I25  1  0.715592  0.898654  0.792676  1
  I  I26  1  0.905453  0.451526  0.782576  1
  I  I27  1  0.480137  0.037694  0.248854  1
  I  I28  1  0.144902  0.307961  0.675936  1
  I  I29  1  0.677480  0.778403  0.262699  1
  I  I30  1  0.861258  0.801070  0.177544  1
  I  I31  1  0.390186  0.208471  0.766850  1
  I  I32  1  0.352200  0.497546  0.534326  1
  I  I33  1  0.660995  0.538935  0.252867  1
  I  I34  1  0.149755  0.615083  0.564075  1
  I  I35  1  0.307166  0.789008  0.256836  1
