# generated using pymatgen
data_Ba4Sc2MnReO12
_symmetry_space_group_name_H-M   'P 1'
_cell_length_a   7.18526806
_cell_length_b   7.18526751
_cell_length_c   7.18526747
_cell_angle_alpha   107.10758028
_cell_angle_beta   110.66581557
_cell_angle_gamma   110.66581488
_symmetry_Int_Tables_number   1
_chemical_formula_structural   Ba4Sc2MnReO12
_chemical_formula_sum   'Ba4 Sc2 Mn1 Re1 O12'
_cell_volume   285.20367737
_cell_formula_units_Z   1
loop_
 _symmetry_equiv_pos_site_id
 _symmetry_equiv_pos_as_xyz
  1  'x, y, z'
loop_
 _atom_site_type_symbol
 _atom_site_label
 _atom_site_symmetry_multiplicity
 _atom_site_fract_x
 _atom_site_fract_y
 _atom_site_fract_z
 _atom_site_occupancy
  Ba  Ba0  1  0.000000  0.500000  0.000000  1
  Ba  Ba1  1  0.500000  0.000000  0.000000  1
  Ba  Ba2  1  0.000000  0.000000  0.500000  1
  Ba  Ba3  1  0.500000  0.500000  0.500000  1
  Sc  Sc4  1  0.500000  0.000000  0.500000  1
  Sc  Sc5  1  0.500000  0.500000  0.000000  1
  Mn  Mn6  1  0.000000  0.500000  0.500000  1
  Re  Re7  1  0.000000  0.000000  0.000000  1
  O  O8  1  0.241866  0.741866  0.500000  1
  O  O9  1  0.766407  0.000000  0.766407  1
  O  O10  1  0.000000  0.779425  0.779425  1
  O  O11  1  0.000000  0.220575  0.220575  1
  O  O12  1  0.233593  0.233593  0.000000  1
  O  O13  1  0.233593  0.000000  0.233593  1
  O  O14  1  0.766407  0.766407  0.000000  1
  O  O15  1  0.758134  0.258134  0.500000  1
  O  O16  1  0.500000  0.250000  0.750000  1
  O  O17  1  0.500000  0.750000  0.250000  1
  O  O18  1  0.241866  0.500000  0.741866  1
  O  O19  1  0.758134  0.500000  0.258134  1
