# generated using pymatgen
data_Lu3Al10(SiOs2)2
_symmetry_space_group_name_H-M   'P 1'
_cell_length_a   8.64887000
_cell_length_b   8.64887038
_cell_length_c   9.58119200
_cell_angle_alpha   90.00000000
_cell_angle_beta   90.00000000
_cell_angle_gamma   120.00000618
_symmetry_Int_Tables_number   1
_chemical_formula_structural   Lu3Al10(SiOs2)2
_chemical_formula_sum   'Lu6 Al20 Si4 Os8'
_cell_volume   620.68164973
_cell_formula_units_Z   2
loop_
 _symmetry_equiv_pos_site_id
 _symmetry_equiv_pos_as_xyz
  1  'x, y, z'
loop_
 _atom_site_type_symbol
 _atom_site_label
 _atom_site_symmetry_multiplicity
 _atom_site_fract_x
 _atom_site_fract_y
 _atom_site_fract_z
 _atom_site_occupancy
  Lu  Lu0  1  0.197898  0.395797  0.250000  1
  Lu  Lu1  1  0.802102  0.604203  0.750000  1
  Lu  Lu2  1  0.604203  0.802102  0.250000  1
  Lu  Lu3  1  0.395797  0.197898  0.750000  1
  Lu  Lu4  1  0.197898  0.802102  0.250000  1
  Lu  Lu5  1  0.802102  0.197898  0.750000  1
  Al  Al6  1  0.164795  0.329591  0.578212  1
  Al  Al7  1  0.835205  0.670409  0.421788  1
  Al  Al8  1  0.670409  0.835205  0.578212  1
  Al  Al9  1  0.835205  0.670409  0.078212  1
  Al  Al10  1  0.329591  0.164795  0.421788  1
  Al  Al11  1  0.164795  0.329591  0.921788  1
  Al  Al12  1  0.164795  0.835205  0.578212  1
  Al  Al13  1  0.329591  0.164795  0.078212  1
  Al  Al14  1  0.835205  0.164795  0.421788  1
  Al  Al15  1  0.670409  0.835205  0.921788  1
  Al  Al16  1  0.835205  0.164795  0.078212  1
  Al  Al17  1  0.164795  0.835205  0.921788  1
  Al  Al18  1  0.563127  0.126253  0.250000  1
  Al  Al19  1  0.436873  0.873747  0.750000  1
  Al  Al20  1  0.873747  0.436873  0.250000  1
  Al  Al21  1  0.126253  0.563127  0.750000  1
  Al  Al22  1  0.563127  0.436873  0.250000  1
  Al  Al23  1  0.436873  0.563127  0.750000  1
  Al  Al24  1  0.000000  0.000000  0.250000  1
  Al  Al25  1  0.000000  0.000000  0.750000  1
  Si  Si26  1  0.333333  0.666667  0.038915  1
  Si  Si27  1  0.666667  0.333333  0.961085  1
  Si  Si28  1  0.666667  0.333333  0.538915  1
  Si  Si29  1  0.333333  0.666667  0.461085  1
  Os  Os30  1  0.500000  0.000000  0.000000  1
  Os  Os31  1  0.000000  0.500000  0.000000  1
  Os  Os32  1  0.500000  0.000000  0.500000  1
  Os  Os33  1  0.500000  0.500000  0.000000  1
  Os  Os34  1  0.000000  0.500000  0.500000  1
  Os  Os35  1  0.500000  0.500000  0.500000  1
  Os  Os36  1  0.000000  0.000000  0.000000  1
  Os  Os37  1  0.000000  0.000000  0.500000  1
