# generated using pymatgen
data_GdTm3(CO3)6
_symmetry_space_group_name_H-M   'P 1'
_cell_length_a   8.13194444
_cell_length_b   8.34912451
_cell_length_c   8.36569312
_cell_angle_alpha   119.92948999
_cell_angle_beta   90.06161822
_cell_angle_gamma   90.01554625
_symmetry_Int_Tables_number   1
_chemical_formula_structural   GdTm3(CO3)6
_chemical_formula_sum   'Gd1 Tm3 C6 O18'
_cell_volume   492.23851490
_cell_formula_units_Z   1
loop_
 _symmetry_equiv_pos_site_id
 _symmetry_equiv_pos_as_xyz
  1  'x, y, z'
loop_
 _atom_site_type_symbol
 _atom_site_label
 _atom_site_symmetry_multiplicity
 _atom_site_fract_x
 _atom_site_fract_y
 _atom_site_fract_z
 _atom_site_occupancy
  Gd  Gd0  1  0.967899  0.665488  0.332412  1
  Tm  Tm1  1  0.533693  0.667214  0.333178  1
  Tm  Tm2  1  0.465620  0.332860  0.666772  1
  Tm  Tm3  1  0.034170  0.334128  0.667451  1
  C  C4  1  0.251863  0.967603  0.373820  1
  C  C5  1  0.252280  0.406155  0.032498  1
  C  C6  1  0.746962  0.373886  0.412041  1
  C  C7  1  0.252653  0.626475  0.593456  1
  C  C8  1  0.747437  0.588333  0.962244  1
  C  C9  1  0.747745  0.037613  0.626002  1
  O  O10  1  0.115171  0.881121  0.312958  1
  O  O11  1  0.391263  0.884341  0.329967  1
  O  O12  1  0.741115  0.661160  0.142034  1
  O  O13  1  0.391067  0.446850  0.117144  1
  O  O14  1  0.115042  0.430904  0.117411  1
  O  O15  1  0.740577  0.480567  0.338445  1
  O  O16  1  0.742344  0.857584  0.517982  1
  O  O17  1  0.115456  0.686257  0.567567  1
  O  O18  1  0.391522  0.670468  0.553040  1
  O  O19  1  0.612517  0.313051  0.442243  1
  O  O20  1  0.889092  0.334366  0.450905  1
  O  O21  1  0.249073  0.147368  0.484894  1
  O  O22  1  0.250626  0.516374  0.663415  1
  O  O23  1  0.889525  0.550227  0.884269  1
  O  O24  1  0.612920  0.558097  0.871256  1
  O  O25  1  0.250400  0.337016  0.852929  1
  O  O26  1  0.612659  0.127282  0.686438  1
  O  O27  1  0.889309  0.117211  0.667228  1
