# generated using pymatgen
data_Y(Zn2Pt)2
_symmetry_space_group_name_H-M   'P 1'
_cell_length_a   7.54075600
_cell_length_b   7.54075600
_cell_length_c   4.28891500
_cell_angle_alpha   90.00000000
_cell_angle_beta   90.00000000
_cell_angle_gamma   90.00000000
_symmetry_Int_Tables_number   1
_chemical_formula_structural   Y(Zn2Pt)2
_chemical_formula_sum   'Y2 Zn8 Pt4'
_cell_volume   243.88057815
_cell_formula_units_Z   2
loop_
 _symmetry_equiv_pos_site_id
 _symmetry_equiv_pos_as_xyz
  1  'x, y, z'
loop_
 _atom_site_type_symbol
 _atom_site_label
 _atom_site_symmetry_multiplicity
 _atom_site_fract_x
 _atom_site_fract_y
 _atom_site_fract_z
 _atom_site_occupancy
  Y  Y0  1  0.500000  0.500000  0.500000  1
  Y  Y1  1  0.000000  0.000000  0.000000  1
  Zn  Zn2  1  0.352111  0.097739  0.500000  1
  Zn  Zn3  1  0.647889  0.902261  0.500000  1
  Zn  Zn4  1  0.852111  0.402261  0.000000  1
  Zn  Zn5  1  0.147889  0.597739  0.000000  1
  Zn  Zn6  1  0.097739  0.352111  0.500000  1
  Zn  Zn7  1  0.902261  0.647889  0.500000  1
  Zn  Zn8  1  0.402261  0.852111  0.000000  1
  Zn  Zn9  1  0.597739  0.147889  0.000000  1
  Pt  Pt10  1  0.784742  0.215258  0.500000  1
  Pt  Pt11  1  0.215258  0.784742  0.500000  1
  Pt  Pt12  1  0.284742  0.284742  0.000000  1
  Pt  Pt13  1  0.715258  0.715258  0.000000  1
