# generated using pymatgen
data_Lu4Sc3AlRu4
_symmetry_space_group_name_H-M   'P 1'
_cell_length_a   4.02342600
_cell_length_b   7.15621377
_cell_length_c   8.47984674
_cell_angle_alpha   90.02667237
_cell_angle_beta   90.00000000
_cell_angle_gamma   90.00000000
_symmetry_Int_Tables_number   1
_chemical_formula_structural   Lu4Sc3AlRu4
_chemical_formula_sum   'Lu4 Sc3 Al1 Ru4'
_cell_volume   244.15593156
_cell_formula_units_Z   1
loop_
 _symmetry_equiv_pos_site_id
 _symmetry_equiv_pos_as_xyz
  1  'x, y, z'
loop_
 _atom_site_type_symbol
 _atom_site_label
 _atom_site_symmetry_multiplicity
 _atom_site_fract_x
 _atom_site_fract_y
 _atom_site_fract_z
 _atom_site_occupancy
  Lu  Lu0  1  0.250000  0.042174  0.665633  1
  Lu  Lu1  1  0.250000  0.517393  0.818218  1
  Lu  Lu2  1  0.750000  0.976571  0.333068  1
  Lu  Lu3  1  0.750000  0.473652  0.175330  1
  Sc  Sc4  1  0.250000  0.144113  0.058501  1
  Sc  Sc5  1  0.250000  0.636493  0.448293  1
  Sc  Sc6  1  0.750000  0.851657  0.938029  1
  Al  Al7  1  0.750000  0.359981  0.557892  1
  Ru  Ru8  1  0.250000  0.268983  0.376192  1
  Ru  Ru9  1  0.250000  0.766764  0.133751  1
  Ru  Ru10  1  0.750000  0.729231  0.631979  1
  Ru  Ru11  1  0.750000  0.232990  0.863114  1
