# generated using pymatgen
data_Dy5Tl2Ir
_symmetry_space_group_name_H-M   'P 1'
_cell_length_a   7.69688200
_cell_length_b   9.12387000
_cell_length_c   12.54414200
_cell_angle_alpha   90.00000000
_cell_angle_beta   90.00000000
_cell_angle_gamma   90.00000000
_symmetry_Int_Tables_number   1
_chemical_formula_structural   Dy5Tl2Ir
_chemical_formula_sum   'Dy20 Tl8 Ir4'
_cell_volume   880.91677210
_cell_formula_units_Z   4
loop_
 _symmetry_equiv_pos_site_id
 _symmetry_equiv_pos_as_xyz
  1  'x, y, z'
loop_
 _atom_site_type_symbol
 _atom_site_label
 _atom_site_symmetry_multiplicity
 _atom_site_fract_x
 _atom_site_fract_y
 _atom_site_fract_z
 _atom_site_occupancy
  Dy  Dy0  1  0.848347  0.750000  0.779498  1
  Dy  Dy1  1  0.151653  0.250000  0.220502  1
  Dy  Dy2  1  0.348347  0.250000  0.720502  1
  Dy  Dy3  1  0.651653  0.750000  0.279498  1
  Dy  Dy4  1  0.384144  0.750000  0.694188  1
  Dy  Dy5  1  0.615856  0.250000  0.305812  1
  Dy  Dy6  1  0.884144  0.250000  0.805812  1
  Dy  Dy7  1  0.115856  0.750000  0.194188  1
  Dy  Dy8  1  0.955045  0.750000  0.500697  1
  Dy  Dy9  1  0.044955  0.250000  0.499303  1
  Dy  Dy10  1  0.455045  0.250000  0.999303  1
  Dy  Dy11  1  0.544955  0.750000  0.000697  1
  Dy  Dy12  1  0.675786  0.036056  0.575569  1
  Dy  Dy13  1  0.324214  0.963944  0.424431  1
  Dy  Dy14  1  0.175786  0.963944  0.924431  1
  Dy  Dy15  1  0.324214  0.536056  0.424431  1
  Dy  Dy16  1  0.824214  0.036056  0.075569  1
  Dy  Dy17  1  0.675786  0.463944  0.575569  1
  Dy  Dy18  1  0.824214  0.463944  0.075569  1
  Dy  Dy19  1  0.175786  0.536056  0.924431  1
  Tl  Tl20  1  0.582282  0.493752  0.833433  1
  Tl  Tl21  1  0.417718  0.506248  0.166567  1
  Tl  Tl22  1  0.082282  0.506248  0.666567  1
  Tl  Tl23  1  0.417718  0.993752  0.166567  1
  Tl  Tl24  1  0.917718  0.493752  0.333433  1
  Tl  Tl25  1  0.582282  0.006248  0.833433  1
  Tl  Tl26  1  0.917718  0.006248  0.333433  1
  Tl  Tl27  1  0.082282  0.993752  0.666567  1
  Ir  Ir28  1  0.575714  0.750000  0.502375  1
  Ir  Ir29  1  0.424286  0.250000  0.497625  1
  Ir  Ir30  1  0.075714  0.250000  0.997625  1
  Ir  Ir31  1  0.924286  0.750000  0.002375  1
