# generated using pymatgen
data_TbZn2Ni3
_symmetry_space_group_name_H-M   'P 1'
_cell_length_a   5.11150300
_cell_length_b   4.98365387
_cell_length_c   4.06802600
_cell_angle_alpha   90.00000000
_cell_angle_beta   90.00000000
_cell_angle_gamma   120.85231543
_symmetry_Int_Tables_number   1
_chemical_formula_structural   TbZn2Ni3
_chemical_formula_sum   'Tb1 Zn2 Ni3'
_cell_volume   88.96444347
_cell_formula_units_Z   1
loop_
 _symmetry_equiv_pos_site_id
 _symmetry_equiv_pos_as_xyz
  1  'x, y, z'
loop_
 _atom_site_type_symbol
 _atom_site_label
 _atom_site_symmetry_multiplicity
 _atom_site_fract_x
 _atom_site_fract_y
 _atom_site_fract_z
 _atom_site_occupancy
  Tb  Tb0  1  0.000000  0.000000  0.000000  1
  Zn  Zn1  1  0.500000  0.500000  0.500000  1
  Zn  Zn2  1  0.000000  0.500000  0.500000  1
  Ni  Ni3  1  0.663123  0.326244  0.000000  1
  Ni  Ni4  1  0.336877  0.673756  0.000000  1
  Ni  Ni5  1  0.500000  0.000000  0.500000  1
