# generated using pymatgen
data_Ce4MgSiHgRh10
_symmetry_space_group_name_H-M   'P 1'
_cell_length_a   7.27774898
_cell_length_b   7.35299342
_cell_length_c   7.35299201
_cell_angle_alpha   107.39017238
_cell_angle_beta   111.03784057
_cell_angle_gamma   110.44984510
_symmetry_Int_Tables_number   1
_chemical_formula_structural   Ce4MgSiHgRh10
_chemical_formula_sum   'Ce4 Mg1 Si1 Hg1 Rh10'
_cell_volume   300.89394527
_cell_formula_units_Z   1
loop_
 _symmetry_equiv_pos_site_id
 _symmetry_equiv_pos_as_xyz
  1  'x, y, z'
loop_
 _atom_site_type_symbol
 _atom_site_label
 _atom_site_symmetry_multiplicity
 _atom_site_fract_x
 _atom_site_fract_y
 _atom_site_fract_z
 _atom_site_occupancy
  Ce  Ce0  1  0.033312  0.017819  0.516791  1
  Ce  Ce1  1  0.033312  0.516521  0.015494  1
  Ce  Ce2  1  0.473005  0.960613  0.960906  1
  Ce  Ce3  1  0.473005  0.512099  0.512392  1
  Mg  Mg4  1  0.745248  0.497905  0.247342  1
  Si  Si5  1  0.000223  0.001002  0.999221  1
  Hg  Hg6  1  0.744438  0.250898  0.493540  1
  Rh  Rh7  1  0.513914  0.257213  0.761338  1
  Rh  Rh8  1  0.247155  0.496188  0.750967  1
  Rh  Rh9  1  0.235896  0.744643  0.491253  1
  Rh  Rh10  1  0.513914  0.752576  0.256700  1
  Rh  Rh11  1  0.739011  0.723867  0.015143  1
  Rh  Rh12  1  0.276142  0.999501  0.276641  1
  Rh  Rh13  1  0.977765  0.262357  0.254231  1
  Rh  Rh14  1  0.289006  0.278820  0.010186  1
  Rh  Rh15  1  0.726887  0.004442  0.722444  1
  Rh  Rh16  1  0.977765  0.723534  0.715409  1
