# generated using pymatgen
data_Ag2OsPtF12
_symmetry_space_group_name_H-M   'P 1'
_cell_length_a   5.42907895
_cell_length_b   5.41745046
_cell_length_c   10.53267912
_cell_angle_alpha   75.26935952
_cell_angle_beta   75.33346125
_cell_angle_gamma   59.92436433
_symmetry_Int_Tables_number   1
_chemical_formula_structural   Ag2OsPtF12
_chemical_formula_sum   'Ag2 Os1 Pt1 F12'
_cell_volume   256.32155199
_cell_formula_units_Z   1
loop_
 _symmetry_equiv_pos_site_id
 _symmetry_equiv_pos_as_xyz
  1  'x, y, z'
loop_
 _atom_site_type_symbol
 _atom_site_label
 _atom_site_symmetry_multiplicity
 _atom_site_fract_x
 _atom_site_fract_y
 _atom_site_fract_z
 _atom_site_occupancy
  Ag  Ag0  1  0.497580  0.486054  0.522348  1
  Ag  Ag1  1  0.014558  0.000472  0.977585  1
  Os  Os2  1  0.236421  0.269421  0.249756  1
  Pt  Pt3  1  0.763166  0.732145  0.750329  1
  F  F4  1  0.209622  0.515052  0.360442  1
  F  F5  1  0.827825  0.464562  0.636089  1
  F  F6  1  0.905881  0.242686  0.358099  1
  F  F7  1  0.078365  0.798600  0.636502  1
  F  F8  1  0.563558  0.294973  0.139955  1
  F  F9  1  0.447601  0.668236  0.863572  1
  F  F10  1  0.263083  0.023077  0.139434  1
  F  F11  1  0.696877  0.000184  0.864902  1
  F  F12  1  0.031287  0.415584  0.864837  1
  F  F13  1  0.988544  0.600356  0.139834  1
  F  F14  1  0.496982  0.047806  0.635805  1
  F  F15  1  0.478652  0.940791  0.360511  1
