# generated using pymatgen
data_AcLa9(Bi2Ru)2
_symmetry_space_group_name_H-M   'P 1'
_cell_length_a   8.54067586
_cell_length_b   9.25560400
_cell_length_c   12.93131300
_cell_angle_alpha   90.00000000
_cell_angle_beta   89.36358449
_cell_angle_gamma   90.00000000
_symmetry_Int_Tables_number   1
_chemical_formula_structural   AcLa9(Bi2Ru)2
_chemical_formula_sum   'Ac2 La18 Bi8 Ru4'
_cell_volume   1022.14577266
_cell_formula_units_Z   2
loop_
 _symmetry_equiv_pos_site_id
 _symmetry_equiv_pos_as_xyz
  1  'x, y, z'
loop_
 _atom_site_type_symbol
 _atom_site_label
 _atom_site_symmetry_multiplicity
 _atom_site_fract_x
 _atom_site_fract_y
 _atom_site_fract_z
 _atom_site_occupancy
  Ac  Ac0  1  0.450936  0.250000  0.997720  1
  Ac  Ac1  1  0.549064  0.750000  0.002280  1
  La  La2  1  0.850532  0.750000  0.796953  1
  La  La3  1  0.149468  0.250000  0.203047  1
  La  La4  1  0.346608  0.250000  0.701820  1
  La  La5  1  0.653392  0.750000  0.298180  1
  La  La6  1  0.374571  0.750000  0.693558  1
  La  La7  1  0.625429  0.250000  0.306442  1
  La  La8  1  0.876738  0.250000  0.804956  1
  La  La9  1  0.123262  0.750000  0.195044  1
  La  La10  1  0.943306  0.750000  0.503204  1
  La  La11  1  0.056694  0.250000  0.496796  1
  La  La12  1  0.680010  0.037204  0.563356  1
  La  La13  1  0.319990  0.962796  0.436644  1
  La  La14  1  0.176874  0.962323  0.933241  1
  La  La15  1  0.319990  0.537204  0.436644  1
  La  La16  1  0.823126  0.037677  0.066759  1
  La  La17  1  0.680010  0.462796  0.563356  1
  La  La18  1  0.823126  0.462323  0.066759  1
  La  La19  1  0.176874  0.537677  0.933241  1
  Bi  Bi20  1  0.575225  0.492912  0.820332  1
  Bi  Bi21  1  0.424775  0.507088  0.179668  1
  Bi  Bi22  1  0.072931  0.507432  0.671828  1
  Bi  Bi23  1  0.424775  0.992912  0.179668  1
  Bi  Bi24  1  0.927069  0.492568  0.328172  1
  Bi  Bi25  1  0.575225  0.007088  0.820332  1
  Bi  Bi26  1  0.927069  0.007432  0.328172  1
  Bi  Bi27  1  0.072931  0.992568  0.671828  1
  Ru  Ru28  1  0.579251  0.750000  0.512875  1
  Ru  Ru29  1  0.420749  0.250000  0.487125  1
  Ru  Ru30  1  0.079142  0.250000  0.985571  1
  Ru  Ru31  1  0.920858  0.750000  0.014429  1
