# generated using pymatgen
data_Sc2Pa(Ni10B3)2
_symmetry_space_group_name_H-M   'P 1'
_cell_length_a   7.55999272
_cell_length_b   7.54335920
_cell_length_c   7.57309768
_cell_angle_alpha   60.03432130
_cell_angle_beta   60.17310100
_cell_angle_gamma   60.10694188
_symmetry_Int_Tables_number   1
_chemical_formula_structural   Sc2Pa(Ni10B3)2
_chemical_formula_sum   'Sc2 Pa1 Ni20 B6'
_cell_volume   306.10706280
_cell_formula_units_Z   1
loop_
 _symmetry_equiv_pos_site_id
 _symmetry_equiv_pos_as_xyz
  1  'x, y, z'
loop_
 _atom_site_type_symbol
 _atom_site_label
 _atom_site_symmetry_multiplicity
 _atom_site_fract_x
 _atom_site_fract_y
 _atom_site_fract_z
 _atom_site_occupancy
  Sc  Sc0  1  0.750062  0.749904  0.750085  1
  Sc  Sc1  1  0.999972  0.000013  0.000005  1
  Pa  Pa2  1  0.250054  0.249973  0.250093  1
  Ni  Ni3  1  0.387089  0.387120  0.387165  1
  Ni  Ni4  1  0.614364  0.614414  0.614391  1
  Ni  Ni5  1  0.387025  0.386992  0.838890  1
  Ni  Ni6  1  0.387116  0.838733  0.387062  1
  Ni  Ni7  1  0.614486  0.614412  0.156542  1
  Ni  Ni8  1  0.614447  0.156756  0.614343  1
  Ni  Ni9  1  0.838794  0.387127  0.387043  1
  Ni  Ni10  1  0.156683  0.614479  0.614433  1
  Ni  Ni11  1  0.344521  0.999434  0.999367  1
  Ni  Ni12  1  0.656604  0.999510  0.999521  1
  Ni  Ni13  1  0.999476  0.344354  0.656660  1
  Ni  Ni14  1  0.999456  0.656609  0.344461  1
  Ni  Ni15  1  0.999534  0.344312  0.999426  1
  Ni  Ni16  1  0.656418  0.999504  0.344393  1
  Ni  Ni17  1  0.999470  0.656669  0.999589  1
  Ni  Ni18  1  0.344304  0.999730  0.656439  1
  Ni  Ni19  1  0.999687  0.999402  0.344396  1
  Ni  Ni20  1  0.999512  0.999750  0.656523  1
  Ni  Ni21  1  0.656534  0.344252  0.999455  1
  Ni  Ni22  1  0.344392  0.656516  0.999699  1
  B  B23  1  0.734237  0.265779  0.265747  1
  B  B24  1  0.265721  0.734290  0.734257  1
  B  B25  1  0.265841  0.734183  0.265806  1
  B  B26  1  0.734262  0.265741  0.734258  1
  B  B27  1  0.265766  0.265836  0.734179  1
  B  B28  1  0.734173  0.734202  0.265772  1
