# generated using pymatgen
data_Ta5Nb7Cr4(Ga2C)4
_symmetry_space_group_name_H-M   'P 1'
_cell_length_a   8.28994497
_cell_length_b   8.29121552
_cell_length_c   8.29882002
_cell_angle_alpha   59.96162730
_cell_angle_beta   59.96350461
_cell_angle_gamma   59.95080520
_symmetry_Int_Tables_number   1
_chemical_formula_structural   Ta5Nb7Cr4(Ga2C)4
_chemical_formula_sum   'Ta5 Nb7 Cr4 Ga8 C4'
_cell_volume   402.96162970
_cell_formula_units_Z   1
loop_
 _symmetry_equiv_pos_site_id
 _symmetry_equiv_pos_as_xyz
  1  'x, y, z'
loop_
 _atom_site_type_symbol
 _atom_site_label
 _atom_site_symmetry_multiplicity
 _atom_site_fract_x
 _atom_site_fract_y
 _atom_site_fract_z
 _atom_site_occupancy
  Ta  Ta0  1  0.946259  0.553412  0.553937  1
  Ta  Ta1  1  0.554067  0.946143  0.946442  1
  Ta  Ta2  1  0.945791  0.945675  0.554542  1
  Ta  Ta3  1  0.697418  0.302953  0.696970  1
  Ta  Ta4  1  0.945299  0.554644  0.945457  1
  Nb  Nb5  1  0.554349  0.945661  0.554123  1
  Nb  Nb6  1  0.303472  0.696608  0.696746  1
  Nb  Nb7  1  0.697192  0.303463  0.303167  1
  Nb  Nb8  1  0.302457  0.697946  0.302190  1
  Nb  Nb9  1  0.697978  0.697584  0.302197  1
  Nb  Nb10  1  0.302941  0.303012  0.697356  1
  Nb  Nb11  1  0.553368  0.552728  0.946973  1
  Cr  Cr12  1  0.125200  0.125041  0.125102  1
  Cr  Cr13  1  0.625510  0.124812  0.122505  1
  Cr  Cr14  1  0.123548  0.624819  0.125891  1
  Cr  Cr15  1  0.121714  0.126519  0.625330  1
  Ga  Ga16  1  0.914043  0.912712  0.912793  1
  Ga  Ga17  1  0.989794  0.336446  0.336258  1
  Ga  Ga18  1  0.336577  0.989956  0.337488  1
  Ga  Ga19  1  0.336243  0.337129  0.989541  1
  Ga  Ga20  1  0.913612  0.260057  0.913953  1
  Ga  Ga21  1  0.912756  0.914102  0.260522  1
  Ga  Ga22  1  0.260270  0.913614  0.912461  1
  Ga  Ga23  1  0.337433  0.335828  0.337251  1
  C  C24  1  0.627303  0.622606  0.624871  1
  C  C25  1  0.122499  0.625822  0.625750  1
  C  C26  1  0.626725  0.124324  0.626824  1
  C  C27  1  0.626183  0.626384  0.123360  1
