# generated using pymatgen
data_Y3Zr(P3Pd4)2
_symmetry_space_group_name_H-M   'P 1'
_cell_length_a   4.00672900
_cell_length_b   11.45080600
_cell_length_c   13.31849200
_cell_angle_alpha   90.00000000
_cell_angle_beta   90.00000000
_cell_angle_gamma   90.00000000
_symmetry_Int_Tables_number   1
_chemical_formula_structural   Y3Zr(P3Pd4)2
_chemical_formula_sum   'Y6 Zr2 P12 Pd16'
_cell_volume   611.05609517
_cell_formula_units_Z   2
loop_
 _symmetry_equiv_pos_site_id
 _symmetry_equiv_pos_as_xyz
  1  'x, y, z'
loop_
 _atom_site_type_symbol
 _atom_site_label
 _atom_site_symmetry_multiplicity
 _atom_site_fract_x
 _atom_site_fract_y
 _atom_site_fract_z
 _atom_site_occupancy
  Y  Y0  1  0.000000  0.500000  0.522412  1
  Y  Y1  1  0.500000  0.000000  0.477588  1
  Y  Y2  1  0.500000  0.816788  0.205480  1
  Y  Y3  1  0.500000  0.183212  0.205480  1
  Y  Y4  1  0.000000  0.683212  0.794520  1
  Y  Y5  1  0.000000  0.316788  0.794520  1
  Zr  Zr6  1  0.500000  0.500000  0.155913  1
  Zr  Zr7  1  0.000000  0.000000  0.844087  1
  P  P8  1  0.500000  0.500000  0.872056  1
  P  P9  1  0.000000  0.000000  0.127944  1
  P  P10  1  0.500000  0.500000  0.356112  1
  P  P11  1  0.000000  0.000000  0.643888  1
  P  P12  1  0.500000  0.318929  0.616894  1
  P  P13  1  0.500000  0.681071  0.616894  1
  P  P14  1  0.000000  0.181071  0.383106  1
  P  P15  1  0.000000  0.818929  0.383106  1
  P  P16  1  0.500000  0.844933  0.883547  1
  P  P17  1  0.500000  0.155067  0.883547  1
  P  P18  1  0.000000  0.655067  0.116453  1
  P  P19  1  0.000000  0.344933  0.116453  1
  Pd  Pd20  1  0.500000  0.500000  0.698692  1
  Pd  Pd21  1  0.000000  0.000000  0.301308  1
  Pd  Pd22  1  0.000000  0.500000  0.983548  1
  Pd  Pd23  1  0.500000  0.000000  0.016452  1
  Pd  Pd24  1  0.500000  0.331135  0.974334  1
  Pd  Pd25  1  0.500000  0.668865  0.974334  1
  Pd  Pd26  1  0.000000  0.168865  0.025666  1
  Pd  Pd27  1  0.000000  0.831135  0.025666  1
  Pd  Pd28  1  0.500000  0.303521  0.435113  1
  Pd  Pd29  1  0.500000  0.696479  0.435113  1
  Pd  Pd30  1  0.000000  0.196479  0.564887  1
  Pd  Pd31  1  0.000000  0.803521  0.564887  1
  Pd  Pd32  1  0.500000  0.872900  0.704556  1
  Pd  Pd33  1  0.500000  0.127100  0.704556  1
  Pd  Pd34  1  0.000000  0.627100  0.295444  1
  Pd  Pd35  1  0.000000  0.372900  0.295444  1
