# generated using pymatgen
data_Tm10Hg3Bi3S2
_symmetry_space_group_name_H-M   'P 1'
_cell_length_a   8.85528300
_cell_length_b   8.85528322
_cell_length_c   6.43472900
_cell_angle_alpha   90.00000000
_cell_angle_beta   90.00000000
_cell_angle_gamma   120.00000292
_symmetry_Int_Tables_number   1
_chemical_formula_structural   Tm10Hg3Bi3S2
_chemical_formula_sum   'Tm10 Hg3 Bi3 S2'
_cell_volume   436.98424682
_cell_formula_units_Z   1
loop_
 _symmetry_equiv_pos_site_id
 _symmetry_equiv_pos_as_xyz
  1  'x, y, z'
loop_
 _atom_site_type_symbol
 _atom_site_label
 _atom_site_symmetry_multiplicity
 _atom_site_fract_x
 _atom_site_fract_y
 _atom_site_fract_z
 _atom_site_occupancy
  Tm  Tm0  1  0.666667  0.333333  0.010953  1
  Tm  Tm1  1  0.333333  0.666667  0.010953  1
  Tm  Tm2  1  0.333333  0.666667  0.489047  1
  Tm  Tm3  1  0.666667  0.333333  0.489047  1
  Tm  Tm4  1  0.756031  0.756031  0.750000  1
  Tm  Tm5  1  0.243969  0.000000  0.750000  1
  Tm  Tm6  1  0.000000  0.243969  0.750000  1
  Tm  Tm7  1  0.246551  0.246551  0.250000  1
  Tm  Tm8  1  0.753449  0.000000  0.250000  1
  Tm  Tm9  1  0.000000  0.753449  0.250000  1
  Hg  Hg10  1  0.605926  0.605926  0.250000  1
  Hg  Hg11  1  0.394074  0.000000  0.250000  1
  Hg  Hg12  1  0.000000  0.394074  0.250000  1
  Bi  Bi13  1  0.398524  0.398524  0.750000  1
  Bi  Bi14  1  0.601476  0.000000  0.750000  1
  Bi  Bi15  1  0.000000  0.601476  0.750000  1
  S  S16  1  0.000000  0.000000  0.997440  1
  S  S17  1  0.000000  0.000000  0.502560  1
