# generated using pymatgen
data_TbSm4Sn3Cl
_symmetry_space_group_name_H-M   'P 1'
_cell_length_a   9.30372400
_cell_length_b   9.30372458
_cell_length_c   6.66518000
_cell_angle_alpha   90.00000000
_cell_angle_beta   90.00000000
_cell_angle_gamma   119.99999795
_symmetry_Int_Tables_number   1
_chemical_formula_structural   TbSm4Sn3Cl
_chemical_formula_sum   'Tb2 Sm8 Sn6 Cl2'
_cell_volume   499.63883465
_cell_formula_units_Z   2
loop_
 _symmetry_equiv_pos_site_id
 _symmetry_equiv_pos_as_xyz
  1  'x, y, z'
loop_
 _atom_site_type_symbol
 _atom_site_label
 _atom_site_symmetry_multiplicity
 _atom_site_fract_x
 _atom_site_fract_y
 _atom_site_fract_z
 _atom_site_occupancy
  Tb  Tb0  1  0.333333  0.666667  0.000000  1
  Tb  Tb1  1  0.666667  0.333333  0.000000  1
  Sm  Sm2  1  0.261586  0.261586  0.750578  1
  Sm  Sm3  1  0.000000  0.738414  0.750578  1
  Sm  Sm4  1  0.738414  0.000000  0.750578  1
  Sm  Sm5  1  0.000000  0.261586  0.249422  1
  Sm  Sm6  1  0.333333  0.666667  0.500000  1
  Sm  Sm7  1  0.738414  0.738414  0.249422  1
  Sm  Sm8  1  0.666667  0.333333  0.500000  1
  Sm  Sm9  1  0.261586  0.000000  0.249422  1
  Sn  Sn10  1  0.610821  0.000000  0.246405  1
  Sn  Sn11  1  0.000000  0.389179  0.753595  1
  Sn  Sn12  1  0.389179  0.000000  0.753595  1
  Sn  Sn13  1  0.610821  0.610821  0.753595  1
  Sn  Sn14  1  0.000000  0.610821  0.246405  1
  Sn  Sn15  1  0.389179  0.389179  0.246405  1
  Cl  Cl16  1  0.000000  0.000000  0.000000  1
  Cl  Cl17  1  0.000000  0.000000  0.500000  1
