# generated using pymatgen
data_Tm4GeAsSe2
_symmetry_space_group_name_H-M   'P 1'
_cell_length_a   7.06307356
_cell_length_b   7.06307298
_cell_length_c   7.06307342
_cell_angle_alpha   132.21170940
_cell_angle_beta   132.21171717
_cell_angle_gamma   69.89485885
_symmetry_Int_Tables_number   1
_chemical_formula_structural   Tm4GeAsSe2
_chemical_formula_sum   'Tm4 Ge1 As1 Se2'
_cell_volume   189.53859896
_cell_formula_units_Z   1
loop_
 _symmetry_equiv_pos_site_id
 _symmetry_equiv_pos_as_xyz
  1  'x, y, z'
loop_
 _atom_site_type_symbol
 _atom_site_label
 _atom_site_symmetry_multiplicity
 _atom_site_fract_x
 _atom_site_fract_y
 _atom_site_fract_z
 _atom_site_occupancy
  Tm  Tm0  1  0.245316  0.245316  0.000000  1
  Tm  Tm1  1  0.754684  0.754684  0.000000  1
  Tm  Tm2  1  0.506877  0.006877  0.500000  1
  Tm  Tm3  1  0.993123  0.493123  0.500000  1
  Ge  Ge4  1  0.750000  0.250000  0.500000  1
  As  As5  1  0.000000  0.000000  0.000000  1
  Se  Se6  1  0.250000  0.750000  0.500000  1
  Se  Se7  1  0.500000  0.500000  0.000000  1
