# generated using pymatgen
data_Li3Ca2PaGe3
_symmetry_space_group_name_H-M   'P 1'
_cell_length_a   7.23472473
_cell_length_b   7.11384903
_cell_length_c   4.33940400
_cell_angle_alpha   90.00000000
_cell_angle_beta   90.00000000
_cell_angle_gamma   119.44883685
_symmetry_Int_Tables_number   1
_chemical_formula_structural   Li3Ca2PaGe3
_chemical_formula_sum   'Li3 Ca2 Pa1 Ge3'
_cell_volume   194.47899457
_cell_formula_units_Z   1
loop_
 _symmetry_equiv_pos_site_id
 _symmetry_equiv_pos_as_xyz
  1  'x, y, z'
loop_
 _atom_site_type_symbol
 _atom_site_label
 _atom_site_symmetry_multiplicity
 _atom_site_fract_x
 _atom_site_fract_y
 _atom_site_fract_z
 _atom_site_occupancy
  Li  Li0  1  0.767383  0.768428  0.500000  1
  Li  Li1  1  0.232617  0.001046  0.500000  1
  Li  Li2  1  0.000000  0.226307  0.500000  1
  Ca  Ca3  1  0.425030  0.425310  0.000000  1
  Ca  Ca4  1  0.574970  0.000280  0.000000  1
  Pa  Pa5  1  0.000000  0.577270  0.000000  1
  Ge  Ge6  1  0.306183  0.661058  0.500000  1
  Ge  Ge7  1  0.693817  0.354874  0.500000  1
  Ge  Ge8  1  0.000000  0.985427  0.000000  1
