# generated using pymatgen
data_Na2Co3Si7Ir9
_symmetry_space_group_name_H-M   'P 1'
_cell_length_a   9.51257600
_cell_length_b   9.51257546
_cell_length_c   3.84107400
_cell_angle_alpha   90.00000000
_cell_angle_beta   90.00000000
_cell_angle_gamma   119.99998798
_symmetry_Int_Tables_number   1
_chemical_formula_structural   Na2Co3Si7Ir9
_chemical_formula_sum   'Na2 Co3 Si7 Ir9'
_cell_volume   301.00909138
_cell_formula_units_Z   1
loop_
 _symmetry_equiv_pos_site_id
 _symmetry_equiv_pos_as_xyz
  1  'x, y, z'
loop_
 _atom_site_type_symbol
 _atom_site_label
 _atom_site_symmetry_multiplicity
 _atom_site_fract_x
 _atom_site_fract_y
 _atom_site_fract_z
 _atom_site_occupancy
  Na  Na0  1  0.333333  0.666667  0.000000  1
  Na  Na1  1  0.666667  0.333333  0.500000  1
  Co  Co2  1  0.113809  0.841289  0.000000  1
  Co  Co3  1  0.727480  0.886191  0.000000  1
  Co  Co4  1  0.158711  0.272520  0.000000  1
  Si  Si5  1  0.887196  0.591872  0.000000  1
  Si  Si6  1  0.704677  0.112804  0.000000  1
  Si  Si7  1  0.408128  0.295323  0.000000  1
  Si  Si8  1  0.281959  0.881919  0.500000  1
  Si  Si9  1  0.599960  0.718041  0.500000  1
  Si  Si10  1  0.118081  0.400040  0.500000  1
  Si  Si11  1  0.000000  0.000000  0.000000  1
  Ir  Ir12  1  0.632531  0.576925  0.000000  1
  Ir  Ir13  1  0.944395  0.367469  0.000000  1
  Ir  Ir14  1  0.423075  0.055605  0.000000  1
  Ir  Ir15  1  0.050311  0.614381  0.500000  1
  Ir  Ir16  1  0.564070  0.949689  0.500000  1
  Ir  Ir17  1  0.385619  0.435930  0.500000  1
  Ir  Ir18  1  0.883583  0.795859  0.500000  1
  Ir  Ir19  1  0.912277  0.116417  0.500000  1
  Ir  Ir20  1  0.204141  0.087723  0.500000  1
