# generated using pymatgen
data_Sr8Li3TlIn3N5
_symmetry_space_group_name_H-M   'P 1'
_cell_length_a   11.45743025
_cell_length_b   11.45743165
_cell_length_c   11.45737516
_cell_angle_alpha   160.27883183
_cell_angle_beta   112.62602598
_cell_angle_gamma   70.97054939
_symmetry_Int_Tables_number   1
_chemical_formula_structural   Sr8Li3TlIn3N5
_chemical_formula_sum   'Sr8 Li3 Tl1 In3 N5'
_cell_volume   465.31021389
_cell_formula_units_Z   1
loop_
 _symmetry_equiv_pos_site_id
 _symmetry_equiv_pos_as_xyz
  1  'x, y, z'
loop_
 _atom_site_type_symbol
 _atom_site_label
 _atom_site_symmetry_multiplicity
 _atom_site_fract_x
 _atom_site_fract_y
 _atom_site_fract_z
 _atom_site_occupancy
  Sr  Sr0  1  0.559833  0.710456  0.849382  1
  Sr  Sr1  1  0.746252  0.901933  0.844325  1
  Sr  Sr2  1  0.439646  0.289294  0.150349  1
  Sr  Sr3  1  0.861057  0.710704  0.150349  1
  Sr  Sr4  1  0.138925  0.289549  0.849382  1
  Sr  Sr5  1  0.253624  0.097585  0.156036  1
  Sr  Sr6  1  0.058451  0.902413  0.156036  1
  Sr  Sr7  1  0.942392  0.098071  0.844325  1
  Li  Li8  1  0.192725  0.692738  0.499988  1
  Li  Li9  1  0.807250  0.307263  0.499988  1
  Li  Li10  1  0.000226  0.500000  0.500225  1
  Tl  Tl11  1  0.648208  0.499980  0.148188  1
  In  In12  1  0.355853  0.500020  0.855873  1
  In  In13  1  0.411157  0.912904  0.498249  1
  In  In14  1  0.585345  0.087092  0.498249  1
  N  N15  1  0.343844  0.692136  0.651706  1
  N  N16  1  0.959570  0.307862  0.651706  1
  N  N17  1  0.039853  0.691670  0.348183  1
  N  N18  1  0.999276  0.999999  0.999275  1
  N  N19  1  0.656513  0.308330  0.348183  1
