# generated using pymatgen
data_Ho8Tm12Si15Ge
_symmetry_space_group_name_H-M   'P 1'
_cell_length_a   7.32397636
_cell_length_b   7.61433460
_cell_length_c   14.44739523
_cell_angle_alpha   90.02804086
_cell_angle_beta   89.68715188
_cell_angle_gamma   90.08755489
_symmetry_Int_Tables_number   1
_chemical_formula_structural   Ho8Tm12Si15Ge
_chemical_formula_sum   'Ho8 Tm12 Si15 Ge1'
_cell_volume   805.67783044
_cell_formula_units_Z   1
loop_
 _symmetry_equiv_pos_site_id
 _symmetry_equiv_pos_as_xyz
  1  'x, y, z'
loop_
 _atom_site_type_symbol
 _atom_site_label
 _atom_site_symmetry_multiplicity
 _atom_site_fract_x
 _atom_site_fract_y
 _atom_site_fract_z
 _atom_site_occupancy
  Ho  Ho0  1  0.014961  0.178637  0.096937  1
  Ho  Ho1  1  0.984935  0.821642  0.902928  1
  Ho  Ho2  1  0.485638  0.678554  0.902902  1
  Ho  Ho3  1  0.985596  0.821989  0.597328  1
  Ho  Ho4  1  0.514562  0.321655  0.097113  1
  Ho  Ho5  1  0.012609  0.177932  0.402510  1
  Ho  Ho6  1  0.514304  0.320440  0.402099  1
  Ho  Ho7  1  0.489390  0.679937  0.597630  1
  Tm  Tm8  1  0.164266  0.509340  0.750880  1
  Tm  Tm9  1  0.835473  0.490480  0.250396  1
  Tm  Tm10  1  0.336069  0.009591  0.250180  1
  Tm  Tm11  1  0.664150  0.990675  0.749872  1
  Tm  Tm12  1  0.333988  0.175066  0.624349  1
  Tm  Tm13  1  0.667047  0.822894  0.376188  1
  Tm  Tm14  1  0.166064  0.678307  0.376863  1
  Tm  Tm15  1  0.668948  0.821317  0.123058  1
  Tm  Tm16  1  0.831765  0.322893  0.622917  1
  Tm  Tm17  1  0.330732  0.178139  0.876821  1
  Tm  Tm18  1  0.830594  0.321560  0.876835  1
  Tm  Tm19  1  0.168981  0.678576  0.123158  1
  Si  Si20  1  0.036334  0.108498  0.750153  1
  Si  Si21  1  0.963357  0.892531  0.249512  1
  Si  Si22  1  0.462350  0.608164  0.249537  1
  Si  Si23  1  0.536838  0.392121  0.750464  1
  Si  Si24  1  0.282402  0.870354  0.750526  1
  Si  Si25  1  0.717900  0.128939  0.249360  1
  Si  Si26  1  0.217218  0.371228  0.249785  1
  Si  Si27  1  0.783078  0.629166  0.750224  1
  Si  Si28  1  0.830938  0.534025  0.460018  1
  Si  Si29  1  0.337524  0.967386  0.460937  1
  Si  Si30  1  0.840462  0.532196  0.039061  1
  Si  Si31  1  0.662746  0.032995  0.538980  1
  Si  Si32  1  0.159467  0.467689  0.961052  1
  Si  Si33  1  0.659252  0.032314  0.960982  1
  Si  Si34  1  0.340556  0.967829  0.039110  1
  Ge  Ge35  1  0.169503  0.464939  0.539339  1
