# generated using pymatgen
data_Y5ErCo16(P6W)2
_symmetry_space_group_name_H-M   'P 1'
_cell_length_a   3.71862500
_cell_length_b   10.54735867
_cell_length_c   12.24160275
_cell_angle_alpha   89.95952614
_cell_angle_beta   90.00000000
_cell_angle_gamma   90.00000000
_symmetry_Int_Tables_number   1
_chemical_formula_structural   Y5ErCo16(P6W)2
_chemical_formula_sum   'Y5 Er1 Co16 P12 W2'
_cell_volume   480.13600353
_cell_formula_units_Z   1
loop_
 _symmetry_equiv_pos_site_id
 _symmetry_equiv_pos_as_xyz
  1  'x, y, z'
loop_
 _atom_site_type_symbol
 _atom_site_label
 _atom_site_symmetry_multiplicity
 _atom_site_fract_x
 _atom_site_fract_y
 _atom_site_fract_z
 _atom_site_occupancy
  Y  Y0  1  0.000000  0.500011  0.524075  1
  Y  Y1  1  0.500000  0.999784  0.475563  1
  Y  Y2  1  0.500000  0.180424  0.204853  1
  Y  Y3  1  0.000000  0.680776  0.795103  1
  Y  Y4  1  0.000000  0.319418  0.795392  1
  Er  Er5  1  0.500000  0.819401  0.204573  1
  Co  Co6  1  0.500000  0.500056  0.701258  1
  Co  Co7  1  0.000000  0.999146  0.298321  1
  Co  Co8  1  0.000000  0.500607  0.987504  1
  Co  Co9  1  0.500000  0.999403  0.013288  1
  Co  Co10  1  0.500000  0.332825  0.990926  1
  Co  Co11  1  0.500000  0.667691  0.991047  1
  Co  Co12  1  0.000000  0.166916  0.009686  1
  Co  Co13  1  0.000000  0.832787  0.010084  1
  Co  Co14  1  0.500000  0.295746  0.431298  1
  Co  Co15  1  0.500000  0.704165  0.430512  1
  Co  Co16  1  0.000000  0.203974  0.568608  1
  Co  Co17  1  0.000000  0.795833  0.568059  1
  Co  Co18  1  0.500000  0.878473  0.707318  1
  Co  Co19  1  0.500000  0.121548  0.707785  1
  Co  Co20  1  0.000000  0.622265  0.291889  1
  Co  Co21  1  0.000000  0.378605  0.292434  1
  P  P22  1  0.500000  0.500332  0.881144  1
  P  P23  1  0.000000  0.999148  0.119526  1
  P  P24  1  0.500000  0.499848  0.349834  1
  P  P25  1  0.000000  0.000017  0.650178  1
  P  P26  1  0.500000  0.310998  0.615851  1
  P  P27  1  0.500000  0.689034  0.615410  1
  P  P28  1  0.000000  0.188635  0.384107  1
  P  P29  1  0.000000  0.810976  0.383034  1
  P  P30  1  0.500000  0.844389  0.892938  1
  P  P31  1  0.500000  0.155561  0.893372  1
  P  P32  1  0.000000  0.656514  0.107657  1
  P  P33  1  0.000000  0.344385  0.107060  1
  W  W34  1  0.500000  0.500415  0.156271  1
  W  W35  1  0.000000  0.999893  0.844042  1
