# generated using pymatgen
data_LaIn2Ir9
_symmetry_space_group_name_H-M   'P 1'
_cell_length_a   8.93207200
_cell_length_b   8.93207200
_cell_length_c   5.24886400
_cell_angle_alpha   90.00000000
_cell_angle_beta   90.00000000
_cell_angle_gamma   90.00000000
_symmetry_Int_Tables_number   1
_chemical_formula_structural   LaIn2Ir9
_chemical_formula_sum   'La2 In4 Ir18'
_cell_volume   418.76439637
_cell_formula_units_Z   2
loop_
 _symmetry_equiv_pos_site_id
 _symmetry_equiv_pos_as_xyz
  1  'x, y, z'
loop_
 _atom_site_type_symbol
 _atom_site_label
 _atom_site_symmetry_multiplicity
 _atom_site_fract_x
 _atom_site_fract_y
 _atom_site_fract_z
 _atom_site_occupancy
  La  La0  1  0.500000  0.500000  0.000000  1
  La  La1  1  0.000000  0.000000  0.000000  1
  In  In2  1  0.620960  0.120960  0.000000  1
  In  In3  1  0.379040  0.879040  0.000000  1
  In  In4  1  0.120960  0.379040  0.000000  1
  In  In5  1  0.879040  0.620960  0.000000  1
  Ir  Ir6  1  0.500000  0.000000  0.500000  1
  Ir  Ir7  1  0.000000  0.500000  0.500000  1
  Ir  Ir8  1  0.703294  0.557763  0.500000  1
  Ir  Ir9  1  0.296706  0.442237  0.500000  1
  Ir  Ir10  1  0.203294  0.942237  0.500000  1
  Ir  Ir11  1  0.796706  0.057763  0.500000  1
  Ir  Ir12  1  0.442237  0.703294  0.500000  1
  Ir  Ir13  1  0.557763  0.296706  0.500000  1
  Ir  Ir14  1  0.057763  0.203294  0.500000  1
  Ir  Ir15  1  0.942237  0.796706  0.500000  1
  Ir  Ir16  1  0.820134  0.320134  0.755524  1
  Ir  Ir17  1  0.179866  0.679866  0.755524  1
  Ir  Ir18  1  0.320134  0.179866  0.755524  1
  Ir  Ir19  1  0.679866  0.820134  0.755524  1
  Ir  Ir20  1  0.179866  0.679866  0.244476  1
  Ir  Ir21  1  0.820134  0.320134  0.244476  1
  Ir  Ir22  1  0.679866  0.820134  0.244476  1
  Ir  Ir23  1  0.320134  0.179866  0.244476  1
