# generated using pymatgen
data_Tm4BBr6
_symmetry_space_group_name_H-M   'P 1'
_cell_length_a   3.90314000
_cell_length_b   13.00748500
_cell_length_c   13.46792000
_cell_angle_alpha   90.00000000
_cell_angle_beta   90.00000000
_cell_angle_gamma   90.00000000
_symmetry_Int_Tables_number   1
_chemical_formula_structural   Tm4BBr6
_chemical_formula_sum   'Tm8 B2 Br12'
_cell_volume   683.76676982
_cell_formula_units_Z   2
loop_
 _symmetry_equiv_pos_site_id
 _symmetry_equiv_pos_as_xyz
  1  'x, y, z'
loop_
 _atom_site_type_symbol
 _atom_site_label
 _atom_site_symmetry_multiplicity
 _atom_site_fract_x
 _atom_site_fract_y
 _atom_site_fract_z
 _atom_site_occupancy
  Tm  Tm0  1  0.000000  0.100545  0.079882  1
  Tm  Tm1  1  0.000000  0.899455  0.920118  1
  Tm  Tm2  1  0.000000  0.600545  0.420118  1
  Tm  Tm3  1  0.000000  0.399455  0.579882  1
  Tm  Tm4  1  0.500000  0.121746  0.856889  1
  Tm  Tm5  1  0.500000  0.878254  0.143111  1
  Tm  Tm6  1  0.500000  0.621746  0.643111  1
  Tm  Tm7  1  0.500000  0.378254  0.356889  1
  B  B8  1  0.500000  0.000000  0.000000  1
  B  B9  1  0.500000  0.500000  0.500000  1
  Br  Br10  1  0.500000  0.268237  0.682077  1
  Br  Br11  1  0.500000  0.731763  0.317923  1
  Br  Br12  1  0.500000  0.768237  0.817923  1
  Br  Br13  1  0.500000  0.231763  0.182077  1
  Br  Br14  1  0.000000  0.260592  0.930810  1
  Br  Br15  1  0.000000  0.739408  0.069190  1
  Br  Br16  1  0.000000  0.480164  0.239584  1
  Br  Br17  1  0.000000  0.519836  0.760416  1
  Br  Br18  1  0.000000  0.980164  0.260416  1
  Br  Br19  1  0.000000  0.019836  0.739584  1
  Br  Br20  1  0.000000  0.239408  0.430810  1
  Br  Br21  1  0.000000  0.760592  0.569190  1
