# generated using pymatgen
data_Ta9Ti3B12Os11Ru
_symmetry_space_group_name_H-M   'P 1'
_cell_length_a   3.10500100
_cell_length_b   9.04978117
_cell_length_c   15.71021105
_cell_angle_alpha   89.91851990
_cell_angle_beta   90.00000000
_cell_angle_gamma   90.00000000
_symmetry_Int_Tables_number   1
_chemical_formula_structural   Ta9Ti3B12Os11Ru
_chemical_formula_sum   'Ta9 Ti3 B12 Os11 Ru1'
_cell_volume   441.44987945
_cell_formula_units_Z   1
loop_
 _symmetry_equiv_pos_site_id
 _symmetry_equiv_pos_as_xyz
  1  'x, y, z'
loop_
 _atom_site_type_symbol
 _atom_site_label
 _atom_site_symmetry_multiplicity
 _atom_site_fract_x
 _atom_site_fract_y
 _atom_site_fract_z
 _atom_site_occupancy
  Ta  Ta0  1  0.000000  0.699056  0.995179  1
  Ta  Ta1  1  0.000000  0.516535  0.592626  1
  Ta  Ta2  1  0.000000  0.483577  0.406826  1
  Ta  Ta3  1  0.000000  0.017053  0.906615  1
  Ta  Ta4  1  0.000000  0.984318  0.094597  1
  Ta  Ta5  1  0.000000  0.687282  0.203959  1
  Ta  Ta6  1  0.000000  0.311622  0.795797  1
  Ta  Ta7  1  0.000000  0.186573  0.297309  1
  Ta  Ta8  1  0.000000  0.812790  0.701377  1
  Ti  Ti9  1  0.000000  0.802579  0.494067  1
  Ti  Ti10  1  0.000000  0.197786  0.505175  1
  Ti  Ti11  1  0.000000  0.300842  0.005725  1
  B  B12  1  0.500000  0.609832  0.495365  1
  B  B13  1  0.500000  0.390502  0.504094  1
  B  B14  1  0.500000  0.109115  0.004285  1
  B  B15  1  0.500000  0.894583  0.997343  1
  B  B16  1  0.000000  0.606083  0.834301  1
  B  B17  1  0.000000  0.389662  0.166045  1
  B  B18  1  0.000000  0.106940  0.663536  1
  B  B19  1  0.000000  0.893281  0.336199  1
  B  B20  1  0.500000  0.717609  0.595403  1
  B  B21  1  0.500000  0.282482  0.403589  1
  B  B22  1  0.500000  0.218681  0.904167  1
  B  B23  1  0.500000  0.784114  0.098518  1
  Os  Os24  1  0.500000  0.719786  0.357530  1
  Os  Os25  1  0.500000  0.280922  0.641828  1
  Os  Os26  1  0.500000  0.218581  0.142909  1
  Os  Os27  1  0.500000  0.781618  0.855352  1
  Os  Os28  1  0.500000  0.516412  0.094211  1
  Os  Os29  1  0.500000  0.480456  0.906658  1
  Os  Os30  1  0.500000  0.019574  0.407000  1
  Os  Os31  1  0.500000  0.980409  0.592418  1
  Os  Os32  1  0.500000  0.562551  0.733693  1
  Os  Os33  1  0.500000  0.436885  0.266035  1
  Os  Os34  1  0.500000  0.062198  0.765206  1
  Ru  Ru35  1  0.500000  0.937710  0.235063  1
