# generated using pymatgen
data_Be8MoOsRu2
_symmetry_space_group_name_H-M   'P 1'
_cell_length_a   4.37830200
_cell_length_b   4.37830134
_cell_length_c   7.11394900
_cell_angle_alpha   90.00000000
_cell_angle_beta   90.00000000
_cell_angle_gamma   120.00000496
_symmetry_Int_Tables_number   1
_chemical_formula_structural   Be8MoOsRu2
_chemical_formula_sum   'Be8 Mo1 Os1 Ru2'
_cell_volume   118.10076781
_cell_formula_units_Z   1
loop_
 _symmetry_equiv_pos_site_id
 _symmetry_equiv_pos_as_xyz
  1  'x, y, z'
loop_
 _atom_site_type_symbol
 _atom_site_label
 _atom_site_symmetry_multiplicity
 _atom_site_fract_x
 _atom_site_fract_y
 _atom_site_fract_z
 _atom_site_occupancy
  Be  Be0  1  0.000000  0.000000  0.501076  1
  Be  Be1  1  0.000000  0.000000  0.998815  1
  Be  Be2  1  0.830545  0.169455  0.256685  1
  Be  Be3  1  0.830545  0.661089  0.256685  1
  Be  Be4  1  0.338911  0.169455  0.256685  1
  Be  Be5  1  0.168440  0.831560  0.743842  1
  Be  Be6  1  0.168440  0.336880  0.743842  1
  Be  Be7  1  0.663120  0.831560  0.743842  1
  Mo  Mo8  1  0.333333  0.666667  0.061048  1
  Os  Os9  1  0.666667  0.333333  0.946574  1
  Ru  Ru10  1  0.333333  0.666667  0.428169  1
  Ru  Ru11  1  0.666667  0.333333  0.562734  1
