# generated using pymatgen
data_CaNd19Pb16
_symmetry_space_group_name_H-M   'P 1'
_cell_length_a   8.44861675
_cell_length_b   8.57786686
_cell_length_c   16.25882900
_cell_angle_alpha   90.00000000
_cell_angle_beta   90.00000000
_cell_angle_gamma   89.82607021
_symmetry_Int_Tables_number   1
_chemical_formula_structural   CaNd19Pb16
_chemical_formula_sum   'Ca1 Nd19 Pb16'
_cell_volume   1178.28995021
_cell_formula_units_Z   1
loop_
 _symmetry_equiv_pos_site_id
 _symmetry_equiv_pos_as_xyz
  1  'x, y, z'
loop_
 _atom_site_type_symbol
 _atom_site_label
 _atom_site_symmetry_multiplicity
 _atom_site_fract_x
 _atom_site_fract_y
 _atom_site_fract_z
 _atom_site_occupancy
  Ca  Ca0  1  0.792311  0.496465  0.750000  1
  Nd  Nd1  1  0.625787  0.161265  0.618441  1
  Nd  Nd2  1  0.120311  0.340030  0.881404  1
  Nd  Nd3  1  0.375545  0.839599  0.119057  1
  Nd  Nd4  1  0.875208  0.660504  0.381076  1
  Nd  Nd5  1  0.375545  0.839599  0.380943  1
  Nd  Nd6  1  0.875208  0.660504  0.118924  1
  Nd  Nd7  1  0.625787  0.161265  0.881559  1
  Nd  Nd8  1  0.120311  0.340030  0.618596  1
  Nd  Nd9  1  0.472061  0.678142  0.599961  1
  Nd  Nd10  1  0.971425  0.818743  0.900202  1
  Nd  Nd11  1  0.530159  0.322425  0.100701  1
  Nd  Nd12  1  0.029099  0.179132  0.399322  1
  Nd  Nd13  1  0.530159  0.322425  0.399299  1
  Nd  Nd14  1  0.029099  0.179132  0.100678  1
  Nd  Nd15  1  0.472061  0.678142  0.900039  1
  Nd  Nd16  1  0.971425  0.818743  0.599798  1
  Nd  Nd17  1  0.294612  0.002815  0.750000  1
  Nd  Nd18  1  0.205923  0.503351  0.250000  1
  Nd  Nd19  1  0.705458  0.997001  0.250000  1
  Pb  Pb20  1  0.717181  0.967933  0.456696  1
  Pb  Pb21  1  0.217923  0.532904  0.042909  1
  Pb  Pb22  1  0.282466  0.032229  0.956212  1
  Pb  Pb23  1  0.782134  0.466473  0.541661  1
  Pb  Pb24  1  0.282466  0.032229  0.543788  1
  Pb  Pb25  1  0.782134  0.466473  0.958339  1
  Pb  Pb26  1  0.717181  0.967933  0.043304  1
  Pb  Pb27  1  0.217923  0.532904  0.457091  1
  Pb  Pb28  1  0.425716  0.378019  0.750000  1
  Pb  Pb29  1  0.926769  0.119919  0.750000  1
  Pb  Pb30  1  0.572731  0.624255  0.250000  1
  Pb  Pb31  1  0.072204  0.875702  0.250000  1
  Pb  Pb32  1  0.660741  0.855061  0.750000  1
  Pb  Pb33  1  0.167848  0.647380  0.750000  1
  Pb  Pb34  1  0.338750  0.149031  0.250000  1
  Pb  Pb35  1  0.838338  0.352238  0.250000  1
