# generated using pymatgen
data_TbPa3Ir4
_symmetry_space_group_name_H-M   'P 1'
_cell_length_a   4.02577600
_cell_length_b   5.73209608
_cell_length_c   7.57228808
_cell_angle_alpha   89.89896047
_cell_angle_beta   90.00000000
_cell_angle_gamma   90.00000000
_symmetry_Int_Tables_number   1
_chemical_formula_structural   TbPa3Ir4
_chemical_formula_sum   'Tb1 Pa3 Ir4'
_cell_volume   174.73886910
_cell_formula_units_Z   1
loop_
 _symmetry_equiv_pos_site_id
 _symmetry_equiv_pos_as_xyz
  1  'x, y, z'
loop_
 _atom_site_type_symbol
 _atom_site_label
 _atom_site_symmetry_multiplicity
 _atom_site_fract_x
 _atom_site_fract_y
 _atom_site_fract_z
 _atom_site_occupancy
  Tb  Tb0  1  0.750000  0.834149  0.828513  1
  Pa  Pa1  1  0.250000  0.332093  0.673834  1
  Pa  Pa2  1  0.250000  0.170010  0.166315  1
  Pa  Pa3  1  0.750000  0.673846  0.331003  1
  Ir  Ir4  1  0.250000  0.820470  0.554791  1
  Ir  Ir5  1  0.250000  0.663831  0.080112  1
  Ir  Ir6  1  0.750000  0.182204  0.431294  1
  Ir  Ir7  1  0.750000  0.323395  0.934138  1
