# generated using pymatgen
data_Ac2TmLu(AsPt)4
_symmetry_space_group_name_H-M   'P 1'
_cell_length_a   4.33802100
_cell_length_b   4.33802315
_cell_length_c   16.24516400
_cell_angle_alpha   90.00000000
_cell_angle_beta   90.00000000
_cell_angle_gamma   120.00000651
_symmetry_Int_Tables_number   1
_chemical_formula_structural   Ac2TmLu(AsPt)4
_chemical_formula_sum   'Ac2 Tm1 Lu1 As4 Pt4'
_cell_volume   264.75137127
_cell_formula_units_Z   1
loop_
 _symmetry_equiv_pos_site_id
 _symmetry_equiv_pos_as_xyz
  1  'x, y, z'
loop_
 _atom_site_type_symbol
 _atom_site_label
 _atom_site_symmetry_multiplicity
 _atom_site_fract_x
 _atom_site_fract_y
 _atom_site_fract_z
 _atom_site_occupancy
  Ac  Ac0  1  0.000000  0.000000  0.500454  1
  Ac  Ac1  1  0.000000  0.000000  0.999546  1
  Tm  Tm2  1  0.000000  0.000000  0.250000  1
  Lu  Lu3  1  0.000000  0.000000  0.750000  1
  As  As4  1  0.333333  0.666667  0.873179  1
  As  As5  1  0.666667  0.333333  0.126295  1
  As  As6  1  0.666667  0.333333  0.373705  1
  As  As7  1  0.333333  0.666667  0.626821  1
  Pt  Pt8  1  0.333333  0.666667  0.351227  1
  Pt  Pt9  1  0.666667  0.333333  0.650737  1
  Pt  Pt10  1  0.666667  0.333333  0.849263  1
  Pt  Pt11  1  0.333333  0.666667  0.148773  1
