# generated using pymatgen
data_YHo2Cu4Si3Ge
_symmetry_space_group_name_H-M   'P 1'
_cell_length_a   7.87190875
_cell_length_b   7.87190901
_cell_length_c   7.87190915
_cell_angle_alpha   149.28322585
_cell_angle_beta   130.67227414
_cell_angle_gamma   59.24059349
_symmetry_Int_Tables_number   1
_chemical_formula_structural   YHo2Cu4Si3Ge
_chemical_formula_sum   'Y1 Ho2 Cu4 Si3 Ge1'
_cell_volume   187.46987210
_cell_formula_units_Z   1
loop_
 _symmetry_equiv_pos_site_id
 _symmetry_equiv_pos_as_xyz
  1  'x, y, z'
loop_
 _atom_site_type_symbol
 _atom_site_label
 _atom_site_symmetry_multiplicity
 _atom_site_fract_x
 _atom_site_fract_y
 _atom_site_fract_z
 _atom_site_occupancy
  Y  Y0  1  0.999037  0.999037  0.000000  1
  Ho  Ho1  1  0.371169  0.871169  0.500000  1
  Ho  Ho2  1  0.629125  0.129125  0.500000  1
  Cu  Cu3  1  0.646421  0.333565  0.312855  1
  Cu  Cu4  1  0.361561  0.667151  0.694410  1
  Cu  Cu5  1  0.020711  0.333565  0.687145  1
  Cu  Cu6  1  0.972741  0.667151  0.305590  1
  Si  Si7  1  0.783492  0.783492  0.000000  1
  Si  Si8  1  0.683735  0.499817  0.183919  1
  Si  Si9  1  0.315898  0.499817  0.816081  1
  Ge  Ge10  1  0.216110  0.216110  0.000000  1
