# generated using pymatgen
data_Co2Re5Os
_symmetry_space_group_name_H-M   'P 1'
_cell_length_a   5.40681200
_cell_length_b   5.41740264
_cell_length_c   4.34096700
_cell_angle_alpha   90.00000000
_cell_angle_beta   90.00000000
_cell_angle_gamma   119.93536473
_symmetry_Int_Tables_number   1
_chemical_formula_structural   Co2Re5Os
_chemical_formula_sum   'Co2 Re5 Os1'
_cell_volume   110.18741403
_cell_formula_units_Z   1
loop_
 _symmetry_equiv_pos_site_id
 _symmetry_equiv_pos_as_xyz
  1  'x, y, z'
loop_
 _atom_site_type_symbol
 _atom_site_label
 _atom_site_symmetry_multiplicity
 _atom_site_fract_x
 _atom_site_fract_y
 _atom_site_fract_z
 _atom_site_occupancy
  Co  Co0  1  0.332343  0.664687  0.750000  1
  Co  Co1  1  0.665622  0.331242  0.250000  1
  Re  Re2  1  0.665752  0.832608  0.250000  1
  Re  Re3  1  0.166855  0.832608  0.250000  1
  Re  Re4  1  0.833654  0.667307  0.750000  1
  Re  Re5  1  0.333816  0.168089  0.750000  1
  Re  Re6  1  0.834275  0.168089  0.750000  1
  Os  Os7  1  0.167685  0.335370  0.250000  1
