# generated using pymatgen
data_La4Ga4CuIr3
_symmetry_space_group_name_H-M   'P 1'
_cell_length_a   4.48929000
_cell_length_b   7.17840187
_cell_length_c   7.89299759
_cell_angle_alpha   90.16057109
_cell_angle_beta   90.00000000
_cell_angle_gamma   90.00000000
_symmetry_Int_Tables_number   1
_chemical_formula_structural   La4Ga4CuIr3
_chemical_formula_sum   'La4 Ga4 Cu1 Ir3'
_cell_volume   254.35817092
_cell_formula_units_Z   1
loop_
 _symmetry_equiv_pos_site_id
 _symmetry_equiv_pos_as_xyz
  1  'x, y, z'
loop_
 _atom_site_type_symbol
 _atom_site_label
 _atom_site_symmetry_multiplicity
 _atom_site_fract_x
 _atom_site_fract_y
 _atom_site_fract_z
 _atom_site_occupancy
  La  La0  1  0.250000  0.037134  0.813303  1
  La  La1  1  0.250000  0.525854  0.685162  1
  La  La2  1  0.750000  0.978006  0.194112  1
  La  La3  1  0.750000  0.472840  0.308607  1
  Ga  Ga4  1  0.250000  0.155058  0.427650  1
  Ga  Ga5  1  0.250000  0.656682  0.068695  1
  Ga  Ga6  1  0.750000  0.847362  0.570600  1
  Ga  Ga7  1  0.750000  0.336914  0.928724  1
  Cu  Cu8  1  0.750000  0.707150  0.893742  1
  Ir  Ir9  1  0.250000  0.779626  0.391762  1
  Ir  Ir10  1  0.250000  0.282109  0.107905  1
  Ir  Ir11  1  0.750000  0.221263  0.609737  1
