# generated using pymatgen
data_Sm3Mg2InPtPb2
_symmetry_space_group_name_H-M   'P 1'
_cell_length_a   7.63236468
_cell_length_b   7.66981420
_cell_length_c   4.57199200
_cell_angle_alpha   90.00000000
_cell_angle_beta   90.00000000
_cell_angle_gamma   120.16244223
_symmetry_Int_Tables_number   1
_chemical_formula_structural   Sm3Mg2InPtPb2
_chemical_formula_sum   'Sm3 Mg2 In1 Pt1 Pb2'
_cell_volume   231.40185385
_cell_formula_units_Z   1
loop_
 _symmetry_equiv_pos_site_id
 _symmetry_equiv_pos_as_xyz
  1  'x, y, z'
loop_
 _atom_site_type_symbol
 _atom_site_label
 _atom_site_symmetry_multiplicity
 _atom_site_fract_x
 _atom_site_fract_y
 _atom_site_fract_z
 _atom_site_occupancy
  Sm  Sm0  1  0.608254  0.606518  0.000000  1
  Sm  Sm1  1  0.391746  0.998264  0.000000  1
  Sm  Sm2  1  0.000000  0.394785  0.000000  1
  Mg  Mg3  1  0.224965  0.227024  0.500000  1
  Mg  Mg4  1  0.775035  0.002059  0.500000  1
  In  In5  1  0.000000  0.772099  0.500000  1
  Pt  Pt6  1  0.000000  0.008267  0.000000  1
  Pb  Pb7  1  0.337487  0.664235  0.500000  1
  Pb  Pb8  1  0.662513  0.326747  0.500000  1
