# generated using pymatgen
data_HoTi2ZnAu3
_symmetry_space_group_name_H-M   'P 1'
_cell_length_a   5.65365837
_cell_length_b   5.65365758
_cell_length_c   5.61457819
_cell_angle_alpha   101.90518871
_cell_angle_beta   101.90520693
_cell_angle_gamma   126.17588355
_symmetry_Int_Tables_number   1
_chemical_formula_structural   HoTi2ZnAu3
_chemical_formula_sum   'Ho1 Ti2 Zn1 Au3'
_cell_volume   128.94337546
_cell_formula_units_Z   1
loop_
 _symmetry_equiv_pos_site_id
 _symmetry_equiv_pos_as_xyz
  1  'x, y, z'
loop_
 _atom_site_type_symbol
 _atom_site_label
 _atom_site_symmetry_multiplicity
 _atom_site_fract_x
 _atom_site_fract_y
 _atom_site_fract_z
 _atom_site_occupancy
  Ho  Ho0  1  0.001677  0.998323  0.000000  1
  Ti  Ti1  1  0.248786  0.751214  0.500000  1
  Ti  Ti2  1  0.748786  0.251214  0.500000  1
  Zn  Zn3  1  0.306211  0.693789  0.000000  1
  Au  Au4  1  0.305942  0.315075  0.621017  1
  Au  Au5  1  0.684925  0.694058  0.378983  1
  Au  Au6  1  0.703674  0.296326  0.000000  1
