# generated using pymatgen
data_Tb2ErCd3Hg2Au
_symmetry_space_group_name_H-M   'P 1'
_cell_length_a   8.09753543
_cell_length_b   8.09792687
_cell_length_c   3.79536500
_cell_angle_alpha   90.00000000
_cell_angle_beta   90.00000000
_cell_angle_gamma   119.87851083
_symmetry_Int_Tables_number   1
_chemical_formula_structural   Tb2ErCd3Hg2Au
_chemical_formula_sum   'Tb2 Er1 Cd3 Hg2 Au1'
_cell_volume   215.79493770
_cell_formula_units_Z   1
loop_
 _symmetry_equiv_pos_site_id
 _symmetry_equiv_pos_as_xyz
  1  'x, y, z'
loop_
 _atom_site_type_symbol
 _atom_site_label
 _atom_site_symmetry_multiplicity
 _atom_site_fract_x
 _atom_site_fract_y
 _atom_site_fract_z
 _atom_site_occupancy
  Tb  Tb0  1  0.604434  0.013207  0.000000  1
  Tb  Tb1  1  0.986779  0.591318  0.000000  1
  Er  Er2  1  0.409264  0.395472  0.000000  1
  Cd  Cd3  1  0.274493  0.001279  0.500000  1
  Cd  Cd4  1  0.999762  0.273832  0.500000  1
  Cd  Cd5  1  0.725700  0.725054  0.500000  1
  Hg  Hg6  1  0.333555  0.665761  0.500000  1
  Hg  Hg7  1  0.000420  0.000396  0.000000  1
  Au  Au8  1  0.665594  0.333679  0.500000  1
