# generated using pymatgen
data_Ho3Ga24TcPd8
_symmetry_space_group_name_H-M   'P 1'
_cell_length_a   8.48483925
_cell_length_b   8.48484093
_cell_length_c   8.48484092
_cell_angle_alpha   89.79849916
_cell_angle_beta   89.79849971
_cell_angle_gamma   89.79849486
_symmetry_Int_Tables_number   1
_chemical_formula_structural   Ho3Ga24TcPd8
_chemical_formula_sum   'Ho3 Ga24 Tc1 Pd8'
_cell_volume   610.83369993
_cell_formula_units_Z   1
loop_
 _symmetry_equiv_pos_site_id
 _symmetry_equiv_pos_as_xyz
  1  'x, y, z'
loop_
 _atom_site_type_symbol
 _atom_site_label
 _atom_site_symmetry_multiplicity
 _atom_site_fract_x
 _atom_site_fract_y
 _atom_site_fract_z
 _atom_site_occupancy
  Ho  Ho0  1  0.000000  0.500000  0.000000  1
  Ho  Ho1  1  0.500000  0.000000  0.000000  1
  Ho  Ho2  1  0.000000  0.000000  0.500000  1
  Ga  Ga3  1  0.989142  0.643878  0.643878  1
  Ga  Ga4  1  0.643878  0.643878  0.989142  1
  Ga  Ga5  1  0.643878  0.989142  0.643878  1
  Ga  Ga6  1  0.010858  0.356122  0.356122  1
  Ga  Ga7  1  0.356122  0.356122  0.010858  1
  Ga  Ga8  1  0.356122  0.010858  0.356122  1
  Ga  Ga9  1  0.737090  0.500000  0.262910  1
  Ga  Ga10  1  0.262910  0.500000  0.737090  1
  Ga  Ga11  1  0.500000  0.262910  0.737090  1
  Ga  Ga12  1  0.500000  0.737090  0.262910  1
  Ga  Ga13  1  0.262910  0.737090  0.500000  1
  Ga  Ga14  1  0.737090  0.262910  0.500000  1
  Ga  Ga15  1  0.838972  0.141651  0.838972  1
  Ga  Ga16  1  0.141651  0.838972  0.838972  1
  Ga  Ga17  1  0.838972  0.838972  0.141651  1
  Ga  Ga18  1  0.161028  0.858349  0.161028  1
  Ga  Ga19  1  0.858349  0.161028  0.161028  1
  Ga  Ga20  1  0.161028  0.161028  0.858349  1
  Ga  Ga21  1  0.728234  0.488980  0.728234  1
  Ga  Ga22  1  0.488980  0.728234  0.728234  1
  Ga  Ga23  1  0.728234  0.728234  0.488980  1
  Ga  Ga24  1  0.271766  0.511020  0.271766  1
  Ga  Ga25  1  0.511020  0.271766  0.271766  1
  Ga  Ga26  1  0.271766  0.271766  0.511020  1
  Tc  Tc27  1  0.500000  0.500000  0.500000  1
  Pd  Pd28  1  0.836485  0.836485  0.836485  1
  Pd  Pd29  1  0.163515  0.163515  0.163515  1
  Pd  Pd30  1  0.664977  0.335023  0.000000  1
  Pd  Pd31  1  0.000000  0.335023  0.664977  1
  Pd  Pd32  1  0.335023  0.000000  0.664977  1
  Pd  Pd33  1  0.335023  0.664977  0.000000  1
  Pd  Pd34  1  0.000000  0.664977  0.335023  1
  Pd  Pd35  1  0.664977  0.000000  0.335023  1
