# generated using pymatgen
data_Ba4AlCr2GaF20
_symmetry_space_group_name_H-M   'P 1'
_cell_length_a   5.13234645
_cell_length_b   5.77312344
_cell_length_c   14.12633007
_cell_angle_alpha   89.91117974
_cell_angle_beta   90.14985794
_cell_angle_gamma   90.11576701
_symmetry_Int_Tables_number   1
_chemical_formula_structural   Ba4AlCr2GaF20
_chemical_formula_sum   'Ba4 Al1 Cr2 Ga1 F20'
_cell_volume   418.55570677
_cell_formula_units_Z   1
loop_
 _symmetry_equiv_pos_site_id
 _symmetry_equiv_pos_as_xyz
  1  'x, y, z'
loop_
 _atom_site_type_symbol
 _atom_site_label
 _atom_site_symmetry_multiplicity
 _atom_site_fract_x
 _atom_site_fract_y
 _atom_site_fract_z
 _atom_site_occupancy
  Ba  Ba0  1  0.739031  0.662689  0.655420  1
  Ba  Ba1  1  0.236300  0.844050  0.345631  1
  Ba  Ba2  1  0.266772  0.157630  0.840894  1
  Ba  Ba3  1  0.768541  0.342982  0.156347  1
  Al  Al4  1  0.315558  0.148485  0.587872  1
  Cr  Cr5  1  0.814247  0.347880  0.416893  1
  Cr  Cr6  1  0.684970  0.648155  0.913080  1
  Ga  Ga7  1  0.187705  0.854414  0.087027  1
  F  F8  1  0.944337  0.621097  0.478786  1
  F  F9  1  0.443588  0.902439  0.525282  1
  F  F10  1  0.048511  0.107945  0.020699  1
  F  F11  1  0.545134  0.383772  0.978478  1
  F  F12  1  0.625202  0.540460  0.329590  1
  F  F13  1  0.133647  0.959463  0.666582  1
  F  F14  1  0.364486  0.056685  0.172823  1
  F  F15  1  0.860755  0.444001  0.826559  1
  F  F16  1  0.193881  0.402768  0.646929  1
  F  F17  1  0.699037  0.074259  0.350277  1
  F  F18  1  0.813961  0.912209  0.843489  1
  F  F19  1  0.314660  0.590992  0.150740  1
  F  F20  1  0.582475  0.142164  0.673209  1
  F  F21  1  0.092484  0.357885  0.325418  1
  F  F22  1  0.402082  0.646746  0.822715  1
  F  F23  1  0.905259  0.852544  0.176104  1
  F  F24  1  0.521295  0.345016  0.509998  1
  F  F25  1  0.043625  0.152579  0.499082  1
  F  F26  1  0.474304  0.858968  0.994380  1
  F  F27  1  0.978156  0.641722  0.005699  1
