# generated using pymatgen
data_Er2Lu3Re2BC6
_symmetry_space_group_name_H-M   'P 1'
_cell_length_a   8.18292454
_cell_length_b   8.20251619
_cell_length_c   3.35902100
_cell_angle_alpha   90.00000000
_cell_angle_beta   90.00000000
_cell_angle_gamma   121.85865671
_symmetry_Int_Tables_number   1
_chemical_formula_structural   Er2Lu3Re2BC6
_chemical_formula_sum   'Er2 Lu3 Re2 B1 C6'
_cell_volume   191.49457336
_cell_formula_units_Z   1
loop_
 _symmetry_equiv_pos_site_id
 _symmetry_equiv_pos_as_xyz
  1  'x, y, z'
loop_
 _atom_site_type_symbol
 _atom_site_label
 _atom_site_symmetry_multiplicity
 _atom_site_fract_x
 _atom_site_fract_y
 _atom_site_fract_z
 _atom_site_occupancy
  Er  Er0  1  0.328637  0.078888  0.500000  1
  Er  Er1  1  0.671363  0.921112  0.500000  1
  Lu  Lu2  1  0.080168  0.332998  0.500000  1
  Lu  Lu3  1  0.919832  0.667002  0.500000  1
  Lu  Lu4  1  0.500000  0.500000  0.000000  1
  Re  Re5  1  0.285117  0.714659  0.000000  1
  Re  Re6  1  0.714883  0.285341  0.000000  1
  B  B7  1  0.000000  0.000000  0.000000  1
  C  C8  1  0.181847  0.186598  0.000000  1
  C  C9  1  0.818153  0.813402  0.000000  1
  C  C10  1  0.374831  0.623955  0.500000  1
  C  C11  1  0.625169  0.376045  0.500000  1
  C  C12  1  0.500000  0.000000  0.000000  1
  C  C13  1  0.000000  0.500000  0.000000  1
