# generated using pymatgen
data_Hf14Sc4Re7MoP2
_symmetry_space_group_name_H-M   'P 1'
_cell_length_a   8.62269302
_cell_length_b   8.62269288
_cell_length_c   8.54964400
_cell_angle_alpha   90.00000000
_cell_angle_beta   90.00000000
_cell_angle_gamma   120.03676107
_symmetry_Int_Tables_number   1
_chemical_formula_structural   Hf14Sc4Re7MoP2
_chemical_formula_sum   'Hf14 Sc4 Re7 Mo1 P2'
_cell_volume   550.30506661
_cell_formula_units_Z   1
loop_
 _symmetry_equiv_pos_site_id
 _symmetry_equiv_pos_as_xyz
  1  'x, y, z'
loop_
 _atom_site_type_symbol
 _atom_site_label
 _atom_site_symmetry_multiplicity
 _atom_site_fract_x
 _atom_site_fract_y
 _atom_site_fract_z
 _atom_site_occupancy
  Hf  Hf0  1  0.195238  0.804762  0.452140  1
  Hf  Hf1  1  0.197056  0.391899  0.452000  1
  Hf  Hf2  1  0.608101  0.802944  0.452000  1
  Hf  Hf3  1  0.804093  0.195907  0.549662  1
  Hf  Hf4  1  0.805089  0.610777  0.550125  1
  Hf  Hf5  1  0.389223  0.194911  0.550125  1
  Hf  Hf6  1  0.804093  0.195907  0.950338  1
  Hf  Hf7  1  0.805089  0.610777  0.949875  1
  Hf  Hf8  1  0.389223  0.194911  0.949875  1
  Hf  Hf9  1  0.195238  0.804762  0.047860  1
  Hf  Hf10  1  0.197056  0.391899  0.048000  1
  Hf  Hf11  1  0.608101  0.802944  0.048000  1
  Hf  Hf12  1  0.538294  0.077345  0.250000  1
  Hf  Hf13  1  0.922655  0.461706  0.250000  1
  Sc  Sc14  1  0.543441  0.456559  0.250000  1
  Sc  Sc15  1  0.459223  0.540777  0.750000  1
  Sc  Sc16  1  0.459451  0.918776  0.750000  1
  Sc  Sc17  1  0.081224  0.540549  0.750000  1
  Re  Re18  1  0.890384  0.779739  0.250000  1
  Re  Re19  1  0.220261  0.109616  0.250000  1
  Re  Re20  1  0.109001  0.890999  0.750000  1
  Re  Re21  1  0.109230  0.219149  0.750000  1
  Re  Re22  1  0.780851  0.890770  0.750000  1
  Re  Re23  1  0.999781  0.000219  0.500080  1
  Re  Re24  1  0.999781  0.000219  0.999920  1
  Mo  Mo25  1  0.891953  0.108047  0.250000  1
  P  P26  1  0.330792  0.669208  0.250000  1
  P  P27  1  0.666080  0.333920  0.750000  1
