# generated using pymatgen
data_Er5Sn2PbO
_symmetry_space_group_name_H-M   'P 1'
_cell_length_a   8.97285354
_cell_length_b   8.97285293
_cell_length_c   8.96817523
_cell_angle_alpha   125.91920830
_cell_angle_beta   125.91920500
_cell_angle_gamma   80.05964720
_symmetry_Int_Tables_number   1
_chemical_formula_structural   Er5Sn2PbO
_chemical_formula_sum   'Er10 Sn4 Pb2 O2'
_cell_volume   457.07086323
_cell_formula_units_Z   2
loop_
 _symmetry_equiv_pos_site_id
 _symmetry_equiv_pos_as_xyz
  1  'x, y, z'
loop_
 _atom_site_type_symbol
 _atom_site_label
 _atom_site_symmetry_multiplicity
 _atom_site_fract_x
 _atom_site_fract_y
 _atom_site_fract_z
 _atom_site_occupancy
  Er  Er0  1  0.999129  0.199474  0.498299  1
  Er  Er1  1  0.798962  0.302195  0.800659  1
  Er  Er2  1  0.500152  0.000018  0.800676  1
  Er  Er3  1  0.499982  0.999848  0.199324  1
  Er  Er4  1  0.000871  0.798442  0.498310  1
  Er  Er5  1  0.500029  0.499380  0.997534  1
  Er  Er6  1  0.197805  0.701038  0.199341  1
  Er  Er7  1  0.701558  0.499129  0.501690  1
  Er  Er8  1  0.300526  0.500871  0.501701  1
  Er  Er9  1  0.000620  0.999971  0.002466  1
  Sn  Sn10  1  0.853230  0.353555  0.206789  1
  Sn  Sn11  1  0.146445  0.646770  0.793211  1
  Sn  Sn12  1  0.352617  0.147383  0.500000  1
  Sn  Sn13  1  0.750013  0.749987  0.000000  1
  Pb  Pb14  1  0.647764  0.852236  0.500000  1
  Pb  Pb15  1  0.249984  0.250016  0.000000  1
  O  O16  1  0.749959  0.249645  0.500016  1
  O  O17  1  0.250355  0.750041  0.499984  1
