# generated using pymatgen
data_Eu12PtRh3
_symmetry_space_group_name_H-M   'P 1'
_cell_length_a   7.78318258
_cell_length_b   9.97872900
_cell_length_c   6.73678500
_cell_angle_alpha   90.00000000
_cell_angle_beta   89.77581277
_cell_angle_gamma   90.00000000
_symmetry_Int_Tables_number   1
_chemical_formula_structural   Eu12PtRh3
_chemical_formula_sum   'Eu12 Pt1 Rh3'
_cell_volume   523.21695564
_cell_formula_units_Z   1
loop_
 _symmetry_equiv_pos_site_id
 _symmetry_equiv_pos_as_xyz
  1  'x, y, z'
loop_
 _atom_site_type_symbol
 _atom_site_label
 _atom_site_symmetry_multiplicity
 _atom_site_fract_x
 _atom_site_fract_y
 _atom_site_fract_z
 _atom_site_occupancy
  Eu  Eu0  1  0.539235  0.750000  0.146809  1
  Eu  Eu1  1  0.828862  0.069166  0.164158  1
  Eu  Eu2  1  0.828862  0.430834  0.164158  1
  Eu  Eu3  1  0.327405  0.069611  0.335203  1
  Eu  Eu4  1  0.327405  0.430389  0.335203  1
  Eu  Eu5  1  0.044061  0.750000  0.360724  1
  Eu  Eu6  1  0.956401  0.250000  0.645347  1
  Eu  Eu7  1  0.668979  0.565678  0.660719  1
  Eu  Eu8  1  0.668979  0.934323  0.660719  1
  Eu  Eu9  1  0.175901  0.565021  0.837126  1
  Eu  Eu10  1  0.175901  0.934980  0.837126  1
  Eu  Eu11  1  0.458121  0.250000  0.855921  1
  Pt  Pt12  1  0.881905  0.750000  0.948494  1
  Rh  Rh13  1  0.119475  0.250000  0.043729  1
  Rh  Rh14  1  0.618933  0.250000  0.455635  1
  Rh  Rh15  1  0.379576  0.750000  0.548929  1
