# generated using pymatgen
data_Pr3Nd2Y3(CdPt)2
_symmetry_space_group_name_H-M   'P 1'
_cell_length_a   9.93599158
_cell_length_b   9.93599164
_cell_length_c   9.93599100
_cell_angle_alpha   59.99999882
_cell_angle_beta   59.99999861
_cell_angle_gamma   59.99999736
_symmetry_Int_Tables_number   1
_chemical_formula_structural   Pr3Nd2Y3(CdPt)2
_chemical_formula_sum   'Pr6 Nd4 Y6 Cd4 Pt4'
_cell_volume   693.61520828
_cell_formula_units_Z   2
loop_
 _symmetry_equiv_pos_site_id
 _symmetry_equiv_pos_as_xyz
  1  'x, y, z'
loop_
 _atom_site_type_symbol
 _atom_site_label
 _atom_site_symmetry_multiplicity
 _atom_site_fract_x
 _atom_site_fract_y
 _atom_site_fract_z
 _atom_site_occupancy
  Pr  Pr0  1  0.937745  0.562255  0.562255  1
  Pr  Pr1  1  0.562255  0.937745  0.937745  1
  Pr  Pr2  1  0.562255  0.937745  0.562255  1
  Pr  Pr3  1  0.937745  0.562255  0.937745  1
  Pr  Pr4  1  0.562255  0.562255  0.937745  1
  Pr  Pr5  1  0.937745  0.937745  0.562255  1
  Nd  Nd6  1  0.352088  0.352088  0.352088  1
  Nd  Nd7  1  0.352088  0.352088  0.943736  1
  Nd  Nd8  1  0.352088  0.943736  0.352088  1
  Nd  Nd9  1  0.943736  0.352088  0.352088  1
  Y  Y10  1  0.813720  0.186280  0.186280  1
  Y  Y11  1  0.186280  0.813720  0.813720  1
  Y  Y12  1  0.186280  0.813720  0.186280  1
  Y  Y13  1  0.813720  0.186280  0.813720  1
  Y  Y14  1  0.186280  0.186280  0.813720  1
  Y  Y15  1  0.813720  0.813720  0.186280  1
  Cd  Cd16  1  0.580072  0.580072  0.580072  1
  Cd  Cd17  1  0.580072  0.580072  0.259783  1
  Cd  Cd18  1  0.580072  0.259783  0.580072  1
  Cd  Cd19  1  0.259783  0.580072  0.580072  1
  Pt  Pt20  1  0.141615  0.141615  0.141615  1
  Pt  Pt21  1  0.141615  0.141615  0.575155  1
  Pt  Pt22  1  0.141615  0.575155  0.141615  1
  Pt  Pt23  1  0.575155  0.141615  0.141615  1
