# generated using pymatgen
data_Li2La3GaPd3
_symmetry_space_group_name_H-M   'P 1'
_cell_length_a   7.59654400
_cell_length_b   7.49541623
_cell_length_c   4.06892400
_cell_angle_alpha   90.00000000
_cell_angle_beta   90.00000000
_cell_angle_gamma   119.56059671
_symmetry_Int_Tables_number   1
_chemical_formula_structural   Li2La3GaPd3
_chemical_formula_sum   'Li2 La3 Ga1 Pd3'
_cell_volume   201.52455816
_cell_formula_units_Z   1
loop_
 _symmetry_equiv_pos_site_id
 _symmetry_equiv_pos_as_xyz
  1  'x, y, z'
loop_
 _atom_site_type_symbol
 _atom_site_label
 _atom_site_symmetry_multiplicity
 _atom_site_fract_x
 _atom_site_fract_y
 _atom_site_fract_z
 _atom_site_occupancy
  Li  Li0  1  0.773720  0.771207  0.000000  1
  Li  Li1  1  0.226280  0.997486  0.000000  1
  La  La2  1  0.401817  0.409642  0.500000  1
  La  La3  1  0.598183  0.007825  0.500000  1
  La  La4  1  0.000000  0.573523  0.500000  1
  Ga  Ga5  1  0.000000  0.233933  0.000000  1
  Pd  Pd6  1  0.672519  0.332600  0.000000  1
  Pd  Pd7  1  0.327481  0.660083  0.000000  1
  Pd  Pd8  1  0.000000  0.013702  0.500000  1
