# generated using pymatgen
data_Y(MnC)4
_symmetry_space_group_name_H-M   'P 1'
_cell_length_a   5.60935442
_cell_length_b   5.60935346
_cell_length_c   5.60935308
_cell_angle_alpha   94.89241752
_cell_angle_beta   94.89242625
_cell_angle_gamma   146.04016487
_symmetry_Int_Tables_number   1
_chemical_formula_structural   Y(MnC)4
_chemical_formula_sum   'Y1 Mn4 C4'
_cell_volume   94.29557770
_cell_formula_units_Z   1
loop_
 _symmetry_equiv_pos_site_id
 _symmetry_equiv_pos_as_xyz
  1  'x, y, z'
loop_
 _atom_site_type_symbol
 _atom_site_label
 _atom_site_symmetry_multiplicity
 _atom_site_fract_x
 _atom_site_fract_y
 _atom_site_fract_z
 _atom_site_occupancy
  Y  Y0  1  0.000000  0.000000  0.000000  1
  Mn  Mn1  1  0.637533  0.820228  0.457761  1
  Mn  Mn2  1  0.362467  0.179772  0.542239  1
  Mn  Mn3  1  0.820228  0.362467  0.182693  1
  Mn  Mn4  1  0.179772  0.637533  0.817307  1
  C  C5  1  0.244634  0.399526  0.644159  1
  C  C6  1  0.755366  0.600474  0.355841  1
  C  C7  1  0.399526  0.755366  0.154892  1
  C  C8  1  0.600474  0.244634  0.845108  1
