# generated using pymatgen
data_Sc6MnAl14(Si2Ru)5
_symmetry_space_group_name_H-M   'P 1'
_cell_length_a   8.43681990
_cell_length_b   8.44660654
_cell_length_c   9.05318008
_cell_angle_alpha   90.00000233
_cell_angle_beta   90.14783775
_cell_angle_gamma   120.03838120
_symmetry_Int_Tables_number   1
_chemical_formula_structural   Sc6MnAl14(Si2Ru)5
_chemical_formula_sum   'Sc6 Mn1 Al14 Si10 Ru5'
_cell_volume   558.49952659
_cell_formula_units_Z   1
loop_
 _symmetry_equiv_pos_site_id
 _symmetry_equiv_pos_as_xyz
  1  'x, y, z'
loop_
 _atom_site_type_symbol
 _atom_site_label
 _atom_site_symmetry_multiplicity
 _atom_site_fract_x
 _atom_site_fract_y
 _atom_site_fract_z
 _atom_site_occupancy
  Sc  Sc0  1  0.196346  0.799031  0.248761  1
  Sc  Sc1  1  0.196346  0.397315  0.248761  1
  Sc  Sc2  1  0.602074  0.801037  0.248076  1
  Sc  Sc3  1  0.803654  0.200969  0.751239  1
  Sc  Sc4  1  0.803654  0.602685  0.751239  1
  Sc  Sc5  1  0.397926  0.198963  0.751924  1
  Mn  Mn6  1  0.000000  0.500000  0.000000  1
  Al  Al7  1  0.157039  0.836603  0.920985  1
  Al  Al8  1  0.157039  0.320436  0.920985  1
  Al  Al9  1  0.683064  0.841532  0.920190  1
  Al  Al10  1  0.842961  0.163397  0.079015  1
  Al  Al11  1  0.842961  0.679564  0.079015  1
  Al  Al12  1  0.316936  0.158468  0.079810  1
  Al  Al13  1  0.841031  0.159070  0.419249  1
  Al  Al14  1  0.841031  0.681961  0.419249  1
  Al  Al15  1  0.316611  0.158305  0.419664  1
  Al  Al16  1  0.158969  0.840930  0.580751  1
  Al  Al17  1  0.158969  0.318039  0.580751  1
  Al  Al18  1  0.683389  0.841695  0.580336  1
  Al  Al19  1  0.000531  0.000265  0.249575  1
  Al  Al20  1  0.999469  0.999735  0.750425  1
  Si  Si21  1  0.565456  0.433845  0.249779  1
  Si  Si22  1  0.565456  0.131611  0.249779  1
  Si  Si23  1  0.873892  0.436946  0.244098  1
  Si  Si24  1  0.434544  0.566155  0.750221  1
  Si  Si25  1  0.434544  0.868389  0.750221  1
  Si  Si26  1  0.126108  0.563054  0.755902  1
  Si  Si27  1  0.333227  0.666614  0.453175  1
  Si  Si28  1  0.666773  0.333386  0.546825  1
  Si  Si29  1  0.674525  0.337262  0.956208  1
  Si  Si30  1  0.325475  0.662738  0.043792  1
  Ru  Ru31  1  0.500000  0.500000  0.500000  1
  Ru  Ru32  1  0.500000  0.000000  0.500000  1
  Ru  Ru33  1  0.000000  0.500000  0.500000  1
  Ru  Ru34  1  0.500000  0.500000  0.000000  1
  Ru  Ru35  1  0.500000  0.000000  0.000000  1
