# generated using pymatgen
data_Er2ThGa3NiRh2
_symmetry_space_group_name_H-M   'P 1'
_cell_length_a   7.16367900
_cell_length_b   7.10071209
_cell_length_c   3.84423400
_cell_angle_alpha   90.00000000
_cell_angle_beta   90.00000000
_cell_angle_gamma   120.29378161
_symmetry_Int_Tables_number   1
_chemical_formula_structural   Er2ThGa3NiRh2
_chemical_formula_sum   'Er2 Th1 Ga3 Ni1 Rh2'
_cell_volume   168.84382506
_cell_formula_units_Z   1
loop_
 _symmetry_equiv_pos_site_id
 _symmetry_equiv_pos_as_xyz
  1  'x, y, z'
loop_
 _atom_site_type_symbol
 _atom_site_label
 _atom_site_symmetry_multiplicity
 _atom_site_fract_x
 _atom_site_fract_y
 _atom_site_fract_z
 _atom_site_occupancy
  Er  Er0  1  0.998048  0.407607  0.500000  1
  Er  Er1  1  0.590442  0.592393  0.500000  1
  Th  Th2  1  0.417239  0.000000  0.500000  1
  Ga  Ga3  1  0.986931  0.750022  0.000000  1
  Ga  Ga4  1  0.236909  0.249978  0.000000  1
  Ga  Ga5  1  0.775034  0.000000  0.000000  1
  Ni  Ni6  1  0.006225  0.000000  0.500000  1
  Rh  Rh7  1  0.332971  0.676769  0.000000  1
  Rh  Rh8  1  0.656203  0.323231  0.000000  1
