# generated using pymatgen
data_Li13InHg4
_symmetry_space_group_name_H-M   'P 1'
_cell_length_a   4.59820900
_cell_length_b   4.59821128
_cell_length_c   17.45586100
_cell_angle_alpha   90.00000000
_cell_angle_beta   90.00000000
_cell_angle_gamma   120.00001954
_symmetry_Int_Tables_number   1
_chemical_formula_structural   Li13InHg4
_chemical_formula_sum   'Li13 In1 Hg4'
_cell_volume   319.63141043
_cell_formula_units_Z   1
loop_
 _symmetry_equiv_pos_site_id
 _symmetry_equiv_pos_as_xyz
  1  'x, y, z'
loop_
 _atom_site_type_symbol
 _atom_site_label
 _atom_site_symmetry_multiplicity
 _atom_site_fract_x
 _atom_site_fract_y
 _atom_site_fract_z
 _atom_site_occupancy
  Li  Li0  1  0.000000  0.000000  0.497870  1
  Li  Li1  1  0.000000  0.000000  0.669472  1
  Li  Li2  1  0.000000  0.000000  0.328784  1
  Li  Li3  1  0.000000  0.000000  0.834980  1
  Li  Li4  1  0.000000  0.000000  0.164205  1
  Li  Li5  1  0.333333  0.666667  0.946075  1
  Li  Li6  1  0.666667  0.333333  0.055319  1
  Li  Li7  1  0.333333  0.666667  0.448126  1
  Li  Li8  1  0.666667  0.333333  0.554070  1
  Li  Li9  1  0.333333  0.666667  0.283160  1
  Li  Li10  1  0.666667  0.333333  0.719378  1
  Li  Li11  1  0.333333  0.666667  0.114479  1
  Li  Li12  1  0.666667  0.333333  0.886859  1
  In  In13  1  0.666667  0.333333  0.389929  1
  Hg  Hg14  1  0.000000  0.000000  0.000076  1
  Hg  Hg15  1  0.333333  0.666667  0.784818  1
  Hg  Hg16  1  0.666667  0.333333  0.216336  1
  Hg  Hg17  1  0.333333  0.666667  0.606065  1
