# generated using pymatgen
data_CaNd4Si2Sn
_symmetry_space_group_name_H-M   'P 1'
_cell_length_a   9.14982109
_cell_length_b   9.14982007
_cell_length_c   9.14982074
_cell_angle_alpha   128.92177253
_cell_angle_beta   128.92177314
_cell_angle_gamma   75.13648266
_symmetry_Int_Tables_number   1
_chemical_formula_structural   CaNd4Si2Sn
_chemical_formula_sum   'Ca2 Nd8 Si4 Sn2'
_cell_volume   451.41683171
_cell_formula_units_Z   2
loop_
 _symmetry_equiv_pos_site_id
 _symmetry_equiv_pos_as_xyz
  1  'x, y, z'
loop_
 _atom_site_type_symbol
 _atom_site_label
 _atom_site_symmetry_multiplicity
 _atom_site_fract_x
 _atom_site_fract_y
 _atom_site_fract_z
 _atom_site_occupancy
  Ca  Ca0  1  0.000000  0.000000  0.000000  1
  Ca  Ca1  1  0.500000  0.500000  0.000000  1
  Nd  Nd2  1  0.815575  0.315575  0.852372  1
  Nd  Nd3  1  0.184425  0.684425  0.147628  1
  Nd  Nd4  1  0.463202  0.963202  0.147628  1
  Nd  Nd5  1  0.315575  0.463202  0.500000  1
  Nd  Nd6  1  0.036798  0.184425  0.500000  1
  Nd  Nd7  1  0.536798  0.036798  0.852372  1
  Nd  Nd8  1  0.684425  0.536798  0.500000  1
  Nd  Nd9  1  0.963202  0.815575  0.500000  1
  Si  Si10  1  0.114881  0.614881  0.729763  1
  Si  Si11  1  0.885119  0.385119  0.270237  1
  Si  Si12  1  0.614881  0.885119  0.500000  1
  Si  Si13  1  0.385119  0.114881  0.500000  1
  Sn  Sn14  1  0.250000  0.250000  0.000000  1
  Sn  Sn15  1  0.750000  0.750000  0.000000  1
