# generated using pymatgen
data_Tb2Yb3Sn4
_symmetry_space_group_name_H-M   'P 1'
_cell_length_a   7.85073300
_cell_length_b   8.43071500
_cell_length_c   16.09280000
_cell_angle_alpha   90.00000000
_cell_angle_beta   90.00000000
_cell_angle_gamma   90.00000000
_symmetry_Int_Tables_number   1
_chemical_formula_structural   Tb2Yb3Sn4
_chemical_formula_sum   'Tb8 Yb12 Sn16'
_cell_volume   1065.13886017
_cell_formula_units_Z   4
loop_
 _symmetry_equiv_pos_site_id
 _symmetry_equiv_pos_as_xyz
  1  'x, y, z'
loop_
 _atom_site_type_symbol
 _atom_site_label
 _atom_site_symmetry_multiplicity
 _atom_site_fract_x
 _atom_site_fract_y
 _atom_site_fract_z
 _atom_site_occupancy
  Tb  Tb0  1  0.669233  0.167349  0.622109  1
  Tb  Tb1  1  0.169233  0.332651  0.877891  1
  Tb  Tb2  1  0.330767  0.832651  0.122109  1
  Tb  Tb3  1  0.830767  0.667349  0.377891  1
  Tb  Tb4  1  0.330767  0.832651  0.377891  1
  Tb  Tb5  1  0.830767  0.667349  0.122109  1
  Tb  Tb6  1  0.669233  0.167349  0.877891  1
  Tb  Tb7  1  0.169233  0.332651  0.622109  1
  Yb  Yb8  1  0.501548  0.687199  0.593293  1
  Yb  Yb9  1  0.001548  0.812801  0.906707  1
  Yb  Yb10  1  0.498452  0.312801  0.093293  1
  Yb  Yb11  1  0.998452  0.187199  0.406707  1
  Yb  Yb12  1  0.498452  0.312801  0.406707  1
  Yb  Yb13  1  0.998452  0.187199  0.093293  1
  Yb  Yb14  1  0.501548  0.687199  0.906707  1
  Yb  Yb15  1  0.001548  0.812801  0.593293  1
  Yb  Yb16  1  0.831778  0.511434  0.750000  1
  Yb  Yb17  1  0.331778  0.988566  0.750000  1
  Yb  Yb18  1  0.168222  0.488566  0.250000  1
  Yb  Yb19  1  0.668222  0.011434  0.250000  1
  Sn  Sn20  1  0.672275  0.964911  0.459678  1
  Sn  Sn21  1  0.172275  0.535089  0.040322  1
  Sn  Sn22  1  0.327725  0.035089  0.959678  1
  Sn  Sn23  1  0.827725  0.464911  0.540322  1
  Sn  Sn24  1  0.327725  0.035089  0.540322  1
  Sn  Sn25  1  0.827725  0.464911  0.959678  1
  Sn  Sn26  1  0.672275  0.964911  0.040322  1
  Sn  Sn27  1  0.172275  0.535089  0.459678  1
  Sn  Sn28  1  0.466407  0.377193  0.750000  1
  Sn  Sn29  1  0.966407  0.122807  0.750000  1
  Sn  Sn30  1  0.533593  0.622807  0.250000  1
  Sn  Sn31  1  0.033593  0.877193  0.250000  1
  Sn  Sn32  1  0.711301  0.872386  0.750000  1
  Sn  Sn33  1  0.211301  0.627614  0.750000  1
  Sn  Sn34  1  0.288699  0.127614  0.250000  1
  Sn  Sn35  1  0.788699  0.372386  0.250000  1
