# generated using pymatgen
data_Dy4Tm4Tc3B24Rh
_symmetry_space_group_name_H-M   'P 1'
_cell_length_a   3.65759500
_cell_length_b   9.11581665
_cell_length_c   11.50456543
_cell_angle_alpha   90.09698719
_cell_angle_beta   90.00000000
_cell_angle_gamma   90.00000000
_symmetry_Int_Tables_number   1
_chemical_formula_structural   Dy4Tm4Tc3B24Rh
_chemical_formula_sum   'Dy4 Tm4 Tc3 B24 Rh1'
_cell_volume   383.58427299
_cell_formula_units_Z   1
loop_
 _symmetry_equiv_pos_site_id
 _symmetry_equiv_pos_as_xyz
  1  'x, y, z'
loop_
 _atom_site_type_symbol
 _atom_site_label
 _atom_site_symmetry_multiplicity
 _atom_site_fract_x
 _atom_site_fract_y
 _atom_site_fract_z
 _atom_site_occupancy
  Dy  Dy0  1  0.500000  0.318377  0.415833  1
  Dy  Dy1  1  0.500000  0.678187  0.590884  1
  Dy  Dy2  1  0.500000  0.177499  0.912814  1
  Dy  Dy3  1  0.500000  0.826785  0.081434  1
  Tm  Tm4  1  0.500000  0.440490  0.128860  1
  Tm  Tm5  1  0.500000  0.557119  0.870953  1
  Tm  Tm6  1  0.500000  0.056175  0.629660  1
  Tm  Tm7  1  0.500000  0.943931  0.369725  1
  Tc  Tc8  1  0.500000  0.138935  0.180703  1
  Tc  Tc9  1  0.500000  0.861139  0.820221  1
  Tc  Tc10  1  0.500000  0.362149  0.678403  1
  B  B11  1  0.000000  0.100345  0.471713  1
  B  B12  1  0.000000  0.896554  0.527786  1
  B  B13  1  0.000000  0.398450  0.972384  1
  B  B14  1  0.000000  0.602642  0.028884  1
  B  B15  1  0.000000  0.130173  0.315232  1
  B  B16  1  0.000000  0.869051  0.685186  1
  B  B17  1  0.000000  0.369867  0.814493  1
  B  B18  1  0.000000  0.630993  0.183843  1
  B  B19  1  0.000000  0.053847  0.066779  1
  B  B20  1  0.000000  0.947052  0.932334  1
  B  B21  1  0.000000  0.446160  0.566834  1
  B  B22  1  0.000000  0.554187  0.433584  1
  B  B23  1  0.000000  0.482956  0.287561  1
  B  B24  1  0.000000  0.518230  0.712698  1
  B  B25  1  0.000000  0.017711  0.786719  1
  B  B26  1  0.000000  0.982679  0.212297  1
  B  B27  1  0.000000  0.249949  0.081548  1
  B  B28  1  0.000000  0.751104  0.918585  1
  B  B29  1  0.000000  0.249614  0.581266  1
  B  B30  1  0.000000  0.749742  0.419869  1
  B  B31  1  0.000000  0.291969  0.235342  1
  B  B32  1  0.000000  0.708020  0.765805  1
  B  B33  1  0.000000  0.208219  0.734235  1
  B  B34  1  0.000000  0.791401  0.264980  1
  Rh  Rh35  1  0.500000  0.638295  0.320552  1
