# generated using pymatgen
data_Hf4Al4ZnMo3
_symmetry_space_group_name_H-M   'P 1'
_cell_length_a   5.27978055
_cell_length_b   5.27977994
_cell_length_c   8.67422500
_cell_angle_alpha   90.00000000
_cell_angle_beta   90.00000000
_cell_angle_gamma   119.48749724
_symmetry_Int_Tables_number   1
_chemical_formula_structural   Hf4Al4ZnMo3
_chemical_formula_sum   'Hf4 Al4 Zn1 Mo3'
_cell_volume   210.48093135
_cell_formula_units_Z   1
loop_
 _symmetry_equiv_pos_site_id
 _symmetry_equiv_pos_as_xyz
  1  'x, y, z'
loop_
 _atom_site_type_symbol
 _atom_site_label
 _atom_site_symmetry_multiplicity
 _atom_site_fract_x
 _atom_site_fract_y
 _atom_site_fract_z
 _atom_site_occupancy
  Hf  Hf0  1  0.334008  0.665992  0.186610  1
  Hf  Hf1  1  0.665335  0.334665  0.316964  1
  Hf  Hf2  1  0.665335  0.334665  0.683036  1
  Hf  Hf3  1  0.334008  0.665992  0.813390  1
  Al  Al4  1  0.997654  0.002346  0.247159  1
  Al  Al5  1  0.997654  0.002346  0.752841  1
  Al  Al6  1  0.830683  0.652134  0.000000  1
  Al  Al7  1  0.347866  0.169317  0.000000  1
  Zn  Zn8  1  0.830174  0.169826  0.000000  1
  Mo  Mo9  1  0.169874  0.342621  0.500000  1
  Mo  Mo10  1  0.657379  0.830126  0.500000  1
  Mo  Mo11  1  0.170119  0.829881  0.500000  1
