# generated using pymatgen
data_Cd2IrRuO7
_symmetry_space_group_name_H-M   'P 1'
_cell_length_a   7.26238803
_cell_length_b   7.26730544
_cell_length_c   7.26238774
_cell_angle_alpha   59.97759674
_cell_angle_beta   59.96096222
_cell_angle_gamma   59.97760157
_symmetry_Int_Tables_number   1
_chemical_formula_structural   Cd2IrRuO7
_chemical_formula_sum   'Cd4 Ir2 Ru2 O14'
_cell_volume   270.85818305
_cell_formula_units_Z   2
loop_
 _symmetry_equiv_pos_site_id
 _symmetry_equiv_pos_as_xyz
  1  'x, y, z'
loop_
 _atom_site_type_symbol
 _atom_site_label
 _atom_site_symmetry_multiplicity
 _atom_site_fract_x
 _atom_site_fract_y
 _atom_site_fract_z
 _atom_site_occupancy
  Cd  Cd0  1  0.125000  0.625000  0.125000  1
  Cd  Cd1  1  0.125000  0.125000  0.625000  1
  Cd  Cd2  1  0.625000  0.125000  0.125000  1
  Cd  Cd3  1  0.125000  0.125000  0.125000  1
  Ir  Ir4  1  0.625000  0.625000  0.125000  1
  Ir  Ir5  1  0.125000  0.625000  0.625000  1
  Ru  Ru6  1  0.625000  0.125000  0.625000  1
  Ru  Ru7  1  0.625000  0.625000  0.625000  1
  O  O8  1  0.691282  0.699874  0.304562  1
  O  O9  1  0.945438  0.550126  0.558718  1
  O  O10  1  0.558718  0.945718  0.945438  1
  O  O11  1  0.945438  0.945718  0.558718  1
  O  O12  1  0.952457  0.547543  0.952457  1
  O  O13  1  0.562747  0.937253  0.562747  1
  O  O14  1  0.297543  0.702457  0.297543  1
  O  O15  1  0.304562  0.699874  0.691282  1
  O  O16  1  0.691282  0.304282  0.304562  1
  O  O17  1  0.687253  0.312747  0.687253  1
  O  O18  1  0.558718  0.550126  0.945438  1
  O  O19  1  0.304562  0.304282  0.691282  1
  O  O20  1  0.252518  0.247482  0.252518  1
  O  O21  1  0.997482  0.002518  0.997482  1
