# generated using pymatgen
data_ErLuCo12Si4P3
_symmetry_space_group_name_H-M   'P 1'
_cell_length_a   9.04534900
_cell_length_b   9.04534823
_cell_length_c   3.57178900
_cell_angle_alpha   90.00000000
_cell_angle_beta   90.00000000
_cell_angle_gamma   119.99999184
_symmetry_Int_Tables_number   1
_chemical_formula_structural   ErLuCo12Si4P3
_chemical_formula_sum   'Er1 Lu1 Co12 Si4 P3'
_cell_volume   253.08539409
_cell_formula_units_Z   1
loop_
 _symmetry_equiv_pos_site_id
 _symmetry_equiv_pos_as_xyz
  1  'x, y, z'
loop_
 _atom_site_type_symbol
 _atom_site_label
 _atom_site_symmetry_multiplicity
 _atom_site_fract_x
 _atom_site_fract_y
 _atom_site_fract_z
 _atom_site_occupancy
  Er  Er0  1  0.333333  0.666667  0.000000  1
  Lu  Lu1  1  0.666667  0.333333  0.500000  1
  Co  Co2  1  0.129699  0.849251  0.000000  1
  Co  Co3  1  0.380249  0.438623  0.500000  1
  Co  Co4  1  0.719552  0.870301  0.000000  1
  Co  Co5  1  0.561377  0.941627  0.500000  1
  Co  Co6  1  0.235229  0.104219  0.500000  1
  Co  Co7  1  0.868990  0.764771  0.500000  1
  Co  Co8  1  0.895781  0.131010  0.500000  1
  Co  Co9  1  0.944599  0.381135  0.000000  1
  Co  Co10  1  0.618865  0.563463  0.000000  1
  Co  Co11  1  0.436537  0.055401  0.000000  1
  Co  Co12  1  0.058373  0.619751  0.500000  1
  Co  Co13  1  0.150749  0.280448  0.000000  1
  Si  Si14  1  0.000000  0.000000  0.000000  1
  Si  Si15  1  0.713090  0.113129  0.000000  1
  Si  Si16  1  0.886871  0.599961  0.000000  1
  Si  Si17  1  0.400039  0.286910  0.000000  1
  P  P18  1  0.597845  0.707113  0.500000  1
  P  P19  1  0.292887  0.890732  0.500000  1
  P  P20  1  0.109268  0.402155  0.500000  1
