# generated using pymatgen
data_Tm8Cd2CoIr
_symmetry_space_group_name_H-M   'P 1'
_cell_length_a   9.43906935
_cell_length_b   9.43906982
_cell_length_c   9.50288200
_cell_angle_alpha   59.77611361
_cell_angle_beta   59.77611197
_cell_angle_gamma   59.56254522
_symmetry_Int_Tables_number   1
_chemical_formula_structural   Tm8Cd2CoIr
_chemical_formula_sum   'Tm16 Cd4 Co2 Ir2'
_cell_volume   594.66726957
_cell_formula_units_Z   2
loop_
 _symmetry_equiv_pos_site_id
 _symmetry_equiv_pos_as_xyz
  1  'x, y, z'
loop_
 _atom_site_type_symbol
 _atom_site_label
 _atom_site_symmetry_multiplicity
 _atom_site_fract_x
 _atom_site_fract_y
 _atom_site_fract_z
 _atom_site_occupancy
  Tm  Tm0  1  0.349932  0.349932  0.338991  1
  Tm  Tm1  1  0.349932  0.349932  0.961147  1
  Tm  Tm2  1  0.356493  0.954878  0.344315  1
  Tm  Tm3  1  0.954878  0.356493  0.344315  1
  Tm  Tm4  1  0.805798  0.186937  0.189946  1
  Tm  Tm5  1  0.186937  0.805798  0.817321  1
  Tm  Tm6  1  0.186937  0.805798  0.189946  1
  Tm  Tm7  1  0.805798  0.186937  0.817321  1
  Tm  Tm8  1  0.188978  0.188978  0.811022  1
  Tm  Tm9  1  0.811666  0.811666  0.188334  1
  Tm  Tm10  1  0.938688  0.561182  0.563464  1
  Tm  Tm11  1  0.561182  0.938688  0.936666  1
  Tm  Tm12  1  0.561182  0.938688  0.563464  1
  Tm  Tm13  1  0.938688  0.561182  0.936666  1
  Tm  Tm14  1  0.564178  0.564178  0.935822  1
  Tm  Tm15  1  0.940249  0.940249  0.559751  1
  Cd  Cd16  1  0.579558  0.579558  0.582698  1
  Cd  Cd17  1  0.579558  0.579558  0.258188  1
  Cd  Cd18  1  0.579536  0.256436  0.582015  1
  Cd  Cd19  1  0.256436  0.579536  0.582015  1
  Co  Co20  1  0.141520  0.577973  0.140254  1
  Co  Co21  1  0.577973  0.141520  0.140254  1
  Ir  Ir22  1  0.141955  0.141955  0.141828  1
  Ir  Ir23  1  0.141955  0.141955  0.574261  1
