# generated using pymatgen
data_Cu2Ni3RhS8
_symmetry_space_group_name_H-M   'P 1'
_cell_length_a   6.84861162
_cell_length_b   6.84861147
_cell_length_c   6.84861104
_cell_angle_alpha   59.67596669
_cell_angle_beta   59.67596610
_cell_angle_gamma   59.67596731
_symmetry_Int_Tables_number   1
_chemical_formula_structural   Cu2Ni3RhS8
_chemical_formula_sum   'Cu2 Ni3 Rh1 S8'
_cell_volume   225.46737008
_cell_formula_units_Z   1
loop_
 _symmetry_equiv_pos_site_id
 _symmetry_equiv_pos_as_xyz
  1  'x, y, z'
loop_
 _atom_site_type_symbol
 _atom_site_label
 _atom_site_symmetry_multiplicity
 _atom_site_fract_x
 _atom_site_fract_y
 _atom_site_fract_z
 _atom_site_occupancy
  Cu  Cu0  1  0.750593  0.750593  0.750593  1
  Cu  Cu1  1  0.499407  0.499407  0.499407  1
  Ni  Ni2  1  0.125000  0.125000  0.625000  1
  Ni  Ni3  1  0.125000  0.625000  0.125000  1
  Ni  Ni4  1  0.625000  0.125000  0.125000  1
  Rh  Rh5  1  0.125000  0.125000  0.125000  1
  S  S6  1  0.882041  0.340924  0.882041  1
  S  S7  1  0.367959  0.367959  0.909076  1
  S  S8  1  0.362762  0.362762  0.362762  1
  S  S9  1  0.909076  0.367959  0.367959  1
  S  S10  1  0.887238  0.887238  0.887238  1
  S  S11  1  0.340924  0.882041  0.882041  1
  S  S12  1  0.367959  0.909076  0.367959  1
  S  S13  1  0.882041  0.882041  0.340924  1
