# generated using pymatgen
data_Ga3Se3Br
_symmetry_space_group_name_H-M   'P 1'
_cell_length_a   10.63396800
_cell_length_b   3.84328900
_cell_length_c   19.29324900
_cell_angle_alpha   90.00000000
_cell_angle_beta   90.00000000
_cell_angle_gamma   90.00000000
_symmetry_Int_Tables_number   1
_chemical_formula_structural   Ga3Se3Br
_chemical_formula_sum   'Ga12 Se12 Br4'
_cell_volume   788.50374684
_cell_formula_units_Z   4
loop_
 _symmetry_equiv_pos_site_id
 _symmetry_equiv_pos_as_xyz
  1  'x, y, z'
loop_
 _atom_site_type_symbol
 _atom_site_label
 _atom_site_symmetry_multiplicity
 _atom_site_fract_x
 _atom_site_fract_y
 _atom_site_fract_z
 _atom_site_occupancy
  Ga  Ga0  1  0.827196  0.749999  0.008437  1
  Ga  Ga1  1  0.048149  0.250000  0.098595  1
  Ga  Ga2  1  0.333062  0.749999  0.129252  1
  Ga  Ga3  1  0.833062  0.749999  0.370748  1
  Ga  Ga4  1  0.548149  0.250000  0.401405  1
  Ga  Ga5  1  0.327196  0.749999  0.491563  1
  Ga  Ga6  1  0.672804  0.250000  0.508437  1
  Ga  Ga7  1  0.451851  0.749999  0.598595  1
  Ga  Ga8  1  0.166937  0.250000  0.629251  1
  Ga  Ga9  1  0.666938  0.250000  0.870748  1
  Ga  Ga10  1  0.951851  0.749999  0.901405  1
  Ga  Ga11  1  0.172804  0.250000  0.991563  1
  Se  Se12  1  0.676144  0.250000  0.998811  1
  Se  Se13  1  0.908473  0.749999  0.128745  1
  Se  Se14  1  0.224026  0.250000  0.184432  1
  Se  Se15  1  0.724026  0.250000  0.315568  1
  Se  Se16  1  0.408473  0.749999  0.371255  1
  Se  Se17  1  0.176144  0.250000  0.501189  1
  Se  Se18  1  0.823856  0.749999  0.498810  1
  Se  Se19  1  0.591527  0.250000  0.628745  1
  Se  Se20  1  0.275974  0.749999  0.684432  1
  Se  Se21  1  0.775974  0.749999  0.815568  1
  Se  Se22  1  0.091527  0.250000  0.871256  1
  Se  Se23  1  0.323856  0.749999  0.001190  1
  Br  Br24  1  0.541982  0.749999  0.166342  1
  Br  Br25  1  0.041982  0.749999  0.333658  1
  Br  Br26  1  0.958018  0.250000  0.666342  1
  Br  Br27  1  0.458018  0.250000  0.833658  1
