# generated using pymatgen
data_Rb5SmO4
_symmetry_space_group_name_H-M   'P 1'
_cell_length_a   6.66638500
_cell_length_b   8.58106000
_cell_length_c   9.28915000
_cell_angle_alpha   90.00000000
_cell_angle_beta   90.00000000
_cell_angle_gamma   90.00000000
_symmetry_Int_Tables_number   1
_chemical_formula_structural   Rb5SmO4
_chemical_formula_sum   'Rb10 Sm2 O8'
_cell_volume   531.38257146
_cell_formula_units_Z   2
loop_
 _symmetry_equiv_pos_site_id
 _symmetry_equiv_pos_as_xyz
  1  'x, y, z'
loop_
 _atom_site_type_symbol
 _atom_site_label
 _atom_site_symmetry_multiplicity
 _atom_site_fract_x
 _atom_site_fract_y
 _atom_site_fract_z
 _atom_site_occupancy
  Rb  Rb0  1  0.256760  0.763003  0.811517  1
  Rb  Rb1  1  0.256760  0.236997  0.811517  1
  Rb  Rb2  1  0.817199  0.500000  0.000000  1
  Rb  Rb3  1  0.256760  0.763003  0.188483  1
  Rb  Rb4  1  0.256760  0.236997  0.188483  1
  Rb  Rb5  1  0.743240  0.736997  0.311517  1
  Rb  Rb6  1  0.743240  0.263003  0.311517  1
  Rb  Rb7  1  0.182801  0.000000  0.500000  1
  Rb  Rb8  1  0.743240  0.736997  0.688483  1
  Rb  Rb9  1  0.743240  0.263003  0.688483  1
  Sm  Sm10  1  0.780274  0.000000  0.000000  1
  Sm  Sm11  1  0.219726  0.500000  0.500000  1
  O  O12  1  0.962846  0.000000  0.796078  1
  O  O13  1  0.602209  0.779100  0.000000  1
  O  O14  1  0.602209  0.220900  0.000000  1
  O  O15  1  0.962846  0.000000  0.203922  1
  O  O16  1  0.037154  0.500000  0.296078  1
  O  O17  1  0.397791  0.720900  0.500000  1
  O  O18  1  0.397791  0.279100  0.500000  1
  O  O19  1  0.037154  0.500000  0.703922  1
