# generated using pymatgen
data_Ta5Nb3Cr2(SiB2)2
_symmetry_space_group_name_H-M   'P 1'
_cell_length_a   7.20433441
_cell_length_b   7.20439833
_cell_length_c   7.20407802
_cell_angle_alpha   129.98914728
_cell_angle_beta   129.98414358
_cell_angle_gamma   73.41818879
_symmetry_Int_Tables_number   1
_chemical_formula_structural   Ta5Nb3Cr2(SiB2)2
_chemical_formula_sum   'Ta5 Nb3 Cr2 Si2 B4'
_cell_volume   214.26192069
_cell_formula_units_Z   1
loop_
 _symmetry_equiv_pos_site_id
 _symmetry_equiv_pos_as_xyz
  1  'x, y, z'
loop_
 _atom_site_type_symbol
 _atom_site_label
 _atom_site_symmetry_multiplicity
 _atom_site_fract_x
 _atom_site_fract_y
 _atom_site_fract_z
 _atom_site_occupancy
  Ta  Ta0  1  0.806518  0.306643  0.840424  1
  Ta  Ta1  1  0.193375  0.693498  0.159439  1
  Ta  Ta2  1  0.466167  0.966326  0.159472  1
  Ta  Ta3  1  0.306674  0.465866  0.499843  1
  Ta  Ta4  1  0.033581  0.193473  0.500259  1
  Nb  Nb5  1  0.533423  0.033577  0.840645  1
  Nb  Nb6  1  0.693062  0.533203  0.500336  1
  Nb  Nb7  1  0.966231  0.807011  0.499824  1
  Cr  Cr8  1  0.000119  0.999986  0.000065  1
  Cr  Cr9  1  0.499988  0.499934  0.999987  1
  Si  Si10  1  0.249744  0.250185  0.000014  1
  Si  Si11  1  0.750087  0.749849  0.000043  1
  B  B12  1  0.121576  0.619461  0.740899  1
  B  B13  1  0.881731  0.379619  0.260835  1
  B  B14  1  0.618344  0.881230  0.498958  1
  B  B15  1  0.379382  0.120139  0.498956  1
