# generated using pymatgen
data_Ce2Sm(SnRh)3
_symmetry_space_group_name_H-M   'P 1'
_cell_length_a   7.54674904
_cell_length_b   7.50307427
_cell_length_c   4.05324000
_cell_angle_alpha   90.00000000
_cell_angle_beta   90.00000000
_cell_angle_gamma   119.80874552
_symmetry_Int_Tables_number   1
_chemical_formula_structural   Ce2Sm(SnRh)3
_chemical_formula_sum   'Ce2 Sm1 Sn3 Rh3'
_cell_volume   199.14337299
_cell_formula_units_Z   1
loop_
 _symmetry_equiv_pos_site_id
 _symmetry_equiv_pos_as_xyz
  1  'x, y, z'
loop_
 _atom_site_type_symbol
 _atom_site_label
 _atom_site_symmetry_multiplicity
 _atom_site_fract_x
 _atom_site_fract_y
 _atom_site_fract_z
 _atom_site_occupancy
  Ce  Ce0  1  0.413170  0.413387  0.500000  1
  Ce  Ce1  1  0.586830  0.000216  0.500000  1
  Sm  Sm2  1  0.000000  0.590952  0.500000  1
  Sn  Sn3  1  0.750303  0.745860  0.000000  1
  Sn  Sn4  1  0.249697  0.995557  0.000000  1
  Sn  Sn5  1  0.000000  0.257915  0.000000  1
  Rh  Rh6  1  0.654321  0.322877  0.000000  1
  Rh  Rh7  1  0.345679  0.668558  0.000000  1
  Rh  Rh8  1  0.000000  0.004679  0.500000  1
