# generated using pymatgen
data_TbPrTi3P7Rh9
_symmetry_space_group_name_H-M   'P 1'
_cell_length_a   3.87787600
_cell_length_b   9.68774016
_cell_length_c   9.69516448
_cell_angle_alpha   120.07412781
_cell_angle_beta   90.00526264
_cell_angle_gamma   89.99819033
_symmetry_Int_Tables_number   1
_chemical_formula_structural   TbPrTi3P7Rh9
_chemical_formula_sum   'Tb1 Pr1 Ti3 P7 Rh9'
_cell_volume   315.19355268
_cell_formula_units_Z   1
loop_
 _symmetry_equiv_pos_site_id
 _symmetry_equiv_pos_as_xyz
  1  'x, y, z'
loop_
 _atom_site_type_symbol
 _atom_site_label
 _atom_site_symmetry_multiplicity
 _atom_site_fract_x
 _atom_site_fract_y
 _atom_site_fract_z
 _atom_site_occupancy
  Tb  Tb0  1  0.761822  0.333345  0.666680  1
  Pr  Pr1  1  0.261903  0.666704  0.333370  1
  Ti  Ti2  1  0.761920  0.100286  0.880659  1
  Ti  Ti3  1  0.761940  0.119269  0.219592  1
  Ti  Ti4  1  0.761933  0.780475  0.899795  1
  P  P5  1  0.262057  0.000126  0.999996  1
  P  P6  1  0.761911  0.883077  0.595828  1
  P  P7  1  0.761913  0.404317  0.287289  1
  P  P8  1  0.761898  0.712766  0.117111  1
  P  P9  1  0.261863  0.116262  0.416796  1
  P  P10  1  0.261873  0.583098  0.699361  1
  P  P11  1  0.261871  0.300515  0.883789  1
  Rh  Rh12  1  0.261893  0.884722  0.160513  1
  Rh  Rh13  1  0.261925  0.839376  0.724073  1
  Rh  Rh14  1  0.261915  0.275999  0.115358  1
  Rh  Rh15  1  0.761907  0.608415  0.563145  1
  Rh  Rh16  1  0.761900  0.436831  0.045440  1
  Rh  Rh17  1  0.761944  0.954676  0.391499  1
  Rh  Rh18  1  0.261806  0.365447  0.436468  1
  Rh  Rh19  1  0.261833  0.563361  0.928942  1
  Rh  Rh20  1  0.261972  0.070931  0.634298  1
