# generated using pymatgen
data_YHo11(CoRh)2
_symmetry_space_group_name_H-M   'P 1'
_cell_length_a   6.24692104
_cell_length_b   7.06639994
_cell_length_c   9.40613400
_cell_angle_alpha   90.00000000
_cell_angle_beta   90.00000000
_cell_angle_gamma   90.25126690
_symmetry_Int_Tables_number   1
_chemical_formula_structural   YHo11(CoRh)2
_chemical_formula_sum   'Y1 Ho11 Co2 Rh2'
_cell_volume   415.21326069
_cell_formula_units_Z   1
loop_
 _symmetry_equiv_pos_site_id
 _symmetry_equiv_pos_as_xyz
  1  'x, y, z'
loop_
 _atom_site_type_symbol
 _atom_site_label
 _atom_site_symmetry_multiplicity
 _atom_site_fract_x
 _atom_site_fract_y
 _atom_site_fract_z
 _atom_site_occupancy
  Y  Y0  1  0.858556  0.529280  0.250000  1
  Ho  Ho1  1  0.627998  0.044313  0.250000  1
  Ho  Ho2  1  0.371493  0.955646  0.750000  1
  Ho  Ho3  1  0.142767  0.469118  0.750000  1
  Ho  Ho4  1  0.177181  0.180718  0.063796  1
  Ho  Ho5  1  0.823244  0.819027  0.935367  1
  Ho  Ho6  1  0.672733  0.328501  0.933528  1
  Ho  Ho7  1  0.823244  0.819027  0.564633  1
  Ho  Ho8  1  0.327319  0.671697  0.065773  1
  Ho  Ho9  1  0.177181  0.180718  0.436204  1
  Ho  Ho10  1  0.327319  0.671697  0.434227  1
  Ho  Ho11  1  0.672733  0.328501  0.566472  1
  Co  Co12  1  0.444900  0.382931  0.250000  1
  Co  Co13  1  0.551489  0.616537  0.750000  1
  Rh  Rh14  1  0.950374  0.114546  0.750000  1
  Rh  Rh15  1  0.051468  0.887743  0.250000  1
