# generated using pymatgen
data_PrTaNb5Cl18
_symmetry_space_group_name_H-M   'P 1'
_cell_length_a   10.30144339
_cell_length_b   10.30184297
_cell_length_c   10.30100725
_cell_angle_alpha   55.87592977
_cell_angle_beta   55.87417651
_cell_angle_gamma   55.86428608
_symmetry_Int_Tables_number   1
_chemical_formula_structural   PrTaNb5Cl18
_chemical_formula_sum   'Pr1 Ta1 Nb5 Cl18'
_cell_volume   699.02001979
_cell_formula_units_Z   1
loop_
 _symmetry_equiv_pos_site_id
 _symmetry_equiv_pos_as_xyz
  1  'x, y, z'
loop_
 _atom_site_type_symbol
 _atom_site_label
 _atom_site_symmetry_multiplicity
 _atom_site_fract_x
 _atom_site_fract_y
 _atom_site_fract_z
 _atom_site_occupancy
  Pr  Pr0  1  0.999392  0.999565  0.000379  1
  Ta  Ta1  1  0.410649  0.301102  0.648231  1
  Nb  Nb2  1  0.351620  0.589794  0.699080  1
  Nb  Nb3  1  0.699503  0.351744  0.589298  1
  Nb  Nb4  1  0.300822  0.648778  0.410275  1
  Nb  Nb5  1  0.648721  0.410698  0.300502  1
  Nb  Nb6  1  0.589943  0.699857  0.350998  1
  Cl  Cl7  1  0.566958  0.165508  0.443592  1
  Cl  Cl8  1  0.227566  0.369012  0.902564  1
  Cl  Cl9  1  0.904142  0.226377  0.370774  1
  Cl  Cl10  1  0.370734  0.904184  0.226594  1
  Cl  Cl11  1  0.773595  0.629410  0.095751  1
  Cl  Cl12  1  0.095787  0.773260  0.629460  1
  Cl  Cl13  1  0.694812  0.957242  0.164350  1
  Cl  Cl14  1  0.956212  0.164127  0.695250  1
  Cl  Cl15  1  0.164918  0.694413  0.956541  1
  Cl  Cl16  1  0.306053  0.047292  0.832889  1
  Cl  Cl17  1  0.043710  0.834613  0.305289  1
  Cl  Cl18  1  0.835153  0.304322  0.044194  1
  Cl  Cl19  1  0.559082  0.430949  0.834639  1
  Cl  Cl20  1  0.167113  0.438427  0.570538  1
  Cl  Cl21  1  0.440855  0.568742  0.165526  1
  Cl  Cl22  1  0.431155  0.834692  0.559014  1
  Cl  Cl23  1  0.834742  0.559211  0.430996  1
  Cl  Cl24  1  0.626767  0.096681  0.773274  1
