# generated using pymatgen
data_Tm4Be4Si3Ge
_symmetry_space_group_name_H-M   'P 1'
_cell_length_a   3.84935200
_cell_length_b   3.84935320
_cell_length_c   15.83343400
_cell_angle_alpha   90.00000000
_cell_angle_beta   90.00000000
_cell_angle_gamma   119.99998973
_symmetry_Int_Tables_number   1
_chemical_formula_structural   Tm4Be4Si3Ge
_chemical_formula_sum   'Tm4 Be4 Si3 Ge1'
_cell_volume   203.18010508
_cell_formula_units_Z   1
loop_
 _symmetry_equiv_pos_site_id
 _symmetry_equiv_pos_as_xyz
  1  'x, y, z'
loop_
 _atom_site_type_symbol
 _atom_site_label
 _atom_site_symmetry_multiplicity
 _atom_site_fract_x
 _atom_site_fract_y
 _atom_site_fract_z
 _atom_site_occupancy
  Tm  Tm0  1  0.000000  0.000000  0.250597  1
  Tm  Tm1  1  0.000000  0.000000  0.747871  1
  Tm  Tm2  1  0.000000  0.000000  0.002169  1
  Tm  Tm3  1  0.000000  0.000000  0.499486  1
  Be  Be4  1  0.333333  0.666667  0.128421  1
  Be  Be5  1  0.666667  0.333333  0.870910  1
  Be  Be6  1  0.666667  0.333333  0.626779  1
  Be  Be7  1  0.333333  0.666667  0.372799  1
  Si  Si8  1  0.333333  0.666667  0.623730  1
  Si  Si9  1  0.666667  0.333333  0.375369  1
  Si  Si10  1  0.666667  0.333333  0.125608  1
  Ge  Ge11  1  0.333333  0.666667  0.876261  1
