# generated using pymatgen
data_TaNb2Ru3
_symmetry_space_group_name_H-M   'P 1'
_cell_length_a   13.73989200
_cell_length_b   3.08417100
_cell_length_c   4.57079600
_cell_angle_alpha   90.00000000
_cell_angle_beta   90.00000000
_cell_angle_gamma   90.00000000
_symmetry_Int_Tables_number   1
_chemical_formula_structural   TaNb2Ru3
_chemical_formula_sum   'Ta2 Nb4 Ru6'
_cell_volume   193.69285781
_cell_formula_units_Z   2
loop_
 _symmetry_equiv_pos_site_id
 _symmetry_equiv_pos_as_xyz
  1  'x, y, z'
loop_
 _atom_site_type_symbol
 _atom_site_label
 _atom_site_symmetry_multiplicity
 _atom_site_fract_x
 _atom_site_fract_y
 _atom_site_fract_z
 _atom_site_occupancy
  Ta  Ta0  1  0.750000  0.000000  0.313086  1
  Ta  Ta1  1  0.250000  0.000000  0.686913  1
  Nb  Nb2  1  0.075896  0.000000  0.194395  1
  Nb  Nb3  1  0.424105  0.000000  0.194395  1
  Nb  Nb4  1  0.575896  0.000000  0.805604  1
  Nb  Nb5  1  0.924104  0.000000  0.805604  1
  Ru  Ru6  1  0.250000  0.500000  0.184051  1
  Ru  Ru7  1  0.593826  0.500000  0.313063  1
  Ru  Ru8  1  0.906174  0.500000  0.313063  1
  Ru  Ru9  1  0.093826  0.500000  0.686936  1
  Ru  Ru10  1  0.406174  0.500000  0.686936  1
  Ru  Ru11  1  0.750000  0.500000  0.815949  1
