# generated using pymatgen
data_DyY5Ta2(Co4P3)4
_symmetry_space_group_name_H-M   'P 1'
_cell_length_a   3.71632000
_cell_length_b   10.64991505
_cell_length_c   12.34083806
_cell_angle_alpha   90.01155830
_cell_angle_beta   90.00000000
_cell_angle_gamma   90.00000000
_symmetry_Int_Tables_number   1
_chemical_formula_structural   DyY5Ta2(Co4P3)4
_chemical_formula_sum   'Dy1 Y5 Ta2 Co16 P12'
_cell_volume   488.43175448
_cell_formula_units_Z   1
loop_
 _symmetry_equiv_pos_site_id
 _symmetry_equiv_pos_as_xyz
  1  'x, y, z'
loop_
 _atom_site_type_symbol
 _atom_site_label
 _atom_site_symmetry_multiplicity
 _atom_site_fract_x
 _atom_site_fract_y
 _atom_site_fract_z
 _atom_site_occupancy
  Dy  Dy0  1  0.500000  0.820627  0.204977  1
  Y  Y1  1  0.000000  0.500062  0.526350  1
  Y  Y2  1  0.500000  0.999889  0.473571  1
  Y  Y3  1  0.500000  0.179635  0.204816  1
  Y  Y4  1  0.000000  0.679506  0.795093  1
  Y  Y5  1  0.000000  0.320398  0.795238  1
  Ta  Ta6  1  0.500000  0.500159  0.156141  1
  Ta  Ta7  1  0.000000  0.999929  0.843884  1
  Co  Co8  1  0.500000  0.500010  0.702203  1
  Co  Co9  1  0.000000  0.999661  0.297683  1
  Co  Co10  1  0.000000  0.500289  0.986974  1
  Co  Co11  1  0.500000  0.999738  0.013201  1
  Co  Co12  1  0.500000  0.332849  0.992376  1
  Co  Co13  1  0.500000  0.667442  0.992545  1
  Co  Co14  1  0.000000  0.167073  0.007738  1
  Co  Co15  1  0.000000  0.832693  0.007716  1
  Co  Co16  1  0.500000  0.295413  0.432112  1
  Co  Co17  1  0.500000  0.704542  0.431984  1
  Co  Co18  1  0.000000  0.204534  0.567786  1
  Co  Co19  1  0.000000  0.795460  0.567722  1
  Co  Co20  1  0.500000  0.877891  0.705916  1
  Co  Co21  1  0.500000  0.121989  0.705945  1
  Co  Co22  1  0.000000  0.622254  0.293910  1
  Co  Co23  1  0.000000  0.378042  0.294088  1
  P  P24  1  0.500000  0.500091  0.882089  1
  P  P25  1  0.000000  0.999767  0.118031  1
  P  P26  1  0.500000  0.499965  0.355849  1
  P  P27  1  0.000000  0.000024  0.644119  1
  P  P28  1  0.500000  0.310741  0.615678  1
  P  P29  1  0.500000  0.689267  0.615578  1
  P  P30  1  0.000000  0.189184  0.384275  1
  P  P31  1  0.000000  0.810648  0.384163  1
  P  P32  1  0.500000  0.841263  0.893313  1
  P  P33  1  0.500000  0.158592  0.893502  1
  P  P34  1  0.000000  0.658980  0.106894  1
  P  P35  1  0.000000  0.341397  0.106539  1
