# generated using pymatgen
data_Sm2Ho3Er(SiRh2)6
_symmetry_space_group_name_H-M   'P 1'
_cell_length_a   5.59039000
_cell_length_b   5.59038971
_cell_length_c   14.99787200
_cell_angle_alpha   90.00000000
_cell_angle_beta   90.00000000
_cell_angle_gamma   119.99998988
_symmetry_Int_Tables_number   1
_chemical_formula_structural   Sm2Ho3Er(SiRh2)6
_chemical_formula_sum   'Sm2 Ho3 Er1 Si6 Rh12'
_cell_volume   405.92379408
_cell_formula_units_Z   1
loop_
 _symmetry_equiv_pos_site_id
 _symmetry_equiv_pos_as_xyz
  1  'x, y, z'
loop_
 _atom_site_type_symbol
 _atom_site_label
 _atom_site_symmetry_multiplicity
 _atom_site_fract_x
 _atom_site_fract_y
 _atom_site_fract_z
 _atom_site_occupancy
  Sm  Sm0  1  0.333333  0.666667  0.749994  1
  Sm  Sm1  1  0.666667  0.333333  0.250006  1
  Ho  Ho2  1  0.333333  0.666667  0.537029  1
  Ho  Ho3  1  0.666667  0.333333  0.462972  1
  Ho  Ho4  1  0.666667  0.333333  0.037003  1
  Er  Er5  1  0.333333  0.666667  0.963023  1
  Si  Si6  1  0.000000  0.000000  0.249990  1
  Si  Si7  1  0.000000  0.000000  0.750007  1
  Si  Si8  1  0.333333  0.666667  0.249992  1
  Si  Si9  1  0.666667  0.333333  0.750000  1
  Si  Si10  1  0.000000  0.000000  0.000001  1
  Si  Si11  1  0.000000  0.000000  0.499997  1
  Rh  Rh12  1  0.166997  0.333994  0.129549  1
  Rh  Rh13  1  0.833050  0.666100  0.870450  1
  Rh  Rh14  1  0.666006  0.833003  0.129549  1
  Rh  Rh15  1  0.833040  0.666081  0.629581  1
  Rh  Rh16  1  0.333900  0.166950  0.870450  1
  Rh  Rh17  1  0.166966  0.333931  0.370416  1
  Rh  Rh18  1  0.166997  0.833003  0.129549  1
  Rh  Rh19  1  0.333919  0.166960  0.629581  1
  Rh  Rh20  1  0.833050  0.166950  0.870450  1
  Rh  Rh21  1  0.666069  0.833034  0.370416  1
  Rh  Rh22  1  0.833040  0.166960  0.629581  1
  Rh  Rh23  1  0.166966  0.833034  0.370416  1
