# generated using pymatgen
data_Dy5Si12Ir19
_symmetry_space_group_name_H-M   'P 1'
_cell_length_a   12.83576200
_cell_length_b   12.83576203
_cell_length_c   3.98785800
_cell_angle_alpha   90.00000000
_cell_angle_beta   90.00000000
_cell_angle_gamma   119.99999993
_symmetry_Int_Tables_number   1
_chemical_formula_structural   Dy5Si12Ir19
_chemical_formula_sum   'Dy5 Si12 Ir19'
_cell_volume   569.00178668
_cell_formula_units_Z   1
loop_
 _symmetry_equiv_pos_site_id
 _symmetry_equiv_pos_as_xyz
  1  'x, y, z'
loop_
 _atom_site_type_symbol
 _atom_site_label
 _atom_site_symmetry_multiplicity
 _atom_site_fract_x
 _atom_site_fract_y
 _atom_site_fract_z
 _atom_site_occupancy
  Dy  Dy0  1  0.333333  0.666667  0.500000  1
  Dy  Dy1  1  0.666667  0.333333  0.500000  1
  Dy  Dy2  1  0.000000  0.815339  0.000000  1
  Dy  Dy3  1  0.184661  0.184661  0.000000  1
  Dy  Dy4  1  0.815339  0.000000  0.000000  1
  Si  Si5  1  0.000000  0.632472  0.500000  1
  Si  Si6  1  0.367528  0.367528  0.500000  1
  Si  Si7  1  0.632472  0.000000  0.500000  1
  Si  Si8  1  0.518760  0.687484  0.000000  1
  Si  Si9  1  0.312516  0.831276  0.000000  1
  Si  Si10  1  0.168724  0.481240  0.000000  1
  Si  Si11  1  0.481240  0.168724  0.000000  1
  Si  Si12  1  0.687484  0.518760  0.000000  1
  Si  Si13  1  0.831276  0.312516  0.000000  1
  Si  Si14  1  0.000000  0.181696  0.500000  1
  Si  Si15  1  0.818304  0.818304  0.500000  1
  Si  Si16  1  0.181696  0.000000  0.500000  1
  Ir  Ir17  1  0.512563  0.873529  0.000000  1
  Ir  Ir18  1  0.126471  0.639034  0.000000  1
  Ir  Ir19  1  0.360966  0.487437  0.000000  1
  Ir  Ir20  1  0.487437  0.360966  0.000000  1
  Ir  Ir21  1  0.873529  0.512563  0.000000  1
  Ir  Ir22  1  0.639034  0.126471  0.000000  1
  Ir  Ir23  1  0.000000  0.447728  0.500000  1
  Ir  Ir24  1  0.552272  0.552272  0.500000  1
  Ir  Ir25  1  0.447728  0.000000  0.500000  1
  Ir  Ir26  1  0.000000  0.283241  0.000000  1
  Ir  Ir27  1  0.716759  0.716759  0.000000  1
  Ir  Ir28  1  0.283241  0.000000  0.000000  1
  Ir  Ir29  1  0.623067  0.805412  0.500000  1
  Ir  Ir30  1  0.194588  0.817654  0.500000  1
  Ir  Ir31  1  0.182346  0.376933  0.500000  1
  Ir  Ir32  1  0.376933  0.182346  0.500000  1
  Ir  Ir33  1  0.805412  0.623067  0.500000  1
  Ir  Ir34  1  0.817654  0.194588  0.500000  1
  Ir  Ir35  1  0.000000  0.000000  0.500000  1
