# generated using pymatgen
data_Lu20CoBi9Te2
_symmetry_space_group_name_H-M   'P 1'
_cell_length_a   7.98186685
_cell_length_b   9.27684800
_cell_length_c   11.80735268
_cell_angle_alpha   90.00000000
_cell_angle_beta   89.65483432
_cell_angle_gamma   90.00000000
_symmetry_Int_Tables_number   1
_chemical_formula_structural   Lu20CoBi9Te2
_chemical_formula_sum   'Lu20 Co1 Bi9 Te2'
_cell_volume   874.27804946
_cell_formula_units_Z   1
loop_
 _symmetry_equiv_pos_site_id
 _symmetry_equiv_pos_as_xyz
  1  'x, y, z'
loop_
 _atom_site_type_symbol
 _atom_site_label
 _atom_site_symmetry_multiplicity
 _atom_site_fract_x
 _atom_site_fract_y
 _atom_site_fract_z
 _atom_site_occupancy
  Lu  Lu0  1  0.008986  0.250000  0.506028  1
  Lu  Lu1  1  0.947188  0.750000  0.493406  1
  Lu  Lu2  1  0.472757  0.750000  0.011260  1
  Lu  Lu3  1  0.521601  0.250000  0.988231  1
  Lu  Lu4  1  0.348142  0.250000  0.283396  1
  Lu  Lu5  1  0.642685  0.750000  0.692973  1
  Lu  Lu6  1  0.146429  0.750000  0.784933  1
  Lu  Lu7  1  0.854731  0.250000  0.219837  1
  Lu  Lu8  1  0.188071  0.250000  0.782904  1
  Lu  Lu9  1  0.810172  0.750000  0.218203  1
  Lu  Lu10  1  0.370517  0.750000  0.307178  1
  Lu  Lu11  1  0.677807  0.250000  0.713825  1
  Lu  Lu12  1  0.190280  0.065161  0.060252  1
  Lu  Lu13  1  0.808351  0.930211  0.935411  1
  Lu  Lu14  1  0.321940  0.925951  0.556089  1
  Lu  Lu15  1  0.808351  0.569789  0.935411  1
  Lu  Lu16  1  0.680417  0.025439  0.441707  1
  Lu  Lu17  1  0.190280  0.434839  0.060252  1
  Lu  Lu18  1  0.680417  0.474561  0.441707  1
  Lu  Lu19  1  0.321940  0.574049  0.556089  1
  Co  Co20  1  0.580960  0.750000  0.477226  1
  Bi  Bi21  1  0.901257  0.250000  0.956938  1
  Bi  Bi22  1  0.072144  0.997108  0.325138  1
  Bi  Bi23  1  0.940162  0.000912  0.676918  1
  Bi  Bi24  1  0.435103  0.994575  0.824504  1
  Bi  Bi25  1  0.940162  0.499088  0.676918  1
  Bi  Bi26  1  0.568591  0.006663  0.171250  1
  Bi  Bi27  1  0.072144  0.502892  0.325138  1
  Bi  Bi28  1  0.568591  0.493337  0.171250  1
  Bi  Bi29  1  0.435103  0.505425  0.824504  1
  Te  Te30  1  0.400740  0.250000  0.539268  1
  Te  Te31  1  0.093988  0.750000  0.041858  1
