# generated using pymatgen
data_Ca3SnGeRh2
_symmetry_space_group_name_H-M   'P 1'
_cell_length_a   5.82264200
_cell_length_b   8.10425500
_cell_length_c   13.82809900
_cell_angle_alpha   90.00000000
_cell_angle_beta   90.00000000
_cell_angle_gamma   90.00000000
_symmetry_Int_Tables_number   1
_chemical_formula_structural   Ca3SnGeRh2
_chemical_formula_sum   'Ca12 Sn4 Ge4 Rh8'
_cell_volume   652.52276302
_cell_formula_units_Z   4
loop_
 _symmetry_equiv_pos_site_id
 _symmetry_equiv_pos_as_xyz
  1  'x, y, z'
loop_
 _atom_site_type_symbol
 _atom_site_label
 _atom_site_symmetry_multiplicity
 _atom_site_fract_x
 _atom_site_fract_y
 _atom_site_fract_z
 _atom_site_occupancy
  Ca  Ca0  1  0.640092  0.249454  0.250000  1
  Ca  Ca1  1  0.359908  0.750546  0.750000  1
  Ca  Ca2  1  0.359908  0.749454  0.250000  1
  Ca  Ca3  1  0.640092  0.250546  0.750000  1
  Ca  Ca4  1  0.151088  0.397013  0.099167  1
  Ca  Ca5  1  0.848912  0.602987  0.900833  1
  Ca  Ca6  1  0.848912  0.602987  0.599167  1
  Ca  Ca7  1  0.848912  0.897013  0.400833  1
  Ca  Ca8  1  0.151088  0.397013  0.400833  1
  Ca  Ca9  1  0.151088  0.102987  0.599167  1
  Ca  Ca10  1  0.151088  0.102987  0.900833  1
  Ca  Ca11  1  0.848912  0.897013  0.099167  1
  Sn  Sn12  1  0.636450  0.250000  0.000000  1
  Sn  Sn13  1  0.363550  0.750000  0.000000  1
  Sn  Sn14  1  0.363550  0.750000  0.500000  1
  Sn  Sn15  1  0.636450  0.250000  0.500000  1
  Ge  Ge16  1  0.151478  0.096604  0.250000  1
  Ge  Ge17  1  0.848522  0.903396  0.750000  1
  Ge  Ge18  1  0.848522  0.596604  0.250000  1
  Ge  Ge19  1  0.151478  0.403396  0.750000  1
  Rh  Rh20  1  0.358003  0.037496  0.097303  1
  Rh  Rh21  1  0.641997  0.962504  0.902697  1
  Rh  Rh22  1  0.641997  0.962504  0.597303  1
  Rh  Rh23  1  0.641997  0.537496  0.402697  1
  Rh  Rh24  1  0.358003  0.037496  0.402697  1
  Rh  Rh25  1  0.358003  0.462504  0.597303  1
  Rh  Rh26  1  0.358003  0.462504  0.902697  1
  Rh  Rh27  1  0.641997  0.537496  0.097303  1
