# generated using pymatgen
data_Ba16Sr4Si11Sb
_symmetry_space_group_name_H-M   'P 1'
_cell_length_a   8.42360600
_cell_length_b   8.42360600
_cell_length_c   16.90394600
_cell_angle_alpha   90.00000000
_cell_angle_beta   90.00000000
_cell_angle_gamma   90.00000000
_symmetry_Int_Tables_number   1
_chemical_formula_structural   Ba16Sr4Si11Sb
_chemical_formula_sum   'Ba16 Sr4 Si11 Sb1'
_cell_volume   1199.45562980
_cell_formula_units_Z   1
loop_
 _symmetry_equiv_pos_site_id
 _symmetry_equiv_pos_as_xyz
  1  'x, y, z'
loop_
 _atom_site_type_symbol
 _atom_site_label
 _atom_site_symmetry_multiplicity
 _atom_site_fract_x
 _atom_site_fract_y
 _atom_site_fract_z
 _atom_site_occupancy
  Ba  Ba0  1  0.314254  0.677620  0.112185  1
  Ba  Ba1  1  0.177620  0.185746  0.112185  1
  Ba  Ba2  1  0.325660  0.692214  0.391832  1
  Ba  Ba3  1  0.667246  0.698162  0.887429  1
  Ba  Ba4  1  0.192214  0.174340  0.391832  1
  Ba  Ba5  1  0.674340  0.307786  0.391832  1
  Ba  Ba6  1  0.171372  0.806002  0.608336  1
  Ba  Ba7  1  0.332754  0.301838  0.887429  1
  Ba  Ba8  1  0.198162  0.832754  0.887429  1
  Ba  Ba9  1  0.828628  0.193998  0.608336  1
  Ba  Ba10  1  0.306002  0.328628  0.608336  1
  Ba  Ba11  1  0.807786  0.825660  0.391832  1
  Ba  Ba12  1  0.801838  0.167246  0.887429  1
  Ba  Ba13  1  0.822380  0.814254  0.112185  1
  Ba  Ba14  1  0.685746  0.322380  0.112185  1
  Ba  Ba15  1  0.693998  0.671372  0.608336  1
  Sr  Sr16  1  0.500000  0.000000  0.719935  1
  Sr  Sr17  1  0.500000  0.000000  0.237343  1
  Sr  Sr18  1  0.000000  0.500000  0.271354  1
  Sr  Sr19  1  0.000000  0.500000  0.766966  1
  Si  Si20  1  0.103803  0.104755  0.748715  1
  Si  Si21  1  0.395245  0.603803  0.748715  1
  Si  Si22  1  0.604101  0.604014  0.251829  1
  Si  Si23  1  0.500000  0.000000  0.016344  1
  Si  Si24  1  0.104014  0.895899  0.251829  1
  Si  Si25  1  0.604755  0.396197  0.748715  1
  Si  Si26  1  0.896197  0.895245  0.748715  1
  Si  Si27  1  0.395899  0.395986  0.251829  1
  Si  Si28  1  0.895986  0.104101  0.251829  1
  Si  Si29  1  0.500000  0.000000  0.514119  1
  Si  Si30  1  0.000000  0.500000  0.486109  1
  Sb  Sb31  1  0.000000  0.500000  0.986526  1
