# generated using pymatgen
data_Er3Zn2In3Rh
_symmetry_space_group_name_H-M   'P 1'
_cell_length_a   7.72666500
_cell_length_b   7.72666633
_cell_length_c   3.80363600
_cell_angle_alpha   90.00000000
_cell_angle_beta   90.00000000
_cell_angle_gamma   119.99999744
_symmetry_Int_Tables_number   1
_chemical_formula_structural   Er3Zn2In3Rh
_chemical_formula_sum   'Er3 Zn2 In3 Rh1'
_cell_volume   196.65900306
_cell_formula_units_Z   1
loop_
 _symmetry_equiv_pos_site_id
 _symmetry_equiv_pos_as_xyz
  1  'x, y, z'
loop_
 _atom_site_type_symbol
 _atom_site_label
 _atom_site_symmetry_multiplicity
 _atom_site_fract_x
 _atom_site_fract_y
 _atom_site_fract_z
 _atom_site_occupancy
  Er  Er0  1  0.024428  0.607987  0.500000  1
  Er  Er1  1  0.392013  0.416440  0.500000  1
  Er  Er2  1  0.583560  0.975572  0.500000  1
  Zn  Zn3  1  0.666667  0.333333  0.000000  1
  Zn  Zn4  1  0.000000  0.000000  0.500000  1
  In  In5  1  0.265234  0.004008  0.000000  1
  In  In6  1  0.738774  0.734766  0.000000  1
  In  In7  1  0.995992  0.261226  0.000000  1
  Rh  Rh8  1  0.333333  0.666667  0.000000  1
