# generated using pymatgen
data_Er3Tm5(Si4Mo3)4
_symmetry_space_group_name_H-M   'P 1'
_cell_length_a   6.72328902
_cell_length_b   6.92029602
_cell_length_c   12.87408223
_cell_angle_alpha   90.00997059
_cell_angle_beta   89.99815362
_cell_angle_gamma   90.00015737
_symmetry_Int_Tables_number   1
_chemical_formula_structural   Er3Tm5(Si4Mo3)4
_chemical_formula_sum   'Er3 Tm5 Si16 Mo12'
_cell_volume   598.99434810
_cell_formula_units_Z   1
loop_
 _symmetry_equiv_pos_site_id
 _symmetry_equiv_pos_as_xyz
  1  'x, y, z'
loop_
 _atom_site_type_symbol
 _atom_site_label
 _atom_site_symmetry_multiplicity
 _atom_site_fract_x
 _atom_site_fract_y
 _atom_site_fract_z
 _atom_site_occupancy
  Er  Er0  1  0.003167  0.832303  0.593484  1
  Er  Er1  1  0.496809  0.332335  0.406523  1
  Er  Er2  1  0.996788  0.167578  0.093772  1
  Tm  Tm3  1  0.496881  0.332125  0.093731  1
  Tm  Tm4  1  0.996911  0.167933  0.406304  1
  Tm  Tm5  1  0.503095  0.667910  0.593707  1
  Tm  Tm6  1  0.003068  0.832047  0.906294  1
  Tm  Tm7  1  0.503051  0.667978  0.906240  1
  Si  Si8  1  0.660207  0.040491  0.546946  1
  Si  Si9  1  0.160292  0.459471  0.953034  1
  Si  Si10  1  0.339888  0.959449  0.046972  1
  Si  Si11  1  0.839771  0.540503  0.453032  1
  Si  Si12  1  0.339854  0.959373  0.453004  1
  Si  Si13  1  0.839723  0.540682  0.046993  1
  Si  Si14  1  0.660098  0.040489  0.953020  1
  Si  Si15  1  0.160188  0.459351  0.546935  1
  Si  Si16  1  0.534274  0.368152  0.749956  1
  Si  Si17  1  0.034248  0.131821  0.749987  1
  Si  Si18  1  0.465775  0.631891  0.249957  1
  Si  Si19  1  0.965814  0.868126  0.250106  1
  Si  Si20  1  0.801780  0.631557  0.750060  1
  Si  Si21  1  0.301988  0.868361  0.750023  1
  Si  Si22  1  0.198088  0.368464  0.250054  1
  Si  Si23  1  0.698091  0.131593  0.250036  1
  Mo  Mo24  1  0.830014  0.334558  0.624818  1
  Mo  Mo25  1  0.330049  0.165398  0.875143  1
  Mo  Mo26  1  0.170042  0.665388  0.124857  1
  Mo  Mo27  1  0.670019  0.834605  0.375144  1
  Mo  Mo28  1  0.169926  0.665601  0.375074  1
  Mo  Mo29  1  0.669872  0.834483  0.124854  1
  Mo  Mo30  1  0.829995  0.334547  0.875096  1
  Mo  Mo31  1  0.330064  0.165532  0.624838  1
  Mo  Mo32  1  0.666108  0.997429  0.749976  1
  Mo  Mo33  1  0.166290  0.502497  0.749993  1
  Mo  Mo34  1  0.333875  0.002457  0.250013  1
  Mo  Mo35  1  0.833895  0.497523  0.250026  1
