# generated using pymatgen
data_SrFe2P4(PbO8)2
_symmetry_space_group_name_H-M   'P 1'
_cell_length_a   9.16829700
_cell_length_b   9.13340740
_cell_length_c   9.45271814
_cell_angle_alpha   62.99390975
_cell_angle_beta   90.00000000
_cell_angle_gamma   90.00000000
_symmetry_Int_Tables_number   1
_chemical_formula_structural   SrFe2P4(PbO8)2
_chemical_formula_sum   'Sr2 Fe4 P8 Pb4 O32'
_cell_volume   705.23778321
_cell_formula_units_Z   2
loop_
 _symmetry_equiv_pos_site_id
 _symmetry_equiv_pos_as_xyz
  1  'x, y, z'
loop_
 _atom_site_type_symbol
 _atom_site_label
 _atom_site_symmetry_multiplicity
 _atom_site_fract_x
 _atom_site_fract_y
 _atom_site_fract_z
 _atom_site_occupancy
  Sr  Sr0  1  0.000000  0.000000  0.000000  1
  Sr  Sr1  1  0.500000  0.000000  0.500000  1
  Fe  Fe2  1  0.367384  0.754138  0.242358  1
  Fe  Fe3  1  0.867384  0.245862  0.257642  1
  Fe  Fe4  1  0.632616  0.245862  0.757642  1
  Fe  Fe5  1  0.132616  0.754138  0.742358  1
  P  P6  1  0.088952  0.576184  0.138495  1
  P  P7  1  0.637825  0.019864  0.157418  1
  P  P8  1  0.362175  0.980136  0.842582  1
  P  P9  1  0.411048  0.576184  0.638495  1
  P  P10  1  0.911048  0.423816  0.861505  1
  P  P11  1  0.588952  0.423816  0.361505  1
  P  P12  1  0.862175  0.019864  0.657418  1
  P  P13  1  0.137825  0.980136  0.342582  1
  Pb  Pb14  1  0.208046  0.300996  0.464769  1
  Pb  Pb15  1  0.708046  0.699004  0.035231  1
  Pb  Pb16  1  0.791954  0.699004  0.535231  1
  Pb  Pb17  1  0.291954  0.300996  0.964769  1
  O  O18  1  0.910805  0.158587  0.494636  1
  O  O19  1  0.796318  0.091211  0.766164  1
  O  O20  1  0.955302  0.608337  0.759213  1
  O  O21  1  0.703682  0.091211  0.266164  1
  O  O22  1  0.496119  0.079182  0.743158  1
  O  O23  1  0.544698  0.608337  0.259213  1
  O  O24  1  0.589195  0.158587  0.994636  1
  O  O25  1  0.003881  0.079182  0.243158  1
  O  O26  1  0.714916  0.406250  0.259167  1
  O  O27  1  0.455302  0.391663  0.740787  1
  O  O28  1  0.249183  0.094122  0.367391  1
  O  O29  1  0.410805  0.841413  0.005364  1
  O  O30  1  0.850278  0.394172  0.023408  1
  O  O31  1  0.089195  0.841413  0.505364  1
  O  O32  1  0.503881  0.920818  0.256842  1
  O  O33  1  0.350278  0.605828  0.476592  1
  O  O34  1  0.649722  0.394172  0.523408  1
  O  O35  1  0.750817  0.905878  0.632609  1
  O  O36  1  0.960923  0.692070  0.122509  1
  O  O37  1  0.285084  0.593750  0.740833  1
  O  O38  1  0.250817  0.094122  0.867391  1
  O  O39  1  0.785084  0.406250  0.759167  1
  O  O40  1  0.296318  0.908789  0.733836  1
  O  O41  1  0.749183  0.905878  0.132609  1
  O  O42  1  0.214916  0.593750  0.240833  1
  O  O43  1  0.149722  0.605828  0.976592  1
  O  O44  1  0.460923  0.307930  0.377491  1
  O  O45  1  0.039077  0.307930  0.877491  1
  O  O46  1  0.044698  0.391663  0.240787  1
  O  O47  1  0.203682  0.908789  0.233836  1
  O  O48  1  0.539077  0.692070  0.622509  1
  O  O49  1  0.996119  0.920818  0.756842  1
