# generated using pymatgen
data_Sm5VMoO12
_symmetry_space_group_name_H-M   'P 1'
_cell_length_a   6.95061604
_cell_length_b   6.95061676
_cell_length_c   7.50977128
_cell_angle_alpha   74.38807741
_cell_angle_beta   74.38807579
_cell_angle_gamma   51.56889520
_symmetry_Int_Tables_number   1
_chemical_formula_structural   Sm5VMoO12
_chemical_formula_sum   'Sm5 V1 Mo1 O12'
_cell_volume   271.21497174
_cell_formula_units_Z   1
loop_
 _symmetry_equiv_pos_site_id
 _symmetry_equiv_pos_as_xyz
  1  'x, y, z'
loop_
 _atom_site_type_symbol
 _atom_site_label
 _atom_site_symmetry_multiplicity
 _atom_site_fract_x
 _atom_site_fract_y
 _atom_site_fract_z
 _atom_site_occupancy
  Sm  Sm0  1  0.312821  0.298389  0.360245  1
  Sm  Sm1  1  0.701611  0.687179  0.639755  1
  Sm  Sm2  1  0.310899  0.306575  0.829148  1
  Sm  Sm3  1  0.693425  0.689101  0.170852  1
  Sm  Sm4  1  0.001119  0.998881  0.500000  1
  V  V5  1  0.747590  0.252410  0.000000  1
  Mo  Mo6  1  0.233079  0.766921  0.000000  1
  O  O7  1  0.896345  0.419415  0.921824  1
  O  O8  1  0.424858  0.896693  0.920657  1
  O  O9  1  0.103307  0.575142  0.079343  1
  O  O10  1  0.580585  0.103655  0.078176  1
  O  O11  1  0.099540  0.592544  0.577185  1
  O  O12  1  0.597736  0.091213  0.578305  1
  O  O13  1  0.908787  0.402264  0.421695  1
  O  O14  1  0.407456  0.900460  0.422815  1
  O  O15  1  0.994186  0.008306  0.818959  1
  O  O16  1  0.991694  0.005814  0.181041  1
  O  O17  1  0.496711  0.501748  0.817934  1
  O  O18  1  0.498252  0.503289  0.182066  1
