# generated using pymatgen
data_LiDy2(Co3P2)3
_symmetry_space_group_name_H-M   'P 1'
_cell_length_a   3.66892900
_cell_length_b   10.24816200
_cell_length_c   11.81379200
_cell_angle_alpha   90.00000000
_cell_angle_beta   90.00000000
_cell_angle_gamma   90.00000000
_symmetry_Int_Tables_number   1
_chemical_formula_structural   LiDy2(Co3P2)3
_chemical_formula_sum   'Li2 Dy4 Co18 P12'
_cell_volume   444.19596550
_cell_formula_units_Z   2
loop_
 _symmetry_equiv_pos_site_id
 _symmetry_equiv_pos_as_xyz
  1  'x, y, z'
loop_
 _atom_site_type_symbol
 _atom_site_label
 _atom_site_symmetry_multiplicity
 _atom_site_fract_x
 _atom_site_fract_y
 _atom_site_fract_z
 _atom_site_occupancy
  Li  Li0  1  0.250000  0.702906  0.990663  1
  Li  Li1  1  0.250000  0.797094  0.490663  1
  Dy  Dy2  1  0.250000  0.580068  0.701962  1
  Dy  Dy3  1  0.250000  0.919932  0.201962  1
  Dy  Dy4  1  0.750000  0.419351  0.297606  1
  Dy  Dy5  1  0.750000  0.080649  0.797606  1
  Co  Co6  1  0.750000  0.288859  0.009091  1
  Co  Co7  1  0.750000  0.211141  0.509091  1
  Co  Co8  1  0.250000  0.403654  0.487274  1
  Co  Co9  1  0.250000  0.096346  0.987274  1
  Co  Co10  1  0.750000  0.590824  0.514202  1
  Co  Co11  1  0.750000  0.909176  0.014202  1
  Co  Co12  1  0.250000  0.223438  0.174886  1
  Co  Co13  1  0.250000  0.276562  0.674886  1
  Co  Co14  1  0.750000  0.780512  0.826048  1
  Co  Co15  1  0.750000  0.719488  0.326048  1
  Co  Co16  1  0.250000  0.881561  0.698502  1
  Co  Co17  1  0.250000  0.618439  0.198502  1
  Co  Co18  1  0.750000  0.120337  0.300179  1
  Co  Co19  1  0.750000  0.379663  0.800179  1
  Co  Co20  1  0.250000  0.464145  0.931642  1
  Co  Co21  1  0.250000  0.035855  0.431642  1
  Co  Co22  1  0.750000  0.532693  0.066327  1
  Co  Co23  1  0.750000  0.967307  0.566327  1
  P  P24  1  0.250000  0.421624  0.111943  1
  P  P25  1  0.250000  0.078376  0.611943  1
  P  P26  1  0.750000  0.577908  0.884345  1
  P  P27  1  0.750000  0.922092  0.384345  1
  P  P28  1  0.250000  0.268759  0.867111  1
  P  P29  1  0.250000  0.231241  0.367111  1
  P  P30  1  0.750000  0.728990  0.137921  1
  P  P31  1  0.750000  0.771010  0.637921  1
  P  P32  1  0.250000  0.601049  0.393022  1
  P  P33  1  0.250000  0.898951  0.893022  1
  P  P34  1  0.750000  0.395785  0.607278  1
  P  P35  1  0.750000  0.104215  0.107278  1
