# generated using pymatgen
data_Tb8Ge(Pd11Pt)2
_symmetry_space_group_name_H-M   'P 1'
_cell_length_a   8.38036400
_cell_length_b   8.36271500
_cell_length_c   8.36271500
_cell_angle_alpha   90.00000000
_cell_angle_beta   90.00000000
_cell_angle_gamma   90.00000000
_symmetry_Int_Tables_number   1
_chemical_formula_structural   Tb8Ge(Pd11Pt)2
_chemical_formula_sum   'Tb8 Ge1 Pd22 Pt2'
_cell_volume   586.08077454
_cell_formula_units_Z   1
loop_
 _symmetry_equiv_pos_site_id
 _symmetry_equiv_pos_as_xyz
  1  'x, y, z'
loop_
 _atom_site_type_symbol
 _atom_site_label
 _atom_site_symmetry_multiplicity
 _atom_site_fract_x
 _atom_site_fract_y
 _atom_site_fract_z
 _atom_site_occupancy
  Tb  Tb0  1  0.253601  0.254109  0.254109  1
  Tb  Tb1  1  0.746399  0.745891  0.745891  1
  Tb  Tb2  1  0.746399  0.745891  0.254109  1
  Tb  Tb3  1  0.746399  0.254109  0.745891  1
  Tb  Tb4  1  0.253601  0.254109  0.745891  1
  Tb  Tb5  1  0.253601  0.745891  0.254109  1
  Tb  Tb6  1  0.253601  0.745891  0.745891  1
  Tb  Tb7  1  0.746399  0.254109  0.254109  1
  Ge  Ge8  1  0.000000  0.000000  0.000000  1
  Pd  Pd9  1  0.259543  0.500000  0.000000  1
  Pd  Pd10  1  0.740457  0.500000  0.000000  1
  Pd  Pd11  1  0.000000  0.259524  0.500000  1
  Pd  Pd12  1  0.500000  0.259388  0.000000  1
  Pd  Pd13  1  0.000000  0.740476  0.500000  1
  Pd  Pd14  1  0.500000  0.740612  0.000000  1
  Pd  Pd15  1  0.500000  0.000000  0.259388  1
  Pd  Pd16  1  0.259543  0.000000  0.500000  1
  Pd  Pd17  1  0.500000  0.000000  0.740612  1
  Pd  Pd18  1  0.740457  0.000000  0.500000  1
  Pd  Pd19  1  0.000000  0.500000  0.259524  1
  Pd  Pd20  1  0.000000  0.500000  0.740476  1
  Pd  Pd21  1  0.500000  0.253167  0.500000  1
  Pd  Pd22  1  0.500000  0.746833  0.500000  1
  Pd  Pd23  1  0.500000  0.500000  0.253167  1
  Pd  Pd24  1  0.500000  0.500000  0.746833  1
  Pd  Pd25  1  0.289214  0.000000  0.000000  1
  Pd  Pd26  1  0.710786  0.000000  0.000000  1
  Pd  Pd27  1  0.000000  0.288996  0.000000  1
  Pd  Pd28  1  0.000000  0.711004  0.000000  1
  Pd  Pd29  1  0.000000  0.000000  0.288996  1
  Pd  Pd30  1  0.000000  0.000000  0.711004  1
  Pt  Pt31  1  0.252788  0.500000  0.500000  1
  Pt  Pt32  1  0.747212  0.500000  0.500000  1
