# generated using pymatgen
data_Ba2Tl2In2P6O23
_symmetry_space_group_name_H-M   'P 1'
_cell_length_a   6.81728839
_cell_length_b   8.41161986
_cell_length_c   9.34287965
_cell_angle_alpha   101.58463647
_cell_angle_beta   103.61590039
_cell_angle_gamma   103.10121747
_symmetry_Int_Tables_number   1
_chemical_formula_structural   Ba2Tl2In2P6O23
_chemical_formula_sum   'Ba2 Tl2 In2 P6 O23'
_cell_volume   488.52663289
_cell_formula_units_Z   1
loop_
 _symmetry_equiv_pos_site_id
 _symmetry_equiv_pos_as_xyz
  1  'x, y, z'
loop_
 _atom_site_type_symbol
 _atom_site_label
 _atom_site_symmetry_multiplicity
 _atom_site_fract_x
 _atom_site_fract_y
 _atom_site_fract_z
 _atom_site_occupancy
  Ba  Ba0  1  0.463729  0.454080  0.706856  1
  Ba  Ba1  1  0.541151  0.544054  0.292165  1
  Tl  Tl2  1  0.983814  0.789937  0.062211  1
  Tl  Tl3  1  0.008797  0.212999  0.935291  1
  In  In4  1  0.778422  0.184414  0.426107  1
  In  In5  1  0.225662  0.813671  0.573983  1
  P  P6  1  0.001349  0.518307  0.739742  1
  P  P7  1  0.002770  0.482239  0.259612  1
  P  P8  1  0.531410  0.863371  0.089753  1
  P  P9  1  0.474970  0.141366  0.913012  1
  P  P10  1  0.775177  0.896794  0.642727  1
  P  P11  1  0.227070  0.102967  0.359318  1
  O  O12  1  0.108927  0.391527  0.802145  1
  O  O13  1  0.895784  0.610415  0.200269  1
  O  O14  1  0.823560  0.426391  0.587634  1
  O  O15  1  0.181626  0.571928  0.411296  1
  O  O16  1  0.309161  0.765222  0.079975  1
  O  O17  1  0.681711  0.253647  0.905021  1
  O  O18  1  0.896265  0.944870  0.820799  1
  O  O19  1  0.099767  0.056837  0.183429  1
  O  O20  1  0.626798  0.737857  0.004542  1
  O  O21  1  0.370219  0.253252  0.002891  1
  O  O22  1  0.552531  0.772051  0.611813  1
  O  O23  1  0.449973  0.226827  0.388145  1
  O  O24  1  0.881011  0.593910  0.845502  1
  O  O25  1  0.121917  0.409281  0.151171  1
  O  O26  1  0.186533  0.651703  0.724133  1
  O  O27  1  0.818986  0.346009  0.273933  1
  O  O28  1  0.759009  0.064284  0.604628  1
  O  O29  1  0.244932  0.935867  0.397564  1
  O  O30  1  0.669152  0.944186  0.255779  1
  O  O31  1  0.326495  0.044152  0.753786  1
  O  O32  1  0.890515  0.800476  0.546921  1
  O  O33  1  0.114776  0.199646  0.458214  1
  O  O34  1  0.536027  0.011463  0.006639  1
