# generated using pymatgen
data_LaPa2(ZnPd)4
_symmetry_space_group_name_H-M   'P 1'
_cell_length_a   8.29499312
_cell_length_b   8.29499315
_cell_length_c   8.29499294
_cell_angle_alpha   152.59965669
_cell_angle_beta   122.94598503
_cell_angle_gamma   64.42699365
_symmetry_Int_Tables_number   1
_chemical_formula_structural   LaPa2(ZnPd)4
_chemical_formula_sum   'La1 Pa2 Zn4 Pd4'
_cell_volume   218.47908128
_cell_formula_units_Z   1
loop_
 _symmetry_equiv_pos_site_id
 _symmetry_equiv_pos_as_xyz
  1  'x, y, z'
loop_
 _atom_site_type_symbol
 _atom_site_label
 _atom_site_symmetry_multiplicity
 _atom_site_fract_x
 _atom_site_fract_y
 _atom_site_fract_z
 _atom_site_occupancy
  La  La0  1  0.500000  0.000000  0.500000  1
  Pa  Pa1  1  0.873593  0.873593  0.000000  1
  Pa  Pa2  1  0.126407  0.126407  0.000000  1
  Zn  Zn3  1  0.474665  0.675940  0.798725  1
  Zn  Zn4  1  0.877215  0.675940  0.201275  1
  Zn  Zn5  1  0.122785  0.324060  0.798725  1
  Zn  Zn6  1  0.525335  0.324060  0.201275  1
  Pd  Pd7  1  0.273450  0.773450  0.500000  1
  Pd  Pd8  1  0.726550  0.226550  0.500000  1
  Pd  Pd9  1  0.820332  0.500000  0.320332  1
  Pd  Pd10  1  0.179668  0.500000  0.679668  1
