# generated using pymatgen
data_MgFe3(AsO3)8
_symmetry_space_group_name_H-M   'P 1'
_cell_length_a   4.85463800
_cell_length_b   10.53436814
_cell_length_c   8.44243000
_cell_angle_alpha   66.37750362
_cell_angle_beta   90.00000000
_cell_angle_gamma   76.69087171
_symmetry_Int_Tables_number   1
_chemical_formula_structural   MgFe3(AsO3)8
_chemical_formula_sum   'Mg1 Fe3 As8 O24'
_cell_volume   382.88214657
_cell_formula_units_Z   1
loop_
 _symmetry_equiv_pos_site_id
 _symmetry_equiv_pos_as_xyz
  1  'x, y, z'
loop_
 _atom_site_type_symbol
 _atom_site_label
 _atom_site_symmetry_multiplicity
 _atom_site_fract_x
 _atom_site_fract_y
 _atom_site_fract_z
 _atom_site_occupancy
  Mg  Mg0  1  0.000000  0.000000  0.000000  1
  Fe  Fe1  1  0.500000  0.000000  0.500000  1
  Fe  Fe2  1  0.250423  0.499511  0.250245  1
  Fe  Fe3  1  0.749577  0.500489  0.749755  1
  As  As4  1  0.624239  0.750834  0.290742  1
  As  As5  1  0.375761  0.249166  0.041575  1
  As  As6  1  0.124471  0.750287  0.791626  1
  As  As7  1  0.875529  0.249713  0.541914  1
  As  As8  1  0.124471  0.750287  0.458086  1
  As  As9  1  0.875529  0.249713  0.208374  1
  As  As10  1  0.624239  0.750834  0.958425  1
  As  As11  1  0.375761  0.249166  0.709258  1
  O  O12  1  0.751770  0.860839  0.386583  1
  O  O13  1  0.503136  0.360125  0.136991  1
  O  O14  1  0.250729  0.861113  0.887915  1
  O  O15  1  0.003237  0.360533  0.637277  1
  O  O16  1  0.205769  0.860647  0.569676  1
  O  O17  1  0.954783  0.360023  0.319989  1
  O  O18  1  0.706574  0.861372  0.069314  1
  O  O19  1  0.454481  0.360041  0.819979  1
  O  O20  1  0.250729  0.861113  0.250971  1
  O  O21  1  0.003237  0.360533  0.002190  1
  O  O22  1  0.751770  0.860839  0.752577  1
  O  O23  1  0.503136  0.360125  0.502884  1
  O  O24  1  0.045217  0.639977  0.680011  1
  O  O25  1  0.794231  0.139353  0.430324  1
  O  O26  1  0.545519  0.639959  0.180021  1
  O  O27  1  0.293426  0.138628  0.930686  1
  O  O28  1  0.496864  0.639875  0.497116  1
  O  O29  1  0.248230  0.139161  0.247423  1
  O  O30  1  0.996763  0.639467  0.997810  1
  O  O31  1  0.749271  0.138887  0.749029  1
  O  O32  1  0.996763  0.639467  0.362723  1
  O  O33  1  0.749271  0.138887  0.112085  1
  O  O34  1  0.496864  0.639875  0.863009  1
  O  O35  1  0.248230  0.139161  0.613417  1
