# generated using pymatgen
data_LaHo3Zr4F28
_symmetry_space_group_name_H-M   'P 1'
_cell_length_a   5.79534541
_cell_length_b   9.17789982
_cell_length_c   12.34329353
_cell_angle_alpha   62.39384526
_cell_angle_beta   89.96232456
_cell_angle_gamma   90.03943777
_symmetry_Int_Tables_number   1
_chemical_formula_structural   LaHo3Zr4F28
_chemical_formula_sum   'La1 Ho3 Zr4 F28'
_cell_volume   581.78488797
_cell_formula_units_Z   1
loop_
 _symmetry_equiv_pos_site_id
 _symmetry_equiv_pos_as_xyz
  1  'x, y, z'
loop_
 _atom_site_type_symbol
 _atom_site_label
 _atom_site_symmetry_multiplicity
 _atom_site_fract_x
 _atom_site_fract_y
 _atom_site_fract_z
 _atom_site_occupancy
  La  La0  1  0.757094  0.817966  0.766677  1
  Ho  Ho1  1  0.743957  0.818581  0.266216  1
  Ho  Ho2  1  0.243678  0.184904  0.233801  1
  Ho  Ho3  1  0.257830  0.191704  0.732829  1
  Zr  Zr4  1  0.743321  0.279902  0.451197  1
  Zr  Zr5  1  0.244478  0.725046  0.052087  1
  Zr  Zr6  1  0.254709  0.725718  0.538255  1
  Zr  Zr7  1  0.755339  0.267729  0.958076  1
  F  F8  1  0.457229  0.706920  0.928167  1
  F  F9  1  0.965868  0.288757  0.576154  1
  F  F10  1  0.531072  0.285419  0.078781  1
  F  F11  1  0.030316  0.710637  0.417309  1
  F  F12  1  0.456519  0.281674  0.549271  1
  F  F13  1  0.955882  0.713861  0.961394  1
  F  F14  1  0.547657  0.719792  0.446395  1
  F  F15  1  0.043219  0.276508  0.053060  1
  F  F16  1  0.771650  0.515615  0.861332  1
  F  F17  1  0.267861  0.474824  0.638208  1
  F  F18  1  0.235786  0.473569  0.144908  1
  F  F19  1  0.732965  0.528929  0.355780  1
  F  F20  1  0.759033  0.018963  0.060577  1
  F  F21  1  0.258565  0.975368  0.438830  1
  F  F22  1  0.240604  0.973135  0.943575  1
  F  F23  1  0.739338  0.030657  0.550183  1
  F  F24  1  0.985032  0.729833  0.641781  1
  F  F25  1  0.485584  0.265510  0.851779  1
  F  F26  1  0.009900  0.265201  0.347508  1
  F  F27  1  0.513703  0.735851  0.154739  1
  F  F28  1  0.031428  0.747754  0.176591  1
  F  F29  1  0.528385  0.254769  0.327206  1
  F  F30  1  0.968287  0.249263  0.830298  1
  F  F31  1  0.454944  0.741884  0.668596  1
  F  F32  1  0.435416  0.977462  0.236379  1
  F  F33  1  0.936600  0.024508  0.263780  1
  F  F34  1  0.567245  0.040564  0.765648  1
  F  F35  1  0.089506  0.981218  0.732632  1
