# generated using pymatgen
data_Dy20Bi8RuPt3
_symmetry_space_group_name_H-M   'P 1'
_cell_length_a   8.05544645
_cell_length_b   9.04563900
_cell_length_c   12.43660110
_cell_angle_alpha   90.00000000
_cell_angle_beta   90.06466704
_cell_angle_gamma   90.00000000
_symmetry_Int_Tables_number   1
_chemical_formula_structural   Dy20Bi8RuPt3
_chemical_formula_sum   'Dy20 Bi8 Ru1 Pt3'
_cell_volume   906.21301342
_cell_formula_units_Z   1
loop_
 _symmetry_equiv_pos_site_id
 _symmetry_equiv_pos_as_xyz
  1  'x, y, z'
loop_
 _atom_site_type_symbol
 _atom_site_label
 _atom_site_symmetry_multiplicity
 _atom_site_fract_x
 _atom_site_fract_y
 _atom_site_fract_z
 _atom_site_occupancy
  Dy  Dy0  1  0.834486  0.750000  0.786830  1
  Dy  Dy1  1  0.162995  0.250000  0.210869  1
  Dy  Dy2  1  0.339763  0.250000  0.708227  1
  Dy  Dy3  1  0.656774  0.750000  0.296049  1
  Dy  Dy4  1  0.377302  0.750000  0.695470  1
  Dy  Dy5  1  0.626127  0.250000  0.301582  1
  Dy  Dy6  1  0.872983  0.250000  0.802347  1
  Dy  Dy7  1  0.126223  0.750000  0.196217  1
  Dy  Dy8  1  0.950267  0.750000  0.500804  1
  Dy  Dy9  1  0.049787  0.250000  0.499391  1
  Dy  Dy10  1  0.450991  0.250000  0.001040  1
  Dy  Dy11  1  0.550300  0.750000  0.000639  1
  Dy  Dy12  1  0.677264  0.039016  0.565053  1
  Dy  Dy13  1  0.322861  0.951197  0.435548  1
  Dy  Dy14  1  0.179362  0.955156  0.932206  1
  Dy  Dy15  1  0.322861  0.548803  0.435548  1
  Dy  Dy16  1  0.821568  0.045266  0.066505  1
  Dy  Dy17  1  0.677264  0.460984  0.565053  1
  Dy  Dy18  1  0.821568  0.454734  0.066505  1
  Dy  Dy19  1  0.179362  0.544844  0.932206  1
  Bi  Bi20  1  0.569432  0.489457  0.828469  1
  Bi  Bi21  1  0.429912  0.510100  0.172929  1
  Bi  Bi22  1  0.069363  0.508513  0.673184  1
  Bi  Bi23  1  0.429912  0.989900  0.172929  1
  Bi  Bi24  1  0.930960  0.490999  0.326873  1
  Bi  Bi25  1  0.569432  0.010543  0.828469  1
  Bi  Bi26  1  0.930960  0.009001  0.326873  1
  Bi  Bi27  1  0.069363  0.991487  0.673184  1
  Ru  Ru28  1  0.575490  0.750000  0.513557  1
  Pt  Pt29  1  0.424276  0.250000  0.487462  1
  Pt  Pt30  1  0.074778  0.250000  0.989073  1
  Pt  Pt31  1  0.926013  0.750000  0.008910  1
