# generated using pymatgen
data_Sc10AlGaAs4
_symmetry_space_group_name_H-M   'P 1'
_cell_length_a   8.00872500
_cell_length_b   8.02251730
_cell_length_c   5.80938500
_cell_angle_alpha   90.00000000
_cell_angle_beta   90.00000000
_cell_angle_gamma   119.94314155
_symmetry_Int_Tables_number   1
_chemical_formula_structural   Sc10AlGaAs4
_chemical_formula_sum   'Sc10 Al1 Ga1 As4'
_cell_volume   323.43228966
_cell_formula_units_Z   1
loop_
 _symmetry_equiv_pos_site_id
 _symmetry_equiv_pos_as_xyz
  1  'x, y, z'
loop_
 _atom_site_type_symbol
 _atom_site_label
 _atom_site_symmetry_multiplicity
 _atom_site_fract_x
 _atom_site_fract_y
 _atom_site_fract_z
 _atom_site_occupancy
  Sc  Sc0  1  0.331282  0.663562  0.999639  1
  Sc  Sc1  1  0.667721  0.336438  0.500361  1
  Sc  Sc2  1  0.667721  0.336438  0.999639  1
  Sc  Sc3  1  0.331282  0.663562  0.500361  1
  Sc  Sc4  1  0.237365  0.000000  0.250000  1
  Sc  Sc5  1  0.248161  0.241869  0.750000  1
  Sc  Sc6  1  0.006291  0.758131  0.750000  1
  Sc  Sc7  1  0.995354  0.242757  0.250000  1
  Sc  Sc8  1  0.752596  0.757243  0.250000  1
  Sc  Sc9  1  0.761819  0.000000  0.750000  1
  Al  Al10  1  0.599367  0.000000  0.250000  1
  Ga  Ga11  1  0.399843  0.000000  0.750000  1
  As  As12  1  0.614545  0.613147  0.750000  1
  As  As13  1  0.001398  0.386853  0.750000  1
  As  As14  1  0.999042  0.612830  0.250000  1
  As  As15  1  0.386212  0.387170  0.250000  1
