# generated using pymatgen
data_Ti4Zn2FeCo9B4
_symmetry_space_group_name_H-M   'P 1'
_cell_length_a   8.51721773
_cell_length_b   8.51721773
_cell_length_c   2.93158700
_cell_angle_alpha   90.00000000
_cell_angle_beta   90.00000000
_cell_angle_gamma   89.64561826
_symmetry_Int_Tables_number   1
_chemical_formula_structural   Ti4Zn2FeCo9B4
_chemical_formula_sum   'Ti4 Zn2 Fe1 Co9 B4'
_cell_volume   212.66204158
_cell_formula_units_Z   1
loop_
 _symmetry_equiv_pos_site_id
 _symmetry_equiv_pos_as_xyz
  1  'x, y, z'
loop_
 _atom_site_type_symbol
 _atom_site_label
 _atom_site_symmetry_multiplicity
 _atom_site_fract_x
 _atom_site_fract_y
 _atom_site_fract_z
 _atom_site_occupancy
  Ti  Ti0  1  0.824361  0.324361  0.000000  1
  Ti  Ti1  1  0.326424  0.173576  0.000000  1
  Ti  Ti2  1  0.673576  0.826424  0.000000  1
  Ti  Ti3  1  0.175639  0.675639  0.000000  1
  Zn  Zn4  1  0.000000  0.000000  0.000000  1
  Zn  Zn5  1  0.500000  0.500000  0.000000  1
  Fe  Fe6  1  0.500000  0.000000  0.500000  1
  Co  Co7  1  0.000000  0.500000  0.500000  1
  Co  Co8  1  0.070945  0.220728  0.500000  1
  Co  Co9  1  0.219208  0.928002  0.500000  1
  Co  Co10  1  0.780792  0.071998  0.500000  1
  Co  Co11  1  0.929055  0.779272  0.500000  1
  Co  Co12  1  0.428002  0.719208  0.500000  1
  Co  Co13  1  0.571998  0.280792  0.500000  1
  Co  Co14  1  0.720728  0.570945  0.500000  1
  Co  Co15  1  0.279272  0.429055  0.500000  1
  B  B16  1  0.623321  0.123321  0.000000  1
  B  B17  1  0.122423  0.377577  0.000000  1
  B  B18  1  0.877577  0.622423  0.000000  1
  B  B19  1  0.376679  0.876679  0.000000  1
