# generated using pymatgen
data_Er6Tm11Lu3(Cd3Ru)2
_symmetry_space_group_name_H-M   'P 1'
_cell_length_a   9.48183406
_cell_length_b   9.49136302
_cell_length_c   9.66142065
_cell_angle_alpha   90.00000193
_cell_angle_beta   90.02416398
_cell_angle_gamma   120.03324447
_symmetry_Int_Tables_number   1
_chemical_formula_structural   Er6Tm11Lu3(Cd3Ru)2
_chemical_formula_sum   'Er6 Tm11 Lu3 Cd6 Ru2'
_cell_volume   752.74334277
_cell_formula_units_Z   1
loop_
 _symmetry_equiv_pos_site_id
 _symmetry_equiv_pos_as_xyz
  1  'x, y, z'
loop_
 _atom_site_type_symbol
 _atom_site_label
 _atom_site_symmetry_multiplicity
 _atom_site_fract_x
 _atom_site_fract_y
 _atom_site_fract_z
 _atom_site_occupancy
  Er  Er0  1  0.540316  0.460279  0.249706  1
  Er  Er1  1  0.540316  0.080035  0.249706  1
  Er  Er2  1  0.918986  0.459493  0.249857  1
  Er  Er3  1  0.459544  0.540460  0.750195  1
  Er  Er4  1  0.459544  0.919085  0.750195  1
  Er  Er5  1  0.080017  0.540009  0.750155  1
  Tm  Tm6  1  0.210047  0.790204  0.440581  1
  Tm  Tm7  1  0.210047  0.419845  0.440581  1
  Tm  Tm8  1  0.580484  0.790242  0.440484  1
  Tm  Tm9  1  0.789854  0.209566  0.559253  1
  Tm  Tm10  1  0.789854  0.580287  0.559253  1
  Tm  Tm11  1  0.419667  0.209834  0.559065  1
  Tm  Tm12  1  0.789643  0.209223  0.940769  1
  Tm  Tm13  1  0.789643  0.580420  0.940769  1
  Tm  Tm14  1  0.419360  0.209680  0.940883  1
  Tm  Tm15  1  0.210575  0.790323  0.059357  1
  Tm  Tm16  1  0.210575  0.420253  0.059357  1
  Lu  Lu17  1  0.000203  0.000101  0.500284  1
  Lu  Lu18  1  0.999391  0.999695  0.000199  1
  Lu  Lu19  1  0.580216  0.790108  0.058848  1
  Cd  Cd20  1  0.886680  0.113184  0.250075  1
  Cd  Cd21  1  0.886680  0.773497  0.250075  1
  Cd  Cd22  1  0.227545  0.113773  0.250001  1
  Cd  Cd23  1  0.113595  0.886974  0.750292  1
  Cd  Cd24  1  0.113595  0.226622  0.750292  1
  Cd  Cd25  1  0.772413  0.886206  0.750018  1
  Ru  Ru26  1  0.333698  0.666849  0.249760  1
  Ru  Ru27  1  0.667511  0.333755  0.749984  1
