# generated using pymatgen
data_Nd3GeHS7
_symmetry_space_group_name_H-M   'P 1'
_cell_length_a   9.97367512
_cell_length_b   10.44850646
_cell_length_c   5.88324600
_cell_angle_alpha   90.00000000
_cell_angle_beta   90.00000000
_cell_angle_gamma   120.55868638
_symmetry_Int_Tables_number   1
_chemical_formula_structural   Nd3GeHS7
_chemical_formula_sum   'Nd6 Ge2 H2 S14'
_cell_volume   527.93991097
_cell_formula_units_Z   2
loop_
 _symmetry_equiv_pos_site_id
 _symmetry_equiv_pos_as_xyz
  1  'x, y, z'
loop_
 _atom_site_type_symbol
 _atom_site_label
 _atom_site_symmetry_multiplicity
 _atom_site_fract_x
 _atom_site_fract_y
 _atom_site_fract_z
 _atom_site_occupancy
  Nd  Nd0  1  0.341220  0.127057  0.247540  1
  Nd  Nd1  1  0.776135  0.632983  0.256922  1
  Nd  Nd2  1  0.868120  0.231356  0.259305  1
  Nd  Nd3  1  0.658779  0.872942  0.747541  1
  Nd  Nd4  1  0.223864  0.367016  0.756921  1
  Nd  Nd5  1  0.131880  0.768643  0.759306  1
  Ge  Ge6  1  0.332142  0.670200  0.334721  1
  Ge  Ge7  1  0.667859  0.329801  0.834720  1
  H  H8  1  0.917696  0.972094  0.198726  1
  H  H9  1  0.082304  0.027906  0.698725  1
  S  S10  1  0.163627  0.266416  0.228573  1
  S  S11  1  0.760309  0.909594  0.228082  1
  S  S12  1  0.096987  0.834948  0.224302  1
  S  S13  1  0.657701  0.330485  0.459373  1
  S  S14  1  0.097234  0.523176  0.492477  1
  S  S15  1  0.485128  0.593568  0.489168  1
  S  S16  1  0.427673  0.898580  0.485413  1
  S  S17  1  0.239689  0.090405  0.728081  1
  S  S18  1  0.836373  0.733584  0.728572  1
  S  S19  1  0.903013  0.165051  0.724303  1
  S  S20  1  0.342298  0.669515  0.959372  1
  S  S21  1  0.902767  0.476825  0.992476  1
  S  S22  1  0.572328  0.101420  0.985412  1
  S  S23  1  0.514872  0.406432  0.989169  1
