# generated using pymatgen
data_Y6Tm2Tc3B24Rh
_symmetry_space_group_name_H-M   'P 1'
_cell_length_a   3.67401700
_cell_length_b   9.15080504
_cell_length_c   11.53986656
_cell_angle_alpha   90.09278722
_cell_angle_beta   90.00000000
_cell_angle_gamma   90.00000000
_symmetry_Int_Tables_number   1
_chemical_formula_structural   Y6Tm2Tc3B24Rh
_chemical_formula_sum   'Y6 Tm2 Tc3 B24 Rh1'
_cell_volume   387.97226633
_cell_formula_units_Z   1
loop_
 _symmetry_equiv_pos_site_id
 _symmetry_equiv_pos_as_xyz
  1  'x, y, z'
loop_
 _atom_site_type_symbol
 _atom_site_label
 _atom_site_symmetry_multiplicity
 _atom_site_fract_x
 _atom_site_fract_y
 _atom_site_fract_z
 _atom_site_occupancy
  Y  Y0  1  0.500000  0.317840  0.416175  1
  Y  Y1  1  0.500000  0.678605  0.590474  1
  Y  Y2  1  0.500000  0.176765  0.912615  1
  Y  Y3  1  0.500000  0.827482  0.081475  1
  Y  Y4  1  0.500000  0.440493  0.129397  1
  Y  Y5  1  0.500000  0.557207  0.870790  1
  Tm  Tm6  1  0.500000  0.056278  0.629454  1
  Tm  Tm7  1  0.500000  0.943937  0.369967  1
  Tc  Tc8  1  0.500000  0.137400  0.181205  1
  Tc  Tc9  1  0.500000  0.862564  0.819733  1
  Tc  Tc10  1  0.500000  0.361314  0.677536  1
  B  B11  1  0.000000  0.099435  0.471854  1
  B  B12  1  0.000000  0.897392  0.527592  1
  B  B13  1  0.000000  0.396075  0.971785  1
  B  B14  1  0.000000  0.604978  0.029584  1
  B  B15  1  0.000000  0.129445  0.315599  1
  B  B16  1  0.000000  0.869784  0.684784  1
  B  B17  1  0.000000  0.368759  0.813623  1
  B  B18  1  0.000000  0.632127  0.184548  1
  B  B19  1  0.000000  0.053507  0.067057  1
  B  B20  1  0.000000  0.947457  0.932049  1
  B  B21  1  0.000000  0.445904  0.566657  1
  B  B22  1  0.000000  0.554364  0.433719  1
  B  B23  1  0.000000  0.483648  0.288464  1
  B  B24  1  0.000000  0.517508  0.711787  1
  B  B25  1  0.000000  0.017968  0.786324  1
  B  B26  1  0.000000  0.982396  0.212656  1
  B  B27  1  0.000000  0.248244  0.081826  1
  B  B28  1  0.000000  0.752723  0.918333  1
  B  B29  1  0.000000  0.249203  0.581237  1
  B  B30  1  0.000000  0.750276  0.419925  1
  B  B31  1  0.000000  0.290546  0.235801  1
  B  B32  1  0.000000  0.709293  0.765261  1
  B  B33  1  0.000000  0.207691  0.733774  1
  B  B34  1  0.000000  0.791926  0.265480  1
  Rh  Rh35  1  0.500000  0.639462  0.321458  1
