# generated using pymatgen
data_Ba6Tb2(WO6)3
_symmetry_space_group_name_H-M   'P 1'
_cell_length_a   5.98059253
_cell_length_b   5.98059181
_cell_length_c   14.95761694
_cell_angle_alpha   89.99999830
_cell_angle_beta   78.46784044
_cell_angle_gamma   120.00002069
_symmetry_Int_Tables_number   1
_chemical_formula_structural   Ba6Tb2(WO6)3
_chemical_formula_sum   'Ba6 Tb2 W3 O18'
_cell_volume   450.80621846
_cell_formula_units_Z   1
loop_
 _symmetry_equiv_pos_site_id
 _symmetry_equiv_pos_as_xyz
  1  'x, y, z'
loop_
 _atom_site_type_symbol
 _atom_site_label
 _atom_site_symmetry_multiplicity
 _atom_site_fract_x
 _atom_site_fract_y
 _atom_site_fract_z
 _atom_site_occupancy
  Ba  Ba0  1  0.272391  0.636195  0.091415  1
  Ba  Ba1  1  0.821847  0.910923  0.267230  1
  Ba  Ba2  1  0.372880  0.186440  0.440681  1
  Ba  Ba3  1  0.627119  0.813559  0.559320  1
  Ba  Ba4  1  0.178153  0.089077  0.732770  1
  Ba  Ba5  1  0.727609  0.363805  0.908585  1
  Tb  Tb6  1  0.550624  0.275312  0.174064  1
  Tb  Tb7  1  0.449376  0.724688  0.825935  1
  W  W8  1  0.000000  0.000000  0.000000  1
  W  W9  1  0.103153  0.551576  0.345271  1
  W  W10  1  0.896847  0.448424  0.654729  1
  O  O11  1  0.258993  0.129496  0.077070  1
  O  O12  1  0.793433  0.129497  0.077070  1
  O  O13  1  0.793434  0.663937  0.077070  1
  O  O14  1  0.316450  0.428313  0.255237  1
  O  O15  1  0.856628  0.428314  0.255237  1
  O  O16  1  0.316448  0.888135  0.255237  1
  O  O17  1  0.901883  0.212861  0.409097  1
  O  O18  1  0.901883  0.689019  0.409097  1
  O  O19  1  0.378041  0.689020  0.409097  1
  O  O20  1  0.098118  0.310979  0.590903  1
  O  O21  1  0.621959  0.310980  0.590903  1
  O  O22  1  0.098118  0.787138  0.590903  1
  O  O23  1  0.683550  0.111865  0.744763  1
  O  O24  1  0.143373  0.571685  0.744763  1
  O  O25  1  0.683551  0.571686  0.744763  1
  O  O26  1  0.206565  0.336062  0.922930  1
  O  O27  1  0.206565  0.870504  0.922930  1
  O  O28  1  0.741007  0.870504  0.922930  1
