# generated using pymatgen
data_Yb3Er(Al3Pt)6
_symmetry_space_group_name_H-M   'P 1'
_cell_length_a   7.62518741
_cell_length_b   7.62158033
_cell_length_c   9.43956700
_cell_angle_alpha   90.00000000
_cell_angle_beta   90.00000000
_cell_angle_gamma   119.70422315
_symmetry_Int_Tables_number   1
_chemical_formula_structural   Yb3Er(Al3Pt)6
_chemical_formula_sum   'Yb3 Er1 Al18 Pt6'
_cell_volume   476.50224201
_cell_formula_units_Z   1
loop_
 _symmetry_equiv_pos_site_id
 _symmetry_equiv_pos_as_xyz
  1  'x, y, z'
loop_
 _atom_site_type_symbol
 _atom_site_label
 _atom_site_symmetry_multiplicity
 _atom_site_fract_x
 _atom_site_fract_y
 _atom_site_fract_z
 _atom_site_occupancy
  Yb  Yb0  1  0.994977  0.669751  0.250000  1
  Yb  Yb1  1  0.003637  0.329955  0.750000  1
  Yb  Yb2  1  0.671914  0.996904  0.250000  1
  Er  Er3  1  0.329865  0.002934  0.750000  1
  Al  Al4  1  0.131774  0.131559  0.250000  1
  Al  Al5  1  0.871675  0.869820  0.750000  1
  Al  Al6  1  0.000186  0.334872  0.075937  1
  Al  Al7  1  0.999970  0.664853  0.921922  1
  Al  Al8  1  0.999970  0.664853  0.578078  1
  Al  Al9  1  0.334624  0.999342  0.423569  1
  Al  Al10  1  0.000186  0.334872  0.424063  1
  Al  Al11  1  0.665688  0.000650  0.577834  1
  Al  Al12  1  0.665688  0.000650  0.922166  1
  Al  Al13  1  0.334624  0.999342  0.076431  1
  Al  Al14  1  0.331990  0.331731  0.559729  1
  Al  Al15  1  0.667073  0.667217  0.444409  1
  Al  Al16  1  0.667073  0.667217  0.055591  1
  Al  Al17  1  0.331990  0.331731  0.940271  1
  Al  Al18  1  0.340356  0.547059  0.250000  1
  Al  Al19  1  0.656846  0.451990  0.750000  1
  Al  Al20  1  0.545055  0.340349  0.250000  1
  Al  Al21  1  0.454994  0.662871  0.750000  1
  Pt  Pt22  1  0.671545  0.327667  0.999560  1
  Pt  Pt23  1  0.327811  0.671958  0.999044  1
  Pt  Pt24  1  0.327811  0.671958  0.500956  1
  Pt  Pt25  1  0.671545  0.327667  0.500440  1
  Pt  Pt26  1  0.000567  0.000115  0.999363  1
  Pt  Pt27  1  0.000567  0.000115  0.500637  1
