# generated using pymatgen
data_SmEr2Pt2Rh7
_symmetry_space_group_name_H-M   'P 1'
_cell_length_a   5.31325312
_cell_length_b   5.31455360
_cell_length_c   17.48689200
_cell_angle_alpha   90.00000000
_cell_angle_beta   90.00000000
_cell_angle_gamma   119.99758982
_symmetry_Int_Tables_number   1
_chemical_formula_structural   SmEr2Pt2Rh7
_chemical_formula_sum   'Sm2 Er4 Pt4 Rh14'
_cell_volume   427.64274026
_cell_formula_units_Z   2
loop_
 _symmetry_equiv_pos_site_id
 _symmetry_equiv_pos_as_xyz
  1  'x, y, z'
loop_
 _atom_site_type_symbol
 _atom_site_label
 _atom_site_symmetry_multiplicity
 _atom_site_fract_x
 _atom_site_fract_y
 _atom_site_fract_z
 _atom_site_occupancy
  Sm  Sm0  1  0.333346  0.666687  0.750000  1
  Sm  Sm1  1  0.666654  0.333313  0.250000  1
  Er  Er2  1  0.333343  0.666699  0.957883  1
  Er  Er3  1  0.666657  0.333301  0.042117  1
  Er  Er4  1  0.666657  0.333301  0.457883  1
  Er  Er5  1  0.333343  0.666699  0.542117  1
  Pt  Pt6  1  0.333255  0.666591  0.250000  1
  Pt  Pt7  1  0.666745  0.333409  0.750000  1
  Pt  Pt8  1  0.000000  0.000000  0.500000  1
  Pt  Pt9  1  0.000000  0.000000  0.000000  1
  Rh  Rh10  1  0.167706  0.832273  0.375323  1
  Rh  Rh11  1  0.167695  0.335398  0.375317  1
  Rh  Rh12  1  0.664553  0.832274  0.375336  1
  Rh  Rh13  1  0.832294  0.167727  0.624677  1
  Rh  Rh14  1  0.832305  0.664602  0.624683  1
  Rh  Rh15  1  0.335447  0.167726  0.624664  1
  Rh  Rh16  1  0.832294  0.167727  0.875323  1
  Rh  Rh17  1  0.832305  0.664602  0.875317  1
  Rh  Rh18  1  0.335447  0.167726  0.875336  1
  Rh  Rh19  1  0.167706  0.832273  0.124677  1
  Rh  Rh20  1  0.167695  0.335398  0.124683  1
  Rh  Rh21  1  0.664553  0.832274  0.124664  1
  Rh  Rh22  1  0.000074  0.000072  0.250000  1
  Rh  Rh23  1  0.999926  0.999928  0.750000  1
