# generated using pymatgen
data_Pr3Nd7Si5Pt
_symmetry_space_group_name_H-M   'P 1'
_cell_length_a   7.70103668
_cell_length_b   7.69844619
_cell_length_c   9.07729281
_cell_angle_alpha   115.00871732
_cell_angle_beta   114.99837766
_cell_angle_gamma   90.14414231
_symmetry_Int_Tables_number   1
_chemical_formula_structural   Pr3Nd7Si5Pt
_chemical_formula_sum   'Pr3 Nd7 Si5 Pt1'
_cell_volume   431.12603013
_cell_formula_units_Z   1
loop_
 _symmetry_equiv_pos_site_id
 _symmetry_equiv_pos_as_xyz
  1  'x, y, z'
loop_
 _atom_site_type_symbol
 _atom_site_label
 _atom_site_symmetry_multiplicity
 _atom_site_fract_x
 _atom_site_fract_y
 _atom_site_fract_z
 _atom_site_occupancy
  Pr  Pr0  1  0.689485  0.545202  0.712643  1
  Pr  Pr1  1  0.167619  0.689808  0.712892  1
  Pr  Pr2  1  0.545132  0.023481  0.712865  1
  Nd  Nd3  1  0.473195  0.473451  0.945862  1
  Nd  Nd4  1  0.027087  0.027364  0.055161  1
  Nd  Nd5  1  0.953233  0.809728  0.285964  1
  Nd  Nd6  1  0.332273  0.476627  0.285091  1
  Nd  Nd7  1  0.809028  0.331952  0.285626  1
  Nd  Nd8  1  0.476716  0.953786  0.285819  1
  Nd  Nd9  1  0.023145  0.168076  0.714873  1
  Si  Si10  1  0.250596  0.247235  0.498828  1
  Si  Si11  1  0.616008  0.885736  0.001768  1
  Si  Si12  1  0.385236  0.116191  0.001420  1
  Si  Si13  1  0.885220  0.385207  0.001022  1
  Si  Si14  1  0.116085  0.616149  0.001741  1
  Pt  Pt15  1  0.749942  0.750006  0.498424  1
