# generated using pymatgen
data_Ce2Nd6CdHgRu2
_symmetry_space_group_name_H-M   'P 1'
_cell_length_a   9.83579446
_cell_length_b   9.83801341
_cell_length_c   9.83801442
_cell_angle_alpha   59.97664119
_cell_angle_beta   60.00746312
_cell_angle_gamma   60.00746298
_symmetry_Int_Tables_number   1
_chemical_formula_structural   Ce2Nd6CdHgRu2
_chemical_formula_sum   'Ce4 Nd12 Cd2 Hg2 Ru4'
_cell_volume   673.10303544
_cell_formula_units_Z   2
loop_
 _symmetry_equiv_pos_site_id
 _symmetry_equiv_pos_as_xyz
  1  'x, y, z'
loop_
 _atom_site_type_symbol
 _atom_site_label
 _atom_site_symmetry_multiplicity
 _atom_site_fract_x
 _atom_site_fract_y
 _atom_site_fract_z
 _atom_site_occupancy
  Ce  Ce0  1  0.344603  0.343925  0.966872  1
  Ce  Ce1  1  0.344603  0.966872  0.343925  1
  Ce  Ce2  1  0.967824  0.343803  0.343803  1
  Ce  Ce3  1  0.344572  0.343803  0.343803  1
  Nd  Nd4  1  0.559550  0.559795  0.941371  1
  Nd  Nd5  1  0.939284  0.559795  0.941371  1
  Nd  Nd6  1  0.559256  0.940744  0.940744  1
  Nd  Nd7  1  0.939284  0.941371  0.559795  1
  Nd  Nd8  1  0.559550  0.941371  0.559795  1
  Nd  Nd9  1  0.939831  0.560169  0.560169  1
  Nd  Nd10  1  0.192094  0.192403  0.808056  1
  Nd  Nd11  1  0.807447  0.192403  0.808056  1
  Nd  Nd12  1  0.191368  0.808632  0.808631  1
  Nd  Nd13  1  0.807447  0.808057  0.192403  1
  Nd  Nd14  1  0.192093  0.808056  0.192402  1
  Nd  Nd15  1  0.806836  0.193164  0.193164  1
  Cd  Cd16  1  0.261768  0.579539  0.579539  1
  Cd  Cd17  1  0.579155  0.579539  0.579539  1
  Hg  Hg18  1  0.581932  0.583607  0.252529  1
  Hg  Hg19  1  0.581932  0.252529  0.583607  1
  Ru  Ru20  1  0.146002  0.146349  0.561647  1
  Ru  Ru21  1  0.146002  0.561647  0.146349  1
  Ru  Ru22  1  0.561756  0.146216  0.146216  1
  Ru  Ru23  1  0.145813  0.146216  0.146216  1
