# generated using pymatgen
data_YbHoLu6(B6Os)4
_symmetry_space_group_name_H-M   'P 1'
_cell_length_a   3.60307400
_cell_length_b   9.05110259
_cell_length_c   11.43093605
_cell_angle_alpha   89.95412450
_cell_angle_beta   90.00000000
_cell_angle_gamma   90.00000000
_symmetry_Int_Tables_number   1
_chemical_formula_structural   YbHoLu6(B6Os)4
_chemical_formula_sum   'Yb1 Ho1 Lu6 B24 Os4'
_cell_volume   372.78319392
_cell_formula_units_Z   1
loop_
 _symmetry_equiv_pos_site_id
 _symmetry_equiv_pos_as_xyz
  1  'x, y, z'
loop_
 _atom_site_type_symbol
 _atom_site_label
 _atom_site_symmetry_multiplicity
 _atom_site_fract_x
 _atom_site_fract_y
 _atom_site_fract_z
 _atom_site_occupancy
  Yb  Yb0  1  0.000000  0.322423  0.413406  1
  Ho  Ho1  1  0.000000  0.676972  0.585315  1
  Lu  Lu2  1  0.000000  0.821308  0.086430  1
  Lu  Lu3  1  0.000000  0.179412  0.914580  1
  Lu  Lu4  1  0.000000  0.944569  0.371937  1
  Lu  Lu5  1  0.000000  0.057249  0.627336  1
  Lu  Lu6  1  0.000000  0.443581  0.128119  1
  Lu  Lu7  1  0.000000  0.555698  0.873346  1
  B  B8  1  0.500000  0.553972  0.432716  1
  B  B9  1  0.500000  0.445935  0.567302  1
  B  B10  1  0.500000  0.052873  0.065625  1
  B  B11  1  0.500000  0.946181  0.933373  1
  B  B12  1  0.500000  0.749752  0.419410  1
  B  B13  1  0.500000  0.250735  0.580931  1
  B  B14  1  0.500000  0.248637  0.079626  1
  B  B15  1  0.500000  0.750657  0.920388  1
  B  B16  1  0.500000  0.792759  0.265448  1
  B  B17  1  0.500000  0.208270  0.735014  1
  B  B18  1  0.500000  0.291002  0.233439  1
  B  B19  1  0.500000  0.708209  0.766424  1
  B  B20  1  0.500000  0.631759  0.184829  1
  B  B21  1  0.500000  0.368884  0.816191  1
  B  B22  1  0.500000  0.130445  0.314363  1
  B  B23  1  0.500000  0.869200  0.684777  1
  B  B24  1  0.500000  0.981608  0.211950  1
  B  B25  1  0.500000  0.018195  0.787087  1
  B  B26  1  0.500000  0.482811  0.286851  1
  B  B27  1  0.500000  0.517508  0.713554  1
  B  B28  1  0.500000  0.606137  0.029502  1
  B  B29  1  0.500000  0.394247  0.971108  1
  B  B30  1  0.500000  0.101821  0.471792  1
  B  B31  1  0.500000  0.896742  0.528545  1
  Os  Os32  1  0.000000  0.640016  0.319769  1
  Os  Os33  1  0.000000  0.361500  0.680924  1
  Os  Os34  1  0.000000  0.136433  0.177234  1
  Os  Os35  1  0.000000  0.862497  0.821360  1
