# generated using pymatgen
data_Tb15Ce(CdCo)4
_symmetry_space_group_name_H-M   'P 1'
_cell_length_a   9.57999627
_cell_length_b   9.57999710
_cell_length_c   9.41727000
_cell_angle_alpha   60.56032384
_cell_angle_beta   60.56032103
_cell_angle_gamma   59.74217360
_symmetry_Int_Tables_number   1
_chemical_formula_structural   Tb15Ce(CdCo)4
_chemical_formula_sum   'Tb15 Ce1 Cd4 Co4'
_cell_volume   615.03540266
_cell_formula_units_Z   1
loop_
 _symmetry_equiv_pos_site_id
 _symmetry_equiv_pos_as_xyz
  1  'x, y, z'
loop_
 _atom_site_type_symbol
 _atom_site_label
 _atom_site_symmetry_multiplicity
 _atom_site_fract_x
 _atom_site_fract_y
 _atom_site_fract_z
 _atom_site_occupancy
  Tb  Tb0  1  0.600024  0.600024  0.591250  1
  Tb  Tb1  1  0.189831  0.808410  0.812646  1
  Tb  Tb2  1  0.061083  0.061083  0.438917  1
  Tb  Tb3  1  0.436950  0.055606  0.063999  1
  Tb  Tb4  1  0.808410  0.189831  0.812646  1
  Tb  Tb5  1  0.436950  0.055606  0.443445  1
  Tb  Tb6  1  0.595078  0.215975  0.594473  1
  Tb  Tb7  1  0.815515  0.815515  0.184485  1
  Tb  Tb8  1  0.215975  0.595078  0.594473  1
  Tb  Tb9  1  0.808410  0.189831  0.189113  1
  Tb  Tb10  1  0.055606  0.436950  0.443445  1
  Tb  Tb11  1  0.189831  0.808410  0.189113  1
  Tb  Tb12  1  0.600024  0.600024  0.208703  1
  Tb  Tb13  1  0.181850  0.181850  0.818150  1
  Tb  Tb14  1  0.055606  0.436950  0.063999  1
  Ce  Ce15  1  0.431255  0.431255  0.068745  1
  Cd  Cd16  1  0.830450  0.830450  0.508770  1
  Cd  Cd17  1  0.830450  0.830450  0.830330  1
  Cd  Cd18  1  0.507277  0.833583  0.829569  1
  Cd  Cd19  1  0.833583  0.507277  0.829569  1
  Co  Co20  1  0.401291  0.401291  0.349672  1
  Co  Co21  1  0.825602  0.387659  0.393370  1
  Co  Co22  1  0.387659  0.825602  0.393370  1
  Co  Co23  1  0.401291  0.401291  0.847747  1
