# generated using pymatgen
data_Tm2ZrPa3(Ni3Bi4)2
_symmetry_space_group_name_H-M   'P 1'
_cell_length_a   8.31239783
_cell_length_b   8.28663893
_cell_length_c   8.27283378
_cell_angle_alpha   108.91933448
_cell_angle_beta   109.59462057
_cell_angle_gamma   109.64312842
_symmetry_Int_Tables_number   1
_chemical_formula_structural   Tm2ZrPa3(Ni3Bi4)2
_chemical_formula_sum   'Tm2 Zr1 Pa3 Ni6 Bi8'
_cell_volume   440.03633085
_cell_formula_units_Z   1
loop_
 _symmetry_equiv_pos_site_id
 _symmetry_equiv_pos_as_xyz
  1  'x, y, z'
loop_
 _atom_site_type_symbol
 _atom_site_label
 _atom_site_symmetry_multiplicity
 _atom_site_fract_x
 _atom_site_fract_y
 _atom_site_fract_z
 _atom_site_occupancy
  Tm  Tm0  1  0.626533  0.751198  0.375998  1
  Tm  Tm1  1  0.251193  0.125105  0.876111  1
  Zr  Zr2  1  0.751678  0.375160  0.626427  1
  Pa  Pa3  1  0.123761  0.876337  0.249582  1
  Pa  Pa4  1  0.374041  0.623996  0.748284  1
  Pa  Pa5  1  0.873732  0.249306  0.123995  1
  Ni  Ni6  1  0.638141  0.367894  0.252341  1
  Ni  Ni7  1  0.873928  0.135592  0.763174  1
  Ni  Ni8  1  0.375641  0.252822  0.619768  1
  Ni  Ni9  1  0.120977  0.743006  0.874143  1
  Ni  Ni10  1  0.238877  0.617834  0.372996  1
  Ni  Ni11  1  0.753759  0.881935  0.120689  1
  Bi  Bi12  1  0.342126  0.336928  0.332561  1
  Bi  Bi13  1  0.167645  0.498996  0.998376  1
  Bi  Bi14  1  0.996145  0.166577  0.503711  1
  Bi  Bi15  1  0.831706  0.828541  0.826482  1
  Bi  Bi16  1  0.498243  0.999099  0.170291  1
  Bi  Bi17  1  0.664309  0.497971  0.998297  1
  Bi  Bi18  1  0.499620  0.002489  0.663014  1
  Bi  Bi19  1  0.997946  0.669210  0.503759  1
