# generated using pymatgen
data_Mo2IrRu2Rh3
_symmetry_space_group_name_H-M   'P 1'
_cell_length_a   5.47623915
_cell_length_b   5.53053477
_cell_length_c   4.39127200
_cell_angle_alpha   90.00000000
_cell_angle_beta   90.00000000
_cell_angle_gamma   119.62672572
_symmetry_Int_Tables_number   1
_chemical_formula_structural   Mo2IrRu2Rh3
_chemical_formula_sum   'Mo2 Ir1 Ru2 Rh3'
_cell_volume   115.60903657
_cell_formula_units_Z   1
loop_
 _symmetry_equiv_pos_site_id
 _symmetry_equiv_pos_as_xyz
  1  'x, y, z'
loop_
 _atom_site_type_symbol
 _atom_site_label
 _atom_site_symmetry_multiplicity
 _atom_site_fract_x
 _atom_site_fract_y
 _atom_site_fract_z
 _atom_site_occupancy
  Mo  Mo0  1  0.669216  0.339086  0.250000  1
  Mo  Mo1  1  0.330013  0.661126  0.750000  1
  Ir  Ir2  1  0.834855  0.166187  0.750000  1
  Ru  Ru3  1  0.833603  0.666952  0.750000  1
  Ru  Ru4  1  0.165983  0.333128  0.250000  1
  Rh  Rh5  1  0.331107  0.163552  0.750000  1
  Rh  Rh6  1  0.166740  0.834784  0.250000  1
  Rh  Rh7  1  0.668485  0.835183  0.250000  1
