# generated using pymatgen
data_PtF18
_symmetry_space_group_name_H-M   'P 1'
_cell_length_a   5.85743597
_cell_length_b   9.37752285
_cell_length_c   13.56166100
_cell_angle_alpha   101.85032987
_cell_angle_beta   93.26313484
_cell_angle_gamma   102.74165111
_symmetry_Int_Tables_number   1
_chemical_formula_structural   PtF18
_chemical_formula_sum   'Pt2 F36'
_cell_volume   707.00074063
_cell_formula_units_Z   2
loop_
 _symmetry_equiv_pos_site_id
 _symmetry_equiv_pos_as_xyz
  1  'x, y, z'
loop_
 _atom_site_type_symbol
 _atom_site_label
 _atom_site_symmetry_multiplicity
 _atom_site_fract_x
 _atom_site_fract_y
 _atom_site_fract_z
 _atom_site_occupancy
  Pt  Pt0  1  0.168869  0.991685  0.282566  1
  Pt  Pt1  1  0.831131  0.008315  0.717434  1
  F  F2  1  0.669466  0.642472  0.376765  1
  F  F3  1  0.330534  0.357528  0.623235  1
  F  F4  1  0.020766  0.385388  0.364279  1
  F  F5  1  0.979234  0.614612  0.635721  1
  F  F6  1  0.202974  0.885694  0.937139  1
  F  F7  1  0.797026  0.114306  0.062861  1
  F  F8  1  0.905203  0.073221  0.313525  1
  F  F9  1  0.094797  0.926779  0.686475  1
  F  F10  1  0.989703  0.800268  0.290797  1
  F  F11  1  0.010297  0.199732  0.709203  1
  F  F12  1  0.584600  0.505145  0.406922  1
  F  F13  1  0.415400  0.494855  0.593078  1
  F  F14  1  0.061808  0.951125  0.142709  1
  F  F15  1  0.938192  0.048875  0.857291  1
  F  F16  1  0.273546  0.037690  0.423188  1
  F  F17  1  0.726454  0.962310  0.576812  1
  F  F18  1  0.089738  0.414381  0.269777  1
  F  F19  1  0.910262  0.585619  0.730223  1
  F  F20  1  0.727696  0.673727  0.069968  1
  F  F21  1  0.272304  0.326273  0.930032  1
  F  F22  1  0.865535  0.592776  0.007620  1
  F  F23  1  0.134465  0.407224  0.992380  1
  F  F24  1  0.544326  0.576032  0.854242  1
  F  F25  1  0.455674  0.423968  0.145758  1
  F  F26  1  0.351566  0.181456  0.273581  1
  F  F27  1  0.648434  0.818544  0.726419  1
  F  F28  1  0.284098  0.803686  0.494289  1
  F  F29  1  0.715902  0.196314  0.505711  1
  F  F30  1  0.360633  0.834808  0.998048  1
  F  F31  1  0.639367  0.165192  0.001952  1
  F  F32  1  0.429081  0.905962  0.251302  1
  F  F33  1  0.570919  0.094038  0.748698  1
  F  F34  1  0.674319  0.406305  0.187423  1
  F  F35  1  0.325681  0.593695  0.812577  1
  F  F36  1  0.179011  0.646718  0.465215  1
  F  F37  1  0.820989  0.353282  0.534785  1
