# generated using pymatgen
data_Yb3HoReOs7
_symmetry_space_group_name_H-M   'P 1'
_cell_length_a   5.37705200
_cell_length_b   5.37705095
_cell_length_c   8.55976000
_cell_angle_alpha   90.00000000
_cell_angle_beta   90.00000000
_cell_angle_gamma   119.99999413
_symmetry_Int_Tables_number   1
_chemical_formula_structural   Yb3HoReOs7
_chemical_formula_sum   'Yb3 Ho1 Re1 Os7'
_cell_volume   214.32885009
_cell_formula_units_Z   1
loop_
 _symmetry_equiv_pos_site_id
 _symmetry_equiv_pos_as_xyz
  1  'x, y, z'
loop_
 _atom_site_type_symbol
 _atom_site_label
 _atom_site_symmetry_multiplicity
 _atom_site_fract_x
 _atom_site_fract_y
 _atom_site_fract_z
 _atom_site_occupancy
  Yb  Yb0  1  0.666667  0.333333  0.572075  1
  Yb  Yb1  1  0.666667  0.333333  0.935232  1
  Yb  Yb2  1  0.333333  0.666667  0.059916  1
  Ho  Ho3  1  0.333333  0.666667  0.429659  1
  Re  Re4  1  0.000000  0.000000  0.500477  1
  Os  Os5  1  0.000000  0.000000  0.001984  1
  Os  Os6  1  0.826665  0.173335  0.251976  1
  Os  Os7  1  0.826665  0.653330  0.251976  1
  Os  Os8  1  0.346670  0.173335  0.251976  1
  Os  Os9  1  0.172684  0.827316  0.748242  1
  Os  Os10  1  0.172684  0.345368  0.748242  1
  Os  Os11  1  0.654632  0.827316  0.748242  1
