# generated using pymatgen
data_Ac16Cd4Os3Rh
_symmetry_space_group_name_H-M   'P 1'
_cell_length_a   10.49231493
_cell_length_b   10.54970127
_cell_length_c   10.54984500
_cell_angle_alpha   59.99747036
_cell_angle_beta   59.81662010
_cell_angle_gamma   59.81636323
_symmetry_Int_Tables_number   1
_chemical_formula_structural   Ac16Cd4Os3Rh
_chemical_formula_sum   'Ac16 Cd4 Os3 Rh1'
_cell_volume   823.42510486
_cell_formula_units_Z   1
loop_
 _symmetry_equiv_pos_site_id
 _symmetry_equiv_pos_as_xyz
  1  'x, y, z'
loop_
 _atom_site_type_symbol
 _atom_site_label
 _atom_site_symmetry_multiplicity
 _atom_site_fract_x
 _atom_site_fract_y
 _atom_site_fract_z
 _atom_site_occupancy
  Ac  Ac0  1  0.343632  0.345585  0.345625  1
  Ac  Ac1  1  0.344366  0.345664  0.962178  1
  Ac  Ac2  1  0.344349  0.962193  0.345675  1
  Ac  Ac3  1  0.964436  0.344735  0.344739  1
  Ac  Ac4  1  0.811498  0.190625  0.190600  1
  Ac  Ac5  1  0.190134  0.811011  0.811027  1
  Ac  Ac6  1  0.189907  0.809848  0.190510  1
  Ac  Ac7  1  0.812715  0.191177  0.808361  1
  Ac  Ac8  1  0.189901  0.190508  0.809862  1
  Ac  Ac9  1  0.812715  0.808354  0.191179  1
  Ac  Ac10  1  0.937154  0.561202  0.561228  1
  Ac  Ac11  1  0.556628  0.941137  0.941125  1
  Ac  Ac12  1  0.558917  0.937550  0.564321  1
  Ac  Ac13  1  0.941201  0.558752  0.942866  1
  Ac  Ac14  1  0.558889  0.564321  0.937573  1
  Ac  Ac15  1  0.941162  0.942859  0.558757  1
  Cd  Cd16  1  0.577855  0.578156  0.578137  1
  Cd  Cd17  1  0.577933  0.578843  0.264027  1
  Cd  Cd18  1  0.577944  0.264021  0.578845  1
  Cd  Cd19  1  0.264494  0.578194  0.578180  1
  Os  Os20  1  0.140852  0.138119  0.138103  1
  Os  Os21  1  0.139738  0.136363  0.583203  1
  Os  Os22  1  0.139765  0.583212  0.136320  1
  Rh  Rh23  1  0.583813  0.137568  0.137559  1
