# generated using pymatgen
data_Y2Er14In6NiOs
_symmetry_space_group_name_H-M   'P 1'
_cell_length_a   10.32982800
_cell_length_b   10.32982760
_cell_length_c   6.99810400
_cell_angle_alpha   90.00000000
_cell_angle_beta   90.00000000
_cell_angle_gamma   120.00000129
_symmetry_Int_Tables_number   1
_chemical_formula_structural   Y2Er14In6NiOs
_chemical_formula_sum   'Y2 Er14 In6 Ni1 Os1'
_cell_volume   646.69154349
_cell_formula_units_Z   1
loop_
 _symmetry_equiv_pos_site_id
 _symmetry_equiv_pos_as_xyz
  1  'x, y, z'
loop_
 _atom_site_type_symbol
 _atom_site_label
 _atom_site_symmetry_multiplicity
 _atom_site_fract_x
 _atom_site_fract_y
 _atom_site_fract_z
 _atom_site_occupancy
  Y  Y0  1  0.000000  0.000000  0.491995  1
  Y  Y1  1  0.000000  0.000000  0.998388  1
  Er  Er2  1  0.466234  0.533766  0.481689  1
  Er  Er3  1  0.067531  0.533766  0.481689  1
  Er  Er4  1  0.466234  0.932469  0.481689  1
  Er  Er5  1  0.532366  0.467634  0.979604  1
  Er  Er6  1  0.935267  0.467634  0.979604  1
  Er  Er7  1  0.532366  0.064733  0.979604  1
  Er  Er8  1  0.821391  0.178609  0.274605  1
  Er  Er9  1  0.357217  0.178609  0.274605  1
  Er  Er10  1  0.821391  0.642783  0.274605  1
  Er  Er11  1  0.176981  0.823019  0.775071  1
  Er  Er12  1  0.646036  0.823019  0.775071  1
  Er  Er13  1  0.176981  0.353964  0.775071  1
  Er  Er14  1  0.333333  0.666667  0.104159  1
  Er  Er15  1  0.666667  0.333333  0.593706  1
  In  In16  1  0.161912  0.838088  0.235628  1
  In  In17  1  0.676178  0.838088  0.235628  1
  In  In18  1  0.161912  0.323822  0.235628  1
  In  In19  1  0.835567  0.164433  0.734196  1
  In  In20  1  0.328866  0.164433  0.734196  1
  In  In21  1  0.835567  0.671134  0.734196  1
  Ni  Ni22  1  0.666667  0.333333  0.206508  1
  Os  Os23  1  0.333333  0.666667  0.707418  1
