# generated using pymatgen
data_LiEr3In3IrAu
_symmetry_space_group_name_H-M   'P 1'
_cell_length_a   7.92592900
_cell_length_b   7.92592900
_cell_length_c   3.60648800
_cell_angle_alpha   90.00000000
_cell_angle_beta   90.00000000
_cell_angle_gamma   120.00001251
_symmetry_Int_Tables_number   1
_chemical_formula_structural   LiEr3In3IrAu
_chemical_formula_sum   'Li1 Er3 In3 Ir1 Au1'
_cell_volume   196.20741853
_cell_formula_units_Z   1
loop_
 _symmetry_equiv_pos_site_id
 _symmetry_equiv_pos_as_xyz
  1  'x, y, z'
loop_
 _atom_site_type_symbol
 _atom_site_label
 _atom_site_symmetry_multiplicity
 _atom_site_fract_x
 _atom_site_fract_y
 _atom_site_fract_z
 _atom_site_occupancy
  Li  Li0  1  0.000000  0.000000  0.500000  1
  Er  Er1  1  0.605888  0.023687  0.500000  1
  Er  Er2  1  0.417799  0.394112  0.500000  1
  Er  Er3  1  0.976313  0.582201  0.500000  1
  In  In4  1  0.002634  0.264387  0.000000  1
  In  In5  1  0.735613  0.738247  0.000000  1
  In  In6  1  0.261753  0.997366  0.000000  1
  Ir  Ir7  1  0.666667  0.333333  0.000000  1
  Au  Au8  1  0.333333  0.666667  0.000000  1
