# generated using pymatgen
data_Ce2Er6Cu3Si12Rh
_symmetry_space_group_name_H-M   'P 1'
_cell_length_a   8.03128300
_cell_length_b   8.03128266
_cell_length_c   8.13415000
_cell_angle_alpha   90.00000000
_cell_angle_beta   90.00000000
_cell_angle_gamma   119.99999728
_symmetry_Int_Tables_number   1
_chemical_formula_structural   Ce2Er6Cu3Si12Rh
_chemical_formula_sum   'Ce2 Er6 Cu3 Si12 Rh1'
_cell_volume   454.37315123
_cell_formula_units_Z   1
loop_
 _symmetry_equiv_pos_site_id
 _symmetry_equiv_pos_as_xyz
  1  'x, y, z'
loop_
 _atom_site_type_symbol
 _atom_site_label
 _atom_site_symmetry_multiplicity
 _atom_site_fract_x
 _atom_site_fract_y
 _atom_site_fract_z
 _atom_site_occupancy
  Ce  Ce0  1  0.000000  0.000000  0.249690  1
  Ce  Ce1  1  0.000000  0.000000  0.750337  1
  Er  Er2  1  0.499038  0.500962  0.251769  1
  Er  Er3  1  0.499038  0.998076  0.251769  1
  Er  Er4  1  0.001924  0.500962  0.251769  1
  Er  Er5  1  0.499917  0.500083  0.748301  1
  Er  Er6  1  0.000166  0.500083  0.748301  1
  Er  Er7  1  0.499917  0.999834  0.748301  1
  Cu  Cu8  1  0.666667  0.333333  0.498642  1
  Cu  Cu9  1  0.666667  0.333333  0.000801  1
  Cu  Cu10  1  0.333333  0.666667  0.999519  1
  Si  Si11  1  0.831338  0.168662  0.499612  1
  Si  Si12  1  0.831338  0.662677  0.499612  1
  Si  Si13  1  0.337323  0.168662  0.499612  1
  Si  Si14  1  0.830574  0.169426  0.999969  1
  Si  Si15  1  0.830574  0.661149  0.999969  1
  Si  Si16  1  0.338851  0.169426  0.999969  1
  Si  Si17  1  0.169648  0.830352  0.000238  1
  Si  Si18  1  0.660705  0.830352  0.000238  1
  Si  Si19  1  0.169648  0.339295  0.000238  1
  Si  Si20  1  0.167835  0.832165  0.500300  1
  Si  Si21  1  0.664331  0.832165  0.500300  1
  Si  Si22  1  0.167835  0.335669  0.500300  1
  Rh  Rh23  1  0.333333  0.666667  0.500446  1
