# generated using pymatgen
data_YbLu3PdPt3O14
_symmetry_space_group_name_H-M   'P 1'
_cell_length_a   7.20088397
_cell_length_b   7.16907112
_cell_length_c   7.16907100
_cell_angle_alpha   59.99999592
_cell_angle_beta   60.14603193
_cell_angle_gamma   60.14602934
_symmetry_Int_Tables_number   1
_chemical_formula_structural   YbLu3PdPt3O14
_chemical_formula_sum   'Yb1 Lu3 Pd1 Pt3 O14'
_cell_volume   262.27183289
_cell_formula_units_Z   1
loop_
 _symmetry_equiv_pos_site_id
 _symmetry_equiv_pos_as_xyz
  1  'x, y, z'
loop_
 _atom_site_type_symbol
 _atom_site_label
 _atom_site_symmetry_multiplicity
 _atom_site_fract_x
 _atom_site_fract_y
 _atom_site_fract_z
 _atom_site_occupancy
  Yb  Yb0  1  0.125000  0.625000  0.625000  1
  Lu  Lu1  1  0.625000  0.625000  0.125000  1
  Lu  Lu2  1  0.625000  0.625000  0.625000  1
  Lu  Lu3  1  0.625000  0.125000  0.625000  1
  Pd  Pd4  1  0.625000  0.125000  0.125000  1
  Pt  Pt5  1  0.125000  0.125000  0.125000  1
  Pt  Pt6  1  0.125000  0.125000  0.625000  1
  Pt  Pt7  1  0.125000  0.625000  0.125000  1
  O  O8  1  0.026578  0.464530  0.464530  1
  O  O9  1  0.783156  0.782746  0.217049  1
  O  O10  1  0.783156  0.217049  0.217049  1
  O  O11  1  0.466844  0.032951  0.467254  1
  O  O12  1  0.738422  0.753859  0.753859  1
  O  O13  1  0.026578  0.464530  0.044360  1
  O  O14  1  0.026578  0.044360  0.464530  1
  O  O15  1  0.223422  0.785470  0.205640  1
  O  O16  1  0.223422  0.205640  0.785470  1
  O  O17  1  0.783156  0.217049  0.782746  1
  O  O18  1  0.511578  0.496141  0.496141  1
  O  O19  1  0.466844  0.032951  0.032951  1
  O  O20  1  0.466844  0.467254  0.032951  1
  O  O21  1  0.223422  0.785470  0.785470  1
