# generated using pymatgen
data_Eu4Ho2ScCo17P12
_symmetry_space_group_name_H-M   'P 1'
_cell_length_a   3.74464200
_cell_length_b   10.67682100
_cell_length_c   12.35613300
_cell_angle_alpha   90.00000000
_cell_angle_beta   90.00000000
_cell_angle_gamma   90.00000000
_symmetry_Int_Tables_number   1
_chemical_formula_structural   Eu4Ho2ScCo17P12
_chemical_formula_sum   'Eu4 Ho2 Sc1 Co17 P12'
_cell_volume   494.00897613
_cell_formula_units_Z   1
loop_
 _symmetry_equiv_pos_site_id
 _symmetry_equiv_pos_as_xyz
  1  'x, y, z'
loop_
 _atom_site_type_symbol
 _atom_site_label
 _atom_site_symmetry_multiplicity
 _atom_site_fract_x
 _atom_site_fract_y
 _atom_site_fract_z
 _atom_site_occupancy
  Eu  Eu0  1  0.000000  0.500000  0.529860  1
  Eu  Eu1  1  0.500000  0.000000  0.473961  1
  Eu  Eu2  1  0.000000  0.680528  0.795633  1
  Eu  Eu3  1  0.000000  0.319472  0.795633  1
  Ho  Ho4  1  0.500000  0.821986  0.206383  1
  Ho  Ho5  1  0.500000  0.178014  0.206383  1
  Sc  Sc6  1  0.500000  0.500000  0.151459  1
  Co  Co7  1  0.000000  0.500000  0.988133  1
  Co  Co8  1  0.500000  0.000000  0.013644  1
  Co  Co9  1  0.500000  0.294059  0.431422  1
  Co  Co10  1  0.500000  0.705941  0.431422  1
  Co  Co11  1  0.000000  0.201048  0.569258  1
  Co  Co12  1  0.000000  0.798952  0.569258  1
  Co  Co13  1  0.500000  0.882474  0.707945  1
  Co  Co14  1  0.500000  0.117526  0.707945  1
  Co  Co15  1  0.000000  0.622286  0.293963  1
  Co  Co16  1  0.000000  0.377714  0.293963  1
  Co  Co17  1  0.500000  0.325262  0.993637  1
  Co  Co18  1  0.500000  0.674738  0.993637  1
  Co  Co19  1  0.000000  0.161272  0.003707  1
  Co  Co20  1  0.000000  0.838728  0.003707  1
  Co  Co21  1  0.000000  0.000000  0.839303  1
  Co  Co22  1  0.500000  0.500000  0.704009  1
  Co  Co23  1  0.000000  0.000000  0.293802  1
  P  P24  1  0.500000  0.303328  0.615661  1
  P  P25  1  0.500000  0.696672  0.615661  1
  P  P26  1  0.000000  0.192577  0.383721  1
  P  P27  1  0.000000  0.807423  0.383721  1
  P  P28  1  0.500000  0.500000  0.888349  1
  P  P29  1  0.000000  0.000000  0.115927  1
  P  P30  1  0.500000  0.852352  0.890578  1
  P  P31  1  0.500000  0.147648  0.890578  1
  P  P32  1  0.000000  0.664147  0.102169  1
  P  P33  1  0.000000  0.335853  0.102169  1
  P  P34  1  0.500000  0.500000  0.355415  1
  P  P35  1  0.000000  0.000000  0.657981  1
