# generated using pymatgen
data_BaYbP2O7
_symmetry_space_group_name_H-M   'P 1'
_cell_length_a   5.81254383
_cell_length_b   7.03353591
_cell_length_c   7.82689806
_cell_angle_alpha   101.46955517
_cell_angle_beta   89.01733928
_cell_angle_gamma   93.39353283
_symmetry_Int_Tables_number   1
_chemical_formula_structural   BaYbP2O7
_chemical_formula_sum   'Ba2 Yb2 P4 O14'
_cell_volume   313.04044905
_cell_formula_units_Z   2
loop_
 _symmetry_equiv_pos_site_id
 _symmetry_equiv_pos_as_xyz
  1  'x, y, z'
loop_
 _atom_site_type_symbol
 _atom_site_label
 _atom_site_symmetry_multiplicity
 _atom_site_fract_x
 _atom_site_fract_y
 _atom_site_fract_z
 _atom_site_occupancy
  Ba  Ba0  1  0.244854  0.761704  0.439862  1
  Ba  Ba1  1  0.755146  0.238296  0.560138  1
  Yb  Yb2  1  0.210020  0.660324  0.900336  1
  Yb  Yb3  1  0.789980  0.339676  0.099664  1
  P  P4  1  0.720070  0.831866  0.095078  1
  P  P5  1  0.279930  0.168134  0.904922  1
  P  P6  1  0.721022  0.732593  0.702759  1
  P  P7  1  0.278978  0.267407  0.297241  1
  O  O8  1  0.479132  0.739102  0.117792  1
  O  O9  1  0.520868  0.260898  0.882208  1
  O  O10  1  0.767107  0.034996  0.203300  1
  O  O11  1  0.232893  0.965004  0.796700  1
  O  O12  1  0.907394  0.686677  0.106853  1
  O  O13  1  0.092606  0.313323  0.893147  1
  O  O14  1  0.495547  0.605582  0.692658  1
  O  O15  1  0.504453  0.394418  0.307342  1
  O  O16  1  0.067544  0.392450  0.313660  1
  O  O17  1  0.932456  0.607550  0.686340  1
  O  O18  1  0.264324  0.126896  0.105307  1
  O  O19  1  0.735676  0.873104  0.894693  1
  O  O20  1  0.270523  0.135951  0.430797  1
  O  O21  1  0.729477  0.864049  0.569203  1
