# generated using pymatgen
data_Ac3Pr5Si12(IrRh)2
_symmetry_space_group_name_H-M   'P 1'
_cell_length_a   8.34240400
_cell_length_b   8.34239556
_cell_length_c   8.72261000
_cell_angle_alpha   90.00000000
_cell_angle_beta   90.00000000
_cell_angle_gamma   120.00002730
_symmetry_Int_Tables_number   1
_chemical_formula_structural   Ac3Pr5Si12(IrRh)2
_chemical_formula_sum   'Ac3 Pr5 Si12 Ir2 Rh2'
_cell_volume   525.72540416
_cell_formula_units_Z   1
loop_
 _symmetry_equiv_pos_site_id
 _symmetry_equiv_pos_as_xyz
  1  'x, y, z'
loop_
 _atom_site_type_symbol
 _atom_site_label
 _atom_site_symmetry_multiplicity
 _atom_site_fract_x
 _atom_site_fract_y
 _atom_site_fract_z
 _atom_site_occupancy
  Ac  Ac0  1  0.500561  0.499438  0.250000  1
  Ac  Ac1  1  0.998882  0.499440  0.250000  1
  Ac  Ac2  1  0.500561  0.001121  0.250000  1
  Pr  Pr3  1  0.000000  0.000000  0.750000  1
  Pr  Pr4  1  0.000001  0.000001  0.250000  1
  Pr  Pr5  1  0.500398  0.499596  0.750000  1
  Pr  Pr6  1  0.500404  0.000809  0.750000  1
  Pr  Pr7  1  0.999199  0.499599  0.750000  1
  Si  Si8  1  0.834210  0.165793  0.991610  1
  Si  Si9  1  0.834209  0.668415  0.991610  1
  Si  Si10  1  0.331584  0.165792  0.991609  1
  Si  Si11  1  0.834210  0.165793  0.508390  1
  Si  Si12  1  0.834209  0.668415  0.508390  1
  Si  Si13  1  0.331584  0.165792  0.508391  1
  Si  Si14  1  0.166049  0.833951  0.508552  1
  Si  Si15  1  0.667898  0.833949  0.508552  1
  Si  Si16  1  0.166051  0.332101  0.508552  1
  Si  Si17  1  0.166049  0.833951  0.991448  1
  Si  Si18  1  0.667898  0.833949  0.991448  1
  Si  Si19  1  0.166051  0.332101  0.991448  1
  Ir  Ir20  1  0.666668  0.333333  0.991847  1
  Ir  Ir21  1  0.666668  0.333333  0.508153  1
  Rh  Rh22  1  0.333327  0.666666  0.507861  1
  Rh  Rh23  1  0.333327  0.666666  0.992139  1
