# generated using pymatgen
data_HoCu4
_symmetry_space_group_name_H-M   'P 1'
_cell_length_a   4.99234239
_cell_length_b   4.99234180
_cell_length_c   10.51539991
_cell_angle_alpha   94.71285678
_cell_angle_beta   94.71285845
_cell_angle_gamma   120.05636873
_symmetry_Int_Tables_number   1
_chemical_formula_structural   HoCu4
_chemical_formula_sum   'Ho3 Cu12'
_cell_volume   223.75034746
_cell_formula_units_Z   3
loop_
 _symmetry_equiv_pos_site_id
 _symmetry_equiv_pos_as_xyz
  1  'x, y, z'
loop_
 _atom_site_type_symbol
 _atom_site_label
 _atom_site_symmetry_multiplicity
 _atom_site_fract_x
 _atom_site_fract_y
 _atom_site_fract_z
 _atom_site_occupancy
  Ho  Ho0  1  0.000000  0.000000  0.000000  1
  Ho  Ho1  1  0.133363  0.133363  0.357583  1
  Ho  Ho2  1  0.866637  0.866637  0.642417  1
  Cu  Cu3  1  0.663454  0.336547  0.000000  1
  Cu  Cu4  1  0.336547  0.663454  0.000000  1
  Cu  Cu5  1  0.569713  0.068242  0.196775  1
  Cu  Cu6  1  0.068242  0.569713  0.196775  1
  Cu  Cu7  1  0.571500  0.571500  0.202102  1
  Cu  Cu8  1  0.808086  0.472104  0.406457  1
  Cu  Cu9  1  0.472104  0.808086  0.406457  1
  Cu  Cu10  1  0.527898  0.191915  0.593543  1
  Cu  Cu11  1  0.191915  0.527898  0.593543  1
  Cu  Cu12  1  0.428499  0.428499  0.797898  1
  Cu  Cu13  1  0.931757  0.430286  0.803226  1
  Cu  Cu14  1  0.430286  0.931757  0.803226  1
