# generated using pymatgen
data_LaYCo5B2
_symmetry_space_group_name_H-M   'P 1'
_cell_length_a   5.10829008
_cell_length_b   5.10829063
_cell_length_c   20.19723300
_cell_angle_alpha   90.00000000
_cell_angle_beta   90.00000000
_cell_angle_gamma   120.02526565
_symmetry_Int_Tables_number   1
_chemical_formula_structural   LaYCo5B2
_chemical_formula_sum   'La4 Y4 Co20 B8'
_cell_volume   456.31319942
_cell_formula_units_Z   4
loop_
 _symmetry_equiv_pos_site_id
 _symmetry_equiv_pos_as_xyz
  1  'x, y, z'
loop_
 _atom_site_type_symbol
 _atom_site_label
 _atom_site_symmetry_multiplicity
 _atom_site_fract_x
 _atom_site_fract_y
 _atom_site_fract_z
 _atom_site_occupancy
  La  La0  1  0.666661  0.333339  0.522054  1
  La  La1  1  0.333339  0.666661  0.477946  1
  La  La2  1  0.333339  0.666661  0.022054  1
  La  La3  1  0.666661  0.333339  0.977946  1
  Y  Y4  1  0.666744  0.333256  0.675556  1
  Y  Y5  1  0.333256  0.666744  0.324444  1
  Y  Y6  1  0.333256  0.666744  0.175556  1
  Y  Y7  1  0.666744  0.333256  0.824444  1
  Co  Co8  1  0.000000  0.000000  0.500000  1
  Co  Co9  1  0.000000  0.000000  0.000000  1
  Co  Co10  1  0.167823  0.335426  0.750000  1
  Co  Co11  1  0.167824  0.832176  0.750000  1
  Co  Co12  1  0.664574  0.832177  0.750000  1
  Co  Co13  1  0.832177  0.664574  0.250000  1
  Co  Co14  1  0.832176  0.167824  0.250000  1
  Co  Co15  1  0.335426  0.167823  0.250000  1
  Co  Co16  1  0.161050  0.321889  0.609344  1
  Co  Co17  1  0.160965  0.839035  0.609357  1
  Co  Co18  1  0.678111  0.838951  0.609344  1
  Co  Co19  1  0.838951  0.678111  0.390656  1
  Co  Co20  1  0.839035  0.160965  0.390643  1
  Co  Co21  1  0.321889  0.161050  0.390656  1
  Co  Co22  1  0.838951  0.678111  0.109344  1
  Co  Co23  1  0.839035  0.160965  0.109357  1
  Co  Co24  1  0.321889  0.161050  0.109344  1
  Co  Co25  1  0.161050  0.321889  0.890656  1
  Co  Co26  1  0.160965  0.839035  0.890643  1
  Co  Co27  1  0.678111  0.838951  0.890656  1
  B  B28  1  0.000004  0.999996  0.679248  1
  B  B29  1  0.999996  0.000004  0.320752  1
  B  B30  1  0.999996  0.000004  0.179248  1
  B  B31  1  0.000004  0.999996  0.820752  1
  B  B32  1  0.666583  0.333417  0.324289  1
  B  B33  1  0.333417  0.666583  0.675711  1
  B  B34  1  0.333417  0.666583  0.824289  1
  B  B35  1  0.666583  0.333417  0.175711  1
