# generated using pymatgen
data_TbDy3(Mn2Br)2
_symmetry_space_group_name_H-M   'P 1'
_cell_length_a   3.81779300
_cell_length_b   3.81779262
_cell_length_c   17.00885000
_cell_angle_alpha   90.00000000
_cell_angle_beta   90.00000000
_cell_angle_gamma   120.00001193
_symmetry_Int_Tables_number   1
_chemical_formula_structural   TbDy3(Mn2Br)2
_chemical_formula_sum   'Tb1 Dy3 Mn4 Br2'
_cell_volume   214.69910912
_cell_formula_units_Z   1
loop_
 _symmetry_equiv_pos_site_id
 _symmetry_equiv_pos_as_xyz
  1  'x, y, z'
loop_
 _atom_site_type_symbol
 _atom_site_label
 _atom_site_symmetry_multiplicity
 _atom_site_fract_x
 _atom_site_fract_y
 _atom_site_fract_z
 _atom_site_occupancy
  Tb  Tb0  1  0.000000  0.000000  0.115302  1
  Dy  Dy1  1  0.000000  0.000000  0.885055  1
  Dy  Dy2  1  0.000000  0.000000  0.615080  1
  Dy  Dy3  1  0.000000  0.000000  0.384968  1
  Mn  Mn4  1  0.333333  0.666667  0.510284  1
  Mn  Mn5  1  0.666667  0.333333  0.489596  1
  Mn  Mn6  1  0.666667  0.333333  0.010332  1
  Mn  Mn7  1  0.333333  0.666667  0.989029  1
  Br  Br8  1  0.333333  0.666667  0.250565  1
  Br  Br9  1  0.666667  0.333333  0.749788  1
