# generated using pymatgen
data_Sm6Zn18Ir5Se
_symmetry_space_group_name_H-M   'P 1'
_cell_length_a   8.97089766
_cell_length_b   9.00910411
_cell_length_c   8.97089800
_cell_angle_alpha   59.85901270
_cell_angle_beta   60.14192321
_cell_angle_gamma   59.85901528
_symmetry_Int_Tables_number   1
_chemical_formula_structural   Sm6Zn18Ir5Se
_chemical_formula_sum   'Sm6 Zn18 Ir5 Se1'
_cell_volume   512.11948786
_cell_formula_units_Z   1
loop_
 _symmetry_equiv_pos_site_id
 _symmetry_equiv_pos_as_xyz
  1  'x, y, z'
loop_
 _atom_site_type_symbol
 _atom_site_label
 _atom_site_symmetry_multiplicity
 _atom_site_fract_x
 _atom_site_fract_y
 _atom_site_fract_z
 _atom_site_occupancy
  Sm  Sm0  1  0.720838  0.272933  0.279162  1
  Sm  Sm1  1  0.723152  0.276848  0.723152  1
  Sm  Sm2  1  0.720838  0.727067  0.279162  1
  Sm  Sm3  1  0.279162  0.727067  0.720838  1
  Sm  Sm4  1  0.276848  0.723152  0.276848  1
  Sm  Sm5  1  0.279162  0.272933  0.720838  1
  Zn  Zn6  1  0.618514  0.127016  0.127456  1
  Zn  Zn7  1  0.126735  0.620902  0.126735  1
  Zn  Zn8  1  0.127456  0.127016  0.618514  1
  Zn  Zn9  1  0.126735  0.125628  0.126735  1
  Zn  Zn10  1  0.381486  0.872984  0.872544  1
  Zn  Zn11  1  0.873265  0.379098  0.873265  1
  Zn  Zn12  1  0.872544  0.872984  0.381486  1
  Zn  Zn13  1  0.873265  0.874372  0.873265  1
  Zn  Zn14  1  0.000000  0.500000  0.000000  1
  Zn  Zn15  1  0.000000  0.000000  0.000000  1
  Zn  Zn16  1  0.002631  0.332388  0.332590  1
  Zn  Zn17  1  0.329538  0.009436  0.329538  1
  Zn  Zn18  1  0.332590  0.332388  0.002631  1
  Zn  Zn19  1  0.329538  0.331487  0.329538  1
  Zn  Zn20  1  0.997369  0.667612  0.667410  1
  Zn  Zn21  1  0.670462  0.990564  0.670462  1
  Zn  Zn22  1  0.667410  0.667612  0.997369  1
  Zn  Zn23  1  0.670462  0.668513  0.670462  1
  Ir  Ir24  1  0.500000  0.000000  0.000000  1
  Ir  Ir25  1  0.500000  0.000000  0.500000  1
  Ir  Ir26  1  0.500000  0.500000  0.000000  1
  Ir  Ir27  1  0.000000  0.500000  0.500000  1
  Ir  Ir28  1  0.000000  0.000000  0.500000  1
  Se  Se29  1  0.500000  0.500000  0.500000  1
