# generated using pymatgen
data_BaMn4Cr2O12
_symmetry_space_group_name_H-M   'P 1'
_cell_length_a   8.26114062
_cell_length_b   8.26263203
_cell_length_c   9.87669160
_cell_angle_alpha   54.49199772
_cell_angle_beta   54.47553473
_cell_angle_gamma   64.97449738
_symmetry_Int_Tables_number   1
_chemical_formula_structural   BaMn4Cr2O12
_chemical_formula_sum   'Ba2 Mn8 Cr4 O24'
_cell_volume   442.91065524
_cell_formula_units_Z   2
loop_
 _symmetry_equiv_pos_site_id
 _symmetry_equiv_pos_as_xyz
  1  'x, y, z'
loop_
 _atom_site_type_symbol
 _atom_site_label
 _atom_site_symmetry_multiplicity
 _atom_site_fract_x
 _atom_site_fract_y
 _atom_site_fract_z
 _atom_site_occupancy
  Ba  Ba0  1  0.721124  0.285144  0.998022  1
  Ba  Ba1  1  0.279666  0.720078  0.998000  1
  Mn  Mn2  1  0.664332  0.664169  0.180035  1
  Mn  Mn3  1  0.331176  0.998676  0.180903  1
  Mn  Mn4  1  0.145959  0.147277  0.520136  1
  Mn  Mn5  1  0.481337  0.813178  0.519275  1
  Mn  Mn6  1  0.813310  0.480034  0.520115  1
  Mn  Mn7  1  0.854780  0.852929  0.476310  1
  Mn  Mn8  1  0.186272  0.518138  0.478842  1
  Mn  Mn9  1  0.518503  0.188390  0.476956  1
  Cr  Cr10  1  0.335863  0.335990  0.818779  1
  Cr  Cr11  1  0.002398  0.669763  0.817376  1
  Cr  Cr12  1  0.670293  0.002497  0.816314  1
  Cr  Cr13  1  0.997927  0.329726  0.182628  1
  O  O14  1  0.344598  0.344662  0.607774  1
  O  O15  1  0.005482  0.670189  0.614238  1
  O  O16  1  0.672886  0.008304  0.611321  1
  O  O17  1  0.992830  0.328142  0.386429  1
  O  O18  1  0.652058  0.651278  0.391091  1
  O  O19  1  0.325990  0.990898  0.385166  1
  O  O20  1  0.343460  0.344779  0.351267  1
  O  O21  1  0.009547  0.675558  0.355311  1
  O  O22  1  0.677566  0.010149  0.353738  1
  O  O23  1  0.994033  0.326321  0.640235  1
  O  O24  1  0.658227  0.660388  0.642027  1
  O  O25  1  0.327974  0.993489  0.638267  1
  O  O26  1  0.631907  0.293980  0.721702  1
  O  O27  1  0.295160  0.630794  0.724102  1
  O  O28  1  0.961953  0.963617  0.713423  1
  O  O29  1  0.702714  0.376954  0.278286  1
  O  O30  1  0.372984  0.708706  0.279968  1
  O  O31  1  0.045743  0.034828  0.286477  1
  O  O32  1  0.952636  0.634300  0.059410  1
  O  O33  1  0.625427  0.956985  0.062142  1
  O  O34  1  0.304510  0.289834  0.058948  1
  O  O35  1  0.367349  0.033190  0.953792  1
  O  O36  1  0.036800  0.369599  0.946927  1
  O  O37  1  0.695226  0.697067  0.954266  1
