# generated using pymatgen
data_NdSmRh2O7
_symmetry_space_group_name_H-M   'P 1'
_cell_length_a   7.35859368
_cell_length_b   7.37140847
_cell_length_c   7.35859336
_cell_angle_alpha   59.94237674
_cell_angle_beta   59.89440921
_cell_angle_gamma   59.94237224
_symmetry_Int_Tables_number   1
_chemical_formula_structural   NdSmRh2O7
_chemical_formula_sum   'Nd2 Sm2 Rh4 O14'
_cell_volume   281.77283360
_cell_formula_units_Z   2
loop_
 _symmetry_equiv_pos_site_id
 _symmetry_equiv_pos_as_xyz
  1  'x, y, z'
loop_
 _atom_site_type_symbol
 _atom_site_label
 _atom_site_symmetry_multiplicity
 _atom_site_fract_x
 _atom_site_fract_y
 _atom_site_fract_z
 _atom_site_occupancy
  Nd  Nd0  1  0.125000  0.125000  0.125000  1
  Nd  Nd1  1  0.125000  0.625000  0.125000  1
  Sm  Sm2  1  0.625000  0.125000  0.125000  1
  Sm  Sm3  1  0.125000  0.125000  0.625000  1
  Rh  Rh4  1  0.625000  0.625000  0.625000  1
  Rh  Rh5  1  0.625000  0.625000  0.125000  1
  Rh  Rh6  1  0.125000  0.625000  0.625000  1
  Rh  Rh7  1  0.625000  0.125000  0.625000  1
  O  O8  1  0.252799  0.247201  0.252799  1
  O  O9  1  0.292272  0.707728  0.292272  1
  O  O10  1  0.957563  0.958009  0.544191  1
  O  O11  1  0.542447  0.957553  0.542447  1
  O  O12  1  0.705809  0.709763  0.292437  1
  O  O13  1  0.957563  0.540237  0.544191  1
  O  O14  1  0.707553  0.292447  0.707553  1
  O  O15  1  0.292437  0.291991  0.705809  1
  O  O16  1  0.705809  0.291991  0.292437  1
  O  O17  1  0.292437  0.709763  0.705809  1
  O  O18  1  0.957728  0.542272  0.957728  1
  O  O19  1  0.544191  0.540237  0.957563  1
  O  O20  1  0.997201  0.002799  0.997201  1
  O  O21  1  0.544191  0.958009  0.957563  1
