# generated using pymatgen
data_Li2LuPa3(ZnPt2)2
_symmetry_space_group_name_H-M   'P 1'
_cell_length_a   3.89017200
_cell_length_b   7.19173450
_cell_length_c   8.42693408
_cell_angle_alpha   89.98136439
_cell_angle_beta   90.00000000
_cell_angle_gamma   90.00000000
_symmetry_Int_Tables_number   1
_chemical_formula_structural   Li2LuPa3(ZnPt2)2
_chemical_formula_sum   'Li2 Lu1 Pa3 Zn2 Pt4'
_cell_volume   235.76103164
_cell_formula_units_Z   1
loop_
 _symmetry_equiv_pos_site_id
 _symmetry_equiv_pos_as_xyz
  1  'x, y, z'
loop_
 _atom_site_type_symbol
 _atom_site_label
 _atom_site_symmetry_multiplicity
 _atom_site_fract_x
 _atom_site_fract_y
 _atom_site_fract_z
 _atom_site_occupancy
  Li  Li0  1  0.750000  0.371617  0.440908  1
  Li  Li1  1  0.750000  0.887131  0.061072  1
  Lu  Lu2  1  0.250000  0.054721  0.311852  1
  Pa  Pa3  1  0.250000  0.552768  0.191659  1
  Pa  Pa4  1  0.750000  0.448087  0.814302  1
  Pa  Pa5  1  0.750000  0.950544  0.680866  1
  Zn  Zn6  1  0.250000  0.618847  0.560566  1
  Zn  Zn7  1  0.250000  0.117488  0.940520  1
  Pt  Pt8  1  0.250000  0.732608  0.875026  1
  Pt  Pt9  1  0.750000  0.274305  0.122898  1
  Pt  Pt10  1  0.750000  0.756047  0.373149  1
  Pt  Pt11  1  0.250000  0.235839  0.627183  1
