# generated using pymatgen
data_Er6Al24Ru5Pt2Au
_symmetry_space_group_name_H-M   'P 1'
_cell_length_a   8.85752693
_cell_length_b   8.85752640
_cell_length_c   9.50879417
_cell_angle_alpha   89.66118154
_cell_angle_beta   90.33882444
_cell_angle_gamma   120.03048414
_symmetry_Int_Tables_number   1
_chemical_formula_structural   Er6Al24Ru5Pt2Au
_chemical_formula_sum   'Er6 Al24 Ru5 Pt2 Au1'
_cell_volume   645.85853831
_cell_formula_units_Z   1
loop_
 _symmetry_equiv_pos_site_id
 _symmetry_equiv_pos_as_xyz
  1  'x, y, z'
loop_
 _atom_site_type_symbol
 _atom_site_label
 _atom_site_symmetry_multiplicity
 _atom_site_fract_x
 _atom_site_fract_y
 _atom_site_fract_z
 _atom_site_occupancy
  Er  Er0  1  0.192064  0.384114  0.248222  1
  Er  Er1  1  0.807936  0.615886  0.751778  1
  Er  Er2  1  0.615886  0.807936  0.248222  1
  Er  Er3  1  0.384114  0.192064  0.751778  1
  Er  Er4  1  0.191889  0.808111  0.253477  1
  Er  Er5  1  0.808111  0.191889  0.746523  1
  Al  Al6  1  0.327563  0.672437  0.029247  1
  Al  Al7  1  0.672437  0.327563  0.970753  1
  Al  Al8  1  0.663698  0.336302  0.530297  1
  Al  Al9  1  0.336302  0.663698  0.469703  1
  Al  Al10  1  0.167007  0.324783  0.576536  1
  Al  Al11  1  0.832993  0.675217  0.423464  1
  Al  Al12  1  0.675217  0.832993  0.576536  1
  Al  Al13  1  0.849046  0.676908  0.078774  1
  Al  Al14  1  0.324783  0.167007  0.423464  1
  Al  Al15  1  0.150954  0.323092  0.921226  1
  Al  Al16  1  0.161869  0.838131  0.579251  1
  Al  Al17  1  0.323092  0.150954  0.078774  1
  Al  Al18  1  0.838131  0.161869  0.420749  1
  Al  Al19  1  0.676908  0.849046  0.921226  1
  Al  Al20  1  0.836953  0.163047  0.076723  1
  Al  Al21  1  0.163047  0.836953  0.923277  1
  Al  Al22  1  0.562223  0.123682  0.246638  1
  Al  Al23  1  0.437777  0.876318  0.753362  1
  Al  Al24  1  0.876318  0.437777  0.246638  1
  Al  Al25  1  0.123682  0.562223  0.753362  1
  Al  Al26  1  0.563902  0.436098  0.258341  1
  Al  Al27  1  0.436098  0.563902  0.741659  1
  Al  Al28  1  0.999830  0.000170  0.250078  1
  Al  Al29  1  0.000170  0.999830  0.749922  1
  Ru  Ru30  1  0.500000  0.000000  0.000000  1
  Ru  Ru31  1  0.000000  0.500000  0.000000  1
  Ru  Ru32  1  0.500000  0.500000  0.500000  1
  Ru  Ru33  1  0.000000  0.000000  0.000000  1
  Ru  Ru34  1  0.000000  0.000000  0.500000  1
  Pt  Pt35  1  0.500000  0.000000  0.500000  1
  Pt  Pt36  1  0.000000  0.500000  0.500000  1
  Au  Au37  1  0.500000  0.500000  0.000000  1
