# generated using pymatgen
data_Sc8Ti9Re3Si16
_symmetry_space_group_name_H-M   'P 1'
_cell_length_a   6.58846878
_cell_length_b   6.75772215
_cell_length_c   12.91155700
_cell_angle_alpha   90.00000000
_cell_angle_beta   90.00000000
_cell_angle_gamma   90.09860007
_symmetry_Int_Tables_number   1
_chemical_formula_structural   Sc8Ti9Re3Si16
_chemical_formula_sum   'Sc8 Ti9 Re3 Si16'
_cell_volume   574.86093561
_cell_formula_units_Z   1
loop_
 _symmetry_equiv_pos_site_id
 _symmetry_equiv_pos_as_xyz
  1  'x, y, z'
loop_
 _atom_site_type_symbol
 _atom_site_label
 _atom_site_symmetry_multiplicity
 _atom_site_fract_x
 _atom_site_fract_y
 _atom_site_fract_z
 _atom_site_occupancy
  Sc  Sc0  1  0.499542  0.674230  0.594205  1
  Sc  Sc1  1  0.000519  0.828000  0.905344  1
  Sc  Sc2  1  0.499995  0.327668  0.095534  1
  Sc  Sc3  1  0.001271  0.172320  0.404581  1
  Sc  Sc4  1  0.499995  0.327668  0.404466  1
  Sc  Sc5  1  0.001271  0.172320  0.095419  1
  Sc  Sc6  1  0.499542  0.674230  0.905795  1
  Sc  Sc7  1  0.000519  0.828000  0.594656  1
  Ti  Ti8  1  0.662930  0.172117  0.626179  1
  Ti  Ti9  1  0.164328  0.324811  0.874194  1
  Ti  Ti10  1  0.334476  0.828222  0.126034  1
  Ti  Ti11  1  0.834366  0.672034  0.373608  1
  Ti  Ti12  1  0.334476  0.828222  0.373966  1
  Ti  Ti13  1  0.834366  0.672034  0.126392  1
  Ti  Ti14  1  0.662930  0.172117  0.873821  1
  Ti  Ti15  1  0.164328  0.324811  0.625806  1
  Ti  Ti16  1  0.837330  0.492087  0.750000  1
  Re  Re17  1  0.337991  0.007432  0.750000  1
  Re  Re18  1  0.162998  0.506436  0.250000  1
  Re  Re19  1  0.662968  0.992408  0.250000  1
  Si  Si20  1  0.668122  0.964473  0.458602  1
  Si  Si21  1  0.167217  0.535338  0.041464  1
  Si  Si22  1  0.332930  0.036301  0.959070  1
  Si  Si23  1  0.833697  0.464921  0.539609  1
  Si  Si24  1  0.332930  0.036301  0.540930  1
  Si  Si25  1  0.833697  0.464921  0.960391  1
  Si  Si26  1  0.668122  0.964473  0.041398  1
  Si  Si27  1  0.167217  0.535338  0.458536  1
  Si  Si28  1  0.462264  0.384391  0.750000  1
  Si  Si29  1  0.962698  0.116822  0.750000  1
  Si  Si30  1  0.534977  0.616090  0.250000  1
  Si  Si31  1  0.036310  0.883030  0.250000  1
  Si  Si32  1  0.700727  0.862368  0.750000  1
  Si  Si33  1  0.203291  0.638944  0.750000  1
  Si  Si34  1  0.300198  0.137977  0.250000  1
  Si  Si35  1  0.799458  0.361149  0.250000  1
