# generated using pymatgen
data_YbEr3(Zn14Cu3)2
_symmetry_space_group_name_H-M   'P 1'
_cell_length_a   8.85560800
_cell_length_b   8.85560807
_cell_length_c   8.67003200
_cell_angle_alpha   90.00000000
_cell_angle_beta   90.00000000
_cell_angle_gamma   120.00000720
_symmetry_Int_Tables_number   1
_chemical_formula_structural   YbEr3(Zn14Cu3)2
_chemical_formula_sum   'Yb1 Er3 Zn28 Cu6'
_cell_volume   588.82748284
_cell_formula_units_Z   1
loop_
 _symmetry_equiv_pos_site_id
 _symmetry_equiv_pos_as_xyz
  1  'x, y, z'
loop_
 _atom_site_type_symbol
 _atom_site_label
 _atom_site_symmetry_multiplicity
 _atom_site_fract_x
 _atom_site_fract_y
 _atom_site_fract_z
 _atom_site_occupancy
  Yb  Yb0  1  0.000000  0.000000  0.250000  1
  Er  Er1  1  0.000000  0.000000  0.750000  1
  Er  Er2  1  0.333333  0.666667  0.750000  1
  Er  Er3  1  0.666667  0.333333  0.250000  1
  Zn  Zn4  1  0.333333  0.666667  0.404727  1
  Zn  Zn5  1  0.666667  0.333333  0.595870  1
  Zn  Zn6  1  0.666667  0.333333  0.904130  1
  Zn  Zn7  1  0.333333  0.666667  0.095273  1
  Zn  Zn8  1  0.332884  0.368788  0.250000  1
  Zn  Zn9  1  0.631212  0.964097  0.250000  1
  Zn  Zn10  1  0.035903  0.667116  0.250000  1
  Zn  Zn11  1  0.631212  0.667116  0.250000  1
  Zn  Zn12  1  0.035903  0.368788  0.250000  1
  Zn  Zn13  1  0.332884  0.964097  0.250000  1
  Zn  Zn14  1  0.667086  0.631629  0.750000  1
  Zn  Zn15  1  0.368371  0.035456  0.750000  1
  Zn  Zn16  1  0.964544  0.332914  0.750000  1
  Zn  Zn17  1  0.368371  0.332914  0.750000  1
  Zn  Zn18  1  0.964544  0.631629  0.750000  1
  Zn  Zn19  1  0.667086  0.035456  0.750000  1
  Zn  Zn20  1  0.165906  0.834094  0.521561  1
  Zn  Zn21  1  0.165906  0.331813  0.521561  1
  Zn  Zn22  1  0.668187  0.834094  0.521561  1
  Zn  Zn23  1  0.833942  0.166058  0.478721  1
  Zn  Zn24  1  0.833942  0.667884  0.478721  1
  Zn  Zn25  1  0.332116  0.166058  0.478721  1
  Zn  Zn26  1  0.833942  0.166058  0.021279  1
  Zn  Zn27  1  0.833942  0.667884  0.021279  1
  Zn  Zn28  1  0.332116  0.166058  0.021279  1
  Zn  Zn29  1  0.165906  0.834094  0.978439  1
  Zn  Zn30  1  0.165906  0.331813  0.978439  1
  Zn  Zn31  1  0.668187  0.834094  0.978439  1
  Cu  Cu32  1  0.499920  0.500080  0.499676  1
  Cu  Cu33  1  0.499920  0.999839  0.499676  1
  Cu  Cu34  1  0.000161  0.500080  0.499676  1
  Cu  Cu35  1  0.499920  0.500080  0.000324  1
  Cu  Cu36  1  0.499920  0.999839  0.000324  1
  Cu  Cu37  1  0.000161  0.500080  0.000324  1
