# generated using pymatgen
data_LiSc(U3Bi5)2
_symmetry_space_group_name_H-M   'P 1'
_cell_length_a   9.50784300
_cell_length_b   9.50784312
_cell_length_c   6.38624000
_cell_angle_alpha   90.00000000
_cell_angle_beta   90.00000000
_cell_angle_gamma   119.99999610
_symmetry_Int_Tables_number   1
_chemical_formula_structural   LiSc(U3Bi5)2
_chemical_formula_sum   'Li1 Sc1 U6 Bi10'
_cell_volume   499.96533464
_cell_formula_units_Z   1
loop_
 _symmetry_equiv_pos_site_id
 _symmetry_equiv_pos_as_xyz
  1  'x, y, z'
loop_
 _atom_site_type_symbol
 _atom_site_label
 _atom_site_symmetry_multiplicity
 _atom_site_fract_x
 _atom_site_fract_y
 _atom_site_fract_z
 _atom_site_occupancy
  Li  Li0  1  0.000000  0.000000  0.000000  1
  Sc  Sc1  1  0.000000  0.000000  0.500000  1
  U  U2  1  0.387378  0.000000  0.748532  1
  U  U3  1  0.387378  0.387378  0.251468  1
  U  U4  1  0.000000  0.612622  0.251468  1
  U  U5  1  0.000000  0.387378  0.748532  1
  U  U6  1  0.612622  0.612622  0.748532  1
  U  U7  1  0.612622  0.000000  0.251468  1
  Bi  Bi8  1  0.666667  0.333333  0.500000  1
  Bi  Bi9  1  0.333333  0.666667  0.000000  1
  Bi  Bi10  1  0.735165  0.000000  0.753806  1
  Bi  Bi11  1  0.735165  0.735165  0.246194  1
  Bi  Bi12  1  0.333333  0.666667  0.500000  1
  Bi  Bi13  1  0.666667  0.333333  0.000000  1
  Bi  Bi14  1  0.264835  0.000000  0.246194  1
  Bi  Bi15  1  0.264835  0.264835  0.753806  1
  Bi  Bi16  1  0.000000  0.735165  0.753806  1
  Bi  Bi17  1  0.000000  0.264835  0.246194  1
