# generated using pymatgen
data_Zr6BeZn21Pd2
_symmetry_space_group_name_H-M   'P 1'
_cell_length_a   8.72808646
_cell_length_b   8.72808689
_cell_length_c   8.67015100
_cell_angle_alpha   60.21933328
_cell_angle_beta   60.21933168
_cell_angle_gamma   60.01618327
_symmetry_Int_Tables_number   1
_chemical_formula_structural   Zr6BeZn21Pd2
_chemical_formula_sum   'Zr6 Be1 Zn21 Pd2'
_cell_volume   468.63535722
_cell_formula_units_Z   1
loop_
 _symmetry_equiv_pos_site_id
 _symmetry_equiv_pos_as_xyz
  1  'x, y, z'
loop_
 _atom_site_type_symbol
 _atom_site_label
 _atom_site_symmetry_multiplicity
 _atom_site_fract_x
 _atom_site_fract_y
 _atom_site_fract_z
 _atom_site_occupancy
  Zr  Zr0  1  0.700851  0.299149  0.299764  1
  Zr  Zr1  1  0.299149  0.700851  0.700236  1
  Zr  Zr2  1  0.299149  0.700851  0.299764  1
  Zr  Zr3  1  0.700851  0.299149  0.700236  1
  Zr  Zr4  1  0.298876  0.298876  0.701124  1
  Zr  Zr5  1  0.701124  0.701124  0.298876  1
  Be  Be6  1  0.500000  0.500000  0.500000  1
  Zn  Zn7  1  0.119961  0.119961  0.124907  1
  Zn  Zn8  1  0.880039  0.880039  0.875093  1
  Zn  Zn9  1  0.119961  0.119961  0.635174  1
  Zn  Zn10  1  0.120250  0.637249  0.121251  1
  Zn  Zn11  1  0.880039  0.880039  0.364826  1
  Zn  Zn12  1  0.879750  0.362751  0.878749  1
  Zn  Zn13  1  0.637249  0.120250  0.121251  1
  Zn  Zn14  1  0.362751  0.879750  0.878749  1
  Zn  Zn15  1  0.500000  0.000000  0.000000  1
  Zn  Zn16  1  0.000000  0.500000  0.500000  1
  Zn  Zn17  1  0.000000  0.500000  0.000000  1
  Zn  Zn18  1  0.500000  0.000000  0.500000  1
  Zn  Zn19  1  0.500000  0.500000  0.000000  1
  Zn  Zn20  1  0.334650  0.334650  0.334160  1
  Zn  Zn21  1  0.665350  0.665350  0.665840  1
  Zn  Zn22  1  0.334650  0.334650  0.996541  1
  Zn  Zn23  1  0.335549  0.996491  0.333980  1
  Zn  Zn24  1  0.665350  0.665350  0.003459  1
  Zn  Zn25  1  0.664451  0.003509  0.666020  1
  Zn  Zn26  1  0.996491  0.335549  0.333980  1
  Zn  Zn27  1  0.003509  0.664451  0.666020  1
  Pd  Pd28  1  0.000000  0.000000  0.500000  1
  Pd  Pd29  1  0.000000  0.000000  0.000000  1
