# generated using pymatgen
data_Tb8Hf6Zr5Si16Os
_symmetry_space_group_name_H-M   'P 1'
_cell_length_a   7.28843776
_cell_length_b   7.29549631
_cell_length_c   13.31994788
_cell_angle_alpha   89.81086081
_cell_angle_beta   90.17688659
_cell_angle_gamma   89.98080285
_symmetry_Int_Tables_number   1
_chemical_formula_structural   Tb8Hf6Zr5Si16Os
_chemical_formula_sum   'Tb8 Hf6 Zr5 Si16 Os1'
_cell_volume   708.25125843
_cell_formula_units_Z   1
loop_
 _symmetry_equiv_pos_site_id
 _symmetry_equiv_pos_as_xyz
  1  'x, y, z'
loop_
 _atom_site_type_symbol
 _atom_site_label
 _atom_site_symmetry_multiplicity
 _atom_site_fract_x
 _atom_site_fract_y
 _atom_site_fract_z
 _atom_site_occupancy
  Tb  Tb0  1  0.998939  0.345232  0.210740  1
  Tb  Tb1  1  0.004999  0.653101  0.717230  1
  Tb  Tb2  1  0.155094  0.495590  0.464246  1
  Tb  Tb3  1  0.501778  0.845881  0.032989  1
  Tb  Tb4  1  0.846202  0.500468  0.966912  1
  Tb  Tb5  1  0.494581  0.154962  0.535896  1
  Tb  Tb6  1  0.345306  0.998233  0.789293  1
  Tb  Tb7  1  0.652899  0.005626  0.283156  1
  Hf  Hf8  1  0.503081  0.645497  0.625752  1
  Hf  Hf9  1  0.352869  0.496392  0.876553  1
  Hf  Hf10  1  0.497319  0.354085  0.123603  1
  Hf  Hf11  1  0.645947  0.503337  0.374036  1
  Hf  Hf12  1  0.997164  0.146232  0.628490  1
  Hf  Hf13  1  0.005616  0.853867  0.120571  1
  Zr  Zr14  1  0.824270  0.823882  0.499891  1
  Zr  Zr15  1  0.323588  0.676748  0.247169  1
  Zr  Zr16  1  0.675732  0.322837  0.752662  1
  Zr  Zr17  1  0.146042  0.998057  0.371469  1
  Zr  Zr18  1  0.853754  0.004819  0.879496  1
  Si  Si19  1  0.360216  0.295709  0.314377  1
  Si  Si20  1  0.639406  0.705017  0.818035  1
  Si  Si21  1  0.206621  0.861425  0.567780  1
  Si  Si22  1  0.136621  0.790287  0.930502  1
  Si  Si23  1  0.791656  0.136364  0.070239  1
  Si  Si24  1  0.860231  0.206977  0.433684  1
  Si  Si25  1  0.294040  0.360057  0.684990  1
  Si  Si26  1  0.706987  0.640138  0.181254  1
  Si  Si27  1  0.292412  0.057744  0.178586  1
  Si  Si28  1  0.704909  0.947555  0.687211  1
  Si  Si29  1  0.447993  0.795407  0.436238  1
  Si  Si30  1  0.206203  0.546761  0.062527  1
  Si  Si31  1  0.544853  0.206075  0.938004  1
  Si  Si32  1  0.795606  0.447289  0.564216  1
  Si  Si33  1  0.057146  0.292116  0.820296  1
  Si  Si34  1  0.947869  0.704612  0.311854  1
  Os  Os35  1  0.182056  0.181625  0.000050  1
