# generated using pymatgen
data_Nd7Y(HoBi)12
_symmetry_space_group_name_H-M   'P 1'
_cell_length_a   8.32060001
_cell_length_b   9.52868600
_cell_length_c   12.28275200
_cell_angle_alpha   90.00000000
_cell_angle_beta   89.99779648
_cell_angle_gamma   90.00000000
_symmetry_Int_Tables_number   1
_chemical_formula_structural   Nd7Y(HoBi)12
_chemical_formula_sum   'Nd7 Y1 Ho12 Bi12'
_cell_volume   973.83043513
_cell_formula_units_Z   1
loop_
 _symmetry_equiv_pos_site_id
 _symmetry_equiv_pos_as_xyz
  1  'x, y, z'
loop_
 _atom_site_type_symbol
 _atom_site_label
 _atom_site_symmetry_multiplicity
 _atom_site_fract_x
 _atom_site_fract_y
 _atom_site_fract_z
 _atom_site_occupancy
  Nd  Nd0  1  0.184670  0.750000  0.719732  1
  Nd  Nd1  1  0.685825  0.750000  0.779967  1
  Nd  Nd2  1  0.816186  0.250000  0.280997  1
  Nd  Nd3  1  0.315237  0.250000  0.220326  1
  Nd  Nd4  1  0.352582  0.750000  0.215515  1
  Nd  Nd5  1  0.852810  0.750000  0.284349  1
  Nd  Nd6  1  0.646791  0.250000  0.784466  1
  Y  Y7  1  0.147604  0.250000  0.716017  1
  Ho  Ho8  1  0.025931  0.750000  0.987401  1
  Ho  Ho9  1  0.525170  0.750000  0.512343  1
  Ho  Ho10  1  0.974487  0.250000  0.010636  1
  Ho  Ho11  1  0.474077  0.250000  0.488466  1
  Ho  Ho12  1  0.308080  0.435398  0.940325  1
  Ho  Ho13  1  0.807724  0.064188  0.559704  1
  Ho  Ho14  1  0.692083  0.935787  0.058507  1
  Ho  Ho15  1  0.191849  0.564322  0.441160  1
  Ho  Ho16  1  0.692083  0.564213  0.058507  1
  Ho  Ho17  1  0.191849  0.935678  0.441160  1
  Ho  Ho18  1  0.308080  0.064602  0.940325  1
  Ho  Ho19  1  0.807724  0.435812  0.559704  1
  Bi  Bi20  1  0.432058  0.006026  0.668421  1
  Bi  Bi21  1  0.937304  0.493292  0.829338  1
  Bi  Bi22  1  0.565190  0.504516  0.332150  1
  Bi  Bi23  1  0.065351  0.995734  0.167900  1
  Bi  Bi24  1  0.565190  0.995484  0.332150  1
  Bi  Bi25  1  0.065351  0.504266  0.167900  1
  Bi  Bi26  1  0.432058  0.493974  0.668421  1
  Bi  Bi27  1  0.937304  0.006708  0.829338  1
  Bi  Bi28  1  0.406722  0.750000  0.957322  1
  Bi  Bi29  1  0.906214  0.750000  0.542301  1
  Bi  Bi30  1  0.593262  0.250000  0.042671  1
  Bi  Bi31  1  0.093151  0.250000  0.462479  1
