# generated using pymatgen
data_Hf3ZrAl4Mo3Pd
_symmetry_space_group_name_H-M   'P 1'
_cell_length_a   5.26492221
_cell_length_b   5.26492328
_cell_length_c   8.75811323
_cell_angle_alpha   89.97717906
_cell_angle_beta   90.02282067
_cell_angle_gamma   119.29819745
_symmetry_Int_Tables_number   1
_chemical_formula_structural   Hf3ZrAl4Mo3Pd
_chemical_formula_sum   'Hf3 Zr1 Al4 Mo3 Pd1'
_cell_volume   211.71574990
_cell_formula_units_Z   1
loop_
 _symmetry_equiv_pos_site_id
 _symmetry_equiv_pos_as_xyz
  1  'x, y, z'
loop_
 _atom_site_type_symbol
 _atom_site_label
 _atom_site_symmetry_multiplicity
 _atom_site_fract_x
 _atom_site_fract_y
 _atom_site_fract_z
 _atom_site_occupancy
  Hf  Hf0  1  0.665680  0.334320  0.318332  1
  Hf  Hf1  1  0.665650  0.334350  0.682227  1
  Hf  Hf2  1  0.333490  0.666510  0.809886  1
  Zr  Zr3  1  0.333596  0.666404  0.188780  1
  Al  Al4  1  0.996814  0.003186  0.245496  1
  Al  Al5  1  0.996811  0.003189  0.754654  1
  Al  Al6  1  0.832168  0.649512  0.999558  1
  Al  Al7  1  0.350488  0.167832  0.999558  1
  Mo  Mo8  1  0.166324  0.344238  0.500805  1
  Mo  Mo9  1  0.655762  0.833676  0.500805  1
  Mo  Mo10  1  0.167478  0.832522  0.500953  1
  Pd  Pd11  1  0.835830  0.164170  0.998944  1
