# generated using pymatgen
data_Tm16Al4Fe3Pt
_symmetry_space_group_name_H-M   'P 1'
_cell_length_a   9.30261555
_cell_length_b   9.31192636
_cell_length_c   9.31192700
_cell_angle_alpha   60.00000127
_cell_angle_beta   59.96688688
_cell_angle_gamma   59.96688460
_symmetry_Int_Tables_number   1
_chemical_formula_structural   Tm16Al4Fe3Pt
_chemical_formula_sum   'Tm16 Al4 Fe3 Pt1'
_cell_volume   570.10075961
_cell_formula_units_Z   1
loop_
 _symmetry_equiv_pos_site_id
 _symmetry_equiv_pos_as_xyz
  1  'x, y, z'
loop_
 _atom_site_type_symbol
 _atom_site_label
 _atom_site_symmetry_multiplicity
 _atom_site_fract_x
 _atom_site_fract_y
 _atom_site_fract_z
 _atom_site_occupancy
  Tm  Tm0  1  0.343521  0.355634  0.355634  1
  Tm  Tm1  1  0.343521  0.355634  0.945212  1
  Tm  Tm2  1  0.343521  0.945212  0.355634  1
  Tm  Tm3  1  0.955716  0.348095  0.348095  1
  Tm  Tm4  1  0.815015  0.193713  0.193713  1
  Tm  Tm5  1  0.191807  0.807719  0.807719  1
  Tm  Tm6  1  0.191807  0.807719  0.192756  1
  Tm  Tm7  1  0.815015  0.193713  0.797560  1
  Tm  Tm8  1  0.191807  0.192756  0.807719  1
  Tm  Tm9  1  0.815015  0.797560  0.193713  1
  Tm  Tm10  1  0.937494  0.560902  0.560902  1
  Tm  Tm11  1  0.557656  0.939836  0.939836  1
  Tm  Tm12  1  0.557656  0.939836  0.562671  1
  Tm  Tm13  1  0.937494  0.560902  0.940702  1
  Tm  Tm14  1  0.557656  0.562671  0.939836  1
  Tm  Tm15  1  0.937494  0.940702  0.560902  1
  Al  Al16  1  0.579112  0.576702  0.576702  1
  Al  Al17  1  0.579112  0.576702  0.267484  1
  Al  Al18  1  0.579112  0.267484  0.576702  1
  Al  Al19  1  0.265079  0.578307  0.578307  1
  Fe  Fe20  1  0.143257  0.138268  0.138268  1
  Fe  Fe21  1  0.143257  0.138268  0.580208  1
  Fe  Fe22  1  0.143257  0.580208  0.138268  1
  Pt  Pt23  1  0.575619  0.141461  0.141461  1
