# generated using pymatgen
data_Lu6AlTcPd
_symmetry_space_group_name_H-M   'P 1'
_cell_length_a   8.39254750
_cell_length_b   8.39254858
_cell_length_c   8.39254800
_cell_angle_alpha   113.47533201
_cell_angle_beta   112.60004622
_cell_angle_gamma   102.55342203
_symmetry_Int_Tables_number   1
_chemical_formula_structural   Lu6AlTcPd
_chemical_formula_sum   'Lu12 Al2 Tc2 Pd2'
_cell_volume   450.12875615
_cell_formula_units_Z   2
loop_
 _symmetry_equiv_pos_site_id
 _symmetry_equiv_pos_as_xyz
  1  'x, y, z'
loop_
 _atom_site_type_symbol
 _atom_site_label
 _atom_site_symmetry_multiplicity
 _atom_site_fract_x
 _atom_site_fract_y
 _atom_site_fract_z
 _atom_site_occupancy
  Lu  Lu0  1  0.046653  0.739499  0.307154  1
  Lu  Lu1  1  0.953347  0.260501  0.692846  1
  Lu  Lu2  1  0.567657  0.260501  0.307154  1
  Lu  Lu3  1  0.432343  0.739499  0.692846  1
  Lu  Lu4  1  0.658161  0.844377  0.186214  1
  Lu  Lu5  1  0.341839  0.528053  0.186214  1
  Lu  Lu6  1  0.341839  0.155623  0.813786  1
  Lu  Lu7  1  0.658161  0.471947  0.813786  1
  Lu  Lu8  1  0.183833  0.218543  0.402376  1
  Lu  Lu9  1  0.816167  0.218543  0.034710  1
  Lu  Lu10  1  0.183833  0.781457  0.965290  1
  Lu  Lu11  1  0.816167  0.781457  0.597624  1
  Al  Al12  1  0.000000  0.500000  0.500000  1
  Al  Al13  1  0.500000  0.000000  0.500000  1
  Tc  Tc14  1  0.684931  0.500000  0.184931  1
  Tc  Tc15  1  0.315069  0.500000  0.815069  1
  Pd  Pd16  1  0.868348  0.868348  0.000000  1
  Pd  Pd17  1  0.131652  0.131652  0.000000  1
