# generated using pymatgen
data_Fe4Ir5(PdO8)3
_symmetry_space_group_name_H-M   'P 1'
_cell_length_a   4.58945169
_cell_length_b   9.17422639
_cell_length_c   9.41034100
_cell_angle_alpha   90.00000000
_cell_angle_beta   90.00000000
_cell_angle_gamma   89.93701348
_symmetry_Int_Tables_number   1
_chemical_formula_structural   Fe4Ir5(PdO8)3
_chemical_formula_sum   'Fe4 Ir5 Pd3 O24'
_cell_volume   396.21905188
_cell_formula_units_Z   1
loop_
 _symmetry_equiv_pos_site_id
 _symmetry_equiv_pos_as_xyz
  1  'x, y, z'
loop_
 _atom_site_type_symbol
 _atom_site_label
 _atom_site_symmetry_multiplicity
 _atom_site_fract_x
 _atom_site_fract_y
 _atom_site_fract_z
 _atom_site_occupancy
  Fe  Fe0  1  0.000485  0.498746  0.001226  1
  Fe  Fe1  1  0.500000  0.750000  0.498520  1
  Fe  Fe2  1  0.999515  0.001254  0.001226  1
  Fe  Fe3  1  0.500000  0.250000  0.499573  1
  Ir  Ir4  1  0.500000  0.750000  0.831353  1
  Ir  Ir5  1  0.500000  0.250000  0.168103  1
  Ir  Ir6  1  0.500000  0.750000  0.168060  1
  Ir  Ir7  1  0.001208  0.999959  0.668412  1
  Ir  Ir8  1  0.998792  0.500041  0.668412  1
  Pd  Pd9  1  0.000253  0.999791  0.331968  1
  Pd  Pd10  1  0.999747  0.500209  0.331968  1
  Pd  Pd11  1  0.500000  0.250000  0.831645  1
  O  O12  1  0.308334  0.152602  0.003241  1
  O  O13  1  0.309174  0.656104  0.998611  1
  O  O14  1  0.194190  0.404694  0.504879  1
  O  O15  1  0.191541  0.902300  0.505071  1
  O  O16  1  0.805810  0.095306  0.504879  1
  O  O17  1  0.808459  0.597700  0.505071  1
  O  O18  1  0.691666  0.347398  0.003241  1
  O  O19  1  0.690826  0.843896  0.998611  1
  O  O20  1  0.310609  0.155396  0.333175  1
  O  O21  1  0.310840  0.655208  0.333209  1
  O  O22  1  0.188568  0.406329  0.833329  1
  O  O23  1  0.197659  0.901072  0.832868  1
  O  O24  1  0.811432  0.093671  0.833329  1
  O  O25  1  0.802341  0.598928  0.832868  1
  O  O26  1  0.797355  0.100387  0.162561  1
  O  O27  1  0.799072  0.601222  0.161954  1
  O  O28  1  0.202645  0.399613  0.162561  1
  O  O29  1  0.200928  0.898778  0.161954  1
  O  O30  1  0.689391  0.344604  0.333175  1
  O  O31  1  0.689160  0.844792  0.333209  1
  O  O32  1  0.297033  0.149345  0.662916  1
  O  O33  1  0.302275  0.650411  0.667953  1
  O  O34  1  0.702967  0.350655  0.662916  1
  O  O35  1  0.697725  0.849589  0.667953  1
