# generated using pymatgen
data_Nd2Ga(SiRh2)3
_symmetry_space_group_name_H-M   'P 1'
_cell_length_a   6.72409215
_cell_length_b   6.72595389
_cell_length_c   6.72409121
_cell_angle_alpha   130.17178785
_cell_angle_beta   114.60195320
_cell_angle_gamma   86.47093047
_symmetry_Int_Tables_number   1
_chemical_formula_structural   Nd2Ga(SiRh2)3
_chemical_formula_sum   'Nd2 Ga1 Si3 Rh6'
_cell_volume   201.67967350
_cell_formula_units_Z   1
loop_
 _symmetry_equiv_pos_site_id
 _symmetry_equiv_pos_as_xyz
  1  'x, y, z'
loop_
 _atom_site_type_symbol
 _atom_site_label
 _atom_site_symmetry_multiplicity
 _atom_site_fract_x
 _atom_site_fract_y
 _atom_site_fract_z
 _atom_site_occupancy
  Nd  Nd0  1  0.750059  0.043991  0.293932  1
  Nd  Nd1  1  0.251292  0.970902  0.719609  1
  Ga  Ga2  1  0.591284  0.387941  0.796657  1
  Si  Si3  1  0.433582  0.634630  0.201047  1
  Si  Si4  1  0.071022  0.272623  0.201601  1
  Si  Si5  1  0.904953  0.696857  0.791904  1
  Rh  Rh6  1  0.213261  0.504825  0.717515  1
  Rh  Rh7  1  0.726153  0.995319  0.728048  1
  Rh  Rh8  1  0.787309  0.504825  0.291564  1
  Rh  Rh9  1  0.267271  0.995319  0.269166  1
  Rh  Rh10  1  0.474999  0.496384  0.467572  1
  Rh  Rh11  1  0.028813  0.496384  0.021385  1
