# generated using pymatgen
data_PrTiI5O16
_symmetry_space_group_name_H-M   'P 1'
_cell_length_a   7.52670300
_cell_length_b   10.65299578
_cell_length_c   18.24556900
_cell_angle_alpha   90.00000000
_cell_angle_beta   90.00000000
_cell_angle_gamma   91.65758746
_symmetry_Int_Tables_number   1
_chemical_formula_structural   PrTiI5O16
_chemical_formula_sum   'Pr4 Ti4 I20 O64'
_cell_volume   1462.35285063
_cell_formula_units_Z   4
loop_
 _symmetry_equiv_pos_site_id
 _symmetry_equiv_pos_as_xyz
  1  'x, y, z'
loop_
 _atom_site_type_symbol
 _atom_site_label
 _atom_site_symmetry_multiplicity
 _atom_site_fract_x
 _atom_site_fract_y
 _atom_site_fract_z
 _atom_site_occupancy
  Pr  Pr0  1  0.756785  0.741658  0.767329  1
  Pr  Pr1  1  0.256785  0.241658  0.732671  1
  Pr  Pr2  1  0.243215  0.258342  0.232671  1
  Pr  Pr3  1  0.743215  0.758342  0.267329  1
  Ti  Ti4  1  0.735449  0.233604  0.498087  1
  Ti  Ti5  1  0.764551  0.266396  0.998087  1
  Ti  Ti6  1  0.235449  0.733604  0.001913  1
  Ti  Ti7  1  0.264551  0.766396  0.501913  1
  I  I8  1  0.093356  0.567247  0.377588  1
  I  I9  1  0.433947  0.550624  0.632302  1
  I  I10  1  0.763568  0.752798  0.493952  1
  I  I11  1  0.593356  0.067247  0.122412  1
  I  I12  1  0.776374  0.098618  0.319402  1
  I  I13  1  0.271607  0.937676  0.336003  1
  I  I14  1  0.263568  0.252798  0.006048  1
  I  I15  1  0.906644  0.432753  0.622412  1
  I  I16  1  0.728393  0.062324  0.663997  1
  I  I17  1  0.723626  0.401382  0.819402  1
  I  I18  1  0.223626  0.901382  0.680598  1
  I  I19  1  0.406644  0.932753  0.877588  1
  I  I20  1  0.236432  0.247202  0.506048  1
  I  I21  1  0.276374  0.598618  0.180598  1
  I  I22  1  0.771607  0.437676  0.163997  1
  I  I23  1  0.736432  0.747202  0.993952  1
  I  I24  1  0.228393  0.562324  0.836003  1
  I  I25  1  0.933947  0.050624  0.867698  1
  I  I26  1  0.566053  0.449376  0.367698  1
  I  I27  1  0.066053  0.949376  0.132302  1
  O  O28  1  0.777708  0.979613  0.799265  1
  O  O29  1  0.164733  0.861779  0.583082  1
  O  O30  1  0.297971  0.649942  0.412429  1
  O  O31  1  0.802187  0.801626  0.902207  1
  O  O32  1  0.797971  0.149942  0.087571  1
  O  O33  1  0.987568  0.586026  0.830380  1
  O  O34  1  0.722292  0.520387  0.299265  1
  O  O35  1  0.783053  0.520354  0.695008  1
  O  O36  1  0.283053  0.020354  0.804992  1
  O  O37  1  0.606186  0.550345  0.823539  1
  O  O38  1  0.563277  0.296238  0.773732  1
  O  O39  1  0.277708  0.479613  0.700735  1
  O  O40  1  0.302187  0.301626  0.597793  1
  O  O41  1  0.216947  0.479646  0.304992  1
  O  O42  1  0.936723  0.203762  0.273732  1
  O  O43  1  0.106186  0.050345  0.676461  1
  O  O44  1  0.835267  0.138221  0.416918  1
  O  O45  1  0.985012  0.193973  0.816315  1
  O  O46  1  0.781808  0.885315  0.051124  1
  O  O47  1  0.760189  0.110115  0.929468  1
  O  O48  1  0.202029  0.850058  0.912429  1
  O  O49  1  0.505575  0.208064  0.487817  1
  O  O50  1  0.730870  0.413072  0.064047  1
  O  O51  1  0.393814  0.449655  0.176461  1
  O  O52  1  0.469768  0.808966  0.813923  1
  O  O53  1  0.005575  0.708064  0.012183  1
  O  O54  1  0.512432  0.913974  0.330380  1
  O  O55  1  0.006387  0.697380  0.475778  1
  O  O56  1  0.487568  0.086026  0.669620  1
  O  O57  1  0.493613  0.802620  0.975778  1
  O  O58  1  0.485012  0.693973  0.683685  1
  O  O59  1  0.230870  0.913072  0.435953  1
  O  O60  1  0.012432  0.413974  0.169620  1
  O  O61  1  0.727342  0.891605  0.659099  1
  O  O62  1  0.494425  0.791936  0.512183  1
  O  O63  1  0.994425  0.291936  0.987817  1
  O  O64  1  0.239811  0.889885  0.070532  1
  O  O65  1  0.893814  0.949655  0.323539  1
  O  O66  1  0.506387  0.197380  0.024222  1
  O  O67  1  0.227342  0.391605  0.840901  1
  O  O68  1  0.335267  0.638221  0.083082  1
  O  O69  1  0.664733  0.361779  0.916918  1
  O  O70  1  0.281808  0.385315  0.448876  1
  O  O71  1  0.772658  0.608395  0.159099  1
  O  O72  1  0.530232  0.191034  0.186077  1
  O  O73  1  0.260189  0.610115  0.570532  1
  O  O74  1  0.993613  0.302620  0.524222  1
  O  O75  1  0.030232  0.691034  0.313923  1
  O  O76  1  0.702029  0.350058  0.587571  1
  O  O77  1  0.769130  0.086928  0.564047  1
  O  O78  1  0.739811  0.389885  0.429468  1
  O  O79  1  0.269130  0.586928  0.935953  1
  O  O80  1  0.218192  0.114685  0.948876  1
  O  O81  1  0.197813  0.198374  0.097793  1
  O  O82  1  0.436723  0.703762  0.226268  1
  O  O83  1  0.969768  0.308966  0.686077  1
  O  O84  1  0.697813  0.698374  0.402207  1
  O  O85  1  0.063277  0.796238  0.726268  1
  O  O86  1  0.716947  0.979646  0.195008  1
  O  O87  1  0.718192  0.614685  0.551124  1
  O  O88  1  0.222292  0.020387  0.200735  1
  O  O89  1  0.272658  0.108395  0.340901  1
  O  O90  1  0.014988  0.806027  0.183685  1
  O  O91  1  0.514988  0.306027  0.316315  1
