# generated using pymatgen
data_Na5GeP11Rh19
_symmetry_space_group_name_H-M   'P 1'
_cell_length_a   12.63543272
_cell_length_b   12.63932984
_cell_length_c   3.91479300
_cell_angle_alpha   90.00000000
_cell_angle_beta   90.00000000
_cell_angle_gamma   119.93006313
_symmetry_Int_Tables_number   1
_chemical_formula_structural   Na5GeP11Rh19
_chemical_formula_sum   'Na5 Ge1 P11 Rh19'
_cell_volume   541.82523881
_cell_formula_units_Z   1
loop_
 _symmetry_equiv_pos_site_id
 _symmetry_equiv_pos_as_xyz
  1  'x, y, z'
loop_
 _atom_site_type_symbol
 _atom_site_label
 _atom_site_symmetry_multiplicity
 _atom_site_fract_x
 _atom_site_fract_y
 _atom_site_fract_z
 _atom_site_occupancy
  Na  Na0  1  0.999236  0.181642  0.500000  1
  Na  Na1  1  0.818625  0.818929  0.500000  1
  Na  Na2  1  0.181370  0.999312  0.500000  1
  Na  Na3  1  0.668728  0.333662  0.000000  1
  Na  Na4  1  0.333208  0.666142  0.000000  1
  Ge  Ge5  1  0.484329  0.317796  0.500000  1
  P  P6  1  0.820537  0.000247  0.000000  1
  P  P7  1  0.177416  0.179476  0.000000  1
  P  P8  1  0.001569  0.820863  0.000000  1
  P  P9  1  0.367626  0.998913  0.000000  1
  P  P10  1  0.686933  0.168078  0.500000  1
  P  P11  1  0.834248  0.520637  0.500000  1
  P  P12  1  0.518907  0.832156  0.500000  1
  P  P13  1  0.168312  0.686090  0.500000  1
  P  P14  1  0.312607  0.480383  0.500000  1
  P  P15  1  0.999725  0.367119  0.000000  1
  P  P16  1  0.633415  0.633367  0.000000  1
  Rh  Rh17  1  0.804358  0.181262  0.000000  1
  Rh  Rh18  1  0.366869  0.184858  0.000000  1
  Rh  Rh19  1  0.650086  0.527693  0.500000  1
  Rh  Rh20  1  0.871697  0.358925  0.500000  1
  Rh  Rh21  1  0.358296  0.869291  0.500000  1
  Rh  Rh22  1  0.510357  0.641444  0.500000  1
  Rh  Rh23  1  0.127820  0.487731  0.500000  1
  Rh  Rh24  1  0.822630  0.626183  0.000000  1
  Rh  Rh25  1  0.624438  0.817911  0.000000  1
  Rh  Rh26  1  0.182679  0.805109  0.000000  1
  Rh  Rh27  1  0.194311  0.378424  0.000000  1
  Rh  Rh28  1  0.002229  0.717537  0.500000  1
  Rh  Rh29  1  0.274453  0.280611  0.500000  1
  Rh  Rh30  1  0.716901  0.999914  0.500000  1
  Rh  Rh31  1  0.001161  0.547869  0.000000  1
  Rh  Rh32  1  0.451867  0.453417  0.000000  1
  Rh  Rh33  1  0.547170  0.996045  0.000000  1
  Rh  Rh34  1  0.998975  0.998849  0.000000  1
  Rh  Rh35  1  0.486911  0.122114  0.500000  1
