# generated using pymatgen
data_CsGd3Te8
_symmetry_space_group_name_H-M   'P 1'
_cell_length_a   13.08134800
_cell_length_b   9.13438389
_cell_length_c   14.17555000
_cell_angle_alpha   80.65778885
_cell_angle_beta   90.00000000
_cell_angle_gamma   90.00000000
_symmetry_Int_Tables_number   1
_chemical_formula_structural   CsGd3Te8
_chemical_formula_sum   'Cs4 Gd12 Te32'
_cell_volume   1671.37084739
_cell_formula_units_Z   4
loop_
 _symmetry_equiv_pos_site_id
 _symmetry_equiv_pos_as_xyz
  1  'x, y, z'
loop_
 _atom_site_type_symbol
 _atom_site_label
 _atom_site_symmetry_multiplicity
 _atom_site_fract_x
 _atom_site_fract_y
 _atom_site_fract_z
 _atom_site_occupancy
  Cs  Cs0  1  0.092201  0.242583  0.036839  1
  Cs  Cs1  1  0.907799  0.757417  0.963161  1
  Cs  Cs2  1  0.592201  0.257417  0.963161  1
  Cs  Cs3  1  0.407799  0.742583  0.036839  1
  Gd  Gd4  1  0.415520  0.400946  0.361100  1
  Gd  Gd5  1  0.584480  0.599054  0.638900  1
  Gd  Gd6  1  0.915520  0.099054  0.638900  1
  Gd  Gd7  1  0.084480  0.900946  0.361100  1
  Gd  Gd8  1  0.085500  0.419913  0.359926  1
  Gd  Gd9  1  0.914500  0.580087  0.640074  1
  Gd  Gd10  1  0.585500  0.080087  0.640074  1
  Gd  Gd11  1  0.414500  0.919913  0.359926  1
  Gd  Gd12  1  0.249589  0.088424  0.645950  1
  Gd  Gd13  1  0.750411  0.911576  0.354050  1
  Gd  Gd14  1  0.749589  0.411576  0.354050  1
  Gd  Gd15  1  0.250411  0.588424  0.645950  1
  Te  Te16  1  0.771487  0.205578  0.177391  1
  Te  Te17  1  0.228513  0.794422  0.822609  1
  Te  Te18  1  0.271487  0.294422  0.822609  1
  Te  Te19  1  0.728513  0.705578  0.177391  1
  Te  Te20  1  0.398124  0.205010  0.184393  1
  Te  Te21  1  0.601876  0.794990  0.815607  1
  Te  Te22  1  0.898124  0.294990  0.815607  1
  Te  Te23  1  0.101876  0.705010  0.184393  1
  Te  Te24  1  0.250563  0.452966  0.191270  1
  Te  Te25  1  0.749437  0.547034  0.808730  1
  Te  Te26  1  0.750563  0.047034  0.808730  1
  Te  Te27  1  0.249437  0.952966  0.191270  1
  Te  Te28  1  0.244208  0.144653  0.421806  1
  Te  Te29  1  0.755792  0.855347  0.578194  1
  Te  Te30  1  0.744208  0.355347  0.578194  1
  Te  Te31  1  0.255792  0.644653  0.421806  1
  Te  Te32  1  0.422724  0.350613  0.585833  1
  Te  Te33  1  0.577276  0.649387  0.414167  1
  Te  Te34  1  0.922724  0.149387  0.414167  1
  Te  Te35  1  0.077276  0.850613  0.585833  1
  Te  Te36  1  0.916647  0.961828  0.186151  1
  Te  Te37  1  0.083353  0.038172  0.813849  1
  Te  Te38  1  0.416647  0.538172  0.813849  1
  Te  Te39  1  0.583353  0.461828  0.186151  1
  Te  Te40  1  0.915621  0.446201  0.186006  1
  Te  Te41  1  0.084379  0.553799  0.813994  1
  Te  Te42  1  0.415621  0.053799  0.813994  1
  Te  Te43  1  0.584379  0.946201  0.186006  1
  Te  Te44  1  0.085026  0.356098  0.585561  1
  Te  Te45  1  0.914974  0.643902  0.414439  1
  Te  Te46  1  0.585026  0.143902  0.414439  1
  Te  Te47  1  0.414974  0.856098  0.585561  1
