# generated using pymatgen
data_Ce3Se5
_symmetry_space_group_name_H-M   'P 1'
_cell_length_a   12.42428800
_cell_length_b   8.46645600
_cell_length_c   7.86964200
_cell_angle_alpha   90.00000000
_cell_angle_beta   90.00000000
_cell_angle_gamma   90.00000000
_symmetry_Int_Tables_number   1
_chemical_formula_structural   Ce3Se5
_chemical_formula_sum   'Ce12 Se20'
_cell_volume   827.80518416
_cell_formula_units_Z   4
loop_
 _symmetry_equiv_pos_site_id
 _symmetry_equiv_pos_as_xyz
  1  'x, y, z'
loop_
 _atom_site_type_symbol
 _atom_site_label
 _atom_site_symmetry_multiplicity
 _atom_site_fract_x
 _atom_site_fract_y
 _atom_site_fract_z
 _atom_site_occupancy
  Ce  Ce0  1  0.320849  0.500249  0.021190  1
  Ce  Ce1  1  0.320849  0.999751  0.021190  1
  Ce  Ce2  1  0.009322  0.250000  0.077261  1
  Ce  Ce3  1  0.509323  0.250000  0.422738  1
  Ce  Ce4  1  0.820850  0.500249  0.478810  1
  Ce  Ce5  1  0.820850  0.999751  0.478810  1
  Ce  Ce6  1  0.179151  0.000249  0.521190  1
  Ce  Ce7  1  0.179151  0.499751  0.521190  1
  Ce  Ce8  1  0.490677  0.750000  0.577261  1
  Ce  Ce9  1  0.990678  0.750000  0.922739  1
  Ce  Ce10  1  0.679150  0.000249  0.978810  1
  Ce  Ce11  1  0.679150  0.499751  0.978810  1
  Se  Se12  1  0.500729  0.250000  0.037325  1
  Se  Se13  1  0.098699  0.545754  0.165356  1
  Se  Se14  1  0.098699  0.954247  0.165356  1
  Se  Se15  1  0.812929  0.750000  0.172474  1
  Se  Se16  1  0.782457  0.250000  0.201698  1
  Se  Se17  1  0.282458  0.250000  0.298303  1
  Se  Se18  1  0.312929  0.750000  0.327527  1
  Se  Se19  1  0.598700  0.545754  0.334643  1
  Se  Se20  1  0.598700  0.954247  0.334643  1
  Se  Se21  1  0.000728  0.250000  0.462675  1
  Se  Se22  1  0.999271  0.750000  0.537324  1
  Se  Se23  1  0.401300  0.045753  0.665357  1
  Se  Se24  1  0.401300  0.454246  0.665357  1
  Se  Se25  1  0.687072  0.250000  0.672474  1
  Se  Se26  1  0.717543  0.750000  0.701697  1
  Se  Se27  1  0.217543  0.750000  0.798303  1
  Se  Se28  1  0.187072  0.250000  0.827526  1
  Se  Se29  1  0.901300  0.045753  0.834643  1
  Se  Se30  1  0.901300  0.454246  0.834643  1
  Se  Se31  1  0.499271  0.750000  0.962676  1
