# generated using pymatgen
data_DyY2Al12Os3Ru
_symmetry_space_group_name_H-M   'P 1'
_cell_length_a   8.82673003
_cell_length_b   8.82672993
_cell_length_c   9.55987000
_cell_angle_alpha   90.00000000
_cell_angle_beta   90.00000000
_cell_angle_gamma   120.00906590
_symmetry_Int_Tables_number   1
_chemical_formula_structural   DyY2Al12Os3Ru
_chemical_formula_sum   'Dy2 Y4 Al24 Os6 Ru2'
_cell_volume   644.97461011
_cell_formula_units_Z   2
loop_
 _symmetry_equiv_pos_site_id
 _symmetry_equiv_pos_as_xyz
  1  'x, y, z'
loop_
 _atom_site_type_symbol
 _atom_site_label
 _atom_site_symmetry_multiplicity
 _atom_site_fract_x
 _atom_site_fract_y
 _atom_site_fract_z
 _atom_site_occupancy
  Dy  Dy0  1  0.806581  0.613247  0.750000  1
  Dy  Dy1  1  0.386753  0.193419  0.750000  1
  Y  Y2  1  0.193167  0.806833  0.250000  1
  Y  Y3  1  0.193138  0.386322  0.250000  1
  Y  Y4  1  0.613678  0.806862  0.250000  1
  Y  Y5  1  0.806672  0.193328  0.750000  1
  Al  Al6  1  0.560719  0.439281  0.250000  1
  Al  Al7  1  0.560720  0.121420  0.250000  1
  Al  Al8  1  0.878580  0.439280  0.250000  1
  Al  Al9  1  0.439278  0.560722  0.750000  1
  Al  Al10  1  0.439217  0.878581  0.750000  1
  Al  Al11  1  0.121419  0.560783  0.750000  1
  Al  Al12  1  0.324115  0.162003  0.423699  1
  Al  Al13  1  0.837934  0.162066  0.423649  1
  Al  Al14  1  0.837997  0.675885  0.423699  1
  Al  Al15  1  0.675899  0.837939  0.576417  1
  Al  Al16  1  0.162036  0.837964  0.576486  1
  Al  Al17  1  0.162061  0.324101  0.576417  1
  Al  Al18  1  0.675899  0.837939  0.923583  1
  Al  Al19  1  0.162036  0.837964  0.923514  1
  Al  Al20  1  0.162061  0.324101  0.923583  1
  Al  Al21  1  0.324115  0.162003  0.076301  1
  Al  Al22  1  0.837934  0.162066  0.076351  1
  Al  Al23  1  0.837997  0.675885  0.076301  1
  Al  Al24  1  0.666658  0.333342  0.515569  1
  Al  Al25  1  0.333307  0.666693  0.484644  1
  Al  Al26  1  0.333307  0.666693  0.015356  1
  Al  Al27  1  0.666658  0.333342  0.984431  1
  Al  Al28  1  0.000006  0.999994  0.250000  1
  Al  Al29  1  0.000136  0.999864  0.750000  1
  Os  Os30  1  0.500051  0.499949  0.500153  1
  Os  Os31  1  0.499955  0.000040  0.500066  1
  Os  Os32  1  0.999960  0.500045  0.500066  1
  Os  Os33  1  0.500051  0.499949  0.999847  1
  Os  Os34  1  0.499955  0.000040  0.999934  1
  Os  Os35  1  0.999960  0.500045  0.999934  1
  Ru  Ru36  1  0.999994  0.000006  0.499906  1
  Ru  Ru37  1  0.999994  0.000006  0.000094  1
