# generated using pymatgen
data_TaSiRu5W
_symmetry_space_group_name_H-M   'P 1'
_cell_length_a   4.05504800
_cell_length_b   5.41145702
_cell_length_c   10.55716206
_cell_angle_alpha   89.98853152
_cell_angle_beta   90.00000000
_cell_angle_gamma   90.00000000
_symmetry_Int_Tables_number   1
_chemical_formula_structural   TaSiRu5W
_chemical_formula_sum   'Ta2 Si2 Ru10 W2'
_cell_volume   231.66338228
_cell_formula_units_Z   2
loop_
 _symmetry_equiv_pos_site_id
 _symmetry_equiv_pos_as_xyz
  1  'x, y, z'
loop_
 _atom_site_type_symbol
 _atom_site_label
 _atom_site_symmetry_multiplicity
 _atom_site_fract_x
 _atom_site_fract_y
 _atom_site_fract_z
 _atom_site_occupancy
  Ta  Ta0  1  0.500000  0.832460  0.360466  1
  Ta  Ta1  1  0.500000  0.167540  0.639534  1
  Si  Si2  1  0.000000  0.500000  0.500000  1
  Si  Si3  1  0.000000  0.000000  0.000000  1
  Ru  Ru4  1  0.000000  0.500000  0.000000  1
  Ru  Ru5  1  0.000000  0.000000  0.500000  1
  Ru  Ru6  1  0.000000  0.583522  0.250176  1
  Ru  Ru7  1  0.000000  0.416478  0.749824  1
  Ru  Ru8  1  0.000000  0.089019  0.242169  1
  Ru  Ru9  1  0.000000  0.910981  0.757831  1
  Ru  Ru10  1  0.500000  0.820285  0.102330  1
  Ru  Ru11  1  0.500000  0.179715  0.897670  1
  Ru  Ru12  1  0.500000  0.324759  0.392055  1
  Ru  Ru13  1  0.500000  0.675241  0.607945  1
  W  W14  1  0.500000  0.336305  0.143145  1
  W  W15  1  0.500000  0.663695  0.856855  1
