# generated using pymatgen
data_Hf9CrRe3B
_symmetry_space_group_name_H-M   'P 1'
_cell_length_a   8.43536800
_cell_length_b   8.43573223
_cell_length_c   8.45551500
_cell_angle_alpha   90.00000000
_cell_angle_beta   90.00000000
_cell_angle_gamma   120.00041309
_symmetry_Int_Tables_number   1
_chemical_formula_structural   Hf9CrRe3B
_chemical_formula_sum   'Hf18 Cr2 Re6 B2'
_cell_volume   521.06956535
_cell_formula_units_Z   2
loop_
 _symmetry_equiv_pos_site_id
 _symmetry_equiv_pos_as_xyz
  1  'x, y, z'
loop_
 _atom_site_type_symbol
 _atom_site_label
 _atom_site_symmetry_multiplicity
 _atom_site_fract_x
 _atom_site_fract_y
 _atom_site_fract_z
 _atom_site_occupancy
  Hf  Hf0  1  0.199777  0.800223  0.443669  1
  Hf  Hf1  1  0.199778  0.399552  0.443661  1
  Hf  Hf2  1  0.600446  0.800222  0.443673  1
  Hf  Hf3  1  0.800223  0.199777  0.556331  1
  Hf  Hf4  1  0.800222  0.600448  0.556339  1
  Hf  Hf5  1  0.399554  0.199778  0.556327  1
  Hf  Hf6  1  0.800223  0.199777  0.943669  1
  Hf  Hf7  1  0.800222  0.600448  0.943661  1
  Hf  Hf8  1  0.399554  0.199778  0.943673  1
  Hf  Hf9  1  0.199777  0.800223  0.056331  1
  Hf  Hf10  1  0.199778  0.399552  0.056339  1
  Hf  Hf11  1  0.600446  0.800222  0.056327  1
  Hf  Hf12  1  0.540800  0.459188  0.250000  1
  Hf  Hf13  1  0.540805  0.081620  0.250000  1
  Hf  Hf14  1  0.918388  0.459187  0.250000  1
  Hf  Hf15  1  0.459200  0.540812  0.750000  1
  Hf  Hf16  1  0.459195  0.918380  0.750000  1
  Hf  Hf17  1  0.081612  0.540813  0.750000  1
  Cr  Cr18  1  0.000000  0.000000  0.500000  1
  Cr  Cr19  1  0.000000  0.000000  0.000000  1
  Re  Re20  1  0.891315  0.108733  0.250000  1
  Re  Re21  1  0.891297  0.782584  0.250000  1
  Re  Re22  1  0.217418  0.108726  0.250000  1
  Re  Re23  1  0.108685  0.891267  0.750000  1
  Re  Re24  1  0.108703  0.217416  0.750000  1
  Re  Re25  1  0.782582  0.891274  0.750000  1
  B  B26  1  0.333332  0.666664  0.250000  1
  B  B27  1  0.666668  0.333336  0.750000  1
