# generated using pymatgen
data_Dy3Cd3GaSnAu
_symmetry_space_group_name_H-M   'P 1'
_cell_length_a   7.35045200
_cell_length_b   7.35045186
_cell_length_c   4.53537700
_cell_angle_alpha   90.00000000
_cell_angle_beta   90.00000000
_cell_angle_gamma   120.00000063
_symmetry_Int_Tables_number   1
_chemical_formula_structural   Dy3Cd3GaSnAu
_chemical_formula_sum   'Dy3 Cd3 Ga1 Sn1 Au1'
_cell_volume   212.21305907
_cell_formula_units_Z   1
loop_
 _symmetry_equiv_pos_site_id
 _symmetry_equiv_pos_as_xyz
  1  'x, y, z'
loop_
 _atom_site_type_symbol
 _atom_site_label
 _atom_site_symmetry_multiplicity
 _atom_site_fract_x
 _atom_site_fract_y
 _atom_site_fract_z
 _atom_site_occupancy
  Dy  Dy0  1  0.410037  0.420818  0.500000  1
  Dy  Dy1  1  0.579182  0.989219  0.500000  1
  Dy  Dy2  1  0.010781  0.589963  0.500000  1
  Cd  Cd3  1  0.747645  0.763544  0.000000  1
  Cd  Cd4  1  0.236456  0.984101  0.000000  1
  Cd  Cd5  1  0.015899  0.252355  0.000000  1
  Ga  Ga6  1  0.333333  0.666667  0.000000  1
  Sn  Sn7  1  0.666667  0.333333  0.000000  1
  Au  Au8  1  0.000000  0.000000  0.500000  1
