# generated using pymatgen
data_Rb2YF5
_symmetry_space_group_name_H-M   'P 1'
_cell_length_a   6.93902700
_cell_length_b   7.47040700
_cell_length_c   11.49484900
_cell_angle_alpha   90.00000000
_cell_angle_beta   90.00000000
_cell_angle_gamma   90.00000000
_symmetry_Int_Tables_number   1
_chemical_formula_structural   Rb2YF5
_chemical_formula_sum   'Rb8 Y4 F20'
_cell_volume   595.86257833
_cell_formula_units_Z   4
loop_
 _symmetry_equiv_pos_site_id
 _symmetry_equiv_pos_as_xyz
  1  'x, y, z'
loop_
 _atom_site_type_symbol
 _atom_site_label
 _atom_site_symmetry_multiplicity
 _atom_site_fract_x
 _atom_site_fract_y
 _atom_site_fract_z
 _atom_site_occupancy
  Rb  Rb0  1  0.531138  0.498442  0.828368  1
  Rb  Rb1  1  0.468862  0.501558  0.171632  1
  Rb  Rb2  1  0.031138  0.501558  0.671632  1
  Rb  Rb3  1  0.468862  0.998442  0.171632  1
  Rb  Rb4  1  0.968862  0.498442  0.328368  1
  Rb  Rb5  1  0.531138  0.001558  0.828368  1
  Rb  Rb6  1  0.968862  0.001558  0.328368  1
  Rb  Rb7  1  0.031138  0.998442  0.671632  1
  Y  Y8  1  0.560466  0.750000  0.500830  1
  Y  Y9  1  0.439534  0.250000  0.499170  1
  Y  Y10  1  0.060466  0.250000  0.999170  1
  Y  Y11  1  0.939534  0.750000  0.000830  1
  F  F12  1  0.843571  0.750000  0.816318  1
  F  F13  1  0.156429  0.250000  0.183682  1
  F  F14  1  0.343571  0.250000  0.683682  1
  F  F15  1  0.656429  0.750000  0.316318  1
  F  F16  1  0.374894  0.750000  0.657532  1
  F  F17  1  0.625106  0.250000  0.342468  1
  F  F18  1  0.874894  0.250000  0.842468  1
  F  F19  1  0.125106  0.750000  0.157532  1
  F  F20  1  0.877864  0.750000  0.514973  1
  F  F21  1  0.122136  0.250000  0.485027  1
  F  F22  1  0.377864  0.250000  0.985027  1
  F  F23  1  0.622136  0.750000  0.014973  1
  F  F24  1  0.639169  0.033757  0.572938  1
  F  F25  1  0.360831  0.966243  0.427062  1
  F  F26  1  0.139169  0.966243  0.927062  1
  F  F27  1  0.360831  0.533757  0.427062  1
  F  F28  1  0.860831  0.033757  0.072938  1
  F  F29  1  0.639169  0.466243  0.572938  1
  F  F30  1  0.860831  0.466243  0.072938  1
  F  F31  1  0.139169  0.533757  0.927062  1
