# generated using pymatgen
data_Tb2YEr2Re2C7
_symmetry_space_group_name_H-M   'P 1'
_cell_length_a   8.35730506
_cell_length_b   8.31297946
_cell_length_c   3.41762700
_cell_angle_alpha   90.00000000
_cell_angle_beta   90.00000000
_cell_angle_gamma   122.67844727
_symmetry_Int_Tables_number   1
_chemical_formula_structural   Tb2YEr2Re2C7
_chemical_formula_sum   'Tb2 Y1 Er2 Re2 C7'
_cell_volume   199.85367806
_cell_formula_units_Z   1
loop_
 _symmetry_equiv_pos_site_id
 _symmetry_equiv_pos_as_xyz
  1  'x, y, z'
loop_
 _atom_site_type_symbol
 _atom_site_label
 _atom_site_symmetry_multiplicity
 _atom_site_fract_x
 _atom_site_fract_y
 _atom_site_fract_z
 _atom_site_occupancy
  Tb  Tb0  1  0.075036  0.331221  0.500000  1
  Tb  Tb1  1  0.924964  0.668779  0.500000  1
  Y  Y2  1  0.500000  0.500000  0.000000  1
  Er  Er3  1  0.661423  0.923804  0.500000  1
  Er  Er4  1  0.338577  0.076196  0.500000  1
  Re  Re5  1  0.715040  0.285365  0.000000  1
  Re  Re6  1  0.284960  0.714635  0.000000  1
  C  C7  1  0.627810  0.373043  0.500000  1
  C  C8  1  0.372190  0.626957  0.500000  1
  C  C9  1  0.000000  0.000000  0.000000  1
  C  C10  1  0.173236  0.165658  0.000000  1
  C  C11  1  0.826764  0.834342  0.000000  1
  C  C12  1  0.000000  0.500000  0.000000  1
  C  C13  1  0.500000  0.000000  0.000000  1
