# generated using pymatgen
data_LiTm2Sc(Co4P3)2
_symmetry_space_group_name_H-M   'P 1'
_cell_length_a   3.67451700
_cell_length_b   10.51264200
_cell_length_c   12.07189600
_cell_angle_alpha   90.00000000
_cell_angle_beta   90.00000000
_cell_angle_gamma   90.00000000
_symmetry_Int_Tables_number   1
_chemical_formula_structural   LiTm2Sc(Co4P3)2
_chemical_formula_sum   'Li2 Tm4 Sc2 Co16 P12'
_cell_volume   466.32384301
_cell_formula_units_Z   2
loop_
 _symmetry_equiv_pos_site_id
 _symmetry_equiv_pos_as_xyz
  1  'x, y, z'
loop_
 _atom_site_type_symbol
 _atom_site_label
 _atom_site_symmetry_multiplicity
 _atom_site_fract_x
 _atom_site_fract_y
 _atom_site_fract_z
 _atom_site_occupancy
  Li  Li0  1  0.500000  0.500000  0.153857  1
  Li  Li1  1  0.000000  0.000000  0.846412  1
  Tm  Tm2  1  0.000000  0.500000  0.523079  1
  Tm  Tm3  1  0.500000  0.000000  0.474630  1
  Tm  Tm4  1  0.000000  0.679976  0.794272  1
  Tm  Tm5  1  0.000000  0.320024  0.794272  1
  Sc  Sc6  1  0.500000  0.820719  0.205538  1
  Sc  Sc7  1  0.500000  0.179281  0.205538  1
  Co  Co8  1  0.500000  0.500000  0.704578  1
  Co  Co9  1  0.000000  0.000000  0.294281  1
  Co  Co10  1  0.000000  0.500000  0.989980  1
  Co  Co11  1  0.500000  0.000000  0.015589  1
  Co  Co12  1  0.500000  0.331697  0.999074  1
  Co  Co13  1  0.500000  0.668303  0.999074  1
  Co  Co14  1  0.000000  0.166245  0.005313  1
  Co  Co15  1  0.000000  0.833755  0.005313  1
  Co  Co16  1  0.500000  0.295631  0.429055  1
  Co  Co17  1  0.500000  0.704369  0.429055  1
  Co  Co18  1  0.000000  0.202937  0.566848  1
  Co  Co19  1  0.000000  0.797063  0.566848  1
  Co  Co20  1  0.500000  0.878138  0.706423  1
  Co  Co21  1  0.500000  0.121862  0.706423  1
  Co  Co22  1  0.000000  0.623336  0.292228  1
  Co  Co23  1  0.000000  0.376664  0.292228  1
  P  P24  1  0.500000  0.500000  0.886262  1
  P  P25  1  0.000000  0.000000  0.118102  1
  P  P26  1  0.500000  0.500000  0.346591  1
  P  P27  1  0.000000  0.000000  0.651993  1
  P  P28  1  0.500000  0.310745  0.615395  1
  P  P29  1  0.500000  0.689255  0.615395  1
  P  P30  1  0.000000  0.187997  0.379491  1
  P  P31  1  0.000000  0.812003  0.379491  1
  P  P32  1  0.500000  0.843347  0.893460  1
  P  P33  1  0.500000  0.156653  0.893460  1
  P  P34  1  0.000000  0.660352  0.110227  1
  P  P35  1  0.000000  0.339648  0.110227  1
