# generated using pymatgen
data_LaTb9Sb9Te
_symmetry_space_group_name_H-M   'P 1'
_cell_length_a   7.65248359
_cell_length_b   8.90022555
_cell_length_c   9.89605169
_cell_angle_alpha   103.04203977
_cell_angle_beta   97.33363294
_cell_angle_gamma   106.90684556
_symmetry_Int_Tables_number   1
_chemical_formula_structural   LaTb9Sb9Te
_chemical_formula_sum   'La1 Tb9 Sb9 Te1'
_cell_volume   614.58809596
_cell_formula_units_Z   1
loop_
 _symmetry_equiv_pos_site_id
 _symmetry_equiv_pos_as_xyz
  1  'x, y, z'
loop_
 _atom_site_type_symbol
 _atom_site_label
 _atom_site_symmetry_multiplicity
 _atom_site_fract_x
 _atom_site_fract_y
 _atom_site_fract_z
 _atom_site_occupancy
  La  La0  1  0.899707  0.051869  0.804270  1
  Tb  Tb1  1  0.901472  0.549996  0.800235  1
  Tb  Tb2  1  0.693007  0.152900  0.400046  1
  Tb  Tb3  1  0.503294  0.750910  0.002517  1
  Tb  Tb4  1  0.694514  0.643184  0.397274  1
  Tb  Tb5  1  0.301455  0.355000  0.600287  1
  Tb  Tb6  1  0.101839  0.947642  0.194043  1
  Tb  Tb7  1  0.499971  0.250750  0.000033  1
  Tb  Tb8  1  0.305112  0.846767  0.600653  1
  Tb  Tb9  1  0.099205  0.450935  0.200700  1
  Sb  Sb10  1  0.800342  0.600602  0.101263  1
  Sb  Sb11  1  0.593498  0.201876  0.698398  1
  Sb  Sb12  1  0.400625  0.800692  0.300448  1
  Sb  Sb13  1  0.799346  0.101319  0.107667  1
  Sb  Sb14  1  0.205840  0.405867  0.900946  1
  Sb  Sb15  1  0.597136  0.694988  0.698016  1
  Sb  Sb16  1  0.397314  0.298739  0.299836  1
  Sb  Sb17  1  0.205372  0.897315  0.899563  1
  Sb  Sb18  1  0.999436  0.500272  0.499834  1
  Te  Te19  1  0.001515  0.998377  0.493970  1
