# generated using pymatgen
data_Dy3Y13Cd4Os3Pd
_symmetry_space_group_name_H-M   'P 1'
_cell_length_a   9.67458866
_cell_length_b   9.78244539
_cell_length_c   9.78209100
_cell_angle_alpha   59.65598387
_cell_angle_beta   59.27262300
_cell_angle_gamma   59.27306046
_symmetry_Int_Tables_number   1
_chemical_formula_structural   Dy3Y13Cd4Os3Pd
_chemical_formula_sum   'Dy3 Y13 Cd4 Os3 Pd1'
_cell_volume   645.68152540
_cell_formula_units_Z   1
loop_
 _symmetry_equiv_pos_site_id
 _symmetry_equiv_pos_as_xyz
  1  'x, y, z'
loop_
 _atom_site_type_symbol
 _atom_site_label
 _atom_site_symmetry_multiplicity
 _atom_site_fract_x
 _atom_site_fract_y
 _atom_site_fract_z
 _atom_site_occupancy
  Dy  Dy0  1  0.347614  0.351239  0.351392  1
  Dy  Dy1  1  0.345653  0.351705  0.953964  1
  Dy  Dy2  1  0.345552  0.954053  0.351800  1
  Y  Y3  1  0.967216  0.344274  0.344264  1
  Y  Y4  1  0.815250  0.189998  0.189985  1
  Y  Y5  1  0.183270  0.810829  0.810837  1
  Y  Y6  1  0.186245  0.810900  0.191366  1
  Y  Y7  1  0.815036  0.189857  0.802817  1
  Y  Y8  1  0.186238  0.191377  0.810904  1
  Y  Y9  1  0.815056  0.802820  0.189832  1
  Y  Y10  1  0.937741  0.560134  0.560096  1
  Y  Y11  1  0.554054  0.939908  0.939904  1
  Y  Y12  1  0.552879  0.939912  0.566985  1
  Y  Y13  1  0.935564  0.561134  0.938951  1
  Y  Y14  1  0.552851  0.566985  0.939921  1
  Y  Y15  1  0.935560  0.938969  0.561120  1
  Cd  Cd16  1  0.580476  0.579154  0.579133  1
  Cd  Cd17  1  0.580840  0.579387  0.259550  1
  Cd  Cd18  1  0.580852  0.259550  0.579373  1
  Cd  Cd19  1  0.256135  0.581387  0.581362  1
  Os  Os20  1  0.149608  0.137320  0.137313  1
  Os  Os21  1  0.150750  0.139468  0.576925  1
  Os  Os22  1  0.150783  0.576898  0.139466  1
  Pd  Pd23  1  0.574775  0.142738  0.142740  1
