# generated using pymatgen
data_DyY5VB14Mo
_symmetry_space_group_name_H-M   'P 1'
_cell_length_a   8.17162403
_cell_length_b   8.17162415
_cell_length_c   9.46424602
_cell_angle_alpha   90.00810888
_cell_angle_beta   89.99189123
_cell_angle_gamma   155.57970713
_symmetry_Int_Tables_number   1
_chemical_formula_structural   DyY5VB14Mo
_chemical_formula_sum   'Dy1 Y5 V1 B14 Mo1'
_cell_volume   261.27722656
_cell_formula_units_Z   1
loop_
 _symmetry_equiv_pos_site_id
 _symmetry_equiv_pos_as_xyz
  1  'x, y, z'
loop_
 _atom_site_type_symbol
 _atom_site_label
 _atom_site_symmetry_multiplicity
 _atom_site_fract_x
 _atom_site_fract_y
 _atom_site_fract_z
 _atom_site_occupancy
  Dy  Dy0  1  0.606063  0.393937  0.438286  1
  Y  Y1  1  0.258268  0.741732  0.250034  1
  Y  Y2  1  0.744363  0.255637  0.750005  1
  Y  Y3  1  0.606066  0.393934  0.061883  1
  Y  Y4  1  0.393363  0.606637  0.941569  1
  Y  Y5  1  0.393373  0.606627  0.558433  1
  V  V6  1  0.447235  0.552765  0.250017  1
  B  B7  1  0.978737  0.021263  0.095306  1
  B  B8  1  0.019686  0.980314  0.908868  1
  B  B9  1  0.019730  0.980270  0.591058  1
  B  B10  1  0.978773  0.021227  0.404665  1
  B  B11  1  0.772788  0.227212  0.032811  1
  B  B12  1  0.227294  0.772706  0.968247  1
  B  B13  1  0.227268  0.772732  0.531722  1
  B  B14  1  0.772757  0.227243  0.467174  1
  B  B15  1  0.867590  0.132410  0.150205  1
  B  B16  1  0.134613  0.865387  0.853341  1
  B  B17  1  0.134607  0.865393  0.646584  1
  B  B18  1  0.867595  0.132405  0.349792  1
  B  B19  1  0.040467  0.959533  0.250051  1
  B  B20  1  0.956169  0.043831  0.749995  1
  Mo  Mo21  1  0.553196  0.446804  0.749954  1
