# generated using pymatgen
data_LaPrAl2(GeAu2)2
_symmetry_space_group_name_H-M   'P 1'
_cell_length_a   4.41613900
_cell_length_b   4.41613900
_cell_length_c   10.79157600
_cell_angle_alpha   90.00000000
_cell_angle_beta   90.00000000
_cell_angle_gamma   90.00000000
_symmetry_Int_Tables_number   1
_chemical_formula_structural   LaPrAl2(GeAu2)2
_chemical_formula_sum   'La1 Pr1 Al2 Ge2 Au4'
_cell_volume   210.46037637
_cell_formula_units_Z   1
loop_
 _symmetry_equiv_pos_site_id
 _symmetry_equiv_pos_as_xyz
  1  'x, y, z'
loop_
 _atom_site_type_symbol
 _atom_site_label
 _atom_site_symmetry_multiplicity
 _atom_site_fract_x
 _atom_site_fract_y
 _atom_site_fract_z
 _atom_site_occupancy
  La  La0  1  0.000000  0.500000  0.240840  1
  Pr  Pr1  1  0.500000  0.000000  0.760146  1
  Al  Al2  1  0.000000  0.000000  0.500173  1
  Al  Al3  1  0.500000  0.500000  0.500173  1
  Ge  Ge4  1  0.000000  0.500000  0.858806  1
  Ge  Ge5  1  0.500000  0.000000  0.139847  1
  Au  Au6  1  0.000000  0.000000  0.999786  1
  Au  Au7  1  0.500000  0.500000  0.999786  1
  Au  Au8  1  0.000000  0.500000  0.624481  1
  Au  Au9  1  0.500000  0.000000  0.375961  1
