# generated using pymatgen
data_Pr2Sn4Pd3Rh
_symmetry_space_group_name_H-M   'P 1'
_cell_length_a   4.68585800
_cell_length_b   4.68585800
_cell_length_c   10.37716600
_cell_angle_alpha   90.00000000
_cell_angle_beta   90.00000000
_cell_angle_gamma   90.00000000
_symmetry_Int_Tables_number   1
_chemical_formula_structural   Pr2Sn4Pd3Rh
_chemical_formula_sum   'Pr2 Sn4 Pd3 Rh1'
_cell_volume   227.85418585
_cell_formula_units_Z   1
loop_
 _symmetry_equiv_pos_site_id
 _symmetry_equiv_pos_as_xyz
  1  'x, y, z'
loop_
 _atom_site_type_symbol
 _atom_site_label
 _atom_site_symmetry_multiplicity
 _atom_site_fract_x
 _atom_site_fract_y
 _atom_site_fract_z
 _atom_site_occupancy
  Pr  Pr0  1  0.000000  0.499999  0.246173  1
  Pr  Pr1  1  0.499999  0.000000  0.756579  1
  Sn  Sn2  1  0.499999  0.000000  0.123104  1
  Sn  Sn3  1  0.000000  0.000000  0.502900  1
  Sn  Sn4  1  0.499999  0.499999  0.502900  1
  Sn  Sn5  1  0.000000  0.499999  0.872352  1
  Pd  Pd6  1  0.000000  0.000000  0.999098  1
  Pd  Pd7  1  0.499999  0.499999  0.999098  1
  Pd  Pd8  1  0.499999  0.000000  0.373672  1
  Rh  Rh9  1  0.000000  0.499999  0.624123  1
