# generated using pymatgen
data_Hf15Zr(Si4Mo)4
_symmetry_space_group_name_H-M   'P 1'
_cell_length_a   6.95118300
_cell_length_b   6.95103229
_cell_length_c   12.70189452
_cell_angle_alpha   89.96725193
_cell_angle_beta   89.99757543
_cell_angle_gamma   90.00351104
_symmetry_Int_Tables_number   1
_chemical_formula_structural   Hf15Zr(Si4Mo)4
_chemical_formula_sum   'Hf15 Zr1 Si16 Mo4'
_cell_volume   613.72873560
_cell_formula_units_Z   1
loop_
 _symmetry_equiv_pos_site_id
 _symmetry_equiv_pos_as_xyz
  1  'x, y, z'
loop_
 _atom_site_type_symbol
 _atom_site_label
 _atom_site_symmetry_multiplicity
 _atom_site_fract_x
 _atom_site_fract_y
 _atom_site_fract_z
 _atom_site_occupancy
  Hf  Hf0  1  0.504057  0.845659  0.030577  1
  Hf  Hf1  1  0.654563  0.003852  0.280357  1
  Hf  Hf2  1  0.345716  0.995782  0.780650  1
  Hf  Hf3  1  0.845764  0.504172  0.969477  1
  Hf  Hf4  1  0.153917  0.496244  0.469397  1
  Hf  Hf5  1  0.003953  0.654437  0.719539  1
  Hf  Hf6  1  0.995786  0.345862  0.219504  1
  Hf  Hf7  1  0.498111  0.356043  0.124590  1
  Hf  Hf8  1  0.501960  0.644382  0.624673  1
  Hf  Hf9  1  0.855883  0.001926  0.874712  1
  Hf  Hf10  1  0.143778  0.997653  0.374388  1
  Hf  Hf11  1  0.644282  0.502191  0.375202  1
  Hf  Hf12  1  0.355945  0.498080  0.875491  1
  Hf  Hf13  1  0.001980  0.855865  0.125385  1
  Hf  Hf14  1  0.997584  0.144045  0.625444  1
  Zr  Zr15  1  0.495409  0.154091  0.530581  1
  Si  Si16  1  0.796543  0.146259  0.071811  1
  Si  Si17  1  0.203085  0.853536  0.571791  1
  Si  Si18  1  0.646217  0.703447  0.821753  1
  Si  Si19  1  0.353610  0.296746  0.321600  1
  Si  Si20  1  0.854472  0.203759  0.428006  1
  Si  Si21  1  0.146215  0.796543  0.928223  1
  Si  Si22  1  0.703532  0.646167  0.178158  1
  Si  Si23  1  0.296042  0.354356  0.678518  1
  Si  Si24  1  0.546970  0.197721  0.932948  1
  Si  Si25  1  0.452824  0.801493  0.432818  1
  Si  Si26  1  0.698303  0.952366  0.683357  1
  Si  Si27  1  0.302248  0.047042  0.182939  1
  Si  Si28  1  0.802536  0.453314  0.567056  1
  Si  Si29  1  0.197772  0.546933  0.066985  1
  Si  Si30  1  0.952918  0.697753  0.316961  1
  Si  Si31  1  0.046979  0.302314  0.817018  1
  Mo  Mo32  1  0.672652  0.328077  0.750400  1
  Mo  Mo33  1  0.327743  0.672347  0.249832  1
  Mo  Mo34  1  0.828336  0.827326  0.499908  1
  Mo  Mo35  1  0.172314  0.172217  0.999951  1
