# generated using pymatgen
data_Pr3Sn2(GeAu2)2
_symmetry_space_group_name_H-M   'P 1'
_cell_length_a   8.82241912
_cell_length_b   8.82241952
_cell_length_c   8.82241937
_cell_angle_alpha   149.70107662
_cell_angle_beta   131.66133675
_cell_angle_gamma   58.12070687
_symmetry_Int_Tables_number   1
_chemical_formula_structural   Pr3Sn2(GeAu2)2
_chemical_formula_sum   'Pr3 Sn2 Ge2 Au4'
_cell_volume   256.90673981
_cell_formula_units_Z   1
loop_
 _symmetry_equiv_pos_site_id
 _symmetry_equiv_pos_as_xyz
  1  'x, y, z'
loop_
 _atom_site_type_symbol
 _atom_site_label
 _atom_site_symmetry_multiplicity
 _atom_site_fract_x
 _atom_site_fract_y
 _atom_site_fract_z
 _atom_site_occupancy
  Pr  Pr0  1  0.500000  0.000000  0.500000  1
  Pr  Pr1  1  0.123097  0.123097  0.000000  1
  Pr  Pr2  1  0.876903  0.876903  0.000000  1
  Sn  Sn3  1  0.718224  0.218224  0.500000  1
  Sn  Sn4  1  0.281776  0.781776  0.500000  1
  Ge  Ge5  1  0.179778  0.500000  0.679778  1
  Ge  Ge6  1  0.820222  0.500000  0.320222  1
  Au  Au7  1  0.460327  0.657865  0.802462  1
  Au  Au8  1  0.855402  0.657865  0.197538  1
  Au  Au9  1  0.144598  0.342135  0.802462  1
  Au  Au10  1  0.539673  0.342135  0.197538  1
