# generated using pymatgen
data_SrSm6FeBr12
_symmetry_space_group_name_H-M   'P 1'
_cell_length_a   9.37852376
_cell_length_b   9.37852295
_cell_length_c   9.37852358
_cell_angle_alpha   106.22768004
_cell_angle_beta   106.22768729
_cell_angle_gamma   106.22767294
_symmetry_Int_Tables_number   1
_chemical_formula_structural   SrSm6FeBr12
_chemical_formula_sum   'Sr1 Sm6 Fe1 Br12'
_cell_volume   700.95804594
_cell_formula_units_Z   1
loop_
 _symmetry_equiv_pos_site_id
 _symmetry_equiv_pos_as_xyz
  1  'x, y, z'
loop_
 _atom_site_type_symbol
 _atom_site_label
 _atom_site_symmetry_multiplicity
 _atom_site_fract_x
 _atom_site_fract_y
 _atom_site_fract_z
 _atom_site_occupancy
  Sr  Sr0  1  0.500000  0.500000  0.500000  1
  Sm  Sm1  1  0.096598  0.303965  0.018865  1
  Sm  Sm2  1  0.018865  0.096598  0.303965  1
  Sm  Sm3  1  0.303965  0.018865  0.096598  1
  Sm  Sm4  1  0.903402  0.696035  0.981135  1
  Sm  Sm5  1  0.981135  0.903402  0.696035  1
  Sm  Sm6  1  0.696035  0.981135  0.903402  1
  Fe  Fe7  1  0.000000  0.000000  0.000000  1
  Br  Br8  1  0.446262  0.366889  0.143485  1
  Br  Br9  1  0.143485  0.446262  0.366889  1
  Br  Br10  1  0.366889  0.143485  0.446262  1
  Br  Br11  1  0.553738  0.633111  0.856515  1
  Br  Br12  1  0.856515  0.553738  0.633111  1
  Br  Br13  1  0.633111  0.856515  0.553738  1
  Br  Br14  1  0.777076  0.319358  0.926787  1
  Br  Br15  1  0.926787  0.777076  0.319358  1
  Br  Br16  1  0.319358  0.926787  0.777076  1
  Br  Br17  1  0.222924  0.680642  0.073213  1
  Br  Br18  1  0.073213  0.222924  0.680642  1
  Br  Br19  1  0.680642  0.073213  0.222924  1
