# generated using pymatgen
data_TmBiI26
_symmetry_space_group_name_H-M   'P 1'
_cell_length_a   13.08045914
_cell_length_b   11.65225407
_cell_length_c   15.43586374
_cell_angle_alpha   123.49195951
_cell_angle_beta   87.05448720
_cell_angle_gamma   106.20052623
_symmetry_Int_Tables_number   1
_chemical_formula_structural   TmBiI26
_chemical_formula_sum   'Tm1 Bi1 I26'
_cell_volume   1868.62456236
_cell_formula_units_Z   1
loop_
 _symmetry_equiv_pos_site_id
 _symmetry_equiv_pos_as_xyz
  1  'x, y, z'
loop_
 _atom_site_type_symbol
 _atom_site_label
 _atom_site_symmetry_multiplicity
 _atom_site_fract_x
 _atom_site_fract_y
 _atom_site_fract_z
 _atom_site_occupancy
  Tm  Tm0  1  0.327134  0.868311  0.939253  1
  Bi  Bi1  1  0.671521  0.136271  0.067120  1
  I  I2  1  0.380681  0.658147  0.973707  1
  I  I3  1  0.617809  0.343277  0.022503  1
  I  I4  1  0.578709  0.806790  0.390841  1
  I  I5  1  0.426674  0.197884  0.604230  1
  I  I6  1  0.734525  0.697644  0.015051  1
  I  I7  1  0.266992  0.304557  0.989673  1
  I  I8  1  0.718548  0.972755  0.166530  1
  I  I9  1  0.282234  0.024375  0.842004  1
  I  I10  1  0.432991  0.134946  0.142304  1
  I  I11  1  0.547107  0.861797  0.857997  1
  I  I12  1  0.231870  0.648542  0.708029  1
  I  I13  1  0.777134  0.366007  0.303968  1
  I  I14  1  0.113651  0.815520  0.999404  1
  I  I15  1  0.887260  0.169819  0.996493  1
  I  I16  1  0.086912  0.088382  0.215049  1
  I  I17  1  0.907962  0.897172  0.778798  1
  I  I18  1  0.278441  0.913028  0.456050  1
  I  I19  1  0.724147  0.091474  0.540253  1
  I  I20  1  0.327788  0.417724  0.647970  1
  I  I21  1  0.679743  0.590037  0.353541  1
  I  I22  1  0.856397  0.390226  0.702264  1
  I  I23  1  0.145734  0.615499  0.297441  1
  I  I24  1  0.946710  0.671566  0.591076  1
  I  I25  1  0.049856  0.317327  0.402158  1
  I  I26  1  0.255131  0.624638  0.127576  1
  I  I27  1  0.746339  0.376283  0.868719  1
