# generated using pymatgen
data_Hf2Ta4TiH16
_symmetry_space_group_name_H-M   'P 1'
_cell_length_a   6.40989046
_cell_length_b   6.34514923
_cell_length_c   6.40988969
_cell_angle_alpha   60.33354501
_cell_angle_beta   59.33289881
_cell_angle_gamma   60.33353544
_symmetry_Int_Tables_number   1
_chemical_formula_structural   Hf2Ta4TiH16
_chemical_formula_sum   'Hf2 Ta4 Ti1 H16'
_cell_volume   184.30631181
_cell_formula_units_Z   1
loop_
 _symmetry_equiv_pos_site_id
 _symmetry_equiv_pos_as_xyz
  1  'x, y, z'
loop_
 _atom_site_type_symbol
 _atom_site_label
 _atom_site_symmetry_multiplicity
 _atom_site_fract_x
 _atom_site_fract_y
 _atom_site_fract_z
 _atom_site_occupancy
  Hf  Hf0  1  0.500000  0.000000  0.500000  1
  Hf  Hf1  1  0.000000  0.500000  0.000000  1
  Ta  Ta2  1  0.000000  0.000000  0.500000  1
  Ta  Ta3  1  0.000000  0.500000  0.500000  1
  Ta  Ta4  1  0.500000  0.500000  0.000000  1
  Ta  Ta5  1  0.500000  0.000000  0.000000  1
  Ti  Ti6  1  0.000000  0.000000  0.000000  1
  H  H7  1  0.886378  0.873386  0.366849  1
  H  H8  1  0.873386  0.366849  0.873386  1
  H  H9  1  0.366849  0.873386  0.886378  1
  H  H10  1  0.873386  0.886378  0.873386  1
  H  H11  1  0.113622  0.126614  0.633151  1
  H  H12  1  0.126614  0.633151  0.126614  1
  H  H13  1  0.633151  0.126614  0.113622  1
  H  H14  1  0.126614  0.113622  0.126614  1
  H  H15  1  0.608038  0.626583  0.138796  1
  H  H16  1  0.626583  0.138796  0.626583  1
  H  H17  1  0.138796  0.626583  0.608038  1
  H  H18  1  0.626583  0.608038  0.626583  1
  H  H19  1  0.391962  0.373417  0.861204  1
  H  H20  1  0.373417  0.861204  0.373417  1
  H  H21  1  0.861204  0.373417  0.391962  1
  H  H22  1  0.373417  0.391962  0.373417  1
