# generated using pymatgen
data_TbDySc4CoTe2
_symmetry_space_group_name_H-M   'P 1'
_cell_length_a   3.89369500
_cell_length_b   7.91270037
_cell_length_c   7.96117528
_cell_angle_alpha   119.76791353
_cell_angle_beta   90.00000000
_cell_angle_gamma   90.00000000
_symmetry_Int_Tables_number   1
_chemical_formula_structural   TbDySc4CoTe2
_chemical_formula_sum   'Tb1 Dy1 Sc4 Co1 Te2'
_cell_volume   212.91457433
_cell_formula_units_Z   1
loop_
 _symmetry_equiv_pos_site_id
 _symmetry_equiv_pos_as_xyz
  1  'x, y, z'
loop_
 _atom_site_type_symbol
 _atom_site_label
 _atom_site_symmetry_multiplicity
 _atom_site_fract_x
 _atom_site_fract_y
 _atom_site_fract_z
 _atom_site_occupancy
  Tb  Tb0  1  0.000000  0.396801  0.395537  1
  Dy  Dy1  1  0.000000  0.001361  0.605510  1
  Sc  Sc2  1  0.500000  0.773891  0.769917  1
  Sc  Sc3  1  0.500000  0.003807  0.229851  1
  Sc  Sc4  1  0.500000  0.227915  0.999862  1
  Sc  Sc5  1  0.000000  0.622077  0.999937  1
  Co  Co6  1  0.000000  0.963496  0.998937  1
  Te  Te7  1  0.500000  0.665993  0.320466  1
  Te  Te8  1  0.500000  0.344660  0.679983  1
