# generated using pymatgen
data_Tb2Al6CuNiHg2
_symmetry_space_group_name_H-M   'P 1'
_cell_length_a   8.14592951
_cell_length_b   8.14592808
_cell_length_c   6.77008800
_cell_angle_alpha   90.00000000
_cell_angle_beta   90.00000000
_cell_angle_gamma   150.86201147
_symmetry_Int_Tables_number   1
_chemical_formula_structural   Tb2Al6CuNiHg2
_chemical_formula_sum   'Tb2 Al6 Cu1 Ni1 Hg2'
_cell_volume   218.74006418
_cell_formula_units_Z   1
loop_
 _symmetry_equiv_pos_site_id
 _symmetry_equiv_pos_as_xyz
  1  'x, y, z'
loop_
 _atom_site_type_symbol
 _atom_site_label
 _atom_site_symmetry_multiplicity
 _atom_site_fract_x
 _atom_site_fract_y
 _atom_site_fract_z
 _atom_site_occupancy
  Tb  Tb0  1  0.877271  0.122729  0.250000  1
  Tb  Tb1  1  0.120877  0.879123  0.750000  1
  Al  Al2  1  0.310556  0.689444  0.557795  1
  Al  Al3  1  0.690263  0.309737  0.450757  1
  Al  Al4  1  0.690263  0.309737  0.049243  1
  Al  Al5  1  0.310556  0.689444  0.942205  1
  Al  Al6  1  0.923446  0.076554  0.750000  1
  Al  Al7  1  0.074555  0.925445  0.250000  1
  Cu  Cu8  1  0.226869  0.773131  0.250000  1
  Ni  Ni9  1  0.775130  0.224870  0.750000  1
  Hg  Hg10  1  0.500106  0.499894  0.000096  1
  Hg  Hg11  1  0.500106  0.499894  0.499904  1
