# generated using pymatgen
data_LiY9LuIn7
_symmetry_space_group_name_H-M   'P 1'
_cell_length_a   9.27811500
_cell_length_b   9.27811587
_cell_length_c   6.66156900
_cell_angle_alpha   90.00000000
_cell_angle_beta   90.00000000
_cell_angle_gamma   120.00000048
_symmetry_Int_Tables_number   1
_chemical_formula_structural   LiY9LuIn7
_chemical_formula_sum   'Li1 Y9 Lu1 In7'
_cell_volume   496.62285599
_cell_formula_units_Z   1
loop_
 _symmetry_equiv_pos_site_id
 _symmetry_equiv_pos_as_xyz
  1  'x, y, z'
loop_
 _atom_site_type_symbol
 _atom_site_label
 _atom_site_symmetry_multiplicity
 _atom_site_fract_x
 _atom_site_fract_y
 _atom_site_fract_z
 _atom_site_occupancy
  Li  Li0  1  0.000000  0.000000  0.500000  1
  Y  Y1  1  0.333333  0.666667  0.500000  1
  Y  Y2  1  0.666667  0.333333  0.500000  1
  Y  Y3  1  0.666667  0.333333  0.000000  1
  Y  Y4  1  0.292838  0.999492  0.752558  1
  Y  Y5  1  0.706655  0.999492  0.247442  1
  Y  Y6  1  0.000508  0.293345  0.752558  1
  Y  Y7  1  0.000508  0.707162  0.247442  1
  Y  Y8  1  0.706655  0.707162  0.752558  1
  Y  Y9  1  0.292838  0.293345  0.247442  1
  Lu  Lu10  1  0.333333  0.666667  0.000000  1
  In  In11  1  0.000000  0.000000  0.000000  1
  In  In12  1  0.632232  0.999272  0.747134  1
  In  In13  1  0.367042  0.999272  0.252866  1
  In  In14  1  0.000728  0.632958  0.747134  1
  In  In15  1  0.000728  0.367768  0.252866  1
  In  In16  1  0.367042  0.367768  0.747134  1
  In  In17  1  0.632232  0.632958  0.252866  1
