# generated using pymatgen
data_Dy4Er(GaSb)2
_symmetry_space_group_name_H-M   'P 1'
_cell_length_a   8.63787808
_cell_length_b   8.63787852
_cell_length_c   7.92162200
_cell_angle_alpha   90.00000000
_cell_angle_beta   90.00000000
_cell_angle_gamma   125.42054821
_symmetry_Int_Tables_number   1
_chemical_formula_structural   Dy4Er(GaSb)2
_chemical_formula_sum   'Dy8 Er2 Ga4 Sb4'
_cell_volume   481.66295977
_cell_formula_units_Z   2
loop_
 _symmetry_equiv_pos_site_id
 _symmetry_equiv_pos_as_xyz
  1  'x, y, z'
loop_
 _atom_site_type_symbol
 _atom_site_label
 _atom_site_symmetry_multiplicity
 _atom_site_fract_x
 _atom_site_fract_y
 _atom_site_fract_z
 _atom_site_occupancy
  Dy  Dy0  1  0.038822  0.298883  0.332823  1
  Dy  Dy1  1  0.961178  0.701117  0.667177  1
  Dy  Dy2  1  0.461178  0.201117  0.832823  1
  Dy  Dy3  1  0.798883  0.538822  0.167177  1
  Dy  Dy4  1  0.538822  0.798883  0.167177  1
  Dy  Dy5  1  0.201117  0.461178  0.832823  1
  Dy  Dy6  1  0.701117  0.961178  0.667177  1
  Dy  Dy7  1  0.298883  0.038822  0.332823  1
  Er  Er8  1  0.000000  0.000000  0.000000  1
  Er  Er9  1  0.500000  0.500000  0.500000  1
  Ga  Ga10  1  0.373797  0.373797  0.125945  1
  Ga  Ga11  1  0.626203  0.626203  0.874055  1
  Ga  Ga12  1  0.126203  0.126203  0.625945  1
  Ga  Ga13  1  0.873797  0.873797  0.374055  1
  Sb  Sb14  1  0.794678  0.205322  0.000000  1
  Sb  Sb15  1  0.205322  0.794678  0.000000  1
  Sb  Sb16  1  0.705322  0.294678  0.500000  1
  Sb  Sb17  1  0.294678  0.705322  0.500000  1
