# generated using pymatgen
data_PrHo2NpO7
_symmetry_space_group_name_H-M   'P 1'
_cell_length_a   6.62358233
_cell_length_b   6.62937035
_cell_length_c   7.76713600
_cell_angle_alpha   106.97497370
_cell_angle_beta   89.92732906
_cell_angle_gamma   99.18216051
_symmetry_Int_Tables_number   1
_chemical_formula_structural   PrHo2NpO7
_chemical_formula_sum   'Pr2 Ho4 Np2 O14'
_cell_volume   321.64626430
_cell_formula_units_Z   2
loop_
 _symmetry_equiv_pos_site_id
 _symmetry_equiv_pos_as_xyz
  1  'x, y, z'
loop_
 _atom_site_type_symbol
 _atom_site_label
 _atom_site_symmetry_multiplicity
 _atom_site_fract_x
 _atom_site_fract_y
 _atom_site_fract_z
 _atom_site_occupancy
  Pr  Pr0  1  0.742857  0.485394  0.619400  1
  Pr  Pr1  1  0.257143  0.514606  0.380600  1
  Ho  Ho2  1  0.464388  0.007938  0.248365  1
  Ho  Ho3  1  0.535612  0.992062  0.751635  1
  Ho  Ho4  1  0.277562  0.539917  0.883933  1
  Ho  Ho5  1  0.722438  0.460083  0.116067  1
  Np  Np6  1  0.000000  0.000000  0.500000  1
  Np  Np7  1  0.000000  0.000000  0.000000  1
  O  O8  1  0.454965  0.654946  0.160455  1
  O  O9  1  0.545035  0.345054  0.839545  1
  O  O10  1  0.300360  0.915922  0.950904  1
  O  O11  1  0.699640  0.084078  0.049096  1
  O  O12  1  0.292311  0.929005  0.516835  1
  O  O13  1  0.707689  0.070995  0.483165  1
  O  O14  1  0.552373  0.359774  0.336730  1
  O  O15  1  0.447627  0.640226  0.663270  1
  O  O16  1  0.925104  0.676494  0.965012  1
  O  O17  1  0.074896  0.323506  0.034988  1
  O  O18  1  0.072177  0.346561  0.628380  1
  O  O19  1  0.927823  0.653439  0.371620  1
  O  O20  1  0.861737  0.900133  0.723954  1
  O  O21  1  0.138263  0.099867  0.276046  1
