# generated using pymatgen
data_Zr18CoRe8Ni
_symmetry_space_group_name_H-M   'P 1'
_cell_length_a   8.66868300
_cell_length_b   8.66868165
_cell_length_c   8.59965000
_cell_angle_alpha   90.00000000
_cell_angle_beta   90.00000000
_cell_angle_gamma   119.99999371
_symmetry_Int_Tables_number   1
_chemical_formula_structural   Zr18CoRe8Ni
_chemical_formula_sum   'Zr18 Co1 Re8 Ni1'
_cell_volume   559.65142143
_cell_formula_units_Z   1
loop_
 _symmetry_equiv_pos_site_id
 _symmetry_equiv_pos_as_xyz
  1  'x, y, z'
loop_
 _atom_site_type_symbol
 _atom_site_label
 _atom_site_symmetry_multiplicity
 _atom_site_fract_x
 _atom_site_fract_y
 _atom_site_fract_z
 _atom_site_occupancy
  Zr  Zr0  1  0.197135  0.802865  0.442448  1
  Zr  Zr1  1  0.197135  0.394272  0.442448  1
  Zr  Zr2  1  0.605728  0.802865  0.442448  1
  Zr  Zr3  1  0.800823  0.199177  0.558952  1
  Zr  Zr4  1  0.800823  0.601645  0.558952  1
  Zr  Zr5  1  0.398355  0.199177  0.558952  1
  Zr  Zr6  1  0.800823  0.199177  0.941048  1
  Zr  Zr7  1  0.800823  0.601645  0.941048  1
  Zr  Zr8  1  0.398355  0.199177  0.941048  1
  Zr  Zr9  1  0.197135  0.802865  0.057552  1
  Zr  Zr10  1  0.197135  0.394272  0.057552  1
  Zr  Zr11  1  0.605728  0.802865  0.057552  1
  Zr  Zr12  1  0.542548  0.457452  0.250000  1
  Zr  Zr13  1  0.542548  0.085095  0.250000  1
  Zr  Zr14  1  0.914905  0.457452  0.250000  1
  Zr  Zr15  1  0.457627  0.542373  0.750000  1
  Zr  Zr16  1  0.457627  0.915253  0.750000  1
  Zr  Zr17  1  0.084747  0.542373  0.750000  1
  Co  Co18  1  0.666667  0.333333  0.750000  1
  Re  Re19  1  0.891736  0.108264  0.250000  1
  Re  Re20  1  0.891736  0.783474  0.250000  1
  Re  Re21  1  0.216526  0.108264  0.250000  1
  Re  Re22  1  0.107955  0.892045  0.750000  1
  Re  Re23  1  0.107955  0.215909  0.750000  1
  Re  Re24  1  0.784091  0.892045  0.750000  1
  Re  Re25  1  0.000000  0.000000  0.499981  1
  Re  Re26  1  0.000000  0.000000  0.000019  1
  Ni  Ni27  1  0.333333  0.666667  0.250000  1
