# generated using pymatgen
data_Tb8Lu4AlCo4Sn
_symmetry_space_group_name_H-M   'P 1'
_cell_length_a   8.30813820
_cell_length_b   8.30813821
_cell_length_c   8.30813736
_cell_angle_alpha   111.93454409
_cell_angle_beta   109.17739442
_cell_angle_gamma   107.33504504
_symmetry_Int_Tables_number   1
_chemical_formula_structural   Tb8Lu4AlCo4Sn
_chemical_formula_sum   'Tb8 Lu4 Al1 Co4 Sn1'
_cell_volume   440.73398338
_cell_formula_units_Z   1
loop_
 _symmetry_equiv_pos_site_id
 _symmetry_equiv_pos_as_xyz
  1  'x, y, z'
loop_
 _atom_site_type_symbol
 _atom_site_label
 _atom_site_symmetry_multiplicity
 _atom_site_fract_x
 _atom_site_fract_y
 _atom_site_fract_z
 _atom_site_occupancy
  Tb  Tb0  1  0.438143  0.233998  0.204143  1
  Tb  Tb1  1  0.561857  0.766002  0.795857  1
  Tb  Tb2  1  0.029854  0.233998  0.795857  1
  Tb  Tb3  1  0.970146  0.766002  0.204143  1
  Tb  Tb4  1  0.182311  0.281318  0.463630  1
  Tb  Tb5  1  0.817689  0.718682  0.536370  1
  Tb  Tb6  1  0.182311  0.718682  0.900992  1
  Tb  Tb7  1  0.817689  0.281318  0.099008  1
  Lu  Lu8  1  0.325391  0.640546  0.315155  1
  Lu  Lu9  1  0.674609  0.359454  0.684845  1
  Lu  Lu10  1  0.325391  0.010236  0.684845  1
  Lu  Lu11  1  0.674609  0.989764  0.315155  1
  Al  Al12  1  0.000000  0.000000  0.000000  1
  Co  Co13  1  0.344529  0.000000  0.344529  1
  Co  Co14  1  0.655471  0.000000  0.655471  1
  Co  Co15  1  0.114915  0.614915  0.500000  1
  Co  Co16  1  0.885085  0.385085  0.500000  1
  Sn  Sn17  1  0.500000  0.500000  0.000000  1
