# generated using pymatgen
data_La4NdTl2InBr
_symmetry_space_group_name_H-M   'P 1'
_cell_length_a   9.78949016
_cell_length_b   9.78949122
_cell_length_c   6.91057424
_cell_angle_alpha   90.01721312
_cell_angle_beta   90.01720917
_cell_angle_gamma   119.91766641
_symmetry_Int_Tables_number   1
_chemical_formula_structural   La4NdTl2InBr
_chemical_formula_sum   'La8 Nd2 Tl4 In2 Br2'
_cell_volume   574.01679579
_cell_formula_units_Z   2
loop_
 _symmetry_equiv_pos_site_id
 _symmetry_equiv_pos_as_xyz
  1  'x, y, z'
loop_
 _atom_site_type_symbol
 _atom_site_label
 _atom_site_symmetry_multiplicity
 _atom_site_fract_x
 _atom_site_fract_y
 _atom_site_fract_z
 _atom_site_occupancy
  La  La0  1  0.733162  0.733162  0.252302  1
  La  La1  1  0.999643  0.733266  0.747370  1
  La  La2  1  0.733266  0.999643  0.747370  1
  La  La3  1  0.266838  0.266838  0.747698  1
  La  La4  1  0.000357  0.266734  0.252630  1
  La  La5  1  0.266734  0.000357  0.252630  1
  La  La6  1  0.333706  0.666294  0.000000  1
  La  La7  1  0.666294  0.333706  0.000000  1
  Nd  Nd8  1  0.333872  0.666128  0.500000  1
  Nd  Nd9  1  0.666128  0.333872  0.500000  1
  Tl  Tl10  1  0.391856  0.000094  0.745019  1
  Tl  Tl11  1  0.999906  0.608144  0.254981  1
  Tl  Tl12  1  0.608144  0.999906  0.254981  1
  Tl  Tl13  1  0.000094  0.391856  0.745019  1
  In  In14  1  0.392065  0.392065  0.255378  1
  In  In15  1  0.607935  0.607935  0.744622  1
  Br  Br16  1  0.000000  0.000000  0.500000  1
  Br  Br17  1  0.000000  0.000000  0.000000  1
