# generated using pymatgen
data_RbAlZnP2
_symmetry_space_group_name_H-M   'P 1'
_cell_length_a   7.86095051
_cell_length_b   7.86095025
_cell_length_c   7.86095107
_cell_angle_alpha   150.42409994
_cell_angle_beta   150.42409722
_cell_angle_gamma   42.31922492
_symmetry_Int_Tables_number   1
_chemical_formula_structural   RbAlZnP2
_chemical_formula_sum   'Rb1 Al1 Zn1 P2'
_cell_volume   118.05280797
_cell_formula_units_Z   1
loop_
 _symmetry_equiv_pos_site_id
 _symmetry_equiv_pos_as_xyz
  1  'x, y, z'
loop_
 _atom_site_type_symbol
 _atom_site_label
 _atom_site_symmetry_multiplicity
 _atom_site_fract_x
 _atom_site_fract_y
 _atom_site_fract_z
 _atom_site_occupancy
  Rb  Rb0  1  0.000000  0.000000  0.000000  1
  Al  Al1  1  0.250000  0.750000  0.500000  1
  Zn  Zn2  1  0.750000  0.250000  0.500000  1
  P  P3  1  0.347054  0.347054  0.000000  1
  P  P4  1  0.652946  0.652946  0.000000  1
