# generated using pymatgen
data_Li4Sm2ErSn4
_symmetry_space_group_name_H-M   'P 1'
_cell_length_a   8.71154468
_cell_length_b   8.71154352
_cell_length_c   8.71154372
_cell_angle_alpha   148.79882269
_cell_angle_beta   132.57017420
_cell_angle_gamma   57.86971137
_symmetry_Int_Tables_number   1
_chemical_formula_structural   Li4Sm2ErSn4
_chemical_formula_sum   'Li4 Sm2 Er1 Sn4'
_cell_volume   250.32477397
_cell_formula_units_Z   1
loop_
 _symmetry_equiv_pos_site_id
 _symmetry_equiv_pos_as_xyz
  1  'x, y, z'
loop_
 _atom_site_type_symbol
 _atom_site_label
 _atom_site_symmetry_multiplicity
 _atom_site_fract_x
 _atom_site_fract_y
 _atom_site_fract_z
 _atom_site_occupancy
  Li  Li0  1  0.481577  0.672553  0.809026  1
  Li  Li1  1  0.863527  0.672553  0.190974  1
  Li  Li2  1  0.136473  0.327447  0.809026  1
  Li  Li3  1  0.518423  0.327447  0.190974  1
  Sm  Sm4  1  0.870803  0.870803  0.000000  1
  Sm  Sm5  1  0.129197  0.129197  0.000000  1
  Er  Er6  1  0.500000  0.000000  0.500000  1
  Sn  Sn7  1  0.289120  0.789120  0.500000  1
  Sn  Sn8  1  0.710880  0.210880  0.500000  1
  Sn  Sn9  1  0.794508  0.500000  0.294508  1
  Sn  Sn10  1  0.205492  0.500000  0.705492  1
