# generated using pymatgen
data_Nd2Al20Re2RuRh
_symmetry_space_group_name_H-M   'P 1'
_cell_length_a   6.92342070
_cell_length_b   6.90771033
_cell_length_c   9.25952086
_cell_angle_alpha   90.40088592
_cell_angle_beta   89.87651151
_cell_angle_gamma   96.70774887
_symmetry_Int_Tables_number   1
_chemical_formula_structural   Nd2Al20Re2RuRh
_chemical_formula_sum   'Nd2 Al20 Re2 Ru1 Rh1'
_cell_volume   439.79400197
_cell_formula_units_Z   1
loop_
 _symmetry_equiv_pos_site_id
 _symmetry_equiv_pos_as_xyz
  1  'x, y, z'
loop_
 _atom_site_type_symbol
 _atom_site_label
 _atom_site_symmetry_multiplicity
 _atom_site_fract_x
 _atom_site_fract_y
 _atom_site_fract_z
 _atom_site_occupancy
  Nd  Nd0  1  0.874327  0.124061  0.750323  1
  Nd  Nd1  1  0.125673  0.875939  0.249677  1
  Al  Al2  1  0.619507  0.377313  0.550417  1
  Al  Al3  1  0.380493  0.622687  0.449583  1
  Al  Al4  1  0.377633  0.622945  0.047916  1
  Al  Al5  1  0.622367  0.377055  0.952084  1
  Al  Al6  1  0.228525  0.226704  0.499042  1
  Al  Al7  1  0.771475  0.773296  0.500958  1
  Al  Al8  1  0.772121  0.772553  0.999371  1
  Al  Al9  1  0.227879  0.227447  0.000629  1
  Al  Al10  1  0.839947  0.160628  0.100134  1
  Al  Al11  1  0.160053  0.839372  0.899866  1
  Al  Al12  1  0.161043  0.840990  0.601861  1
  Al  Al13  1  0.838957  0.159010  0.398139  1
  Al  Al14  1  0.859395  0.589827  0.749800  1
  Al  Al15  1  0.140605  0.410173  0.250200  1
  Al  Al16  1  0.410042  0.139999  0.749448  1
  Al  Al17  1  0.589958  0.860001  0.250552  1
  Al  Al18  1  0.221318  0.480540  0.752724  1
  Al  Al19  1  0.778682  0.519460  0.247276  1
  Al  Al20  1  0.519371  0.780122  0.749559  1
  Al  Al21  1  0.480629  0.219878  0.250441  1
  Re  Re22  1  0.000000  0.500000  0.000000  1
  Re  Re23  1  0.500000  0.000000  0.000000  1
  Ru  Ru24  1  0.500000  0.000000  0.500000  1
  Rh  Rh25  1  0.000000  0.500000  0.500000  1
