# generated using pymatgen
data_Tb8AlAsI12
_symmetry_space_group_name_H-M   'P 1'
_cell_length_a   4.21719600
_cell_length_b   14.16281107
_cell_length_c   14.91271309
_cell_angle_alpha   90.01200940
_cell_angle_beta   90.00000000
_cell_angle_gamma   90.00000000
_symmetry_Int_Tables_number   1
_chemical_formula_structural   Tb8AlAsI12
_chemical_formula_sum   'Tb8 Al1 As1 I12'
_cell_volume   890.69681753
_cell_formula_units_Z   1
loop_
 _symmetry_equiv_pos_site_id
 _symmetry_equiv_pos_as_xyz
  1  'x, y, z'
loop_
 _atom_site_type_symbol
 _atom_site_label
 _atom_site_symmetry_multiplicity
 _atom_site_fract_x
 _atom_site_fract_y
 _atom_site_fract_z
 _atom_site_occupancy
  Tb  Tb0  1  0.500000  0.117382  0.343745  1
  Tb  Tb1  1  0.500000  0.882618  0.656255  1
  Tb  Tb2  1  0.500000  0.613813  0.152010  1
  Tb  Tb3  1  0.500000  0.386187  0.847990  1
  Tb  Tb4  1  0.000000  0.117728  0.579008  1
  Tb  Tb5  1  0.000000  0.882272  0.420992  1
  Tb  Tb6  1  0.000000  0.609143  0.927004  1
  Tb  Tb7  1  0.000000  0.390857  0.072996  1
  Al  Al8  1  0.500000  0.000000  0.500000  1
  As  As9  1  0.500000  0.500000  0.000000  1
  I  I10  1  0.500000  0.250033  0.159642  1
  I  I11  1  0.500000  0.749967  0.840358  1
  I  I12  1  0.500000  0.743337  0.333592  1
  I  I13  1  0.500000  0.256663  0.666408  1
  I  I14  1  0.000000  0.261451  0.414380  1
  I  I15  1  0.000000  0.738549  0.585620  1
  I  I16  1  0.000000  0.756351  0.084977  1
  I  I17  1  0.000000  0.243649  0.915023  1
  I  I18  1  0.000000  0.999586  0.237631  1
  I  I19  1  0.000000  0.000414  0.762369  1
  I  I20  1  0.000000  0.499329  0.257234  1
  I  I21  1  0.000000  0.500671  0.742766  1
