# generated using pymatgen
data_Tb3Ho3Ta2(Co4P3)4
_symmetry_space_group_name_H-M   'P 1'
_cell_length_a   3.70951100
_cell_length_b   10.62973348
_cell_length_c   12.32779055
_cell_angle_alpha   90.03430829
_cell_angle_beta   90.00000000
_cell_angle_gamma   90.00000000
_symmetry_Int_Tables_number   1
_chemical_formula_structural   Tb3Ho3Ta2(Co4P3)4
_chemical_formula_sum   'Tb3 Ho3 Ta2 Co16 P12'
_cell_volume   486.09841835
_cell_formula_units_Z   1
loop_
 _symmetry_equiv_pos_site_id
 _symmetry_equiv_pos_as_xyz
  1  'x, y, z'
loop_
 _atom_site_type_symbol
 _atom_site_label
 _atom_site_symmetry_multiplicity
 _atom_site_fract_x
 _atom_site_fract_y
 _atom_site_fract_z
 _atom_site_occupancy
  Tb  Tb0  1  0.000000  0.499944  0.526990  1
  Tb  Tb1  1  0.500000  0.000112  0.473143  1
  Tb  Tb2  1  0.500000  0.820743  0.205082  1
  Ho  Ho3  1  0.500000  0.179491  0.204953  1
  Ho  Ho4  1  0.000000  0.679256  0.795039  1
  Ho  Ho5  1  0.000000  0.320727  0.794998  1
  Ta  Ta6  1  0.500000  0.499790  0.156539  1
  Ta  Ta7  1  0.000000  0.999937  0.843424  1
  Co  Co8  1  0.000000  0.499699  0.986858  1
  Co  Co9  1  0.500000  0.000334  0.012711  1
  Co  Co10  1  0.500000  0.295354  0.432124  1
  Co  Co11  1  0.500000  0.704568  0.432470  1
  Co  Co12  1  0.000000  0.204732  0.567935  1
  Co  Co13  1  0.000000  0.795297  0.568130  1
  Co  Co14  1  0.500000  0.877642  0.705795  1
  Co  Co15  1  0.500000  0.122372  0.705733  1
  Co  Co16  1  0.000000  0.621796  0.294645  1
  Co  Co17  1  0.000000  0.377533  0.294237  1
  Co  Co18  1  0.500000  0.332609  0.992291  1
  Co  Co19  1  0.500000  0.667103  0.992115  1
  Co  Co20  1  0.000000  0.167574  0.007500  1
  Co  Co21  1  0.000000  0.832721  0.007192  1
  Co  Co22  1  0.500000  0.499951  0.702951  1
  Co  Co23  1  0.000000  0.000678  0.297307  1
  P  P24  1  0.500000  0.310753  0.616044  1
  P  P25  1  0.500000  0.689177  0.616176  1
  P  P26  1  0.000000  0.189403  0.384008  1
  P  P27  1  0.000000  0.810610  0.384683  1
  P  P28  1  0.500000  0.499899  0.881855  1
  P  P29  1  0.000000  0.000640  0.117682  1
  P  P30  1  0.500000  0.840829  0.892672  1
  P  P31  1  0.500000  0.159269  0.892509  1
  P  P32  1  0.000000  0.658592  0.106847  1
  P  P33  1  0.000000  0.340787  0.107341  1
  P  P34  1  0.500000  0.500073  0.356282  1
  P  P35  1  0.000000  0.000004  0.643738  1
