# generated using pymatgen
data_YHo8Tm11Bi12
_symmetry_space_group_name_H-M   'P 1'
_cell_length_a   8.20194975
_cell_length_b   9.44419230
_cell_length_c   11.98729829
_cell_angle_alpha   89.98684602
_cell_angle_beta   90.01942620
_cell_angle_gamma   89.99149443
_symmetry_Int_Tables_number   1
_chemical_formula_structural   YHo8Tm11Bi12
_chemical_formula_sum   'Y1 Ho8 Tm11 Bi12'
_cell_volume   928.54551458
_cell_formula_units_Z   1
loop_
 _symmetry_equiv_pos_site_id
 _symmetry_equiv_pos_as_xyz
  1  'x, y, z'
loop_
 _atom_site_type_symbol
 _atom_site_label
 _atom_site_symmetry_multiplicity
 _atom_site_fract_x
 _atom_site_fract_y
 _atom_site_fract_z
 _atom_site_occupancy
  Y  Y0  1  0.146786  0.249188  0.716589  1
  Ho  Ho1  1  0.186122  0.749991  0.718434  1
  Ho  Ho2  1  0.686555  0.750028  0.781863  1
  Ho  Ho3  1  0.813660  0.249477  0.281306  1
  Ho  Ho4  1  0.313519  0.249794  0.218006  1
  Ho  Ho5  1  0.807633  0.436615  0.559492  1
  Ho  Ho6  1  0.353996  0.749834  0.216422  1
  Ho  Ho7  1  0.853539  0.749432  0.283424  1
  Ho  Ho8  1  0.645206  0.248992  0.783923  1
  Tm  Tm9  1  0.024756  0.749766  0.988929  1
  Tm  Tm10  1  0.524653  0.749877  0.511224  1
  Tm  Tm11  1  0.975098  0.249864  0.011319  1
  Tm  Tm12  1  0.474607  0.249615  0.488740  1
  Tm  Tm13  1  0.307574  0.434006  0.940820  1
  Tm  Tm14  1  0.807273  0.066606  0.559675  1
  Tm  Tm15  1  0.692528  0.933896  0.059339  1
  Tm  Tm16  1  0.192298  0.566323  0.440447  1
  Tm  Tm17  1  0.692377  0.566178  0.059349  1
  Tm  Tm18  1  0.193280  0.934185  0.440081  1
  Tm  Tm19  1  0.307597  0.065862  0.941027  1
  Bi  Bi20  1  0.433869  0.003372  0.672669  1
  Bi  Bi21  1  0.933846  0.495964  0.827613  1
  Bi  Bi22  1  0.566291  0.503583  0.327268  1
  Bi  Bi23  1  0.066303  0.995760  0.172571  1
  Bi  Bi24  1  0.566240  0.995826  0.327419  1
  Bi  Bi25  1  0.066513  0.503794  0.172431  1
  Bi  Bi26  1  0.433469  0.495907  0.672700  1
  Bi  Bi27  1  0.933630  0.003603  0.827631  1
  Bi  Bi28  1  0.405606  0.749972  0.957500  1
  Bi  Bi29  1  0.906792  0.752830  0.541975  1
  Bi  Bi30  1  0.594420  0.250161  0.042669  1
  Bi  Bi31  1  0.093964  0.249700  0.457146  1
