# generated using pymatgen
data_Zr6Ti4Sb6PH
_symmetry_space_group_name_H-M   'P 1'
_cell_length_a   8.37961900
_cell_length_b   8.37961931
_cell_length_c   5.68417400
_cell_angle_alpha   90.00000000
_cell_angle_beta   90.00000000
_cell_angle_gamma   120.00000271
_symmetry_Int_Tables_number   1
_chemical_formula_structural   Zr6Ti4Sb6PH
_chemical_formula_sum   'Zr6 Ti4 Sb6 P1 H1'
_cell_volume   345.65794639
_cell_formula_units_Z   1
loop_
 _symmetry_equiv_pos_site_id
 _symmetry_equiv_pos_as_xyz
  1  'x, y, z'
loop_
 _atom_site_type_symbol
 _atom_site_label
 _atom_site_symmetry_multiplicity
 _atom_site_fract_x
 _atom_site_fract_y
 _atom_site_fract_z
 _atom_site_occupancy
  Zr  Zr0  1  0.751937  0.751937  0.763622  1
  Zr  Zr1  1  0.248063  0.000000  0.763622  1
  Zr  Zr2  1  0.000000  0.248063  0.763622  1
  Zr  Zr3  1  0.248063  0.248063  0.236378  1
  Zr  Zr4  1  0.751937  0.000000  0.236378  1
  Zr  Zr5  1  0.000000  0.751937  0.236378  1
  Ti  Ti6  1  0.666667  0.333333  0.000000  1
  Ti  Ti7  1  0.333333  0.666667  0.000000  1
  Ti  Ti8  1  0.333333  0.666667  0.500000  1
  Ti  Ti9  1  0.666667  0.333333  0.500000  1
  Sb  Sb10  1  0.400209  0.400209  0.749480  1
  Sb  Sb11  1  0.599791  0.000000  0.749480  1
  Sb  Sb12  1  0.000000  0.599791  0.749480  1
  Sb  Sb13  1  0.599791  0.599791  0.250520  1
  Sb  Sb14  1  0.400209  0.000000  0.250520  1
  Sb  Sb15  1  0.000000  0.400209  0.250520  1
  P  P16  1  0.000000  0.000000  0.500000  1
  H  H17  1  0.000000  0.000000  0.000000  1
