# generated using pymatgen
data_Nd5(SnPb)2
_symmetry_space_group_name_H-M   'P 1'
_cell_length_a   8.45905200
_cell_length_b   8.46924600
_cell_length_c   16.11213000
_cell_angle_alpha   90.00000000
_cell_angle_beta   90.00000000
_cell_angle_gamma   90.00000000
_symmetry_Int_Tables_number   1
_chemical_formula_structural   Nd5(SnPb)2
_chemical_formula_sum   'Nd20 Sn8 Pb8'
_cell_volume   1154.30187121
_cell_formula_units_Z   4
loop_
 _symmetry_equiv_pos_site_id
 _symmetry_equiv_pos_as_xyz
  1  'x, y, z'
loop_
 _atom_site_type_symbol
 _atom_site_label
 _atom_site_symmetry_multiplicity
 _atom_site_fract_x
 _atom_site_fract_y
 _atom_site_fract_z
 _atom_site_occupancy
  Nd  Nd0  1  0.040139  0.177116  0.393697  1
  Nd  Nd1  1  0.385555  0.835321  0.119813  1
  Nd  Nd2  1  0.114445  0.335321  0.619813  1
  Nd  Nd3  1  0.459861  0.677116  0.893697  1
  Nd  Nd4  1  0.885555  0.664679  0.119813  1
  Nd  Nd5  1  0.114445  0.335321  0.880187  1
  Nd  Nd6  1  0.213429  0.500557  0.250000  1
  Nd  Nd7  1  0.713429  0.999443  0.250000  1
  Nd  Nd8  1  0.459861  0.677116  0.606303  1
  Nd  Nd9  1  0.286571  0.000557  0.750000  1
  Nd  Nd10  1  0.614445  0.164679  0.619813  1
  Nd  Nd11  1  0.786571  0.499443  0.750000  1
  Nd  Nd12  1  0.885555  0.664679  0.380187  1
  Nd  Nd13  1  0.040139  0.177116  0.106303  1
  Nd  Nd14  1  0.959861  0.822884  0.893697  1
  Nd  Nd15  1  0.614445  0.164679  0.880187  1
  Nd  Nd16  1  0.540139  0.322884  0.106303  1
  Nd  Nd17  1  0.385555  0.835321  0.380187  1
  Nd  Nd18  1  0.959861  0.822884  0.606303  1
  Nd  Nd19  1  0.540139  0.322884  0.393697  1
  Sn  Sn20  1  0.658613  0.859833  0.750000  1
  Sn  Sn21  1  0.841387  0.359833  0.250000  1
  Sn  Sn22  1  0.582088  0.621431  0.250000  1
  Sn  Sn23  1  0.417912  0.378569  0.750000  1
  Sn  Sn24  1  0.158613  0.640167  0.750000  1
  Sn  Sn25  1  0.917912  0.121431  0.750000  1
  Sn  Sn26  1  0.341387  0.140167  0.250000  1
  Sn  Sn27  1  0.082088  0.878569  0.250000  1
  Pb  Pb28  1  0.775875  0.475913  0.542867  1
  Pb  Pb29  1  0.724125  0.975913  0.457133  1
  Pb  Pb30  1  0.224125  0.524087  0.457133  1
  Pb  Pb31  1  0.275875  0.024087  0.957133  1
  Pb  Pb32  1  0.775875  0.475913  0.957133  1
  Pb  Pb33  1  0.224125  0.524087  0.042867  1
  Pb  Pb34  1  0.275875  0.024087  0.542867  1
  Pb  Pb35  1  0.724125  0.975913  0.042867  1
