# generated using pymatgen
data_Ho4Ir2(OsRu)3
_symmetry_space_group_name_H-M   'P 1'
_cell_length_a   5.26560000
_cell_length_b   5.26559975
_cell_length_c   8.95949000
_cell_angle_alpha   90.00000000
_cell_angle_beta   90.00000000
_cell_angle_gamma   120.00038405
_symmetry_Int_Tables_number   1
_chemical_formula_structural   Ho4Ir2(OsRu)3
_chemical_formula_sum   'Ho4 Ir2 Os3 Ru3'
_cell_volume   215.13345365
_cell_formula_units_Z   1
loop_
 _symmetry_equiv_pos_site_id
 _symmetry_equiv_pos_as_xyz
  1  'x, y, z'
loop_
 _atom_site_type_symbol
 _atom_site_label
 _atom_site_symmetry_multiplicity
 _atom_site_fract_x
 _atom_site_fract_y
 _atom_site_fract_z
 _atom_site_occupancy
  Ho  Ho0  1  0.666675  0.333325  0.568223  1
  Ho  Ho1  1  0.333324  0.666676  0.431013  1
  Ho  Ho2  1  0.333324  0.666676  0.068987  1
  Ho  Ho3  1  0.666675  0.333325  0.931777  1
  Ir  Ir4  1  0.000005  0.999995  0.498741  1
  Ir  Ir5  1  0.000005  0.999995  0.001259  1
  Os  Os6  1  0.170741  0.341446  0.750000  1
  Os  Os7  1  0.170743  0.829257  0.750000  1
  Os  Os8  1  0.658554  0.829259  0.750000  1
  Ru  Ru9  1  0.829859  0.659776  0.250000  1
  Ru  Ru10  1  0.829872  0.170128  0.250000  1
  Ru  Ru11  1  0.340224  0.170141  0.250000  1
