# generated using pymatgen
data_Dy4Er8Co5Pb
_symmetry_space_group_name_H-M   'P 1'
_cell_length_a   8.22185114
_cell_length_b   8.22185075
_cell_length_c   8.22185041
_cell_angle_alpha   110.86438342
_cell_angle_beta   110.67677100
_cell_angle_gamma   106.90269831
_symmetry_Int_Tables_number   1
_chemical_formula_structural   Dy4Er8Co5Pb
_chemical_formula_sum   'Dy4 Er8 Co5 Pb1'
_cell_volume   427.20297184
_cell_formula_units_Z   1
loop_
 _symmetry_equiv_pos_site_id
 _symmetry_equiv_pos_as_xyz
  1  'x, y, z'
loop_
 _atom_site_type_symbol
 _atom_site_label
 _atom_site_symmetry_multiplicity
 _atom_site_fract_x
 _atom_site_fract_y
 _atom_site_fract_z
 _atom_site_occupancy
  Dy  Dy0  1  0.289136  0.185681  0.474817  1
  Dy  Dy1  1  0.710864  0.814319  0.525183  1
  Dy  Dy2  1  0.289136  0.814319  0.103455  1
  Dy  Dy3  1  0.710864  0.185681  0.896545  1
  Er  Er4  1  0.620356  0.312853  0.307503  1
  Er  Er5  1  0.379644  0.687147  0.692497  1
  Er  Er6  1  0.005352  0.312853  0.692497  1
  Er  Er7  1  0.994648  0.687147  0.307503  1
  Er  Er8  1  0.208916  0.402163  0.193247  1
  Er  Er9  1  0.791084  0.597837  0.806753  1
  Er  Er10  1  0.208916  0.015668  0.806753  1
  Er  Er11  1  0.791084  0.984332  0.193247  1
  Co  Co12  1  0.000000  0.376693  0.376693  1
  Co  Co13  1  0.000000  0.623307  0.623307  1
  Co  Co14  1  0.387428  0.887428  0.500000  1
  Co  Co15  1  0.612572  0.112572  0.500000  1
  Co  Co16  1  0.000000  0.000000  0.000000  1
  Pb  Pb17  1  0.500000  0.500000  0.000000  1
