# generated using pymatgen
data_NpPa3F15
_symmetry_space_group_name_H-M   'P 1'
_cell_length_a   8.84789535
_cell_length_b   8.84789438
_cell_length_c   8.82209931
_cell_angle_alpha   79.74472797
_cell_angle_beta   79.74472875
_cell_angle_gamma   100.19482553
_symmetry_Int_Tables_number   1
_chemical_formula_structural   NpPa3F15
_chemical_formula_sum   'Np2 Pa6 F30'
_cell_volume   653.03309133
_cell_formula_units_Z   2
loop_
 _symmetry_equiv_pos_site_id
 _symmetry_equiv_pos_as_xyz
  1  'x, y, z'
loop_
 _atom_site_type_symbol
 _atom_site_label
 _atom_site_symmetry_multiplicity
 _atom_site_fract_x
 _atom_site_fract_y
 _atom_site_fract_z
 _atom_site_occupancy
  Np  Np0  1  0.175887  0.824113  0.250000  1
  Np  Np1  1  0.824113  0.175887  0.750000  1
  Pa  Pa2  1  0.750422  0.249578  0.250000  1
  Pa  Pa3  1  0.249578  0.750422  0.750000  1
  Pa  Pa4  1  0.750579  0.677001  0.676652  1
  Pa  Pa5  1  0.322999  0.249421  0.823348  1
  Pa  Pa6  1  0.249421  0.322999  0.323348  1
  Pa  Pa7  1  0.677001  0.750579  0.176652  1
  F  F8  1  0.314529  0.344860  0.053329  1
  F  F9  1  0.939739  0.812360  0.152951  1
  F  F10  1  0.834654  0.452476  0.683169  1
  F  F11  1  0.452476  0.834654  0.183169  1
  F  F12  1  0.812360  0.939739  0.652951  1
  F  F13  1  0.344860  0.314529  0.553328  1
  F  F14  1  0.685471  0.655140  0.946671  1
  F  F15  1  0.060261  0.187640  0.847049  1
  F  F16  1  0.165346  0.547524  0.316831  1
  F  F17  1  0.547524  0.165346  0.816831  1
  F  F18  1  0.187640  0.060261  0.347049  1
  F  F19  1  0.655140  0.685471  0.446671  1
  F  F20  1  0.778218  0.279115  0.993050  1
  F  F21  1  0.010007  0.277622  0.221658  1
  F  F22  1  0.777409  0.508123  0.222987  1
  F  F23  1  0.508123  0.777409  0.722987  1
  F  F24  1  0.277622  0.010007  0.721658  1
  F  F25  1  0.279115  0.778218  0.493050  1
  F  F26  1  0.221782  0.720885  0.006950  1
  F  F27  1  0.989993  0.722378  0.778342  1
  F  F28  1  0.222591  0.491877  0.777013  1
  F  F29  1  0.491877  0.222591  0.277013  1
  F  F30  1  0.722378  0.989993  0.278342  1
  F  F31  1  0.720885  0.221782  0.506950  1
  F  F32  1  0.471136  0.528864  0.250000  1
  F  F33  1  0.747247  0.961169  0.969474  1
  F  F34  1  0.038831  0.252753  0.530526  1
  F  F35  1  0.252753  0.038831  0.030526  1
  F  F36  1  0.961169  0.747247  0.469474  1
  F  F37  1  0.528864  0.471136  0.750000  1
