# generated using pymatgen
data_Nb12Co8Os4C3N
_symmetry_space_group_name_H-M   'P 1'
_cell_length_a   8.13823940
_cell_length_b   8.14809142
_cell_length_c   8.14809200
_cell_angle_alpha   60.00000575
_cell_angle_beta   59.95995192
_cell_angle_gamma   59.95994854
_symmetry_Int_Tables_number   1
_chemical_formula_structural   Nb12Co8Os4C3N
_chemical_formula_sum   'Nb12 Co8 Os4 C3 N1'
_cell_volume   381.82479990
_cell_formula_units_Z   1
loop_
 _symmetry_equiv_pos_site_id
 _symmetry_equiv_pos_as_xyz
  1  'x, y, z'
loop_
 _atom_site_type_symbol
 _atom_site_label
 _atom_site_symmetry_multiplicity
 _atom_site_fract_x
 _atom_site_fract_y
 _atom_site_fract_z
 _atom_site_occupancy
  Nb  Nb0  1  0.806257  0.806561  0.193591  1
  Nb  Nb1  1  0.195060  0.193893  0.805523  1
  Nb  Nb2  1  0.806257  0.193591  0.806561  1
  Nb  Nb3  1  0.195060  0.805523  0.193893  1
  Nb  Nb4  1  0.195060  0.805523  0.805523  1
  Nb  Nb5  1  0.806257  0.193591  0.193591  1
  Nb  Nb6  1  0.443743  0.443439  0.056409  1
  Nb  Nb7  1  0.054940  0.056107  0.444477  1
  Nb  Nb8  1  0.443743  0.056409  0.443439  1
  Nb  Nb9  1  0.054940  0.444477  0.056107  1
  Nb  Nb10  1  0.054940  0.444477  0.444477  1
  Nb  Nb11  1  0.443743  0.056409  0.056409  1
  Co  Co12  1  0.731480  0.422841  0.422841  1
  Co  Co13  1  0.423034  0.731396  0.422786  1
  Co  Co14  1  0.423034  0.422786  0.731396  1
  Co  Co15  1  0.423034  0.422786  0.422786  1
  Co  Co16  1  0.518520  0.827159  0.827159  1
  Co  Co17  1  0.826966  0.518604  0.827214  1
  Co  Co18  1  0.826966  0.827214  0.518604  1
  Co  Co19  1  0.826966  0.827214  0.827214  1
  Os  Os20  1  0.125000  0.625000  0.625000  1
  Os  Os21  1  0.625000  0.125000  0.625000  1
  Os  Os22  1  0.625000  0.625000  0.125000  1
  Os  Os23  1  0.625000  0.625000  0.625000  1
  C  C24  1  0.125000  0.625000  0.125000  1
  C  C25  1  0.125000  0.125000  0.625000  1
  C  C26  1  0.125000  0.125000  0.125000  1
  N  N27  1  0.625000  0.125000  0.125000  1
