# generated using pymatgen
data_Hf5PaFeBr15
_symmetry_space_group_name_H-M   'P 1'
_cell_length_a   9.77746326
_cell_length_b   9.77746360
_cell_length_c   9.77746309
_cell_angle_alpha   113.52373787
_cell_angle_beta   101.63885739
_cell_angle_gamma   113.52373332
_symmetry_Int_Tables_number   1
_chemical_formula_structural   Hf5PaFeBr15
_chemical_formula_sum   'Hf5 Pa1 Fe1 Br15'
_cell_volume   709.65367024
_cell_formula_units_Z   1
loop_
 _symmetry_equiv_pos_site_id
 _symmetry_equiv_pos_as_xyz
  1  'x, y, z'
loop_
 _atom_site_type_symbol
 _atom_site_label
 _atom_site_symmetry_multiplicity
 _atom_site_fract_x
 _atom_site_fract_y
 _atom_site_fract_z
 _atom_site_occupancy
  Hf  Hf0  1  0.231808  0.229846  0.001961  1
  Hf  Hf1  1  0.819079  0.000000  0.819079  1
  Hf  Hf2  1  0.001961  0.229846  0.231808  1
  Hf  Hf3  1  0.001961  0.770154  0.772115  1
  Hf  Hf4  1  0.772115  0.770154  0.001961  1
  Pa  Pa5  1  0.220953  0.000000  0.220953  1
  Fe  Fe6  1  0.013018  0.000000  0.013018  1
  Br  Br7  1  0.954081  0.735534  0.218547  1
  Br  Br8  1  0.218547  0.735534  0.954081  1
  Br  Br9  1  0.537213  0.755626  0.781587  1
  Br  Br10  1  0.025961  0.244374  0.781587  1
  Br  Br11  1  0.751862  0.000000  0.252650  1
  Br  Br12  1  0.252650  0.500788  0.252650  1
  Br  Br13  1  0.781587  0.244374  0.025961  1
  Br  Br14  1  0.494459  0.500000  0.994459  1
  Br  Br15  1  0.218547  0.264466  0.483014  1
  Br  Br16  1  0.751862  0.499212  0.751862  1
  Br  Br17  1  0.781587  0.755626  0.537213  1
  Br  Br18  1  0.483014  0.264466  0.218547  1
  Br  Br19  1  0.252650  0.000000  0.751862  1
  Br  Br20  1  0.994459  0.500000  0.494459  1
  Br  Br21  1  0.440625  0.000000  0.440625  1
