# generated using pymatgen
data_Hf6HgPbC4
_symmetry_space_group_name_H-M   'P 1'
_cell_length_a   3.33686000
_cell_length_b   3.33685954
_cell_length_c   20.10325600
_cell_angle_alpha   90.00000000
_cell_angle_beta   90.00000000
_cell_angle_gamma   120.00000454
_symmetry_Int_Tables_number   1
_chemical_formula_structural   Hf6HgPbC4
_chemical_formula_sum   'Hf6 Hg1 Pb1 C4'
_cell_volume   193.85317892
_cell_formula_units_Z   1
loop_
 _symmetry_equiv_pos_site_id
 _symmetry_equiv_pos_as_xyz
  1  'x, y, z'
loop_
 _atom_site_type_symbol
 _atom_site_label
 _atom_site_symmetry_multiplicity
 _atom_site_fract_x
 _atom_site_fract_y
 _atom_site_fract_z
 _atom_site_occupancy
  Hf  Hf0  1  0.000000  0.000000  0.999836  1
  Hf  Hf1  1  0.333333  0.666666  0.124412  1
  Hf  Hf2  1  0.333333  0.666666  0.375588  1
  Hf  Hf3  1  0.000000  0.000000  0.500164  1
  Hf  Hf4  1  0.666665  0.333333  0.626120  1
  Hf  Hf5  1  0.666665  0.333333  0.873880  1
  Hg  Hg6  1  0.000000  0.000000  0.750000  1
  Pb  Pb7  1  0.000000  0.000000  0.250000  1
  C  C8  1  0.666665  0.333333  0.068433  1
  C  C9  1  0.666665  0.333333  0.431567  1
  C  C10  1  0.333333  0.666666  0.569091  1
  C  C11  1  0.333333  0.666666  0.930909  1
