# generated using pymatgen
data_Ca12Tm3Ge12Mo5O48
_symmetry_space_group_name_H-M   'P 1'
_cell_length_a   11.06950969
_cell_length_b   11.06922801
_cell_length_c   11.06728711
_cell_angle_alpha   109.48275233
_cell_angle_beta   109.45544292
_cell_angle_gamma   109.47929484
_symmetry_Int_Tables_number   1
_chemical_formula_structural   Ca12Tm3Ge12Mo5O48
_chemical_formula_sum   'Ca12 Tm3 Ge12 Mo5 O48'
_cell_volume   1043.86530182
_cell_formula_units_Z   1
loop_
 _symmetry_equiv_pos_site_id
 _symmetry_equiv_pos_as_xyz
  1  'x, y, z'
loop_
 _atom_site_type_symbol
 _atom_site_label
 _atom_site_symmetry_multiplicity
 _atom_site_fract_x
 _atom_site_fract_y
 _atom_site_fract_z
 _atom_site_occupancy
  Ca  Ca0  1  0.252976  0.874685  0.627353  1
  Ca  Ca1  1  0.755967  0.627730  0.878349  1
  Ca  Ca2  1  0.626517  0.877211  0.752759  1
  Ca  Ca3  1  0.878082  0.622333  0.250577  1
  Ca  Ca4  1  0.625812  0.248181  0.873086  1
  Ca  Ca5  1  0.876297  0.749860  0.625721  1
  Ca  Ca6  1  0.747024  0.125315  0.372647  1
  Ca  Ca7  1  0.244033  0.372270  0.121651  1
  Ca  Ca8  1  0.373483  0.122789  0.247241  1
  Ca  Ca9  1  0.121918  0.377667  0.749423  1
  Ca  Ca10  1  0.374188  0.751819  0.126914  1
  Ca  Ca11  1  0.123703  0.250140  0.374279  1
  Tm  Tm12  1  0.500000  0.500000  0.500000  1
  Tm  Tm13  1  0.500000  0.500000  0.000000  1
  Tm  Tm14  1  0.000000  0.000000  0.500000  1
  Ge  Ge15  1  0.124888  0.749877  0.874868  1
  Ge  Ge16  1  0.875112  0.250123  0.125132  1
  Ge  Ge17  1  0.626664  0.372181  0.248644  1
  Ge  Ge18  1  0.751508  0.878004  0.123391  1
  Ge  Ge19  1  0.874124  0.126994  0.751644  1
  Ge  Ge20  1  0.246943  0.624459  0.372904  1
  Ge  Ge21  1  0.753057  0.375541  0.627096  1
  Ge  Ge22  1  0.248492  0.121996  0.876609  1
  Ge  Ge23  1  0.125876  0.873006  0.248356  1
  Ge  Ge24  1  0.373336  0.627819  0.751356  1
  Ge  Ge25  1  0.624070  0.751541  0.377094  1
  Ge  Ge26  1  0.375930  0.248459  0.622906  1
  Mo  Mo27  1  0.500000  0.000000  0.500000  1
  Mo  Mo28  1  0.000000  0.500000  0.500000  1
  Mo  Mo29  1  0.000000  0.500000  0.000000  1
  Mo  Mo30  1  0.500000  0.000000  0.000000  1
  Mo  Mo31  1  0.000000  0.000000  0.000000  1
  O  O32  1  0.410362  0.810620  0.787643  1
  O  O33  1  0.878442  0.396515  0.088210  1
  O  O34  1  0.103794  0.977272  0.693926  1
  O  O35  1  0.517372  0.624201  0.714006  1
  O  O36  1  0.690197  0.088045  0.712208  1
  O  O37  1  0.625209  0.716627  0.523575  1
  O  O38  1  0.626611  0.410177  0.104072  1
  O  O39  1  0.715110  0.519910  0.625717  1
  O  O40  1  0.808347  0.518036  0.397321  1
  O  O41  1  0.981340  0.789887  0.877423  1
  O  O42  1  0.788346  0.877954  0.977591  1
  O  O43  1  0.714383  0.696336  0.089100  1
  O  O44  1  0.410473  0.100938  0.622304  1
  O  O45  1  0.394987  0.807100  0.516891  1
  O  O46  1  0.088090  0.709648  0.691743  1
  O  O47  1  0.101994  0.623473  0.411915  1
  O  O48  1  0.520939  0.394791  0.804915  1
  O  O49  1  0.089816  0.875321  0.394296  1
  O  O50  1  0.980240  0.690552  0.101413  1
  O  O51  1  0.191653  0.481964  0.602679  1
  O  O52  1  0.691808  0.103685  0.981396  1
  O  O53  1  0.790163  0.410291  0.809100  1
  O  O54  1  0.397433  0.089519  0.879544  1
  O  O55  1  0.878821  0.983662  0.790898  1
  O  O56  1  0.589638  0.189380  0.212357  1
  O  O57  1  0.121558  0.603485  0.911790  1
  O  O58  1  0.896206  0.022728  0.306074  1
  O  O59  1  0.482628  0.375799  0.285994  1
  O  O60  1  0.309803  0.911955  0.287792  1
  O  O61  1  0.374791  0.283373  0.476425  1
  O  O62  1  0.373389  0.589823  0.895928  1
  O  O63  1  0.284890  0.480090  0.374283  1
  O  O64  1  0.121179  0.016338  0.209102  1
  O  O65  1  0.602567  0.910481  0.120456  1
  O  O66  1  0.209837  0.589709  0.190900  1
  O  O67  1  0.195478  0.214560  0.590637  1
  O  O68  1  0.308192  0.896315  0.018604  1
  O  O69  1  0.019760  0.309448  0.898587  1
  O  O70  1  0.910184  0.124679  0.605704  1
  O  O71  1  0.479061  0.605209  0.195085  1
  O  O72  1  0.898006  0.376527  0.588085  1
  O  O73  1  0.911910  0.290352  0.308257  1
  O  O74  1  0.605013  0.192900  0.483109  1
  O  O75  1  0.589527  0.899062  0.377696  1
  O  O76  1  0.285617  0.303664  0.910900  1
  O  O77  1  0.211654  0.122046  0.022409  1
  O  O78  1  0.018660  0.210113  0.122577  1
  O  O79  1  0.804522  0.785440  0.409363  1
