# generated using pymatgen
data_AcTh3(Zn5Ga)2
_symmetry_space_group_name_H-M   'P 1'
_cell_length_a   8.43397143
_cell_length_b   8.43397215
_cell_length_c   8.88975300
_cell_angle_alpha   89.30055605
_cell_angle_beta   90.69944401
_cell_angle_gamma   149.42897907
_symmetry_Int_Tables_number   1
_chemical_formula_structural   AcTh3(Zn5Ga)2
_chemical_formula_sum   'Ac1 Th3 Zn10 Ga2'
_cell_volume   321.58863094
_cell_formula_units_Z   1
loop_
 _symmetry_equiv_pos_site_id
 _symmetry_equiv_pos_as_xyz
  1  'x, y, z'
loop_
 _atom_site_type_symbol
 _atom_site_label
 _atom_site_symmetry_multiplicity
 _atom_site_fract_x
 _atom_site_fract_y
 _atom_site_fract_z
 _atom_site_occupancy
  Ac  Ac0  1  0.000000  0.000000  0.500000  1
  Th  Th1  1  0.204435  0.795565  0.247032  1
  Th  Th2  1  0.795565  0.204435  0.752968  1
  Th  Th3  1  0.000000  0.000000  0.000000  1
  Zn  Zn4  1  0.810894  0.189106  0.394422  1
  Zn  Zn5  1  0.189106  0.810894  0.605578  1
  Zn  Zn6  1  0.816920  0.183080  0.111816  1
  Zn  Zn7  1  0.183080  0.816920  0.888184  1
  Zn  Zn8  1  0.653830  0.346170  0.477288  1
  Zn  Zn9  1  0.346170  0.653830  0.522712  1
  Zn  Zn10  1  0.654868  0.345132  0.018486  1
  Zn  Zn11  1  0.345132  0.654868  0.981514  1
  Zn  Zn12  1  0.403393  0.596607  0.248891  1
  Zn  Zn13  1  0.596607  0.403393  0.751109  1
  Ga  Ga14  1  0.559013  0.440987  0.239594  1
  Ga  Ga15  1  0.440987  0.559013  0.760406  1
