# generated using pymatgen
data_CeNd3In2Rh3
_symmetry_space_group_name_H-M   'P 1'
_cell_length_a   7.47065400
_cell_length_b   7.60786171
_cell_length_c   4.34019000
_cell_angle_alpha   90.00000000
_cell_angle_beta   90.00000000
_cell_angle_gamma   119.40518791
_symmetry_Int_Tables_number   1
_chemical_formula_structural   CeNd3In2Rh3
_chemical_formula_sum   'Ce1 Nd3 In2 Rh3'
_cell_volume   214.89809504
_cell_formula_units_Z   1
loop_
 _symmetry_equiv_pos_site_id
 _symmetry_equiv_pos_as_xyz
  1  'x, y, z'
loop_
 _atom_site_type_symbol
 _atom_site_label
 _atom_site_symmetry_multiplicity
 _atom_site_fract_x
 _atom_site_fract_y
 _atom_site_fract_z
 _atom_site_occupancy
  Ce  Ce0  1  0.264454  0.000000  0.000000  1
  Nd  Nd1  1  0.621458  0.000000  0.500000  1
  Nd  Nd2  1  0.410832  0.439229  0.500000  1
  Nd  Nd3  1  0.971603  0.560771  0.500000  1
  In  In4  1  0.752598  0.748193  0.000000  1
  In  In5  1  0.004405  0.251807  0.000000  1
  Rh  Rh6  1  0.009563  0.000000  0.500000  1
  Rh  Rh7  1  0.323948  0.682809  0.000000  1
  Rh  Rh8  1  0.641139  0.317191  0.000000  1
