# generated using pymatgen
data_CoBiPt2O7
_symmetry_space_group_name_H-M   'P 1'
_cell_length_a   7.12278769
_cell_length_b   7.19369525
_cell_length_c   7.19369482
_cell_angle_alpha   60.98955612
_cell_angle_beta   60.32553498
_cell_angle_gamma   60.32553398
_symmetry_Int_Tables_number   1
_chemical_formula_structural   CoBiPt2O7
_chemical_formula_sum   'Co2 Bi2 Pt4 O14'
_cell_volume   263.83577298
_cell_formula_units_Z   2
loop_
 _symmetry_equiv_pos_site_id
 _symmetry_equiv_pos_as_xyz
  1  'x, y, z'
loop_
 _atom_site_type_symbol
 _atom_site_label
 _atom_site_symmetry_multiplicity
 _atom_site_fract_x
 _atom_site_fract_y
 _atom_site_fract_z
 _atom_site_occupancy
  Co  Co0  1  0.625000  0.125000  0.125000  1
  Co  Co1  1  0.125000  0.125000  0.125000  1
  Bi  Bi2  1  0.125000  0.125000  0.625000  1
  Bi  Bi3  1  0.125000  0.625000  0.125000  1
  Pt  Pt4  1  0.625000  0.625000  0.125000  1
  Pt  Pt5  1  0.625000  0.125000  0.625000  1
  Pt  Pt6  1  0.125000  0.625000  0.625000  1
  Pt  Pt7  1  0.625000  0.625000  0.625000  1
  O  O8  1  0.263001  0.236999  0.236999  1
  O  O9  1  0.986999  0.013001  0.013001  1
  O  O10  1  0.542200  0.962783  0.530301  1
  O  O11  1  0.285284  0.719699  0.287217  1
  O  O12  1  0.542200  0.530301  0.962783  1
  O  O13  1  0.962909  0.537091  0.537091  1
  O  O14  1  0.533468  0.966532  0.966532  1
  O  O15  1  0.964716  0.962783  0.530301  1
  O  O16  1  0.964716  0.530301  0.962783  1
  O  O17  1  0.716532  0.283468  0.283468  1
  O  O18  1  0.287091  0.712909  0.712909  1
  O  O19  1  0.707800  0.287217  0.719699  1
  O  O20  1  0.285284  0.287217  0.719699  1
  O  O21  1  0.707800  0.719699  0.287217  1
