# generated using pymatgen
data_La17Y3Sn9Bi7
_symmetry_space_group_name_H-M   'P 1'
_cell_length_a   8.52583295
_cell_length_b   8.59903363
_cell_length_c   16.30662200
_cell_angle_alpha   89.95582398
_cell_angle_beta   90.20192395
_cell_angle_gamma   90.05591174
_symmetry_Int_Tables_number   1
_chemical_formula_structural   La17Y3Sn9Bi7
_chemical_formula_sum   'La17 Y3 Sn9 Bi7'
_cell_volume   1195.49410380
_cell_formula_units_Z   1
loop_
 _symmetry_equiv_pos_site_id
 _symmetry_equiv_pos_as_xyz
  1  'x, y, z'
loop_
 _atom_site_type_symbol
 _atom_site_label
 _atom_site_symmetry_multiplicity
 _atom_site_fract_x
 _atom_site_fract_y
 _atom_site_fract_z
 _atom_site_occupancy
  La  La0  1  0.070399  0.167866  0.388371  1
  La  La1  1  0.408965  0.837837  0.115739  1
  La  La2  1  0.091949  0.335391  0.617214  1
  La  La3  1  0.436599  0.672733  0.889553  1
  La  La4  1  0.904594  0.668520  0.117938  1
  La  La5  1  0.091551  0.334247  0.883267  1
  La  La6  1  0.430774  0.669154  0.612483  1
  La  La7  1  0.591516  0.165578  0.615692  1
  La  La8  1  0.763294  0.503233  0.750336  1
  La  La9  1  0.907420  0.664177  0.381890  1
  La  La10  1  0.063338  0.167266  0.110185  1
  La  La11  1  0.930249  0.831326  0.890311  1
  La  La12  1  0.595605  0.162452  0.885291  1
  La  La13  1  0.568912  0.327015  0.112972  1
  La  La14  1  0.406748  0.835210  0.384107  1
  La  La15  1  0.930482  0.830217  0.611719  1
  La  La16  1  0.570709  0.332255  0.385852  1
  Y  Y17  1  0.237919  0.497248  0.249305  1
  Y  Y18  1  0.737820  0.002125  0.246363  1
  Y  Y19  1  0.262407  0.997650  0.750386  1
  Sn  Sn20  1  0.626740  0.868795  0.749592  1
  Sn  Sn21  1  0.873897  0.361153  0.250308  1
  Sn  Sn22  1  0.603617  0.632346  0.250340  1
  Sn  Sn23  1  0.390535  0.368289  0.750560  1
  Sn  Sn24  1  0.133515  0.639461  0.750698  1
  Sn  Sn25  1  0.895567  0.125760  0.749509  1
  Sn  Sn26  1  0.741251  0.990827  0.049795  1
  Sn  Sn27  1  0.369859  0.136328  0.250336  1
  Sn  Sn28  1  0.106780  0.870463  0.250581  1
  Bi  Bi29  1  0.756432  0.492814  0.545768  1
  Bi  Bi30  1  0.742809  0.993074  0.448819  1
  Bi  Bi31  1  0.243195  0.505740  0.449667  1
  Bi  Bi32  1  0.257928  0.008723  0.949555  1
  Bi  Bi33  1  0.758567  0.489675  0.955001  1
  Bi  Bi34  1  0.241739  0.508496  0.049473  1
  Bi  Bi35  1  0.256323  0.006561  0.551022  1
