# generated using pymatgen
data_TbEr11ZnCo4Pb
_symmetry_space_group_name_H-M   'P 1'
_cell_length_a   8.28665425
_cell_length_b   8.28665222
_cell_length_c   8.28052272
_cell_angle_alpha   109.91467270
_cell_angle_beta   111.40647197
_cell_angle_gamma   107.15272731
_symmetry_Int_Tables_number   1
_chemical_formula_structural   TbEr11ZnCo4Pb
_chemical_formula_sum   'Tb1 Er11 Zn1 Co4 Pb1'
_cell_volume   436.92918662
_cell_formula_units_Z   1
loop_
 _symmetry_equiv_pos_site_id
 _symmetry_equiv_pos_as_xyz
  1  'x, y, z'
loop_
 _atom_site_type_symbol
 _atom_site_label
 _atom_site_symmetry_multiplicity
 _atom_site_fract_x
 _atom_site_fract_y
 _atom_site_fract_z
 _atom_site_occupancy
  Tb  Tb0  1  0.286931  0.184361  0.471293  1
  Er  Er1  1  0.712781  0.816292  0.529072  1
  Er  Er2  1  0.287534  0.815659  0.103193  1
  Er  Er3  1  0.713085  0.183511  0.896595  1
  Er  Er4  1  0.620961  0.314802  0.305831  1
  Er  Er5  1  0.379853  0.686512  0.694490  1
  Er  Er6  1  0.007979  0.314637  0.694490  1
  Er  Er7  1  0.991027  0.684871  0.305831  1
  Er  Er8  1  0.220083  0.426255  0.205147  1
  Er  Er9  1  0.780930  0.575357  0.795411  1
  Er  Er10  1  0.220054  0.014480  0.795411  1
  Er  Er11  1  0.778891  0.985063  0.205147  1
  Zn  Zn12  1  0.998886  0.999979  0.998865  1
  Co  Co13  1  0.998879  0.376606  0.375486  1
  Co  Co14  1  0.000485  0.623625  0.624110  1
  Co  Co15  1  0.387754  0.885982  0.499848  1
  Co  Co16  1  0.613866  0.112095  0.499848  1
  Pb  Pb17  1  0.500021  0.499911  0.999932  1
