# generated using pymatgen
data_KIn6Ga3Ir2
_symmetry_space_group_name_H-M   'P 1'
_cell_length_a   8.56884900
_cell_length_b   8.56884882
_cell_length_c   4.34375700
_cell_angle_alpha   90.00000000
_cell_angle_beta   90.00000000
_cell_angle_gamma   119.99999682
_symmetry_Int_Tables_number   1
_chemical_formula_structural   KIn6Ga3Ir2
_chemical_formula_sum   'K1 In6 Ga3 Ir2'
_cell_volume   276.21110673
_cell_formula_units_Z   1
loop_
 _symmetry_equiv_pos_site_id
 _symmetry_equiv_pos_as_xyz
  1  'x, y, z'
loop_
 _atom_site_type_symbol
 _atom_site_label
 _atom_site_symmetry_multiplicity
 _atom_site_fract_x
 _atom_site_fract_y
 _atom_site_fract_z
 _atom_site_occupancy
  K  K0  1  0.000000  0.000000  0.000000  1
  In  In1  1  0.591377  0.795688  0.500000  1
  In  In2  1  0.204312  0.795688  0.500000  1
  In  In3  1  0.204312  0.408623  0.500000  1
  In  In4  1  0.795688  0.591377  0.500000  1
  In  In5  1  0.795688  0.204312  0.500000  1
  In  In6  1  0.408623  0.204312  0.500000  1
  Ga  Ga7  1  0.000000  0.500000  0.000000  1
  Ga  Ga8  1  0.500000  0.500000  0.000000  1
  Ga  Ga9  1  0.500000  0.000000  0.000000  1
  Ir  Ir10  1  0.333333  0.666667  0.000000  1
  Ir  Ir11  1  0.666667  0.333333  0.000000  1
