# generated using pymatgen
data_Ti8Al14Fe7P
_symmetry_space_group_name_H-M   'P 1'
_cell_length_a   8.42792041
_cell_length_b   8.42792038
_cell_length_c   8.42792044
_cell_angle_alpha   120.20281481
_cell_angle_beta   119.87624732
_cell_angle_gamma   89.93177526
_symmetry_Int_Tables_number   1
_chemical_formula_structural   Ti8Al14Fe7P
_chemical_formula_sum   'Ti8 Al14 Fe7 P1'
_cell_volume   423.04051481
_cell_formula_units_Z   1
loop_
 _symmetry_equiv_pos_site_id
 _symmetry_equiv_pos_as_xyz
  1  'x, y, z'
loop_
 _atom_site_type_symbol
 _atom_site_label
 _atom_site_symmetry_multiplicity
 _atom_site_fract_x
 _atom_site_fract_y
 _atom_site_fract_z
 _atom_site_occupancy
  Ti  Ti0  1  0.799306  0.291994  0.085738  1
  Ti  Ti1  1  0.206257  0.291994  0.492687  1
  Ti  Ti2  1  0.204601  0.704601  0.500000  1
  Ti  Ti3  1  0.206257  0.713570  0.914262  1
  Ti  Ti4  1  0.799306  0.713570  0.507313  1
  Ti  Ti5  1  0.790147  0.290147  0.500000  1
  Ti  Ti6  1  0.380376  0.118600  0.738224  1
  Ti  Ti7  1  0.380376  0.642153  0.261776  1
  Al  Al8  1  0.163119  0.338358  0.175239  1
  Al  Al9  1  0.163119  0.987880  0.824761  1
  Al  Al10  1  0.160228  0.340408  0.819822  1
  Al  Al11  1  0.520585  0.340408  0.180178  1
  Al  Al12  1  0.838303  0.660663  0.822362  1
  Al  Al13  1  0.838303  0.015941  0.177638  1
  Al  Al14  1  0.838284  0.660189  0.178095  1
  Al  Al15  1  0.482096  0.660189  0.821905  1
  Al  Al16  1  0.382143  0.119078  0.263065  1
  Al  Al17  1  0.856014  0.119078  0.736935  1
  Al  Al18  1  0.618425  0.878825  0.260399  1
  Al  Al19  1  0.618425  0.358026  0.739601  1
  Al  Al20  1  0.618375  0.879767  0.738608  1
  Al  Al21  1  0.141158  0.879767  0.261392  1
  Fe  Fe22  1  0.001501  0.000294  0.501640  1
  Fe  Fe23  1  0.498653  0.000294  0.998793  1
  Fe  Fe24  1  0.498559  0.498559  0.000000  1
  Fe  Fe25  1  0.498653  0.499860  0.498360  1
  Fe  Fe26  1  0.001501  0.499860  0.001207  1
  Fe  Fe27  1  0.000967  0.000967  0.000000  1
  Fe  Fe28  1  0.497710  0.997710  0.500000  1
  P  P29  1  0.997251  0.497251  0.500000  1
