# generated using pymatgen
data_RbMoOF5
_symmetry_space_group_name_H-M   'P 1'
_cell_length_a   5.70157465
_cell_length_b   6.41277602
_cell_length_c   9.69209400
_cell_angle_alpha   70.99401513
_cell_angle_beta   86.89195281
_cell_angle_gamma   92.74862737
_symmetry_Int_Tables_number   1
_chemical_formula_structural   RbMoOF5
_chemical_formula_sum   'Rb2 Mo2 O2 F10'
_cell_volume   333.75081558
_cell_formula_units_Z   2
loop_
 _symmetry_equiv_pos_site_id
 _symmetry_equiv_pos_as_xyz
  1  'x, y, z'
loop_
 _atom_site_type_symbol
 _atom_site_label
 _atom_site_symmetry_multiplicity
 _atom_site_fract_x
 _atom_site_fract_y
 _atom_site_fract_z
 _atom_site_occupancy
  Rb  Rb0  1  0.315620  0.519484  0.817505  1
  Rb  Rb1  1  0.684380  0.480516  0.182495  1
  Mo  Mo2  1  0.792375  0.065194  0.726720  1
  Mo  Mo3  1  0.207625  0.934806  0.273280  1
  O  O4  1  0.940023  0.243020  0.571622  1
  O  O5  1  0.059977  0.756980  0.428378  1
  F  F6  1  0.503921  0.210892  0.704395  1
  F  F7  1  0.496079  0.789108  0.295605  1
  F  F8  1  0.667228  0.870756  0.630887  1
  F  F9  1  0.332772  0.129244  0.369113  1
  F  F10  1  0.054836  0.888886  0.786281  1
  F  F11  1  0.945164  0.111114  0.213719  1
  F  F12  1  0.873542  0.232066  0.852926  1
  F  F13  1  0.126458  0.767934  0.147074  1
  F  F14  1  0.626839  0.828280  0.905587  1
  F  F15  1  0.373161  0.171720  0.094413  1
