# generated using pymatgen
data_Tb2ScGaSi
_symmetry_space_group_name_H-M   'P 1'
_cell_length_a   7.37002400
_cell_length_b   7.35252200
_cell_length_c   4.29545200
_cell_angle_alpha   90.00000000
_cell_angle_beta   90.00000000
_cell_angle_gamma   90.00000000
_symmetry_Int_Tables_number   1
_chemical_formula_structural   Tb2ScGaSi
_chemical_formula_sum   'Tb4 Sc2 Ga2 Si2'
_cell_volume   232.76308526
_cell_formula_units_Z   2
loop_
 _symmetry_equiv_pos_site_id
 _symmetry_equiv_pos_as_xyz
  1  'x, y, z'
loop_
 _atom_site_type_symbol
 _atom_site_label
 _atom_site_symmetry_multiplicity
 _atom_site_fract_x
 _atom_site_fract_y
 _atom_site_fract_z
 _atom_site_occupancy
  Tb  Tb0  1  0.674846  0.177137  0.500000  1
  Tb  Tb1  1  0.825154  0.677137  0.500000  1
  Tb  Tb2  1  0.178994  0.323494  0.500000  1
  Tb  Tb3  1  0.321006  0.823494  0.500000  1
  Sc  Sc4  1  0.494277  0.496339  0.000000  1
  Sc  Sc5  1  0.005723  0.996339  0.000000  1
  Ga  Ga6  1  0.620905  0.879632  0.000000  1
  Ga  Ga7  1  0.879095  0.379632  0.000000  1
  Si  Si8  1  0.123284  0.623397  0.000000  1
  Si  Si9  1  0.376716  0.123397  0.000000  1
