# generated using pymatgen
data_Sm4SiAsPd28
_symmetry_space_group_name_H-M   'P 1'
_cell_length_a   8.98165800
_cell_length_b   8.98165800
_cell_length_c   7.14766200
_cell_angle_alpha   90.00000000
_cell_angle_beta   90.00000000
_cell_angle_gamma   90.00000000
_symmetry_Int_Tables_number   1
_chemical_formula_structural   Sm4SiAsPd28
_chemical_formula_sum   'Sm4 Si1 As1 Pd28'
_cell_volume   576.60318319
_cell_formula_units_Z   1
loop_
 _symmetry_equiv_pos_site_id
 _symmetry_equiv_pos_as_xyz
  1  'x, y, z'
loop_
 _atom_site_type_symbol
 _atom_site_label
 _atom_site_symmetry_multiplicity
 _atom_site_fract_x
 _atom_site_fract_y
 _atom_site_fract_z
 _atom_site_occupancy
  Sm  Sm0  1  0.500000  0.000000  0.934949  1
  Sm  Sm1  1  0.000000  0.500000  0.065744  1
  Sm  Sm2  1  0.000000  0.000000  0.500259  1
  Sm  Sm3  1  0.500000  0.500000  0.500259  1
  Si  Si4  1  0.000000  0.500000  0.550608  1
  As  As5  1  0.500000  0.000000  0.447596  1
  Pd  Pd6  1  0.330755  0.830755  0.620586  1
  Pd  Pd7  1  0.330755  0.169245  0.620586  1
  Pd  Pd8  1  0.669245  0.830755  0.620586  1
  Pd  Pd9  1  0.669245  0.169245  0.620586  1
  Pd  Pd10  1  0.165035  0.665035  0.383795  1
  Pd  Pd11  1  0.165035  0.334965  0.383795  1
  Pd  Pd12  1  0.834965  0.665035  0.383795  1
  Pd  Pd13  1  0.834965  0.334965  0.383795  1
  Pd  Pd14  1  0.500000  0.765978  0.252541  1
  Pd  Pd15  1  0.500000  0.234022  0.252541  1
  Pd  Pd16  1  0.265978  0.000000  0.252541  1
  Pd  Pd17  1  0.734022  0.000000  0.252541  1
  Pd  Pd18  1  0.000000  0.729360  0.742824  1
  Pd  Pd19  1  0.000000  0.270640  0.742824  1
  Pd  Pd20  1  0.229360  0.500000  0.742824  1
  Pd  Pd21  1  0.770640  0.500000  0.742824  1
  Pd  Pd22  1  0.500000  0.348946  0.855441  1
  Pd  Pd23  1  0.500000  0.651054  0.855441  1
  Pd  Pd24  1  0.848946  0.000000  0.855441  1
  Pd  Pd25  1  0.151054  0.000000  0.855441  1
  Pd  Pd26  1  0.000000  0.151254  0.145069  1
  Pd  Pd27  1  0.000000  0.848746  0.145069  1
  Pd  Pd28  1  0.651254  0.500000  0.145069  1
  Pd  Pd29  1  0.348746  0.500000  0.145069  1
  Pd  Pd30  1  0.248982  0.748982  0.999891  1
  Pd  Pd31  1  0.248982  0.251018  0.999891  1
  Pd  Pd32  1  0.751018  0.748982  0.999891  1
  Pd  Pd33  1  0.751018  0.251018  0.999891  1
