# generated using pymatgen
data_Ho3ErGa20(Tc2Os)2
_symmetry_space_group_name_H-M   'P 1'
_cell_length_a   9.04432505
_cell_length_b   9.04432505
_cell_length_c   6.31250400
_cell_angle_alpha   90.00000000
_cell_angle_beta   90.00000000
_cell_angle_gamma   90.01159305
_symmetry_Int_Tables_number   1
_chemical_formula_structural   Ho3ErGa20(Tc2Os)2
_chemical_formula_sum   'Ho3 Er1 Ga20 Tc4 Os2'
_cell_volume   516.36165224
_cell_formula_units_Z   1
loop_
 _symmetry_equiv_pos_site_id
 _symmetry_equiv_pos_as_xyz
  1  'x, y, z'
loop_
 _atom_site_type_symbol
 _atom_site_label
 _atom_site_symmetry_multiplicity
 _atom_site_fract_x
 _atom_site_fract_y
 _atom_site_fract_z
 _atom_site_occupancy
  Ho  Ho0  1  0.683182  0.183180  0.000000  1
  Ho  Ho1  1  0.316820  0.816818  0.000000  1
  Ho  Ho2  1  0.816804  0.683196  0.000000  1
  Er  Er3  1  0.183213  0.316787  0.000000  1
  Ga  Ga4  1  0.940192  0.205870  0.291276  1
  Ga  Ga5  1  0.705850  0.440143  0.291342  1
  Ga  Ga6  1  0.500007  0.999993  0.286484  1
  Ga  Ga7  1  0.559867  0.705854  0.708651  1
  Ga  Ga8  1  0.294130  0.559808  0.708724  1
  Ga  Ga9  1  0.794146  0.940133  0.291349  1
  Ga  Ga10  1  0.940192  0.205870  0.708724  1
  Ga  Ga11  1  0.294130  0.559808  0.291276  1
  Ga  Ga12  1  0.059857  0.794150  0.291342  1
  Ga  Ga13  1  0.705850  0.440143  0.708658  1
  Ga  Ga14  1  0.440059  0.294159  0.708746  1
  Ga  Ga15  1  0.059857  0.794150  0.708658  1
  Ga  Ga16  1  0.205841  0.059941  0.708746  1
  Ga  Ga17  1  0.794146  0.940133  0.708651  1
  Ga  Ga18  1  0.205841  0.059941  0.291254  1
  Ga  Ga19  1  0.000052  0.499948  0.713605  1
  Ga  Ga20  1  0.000052  0.499948  0.286395  1
  Ga  Ga21  1  0.559867  0.705854  0.291349  1
  Ga  Ga22  1  0.440059  0.294159  0.291254  1
  Ga  Ga23  1  0.500007  0.999993  0.713516  1
  Tc  Tc24  1  0.679428  0.179431  0.500000  1
  Tc  Tc25  1  0.820580  0.679420  0.500000  1
  Tc  Tc26  1  0.179435  0.320565  0.500000  1
  Tc  Tc27  1  0.320569  0.820572  0.500000  1
  Os  Os28  1  0.000048  0.000080  0.000000  1
  Os  Os29  1  0.499920  0.499952  0.000000  1
