# generated using pymatgen
data_Tb3SiPd5
_symmetry_space_group_name_H-M   'P 1'
_cell_length_a   7.34204518
_cell_length_b   7.54161216
_cell_length_c   8.24208078
_cell_angle_alpha   117.22632171
_cell_angle_beta   116.44893197
_cell_angle_gamma   90.00000345
_symmetry_Int_Tables_number   1
_chemical_formula_structural   Tb3SiPd5
_chemical_formula_sum   'Tb6 Si2 Pd10'
_cell_volume   351.22985293
_cell_formula_units_Z   2
loop_
 _symmetry_equiv_pos_site_id
 _symmetry_equiv_pos_as_xyz
  1  'x, y, z'
loop_
 _atom_site_type_symbol
 _atom_site_label
 _atom_site_symmetry_multiplicity
 _atom_site_fract_x
 _atom_site_fract_y
 _atom_site_fract_z
 _atom_site_occupancy
  Tb  Tb0  1  0.750000  0.391456  0.000000  1
  Tb  Tb1  1  0.250001  0.608544  0.000000  1
  Tb  Tb2  1  0.449890  0.175028  0.399779  1
  Tb  Tb3  1  0.949890  0.224751  0.399779  1
  Tb  Tb4  1  0.050110  0.775248  0.600220  1
  Tb  Tb5  1  0.550111  0.824972  0.600220  1
  Si  Si6  1  0.250001  0.217096  0.000000  1
  Si  Si7  1  0.750000  0.782904  0.000000  1
  Pd  Pd8  1  0.000000  0.000000  0.000000  1
  Pd  Pd9  1  0.500000  0.000000  0.000000  1
  Pd  Pd10  1  0.188456  0.455741  0.287637  1
  Pd  Pd11  1  0.599181  0.455741  0.287637  1
  Pd  Pd12  1  0.099181  0.831898  0.287637  1
  Pd  Pd13  1  0.688456  0.831898  0.287637  1
  Pd  Pd14  1  0.311544  0.168103  0.712363  1
  Pd  Pd15  1  0.900819  0.168103  0.712363  1
  Pd  Pd16  1  0.400819  0.544259  0.712363  1
  Pd  Pd17  1  0.811544  0.544259  0.712363  1
