# generated using pymatgen
data_K20Si3GeP12
_symmetry_space_group_name_H-M   'P 1'
_cell_length_a   5.20963500
_cell_length_b   14.32834774
_cell_length_c   15.09239333
_cell_angle_alpha   90.03037340
_cell_angle_beta   90.00000000
_cell_angle_gamma   90.00000000
_symmetry_Int_Tables_number   1
_chemical_formula_structural   K20Si3GeP12
_chemical_formula_sum   'K20 Si3 Ge1 P12'
_cell_volume   1126.57851261
_cell_formula_units_Z   1
loop_
 _symmetry_equiv_pos_site_id
 _symmetry_equiv_pos_as_xyz
  1  'x, y, z'
loop_
 _atom_site_type_symbol
 _atom_site_label
 _atom_site_symmetry_multiplicity
 _atom_site_fract_x
 _atom_site_fract_y
 _atom_site_fract_z
 _atom_site_occupancy
  K  K0  1  0.250000  0.379853  0.014995  1
  K  K1  1  0.750000  0.619837  0.982709  1
  K  K2  1  0.250000  0.119525  0.515987  1
  K  K3  1  0.750000  0.880160  0.483904  1
  K  K4  1  0.750000  0.731715  0.234303  1
  K  K5  1  0.250000  0.269942  0.765988  1
  K  K6  1  0.750000  0.770275  0.734070  1
  K  K7  1  0.250000  0.228608  0.265844  1
  K  K8  1  0.750000  0.059337  0.695724  1
  K  K9  1  0.250000  0.941708  0.304334  1
  K  K10  1  0.750000  0.439081  0.194995  1
  K  K11  1  0.250000  0.559275  0.804578  1
  K  K12  1  0.750000  0.183826  0.915419  1
  K  K13  1  0.250000  0.816905  0.083518  1
  K  K14  1  0.750000  0.314944  0.416231  1
  K  K15  1  0.250000  0.684225  0.586006  1
  K  K16  1  0.750000  0.927931  0.932223  1
  K  K17  1  0.250000  0.072230  0.067493  1
  K  K18  1  0.750000  0.572036  0.433749  1
  K  K19  1  0.250000  0.427437  0.568614  1
  Si  Si20  1  0.750000  0.081511  0.219470  1
  Si  Si21  1  0.250000  0.918559  0.780369  1
  Si  Si22  1  0.750000  0.418255  0.719726  1
  Ge  Ge23  1  0.250000  0.582125  0.279918  1
  P  P24  1  0.750000  0.208427  0.136027  1
  P  P25  1  0.250000  0.791481  0.863541  1
  P  P26  1  0.750000  0.291173  0.636430  1
  P  P27  1  0.250000  0.713474  0.367340  1
  P  P28  1  0.750000  0.944175  0.154135  1
  P  P29  1  0.250000  0.055911  0.845764  1
  P  P30  1  0.750000  0.555790  0.654738  1
  P  P31  1  0.250000  0.440059  0.347737  1
  P  P32  1  0.750000  0.089579  0.366351  1
  P  P33  1  0.250000  0.910516  0.633538  1
  P  P34  1  0.750000  0.410129  0.866511  1
  P  P35  1  0.250000  0.589991  0.127718  1
