# generated using pymatgen
data_Y3Ho7(GaBi)3
_symmetry_space_group_name_H-M   'P 1'
_cell_length_a   8.82809900
_cell_length_b   8.86313658
_cell_length_c   6.53287600
_cell_angle_alpha   90.00000000
_cell_angle_beta   90.00000000
_cell_angle_gamma   119.86931951
_symmetry_Int_Tables_number   1
_chemical_formula_structural   Y3Ho7(GaBi)3
_chemical_formula_sum   'Y3 Ho7 Ga3 Bi3'
_cell_volume   443.26155659
_cell_formula_units_Z   1
loop_
 _symmetry_equiv_pos_site_id
 _symmetry_equiv_pos_as_xyz
  1  'x, y, z'
loop_
 _atom_site_type_symbol
 _atom_site_label
 _atom_site_symmetry_multiplicity
 _atom_site_fract_x
 _atom_site_fract_y
 _atom_site_fract_z
 _atom_site_occupancy
  Y  Y0  1  0.017397  0.250531  0.250000  1
  Y  Y1  1  0.766866  0.749469  0.250000  1
  Y  Y2  1  0.754597  0.000000  0.750000  1
  Ho  Ho3  1  0.323868  0.668046  0.004812  1
  Ho  Ho4  1  0.655823  0.331954  0.495188  1
  Ho  Ho5  1  0.655823  0.331954  0.004812  1
  Ho  Ho6  1  0.323868  0.668046  0.495188  1
  Ho  Ho7  1  0.233735  0.000000  0.250000  1
  Ho  Ho8  1  0.243475  0.226531  0.750000  1
  Ho  Ho9  1  0.016944  0.773469  0.750000  1
  Ga  Ga10  1  0.998625  0.601660  0.250000  1
  Ga  Ga11  1  0.396965  0.398340  0.250000  1
  Ga  Ga12  1  0.399615  0.000000  0.750000  1
  Bi  Bi13  1  0.611488  0.000000  0.250000  1
  Bi  Bi14  1  0.604588  0.608266  0.750000  1
  Bi  Bi15  1  0.996321  0.391734  0.750000  1
