# generated using pymatgen
data_Li3Ho4HfPt4
_symmetry_space_group_name_H-M   'P 1'
_cell_length_a   4.09559400
_cell_length_b   7.04952701
_cell_length_c   8.59721989
_cell_angle_alpha   87.45316644
_cell_angle_beta   90.00000000
_cell_angle_gamma   90.00000000
_symmetry_Int_Tables_number   1
_chemical_formula_structural   Li3Ho4HfPt4
_chemical_formula_sum   'Li3 Ho4 Hf1 Pt4'
_cell_volume   247.97375464
_cell_formula_units_Z   1
loop_
 _symmetry_equiv_pos_site_id
 _symmetry_equiv_pos_as_xyz
  1  'x, y, z'
loop_
 _atom_site_type_symbol
 _atom_site_label
 _atom_site_symmetry_multiplicity
 _atom_site_fract_x
 _atom_site_fract_y
 _atom_site_fract_z
 _atom_site_occupancy
  Li  Li0  1  0.250000  0.127442  0.440374  1
  Li  Li1  1  0.250000  0.641067  0.069609  1
  Li  Li2  1  0.750000  0.876236  0.554142  1
  Ho  Ho3  1  0.250000  0.027002  0.810356  1
  Ho  Ho4  1  0.250000  0.552675  0.668205  1
  Ho  Ho5  1  0.750000  0.949828  0.179922  1
  Ho  Ho6  1  0.750000  0.461416  0.328038  1
  Hf  Hf7  1  0.750000  0.372996  0.945486  1
  Pt  Pt8  1  0.250000  0.748760  0.372940  1
  Pt  Pt9  1  0.250000  0.241836  0.112662  1
  Pt  Pt10  1  0.750000  0.258204  0.641625  1
  Pt  Pt11  1  0.750000  0.742537  0.876641  1
