# generated using pymatgen
data_TbNd4Dy(CI5)2
_symmetry_space_group_name_H-M   'P 1'
_cell_length_a   7.93778507
_cell_length_b   9.72173703
_cell_length_c   9.82539700
_cell_angle_alpha   107.08890298
_cell_angle_beta   96.87257251
_cell_angle_gamma   104.48808674
_symmetry_Int_Tables_number   1
_chemical_formula_structural   TbNd4Dy(CI5)2
_chemical_formula_sum   'Tb1 Nd4 Dy1 C2 I10'
_cell_volume   686.23703293
_cell_formula_units_Z   1
loop_
 _symmetry_equiv_pos_site_id
 _symmetry_equiv_pos_as_xyz
  1  'x, y, z'
loop_
 _atom_site_type_symbol
 _atom_site_label
 _atom_site_symmetry_multiplicity
 _atom_site_fract_x
 _atom_site_fract_y
 _atom_site_fract_z
 _atom_site_occupancy
  Tb  Tb0  1  0.634250  0.869953  0.824271  1
  Nd  Nd1  1  0.031213  0.736140  0.923353  1
  Nd  Nd2  1  0.106455  0.039833  0.778257  1
  Nd  Nd3  1  0.969031  0.263633  0.076698  1
  Nd  Nd4  1  0.893844  0.960104  0.221811  1
  Dy  Dy5  1  0.365077  0.130205  0.175761  1
  C  C6  1  0.088436  0.029799  0.041067  1
  C  C7  1  0.912429  0.970148  0.959019  1
  I  I8  1  0.205638  0.739249  0.650999  1
  I  I9  1  0.912306  0.630864  0.179099  1
  I  I10  1  0.086251  0.368449  0.820262  1
  I  I11  1  0.742003  0.914789  0.546153  1
  I  I12  1  0.259299  0.085449  0.453075  1
  I  I13  1  0.652129  0.551745  0.728247  1
  I  I14  1  0.458490  0.818315  0.089851  1
  I  I15  1  0.793459  0.260385  0.348486  1
  I  I16  1  0.348828  0.447341  0.270784  1
  I  I17  1  0.540863  0.183600  0.912805  1
