# generated using pymatgen
data_TbPr2(HoSn2)2
_symmetry_space_group_name_H-M   'P 1'
_cell_length_a   8.15050300
_cell_length_b   8.32837200
_cell_length_c   15.71304600
_cell_angle_alpha   90.00000000
_cell_angle_beta   90.00000000
_cell_angle_gamma   90.00000000
_symmetry_Int_Tables_number   1
_chemical_formula_structural   TbPr2(HoSn2)2
_chemical_formula_sum   'Tb4 Pr8 Ho8 Sn16'
_cell_volume   1066.60817722
_cell_formula_units_Z   4
loop_
 _symmetry_equiv_pos_site_id
 _symmetry_equiv_pos_as_xyz
  1  'x, y, z'
loop_
 _atom_site_type_symbol
 _atom_site_label
 _atom_site_symmetry_multiplicity
 _atom_site_fract_x
 _atom_site_fract_y
 _atom_site_fract_z
 _atom_site_occupancy
  Tb  Tb0  1  0.348855  0.833877  0.875895  1
  Tb  Tb1  1  0.848855  0.666123  0.624105  1
  Tb  Tb2  1  0.651145  0.166123  0.375895  1
  Tb  Tb3  1  0.151145  0.333877  0.124105  1
  Pr  Pr4  1  0.506613  0.322436  0.903691  1
  Pr  Pr5  1  0.006613  0.177564  0.596309  1
  Pr  Pr6  1  0.493387  0.677564  0.403691  1
  Pr  Pr7  1  0.993387  0.822436  0.096309  1
  Pr  Pr8  1  0.493642  0.678119  0.096388  1
  Pr  Pr9  1  0.993642  0.821881  0.403612  1
  Pr  Pr10  1  0.506358  0.321881  0.596388  1
  Pr  Pr11  1  0.006358  0.178119  0.903612  1
  Ho  Ho12  1  0.651690  0.165819  0.124173  1
  Ho  Ho13  1  0.151690  0.334181  0.375827  1
  Ho  Ho14  1  0.348310  0.834181  0.624173  1
  Ho  Ho15  1  0.848310  0.665819  0.875827  1
  Ho  Ho16  1  0.181372  0.500474  0.749711  1
  Ho  Ho17  1  0.681372  0.999526  0.750289  1
  Ho  Ho18  1  0.818628  0.499526  0.249711  1
  Ho  Ho19  1  0.318628  0.000474  0.250289  1
  Sn  Sn20  1  0.314481  0.040812  0.041834  1
  Sn  Sn21  1  0.814481  0.459188  0.458166  1
  Sn  Sn22  1  0.685519  0.959188  0.541834  1
  Sn  Sn23  1  0.185519  0.540812  0.958166  1
  Sn  Sn24  1  0.686956  0.959245  0.958619  1
  Sn  Sn25  1  0.186956  0.540755  0.541381  1
  Sn  Sn26  1  0.313044  0.040755  0.458619  1
  Sn  Sn27  1  0.813044  0.459245  0.041381  1
  Sn  Sn28  1  0.546093  0.622503  0.749949  1
  Sn  Sn29  1  0.046093  0.877497  0.750051  1
  Sn  Sn30  1  0.453907  0.377497  0.249949  1
  Sn  Sn31  1  0.953907  0.122503  0.250051  1
  Sn  Sn32  1  0.313319  0.143260  0.749899  1
  Sn  Sn33  1  0.813319  0.356740  0.750101  1
  Sn  Sn34  1  0.686681  0.856740  0.249899  1
  Sn  Sn35  1  0.186681  0.643260  0.250101  1
