# generated using pymatgen
data_DyHo3Er4(ReB6)4
_symmetry_space_group_name_H-M   'P 1'
_cell_length_a   3.66540700
_cell_length_b   9.14101900
_cell_length_c   11.51974400
_cell_angle_alpha   90.00060426
_cell_angle_beta   90.00000000
_cell_angle_gamma   90.00000000
_symmetry_Int_Tables_number   1
_chemical_formula_structural   DyHo3Er4(ReB6)4
_chemical_formula_sum   'Dy1 Ho3 Er4 Re4 B24'
_cell_volume   385.97541651
_cell_formula_units_Z   1
loop_
 _symmetry_equiv_pos_site_id
 _symmetry_equiv_pos_as_xyz
  1  'x, y, z'
loop_
 _atom_site_type_symbol
 _atom_site_label
 _atom_site_symmetry_multiplicity
 _atom_site_fract_x
 _atom_site_fract_y
 _atom_site_fract_z
 _atom_site_occupancy
  Dy  Dy0  1  0.000000  0.323322  0.413854  1
  Ho  Ho1  1  0.000000  0.676609  0.586149  1
  Ho  Ho2  1  0.000000  0.823383  0.086101  1
  Ho  Ho3  1  0.000000  0.176589  0.913877  1
  Er  Er4  1  0.000000  0.943200  0.370148  1
  Er  Er5  1  0.000000  0.056721  0.629886  1
  Er  Er6  1  0.000000  0.443266  0.129768  1
  Er  Er7  1  0.000000  0.556790  0.870212  1
  Re  Re8  1  0.000000  0.639071  0.320593  1
  Re  Re9  1  0.000000  0.361056  0.679492  1
  Re  Re10  1  0.000000  0.138877  0.179205  1
  Re  Re11  1  0.000000  0.861053  0.820684  1
  B  B12  1  0.500000  0.553515  0.432968  1
  B  B13  1  0.500000  0.446742  0.567185  1
  B  B14  1  0.500000  0.053284  0.066977  1
  B  B15  1  0.500000  0.946675  0.932984  1
  B  B16  1  0.500000  0.749657  0.418754  1
  B  B17  1  0.500000  0.250381  0.581506  1
  B  B18  1  0.500000  0.249599  0.081212  1
  B  B19  1  0.500000  0.750409  0.918738  1
  B  B20  1  0.500000  0.792535  0.265463  1
  B  B21  1  0.500000  0.207469  0.734579  1
  B  B22  1  0.500000  0.292417  0.234338  1
  B  B23  1  0.500000  0.707484  0.765498  1
  B  B24  1  0.500000  0.630791  0.185267  1
  B  B25  1  0.500000  0.369276  0.814717  1
  B  B26  1  0.500000  0.130597  0.314531  1
  B  B27  1  0.500000  0.869236  0.685334  1
  B  B28  1  0.500000  0.981952  0.212030  1
  B  B29  1  0.500000  0.017992  0.787956  1
  B  B30  1  0.500000  0.482222  0.287807  1
  B  B31  1  0.500000  0.518054  0.712126  1
  B  B32  1  0.500000  0.599647  0.027865  1
  B  B33  1  0.500000  0.400383  0.972133  1
  B  B34  1  0.500000  0.099351  0.472203  1
  B  B35  1  0.500000  0.900396  0.527860  1
