# generated using pymatgen
data_CeNd9(Zn2Ru3)2
_symmetry_space_group_name_H-M   'P 1'
_cell_length_a   8.65433947
_cell_length_b   8.46869968
_cell_length_c   8.46869900
_cell_angle_alpha   107.76046990
_cell_angle_beta   110.33249624
_cell_angle_gamma   109.42586657
_symmetry_Int_Tables_number   1
_chemical_formula_structural   CeNd9(Zn2Ru3)2
_chemical_formula_sum   'Ce1 Nd9 Zn4 Ru6'
_cell_volume   482.81578941
_cell_formula_units_Z   1
loop_
 _symmetry_equiv_pos_site_id
 _symmetry_equiv_pos_as_xyz
  1  'x, y, z'
loop_
 _atom_site_type_symbol
 _atom_site_label
 _atom_site_symmetry_multiplicity
 _atom_site_fract_x
 _atom_site_fract_y
 _atom_site_fract_z
 _atom_site_occupancy
  Ce  Ce0  1  0.250000  0.695175  0.445175  1
  Nd  Nd1  1  0.750000  0.814327  0.064327  1
  Nd  Nd2  1  0.438257  0.252462  0.689445  1
  Nd  Nd3  1  0.684354  0.436668  0.249610  1
  Nd  Nd4  1  0.061743  0.751186  0.814204  1
  Nd  Nd5  1  0.815646  0.065256  0.752314  1
  Nd  Nd6  1  0.223497  0.223251  0.226736  1
  Nd  Nd7  1  0.504930  0.001309  0.280839  1
  Nd  Nd8  1  0.276503  0.503237  0.999754  1
  Nd  Nd9  1  0.995070  0.275909  0.496378  1
  Zn  Zn10  1  0.591670  0.591998  0.584052  1
  Zn  Zn11  1  0.499730  0.005994  0.913792  1
  Zn  Zn12  1  0.908330  0.492382  0.000328  1
  Zn  Zn13  1  0.000270  0.914063  0.506264  1
  Ru  Ru14  1  0.250000  0.132657  0.882657  1
  Ru  Ru15  1  0.750000  0.372921  0.622921  1
  Ru  Ru16  1  0.871131  0.234604  0.123829  1
  Ru  Ru17  1  0.142013  0.852469  0.273447  1
  Ru  Ru18  1  0.628868  0.752697  0.363471  1
  Ru  Ru19  1  0.357987  0.631434  0.710457  1
