# generated using pymatgen
data_CaLa2(GaNi2)2
_symmetry_space_group_name_H-M   'P 1'
_cell_length_a   5.48290343
_cell_length_b   5.48290332
_cell_length_c   8.23045225
_cell_angle_alpha   81.77541794
_cell_angle_beta   81.77542011
_cell_angle_gamma   45.27473340
_symmetry_Int_Tables_number   1
_chemical_formula_structural   CaLa2(GaNi2)2
_chemical_formula_sum   'Ca1 La2 Ga2 Ni4'
_cell_volume   173.66892194
_cell_formula_units_Z   1
loop_
 _symmetry_equiv_pos_site_id
 _symmetry_equiv_pos_as_xyz
  1  'x, y, z'
loop_
 _atom_site_type_symbol
 _atom_site_label
 _atom_site_symmetry_multiplicity
 _atom_site_fract_x
 _atom_site_fract_y
 _atom_site_fract_z
 _atom_site_occupancy
  Ca  Ca0  1  0.375205  0.375205  0.382287  1
  La  La1  1  0.997319  0.997319  0.007706  1
  La  La2  1  0.625831  0.625831  0.612851  1
  Ga  Ga3  1  0.322995  0.322995  0.783070  1
  Ga  Ga4  1  0.675003  0.675003  0.215695  1
  Ni  Ni5  1  0.739678  0.739678  0.912569  1
  Ni  Ni6  1  0.087639  0.087639  0.360533  1
  Ni  Ni7  1  0.917223  0.917223  0.639252  1
  Ni  Ni8  1  0.259107  0.259107  0.086037  1
