# generated using pymatgen
data_Hf4Ti2BeBr12
_symmetry_space_group_name_H-M   'P 1'
_cell_length_a   8.53747958
_cell_length_b   8.56430808
_cell_length_c   8.51689900
_cell_angle_alpha   106.86737001
_cell_angle_beta   107.00446010
_cell_angle_gamma   107.05460350
_symmetry_Int_Tables_number   1
_chemical_formula_structural   Hf4Ti2BeBr12
_chemical_formula_sum   'Hf4 Ti2 Be1 Br12'
_cell_volume   518.96526897
_cell_formula_units_Z   1
loop_
 _symmetry_equiv_pos_site_id
 _symmetry_equiv_pos_as_xyz
  1  'x, y, z'
loop_
 _atom_site_type_symbol
 _atom_site_label
 _atom_site_symmetry_multiplicity
 _atom_site_fract_x
 _atom_site_fract_y
 _atom_site_fract_z
 _atom_site_occupancy
  Hf  Hf0  1  0.100451  0.029834  0.296274  1
  Hf  Hf1  1  0.903271  0.967538  0.704814  1
  Hf  Hf2  1  0.702502  0.900323  0.968096  1
  Hf  Hf3  1  0.032279  0.294716  0.097399  1
  Ti  Ti4  1  0.973333  0.721135  0.907010  1
  Ti  Ti5  1  0.280344  0.091290  0.029203  1
  Be  Be6  1  0.997849  0.000515  0.001358  1
  Br  Br7  1  0.921106  0.306441  0.771828  1
  Br  Br8  1  0.691364  0.225145  0.078845  1
  Br  Br9  1  0.442050  0.141240  0.360589  1
  Br  Br10  1  0.862008  0.632998  0.565293  1
  Br  Br11  1  0.226370  0.077773  0.692096  1
  Br  Br12  1  0.641617  0.559985  0.859145  1
  Br  Br13  1  0.368012  0.432372  0.137941  1
  Br  Br14  1  0.775619  0.920178  0.314168  1
  Br  Br15  1  0.144649  0.368925  0.447811  1
  Br  Br16  1  0.552734  0.855125  0.627914  1
  Br  Br17  1  0.307998  0.786381  0.925447  1
  Br  Br18  1  0.076444  0.688083  0.214769  1
