# generated using pymatgen
data_TbY2Ga6Co4Ni5
_symmetry_space_group_name_H-M   'P 1'
_cell_length_a   4.07310600
_cell_length_b   8.74281350
_cell_length_c   8.70306236
_cell_angle_alpha   59.85793328
_cell_angle_beta   90.00000000
_cell_angle_gamma   90.00000000
_symmetry_Int_Tables_number   1
_chemical_formula_structural   TbY2Ga6Co4Ni5
_chemical_formula_sum   'Tb1 Y2 Ga6 Co4 Ni5'
_cell_volume   268.01318139
_cell_formula_units_Z   1
loop_
 _symmetry_equiv_pos_site_id
 _symmetry_equiv_pos_as_xyz
  1  'x, y, z'
loop_
 _atom_site_type_symbol
 _atom_site_label
 _atom_site_symmetry_multiplicity
 _atom_site_fract_x
 _atom_site_fract_y
 _atom_site_fract_z
 _atom_site_occupancy
  Tb  Tb0  1  0.000000  0.000017  0.998492  1
  Y  Y1  1  0.500000  0.334581  0.332431  1
  Y  Y2  1  0.500000  0.669041  0.668744  1
  Ga  Ga3  1  0.500000  0.725629  0.274304  1
  Ga  Ga4  1  0.500000  0.272958  0.999292  1
  Ga  Ga5  1  0.500000  0.999127  0.725070  1
  Ga  Ga6  1  0.000000  0.486130  0.510051  1
  Ga  Ga7  1  0.000000  0.510083  0.003571  1
  Ga  Ga8  1  0.000000  0.000849  0.488790  1
  Co  Co9  1  0.000000  0.189390  0.175927  1
  Co  Co10  1  0.000000  0.175322  0.634445  1
  Co  Co11  1  0.000000  0.637454  0.187681  1
  Co  Co12  1  0.000000  0.821669  0.811766  1
  Ni  Ni13  1  0.000000  0.371669  0.821431  1
  Ni  Ni14  1  0.000000  0.808012  0.370280  1
  Ni  Ni15  1  0.500000  0.293131  0.704601  1
  Ni  Ni16  1  0.500000  0.703766  0.000459  1
  Ni  Ni17  1  0.500000  0.001075  0.292761  1
