# generated using pymatgen
data_In2P4S13
_symmetry_space_group_name_H-M   'P 1'
_cell_length_a   9.96429605
_cell_length_b   10.13261782
_cell_length_c   12.74174460
_cell_angle_alpha   70.93536070
_cell_angle_beta   72.21453197
_cell_angle_gamma   68.94464881
_symmetry_Int_Tables_number   1
_chemical_formula_structural   In2P4S13
_chemical_formula_sum   'In4 P8 S26'
_cell_volume   1108.61663163
_cell_formula_units_Z   2
loop_
 _symmetry_equiv_pos_site_id
 _symmetry_equiv_pos_as_xyz
  1  'x, y, z'
loop_
 _atom_site_type_symbol
 _atom_site_label
 _atom_site_symmetry_multiplicity
 _atom_site_fract_x
 _atom_site_fract_y
 _atom_site_fract_z
 _atom_site_occupancy
  In  In0  1  0.602753  0.013156  0.609828  1
  In  In1  1  0.104542  0.510802  0.109890  1
  In  In2  1  0.397247  0.986844  0.390172  1
  In  In3  1  0.895458  0.489198  0.890110  1
  P  P4  1  0.245182  0.571911  0.273055  1
  P  P5  1  0.488452  0.261117  0.392537  1
  P  P6  1  0.754818  0.428089  0.726945  1
  P  P7  1  0.225752  0.932565  0.246220  1
  P  P8  1  0.129469  0.229749  0.030677  1
  P  P9  1  0.870531  0.770251  0.969323  1
  P  P10  1  0.511548  0.738883  0.607463  1
  P  P11  1  0.774248  0.067435  0.753780  1
  S  S12  1  0.153264  0.002093  0.089920  1
  S  S13  1  0.846736  0.997907  0.910080  1
  S  S14  1  0.878508  0.236922  0.664530  1
  S  S15  1  0.932622  0.350168  0.113478  1
  S  S16  1  0.507665  0.193372  0.254015  1
  S  S17  1  0.321661  0.780403  0.558311  1
  S  S18  1  0.446373  0.864091  0.221211  1
  S  S19  1  0.870322  0.922436  0.657360  1
  S  S20  1  0.492335  0.806628  0.745985  1
  S  S21  1  0.345930  0.166977  0.528303  1
  S  S22  1  0.106316  0.448257  0.330302  1
  S  S23  1  0.418931  0.492141  0.363366  1
  S  S24  1  0.121492  0.763078  0.335470  1
  S  S25  1  0.067378  0.649832  0.886522  1
  S  S26  1  0.553627  0.135909  0.778789  1
  S  S27  1  0.654070  0.833023  0.471697  1
  S  S28  1  0.679975  0.386413  0.896029  1
  S  S29  1  0.678339  0.219597  0.441689  1
  S  S30  1  0.702678  0.715814  0.952317  1
  S  S31  1  0.114320  0.256390  0.868885  1
  S  S32  1  0.893684  0.551743  0.669698  1
  S  S33  1  0.320025  0.613587  0.103971  1
  S  S34  1  0.885680  0.743610  0.131115  1
  S  S35  1  0.297322  0.284186  0.047683  1
  S  S36  1  0.581069  0.507859  0.636634  1
  S  S37  1  0.129678  0.077564  0.342640  1
