# generated using pymatgen
data_Nd3Gd(MoO4)6
_symmetry_space_group_name_H-M   'P 1'
_cell_length_a   7.62862372
_cell_length_b   7.62862372
_cell_length_c   10.92941792
_cell_angle_alpha   90.09744800
_cell_angle_beta   89.90255200
_cell_angle_gamma   89.89905351
_symmetry_Int_Tables_number   1
_chemical_formula_structural   Nd3Gd(MoO4)6
_chemical_formula_sum   'Nd3 Gd1 Mo6 O24'
_cell_volume   636.04448052
_cell_formula_units_Z   1
loop_
 _symmetry_equiv_pos_site_id
 _symmetry_equiv_pos_as_xyz
  1  'x, y, z'
loop_
 _atom_site_type_symbol
 _atom_site_label
 _atom_site_symmetry_multiplicity
 _atom_site_fract_x
 _atom_site_fract_y
 _atom_site_fract_z
 _atom_site_occupancy
  Nd  Nd0  1  0.688862  0.188752  0.261687  1
  Nd  Nd1  1  0.311248  0.811138  0.261687  1
  Nd  Nd2  1  0.186943  0.313057  0.738654  1
  Gd  Gd3  1  0.809692  0.690308  0.737108  1
  Mo  Mo4  1  0.708543  0.207292  0.645393  1
  Mo  Mo5  1  0.292708  0.791457  0.645393  1
  Mo  Mo6  1  0.208020  0.291980  0.355477  1
  Mo  Mo7  1  0.791848  0.708152  0.358650  1
  Mo  Mo8  1  0.502678  0.501991  0.997919  1
  Mo  Mo9  1  0.998009  0.997322  0.997919  1
  O  O10  1  0.697284  0.196114  0.482634  1
  O  O11  1  0.303886  0.802716  0.482634  1
  O  O12  1  0.195785  0.304215  0.517966  1
  O  O13  1  0.803813  0.696187  0.521752  1
  O  O14  1  0.125650  0.630529  0.690985  1
  O  O15  1  0.869471  0.374350  0.690985  1
  O  O16  1  0.628289  0.871711  0.312408  1
  O  O17  1  0.372126  0.127874  0.309894  1
  O  O18  1  0.273806  0.499576  0.296662  1
  O  O19  1  0.726495  0.500366  0.299423  1
  O  O20  1  0.999634  0.773505  0.299423  1
  O  O21  1  0.000424  0.226194  0.296662  1
  O  O22  1  0.501899  0.724820  0.702966  1
  O  O23  1  0.499450  0.270926  0.703760  1
  O  O24  1  0.229074  0.000550  0.703760  1
  O  O25  1  0.775180  0.998101  0.702966  1
  O  O26  1  0.314166  0.459909  0.904857  1
  O  O27  1  0.687451  0.546253  0.900798  1
  O  O28  1  0.953747  0.812549  0.900798  1
  O  O29  1  0.040091  0.185834  0.904857  1
  O  O30  1  0.460600  0.687692  0.094235  1
  O  O31  1  0.546093  0.315274  0.092726  1
  O  O32  1  0.184726  0.953907  0.092726  1
  O  O33  1  0.812308  0.039400  0.094235  1
