# generated using pymatgen
data_YHf2SnF15
_symmetry_space_group_name_H-M   'P 1'
_cell_length_a   8.11751744
_cell_length_b   8.11751859
_cell_length_c   8.08267800
_cell_angle_alpha   79.69313669
_cell_angle_beta   79.69313523
_cell_angle_gamma   99.86749840
_symmetry_Int_Tables_number   1
_chemical_formula_structural   YHf2SnF15
_chemical_formula_sum   'Y2 Hf4 Sn2 F30'
_cell_volume   504.04283841
_cell_formula_units_Z   2
loop_
 _symmetry_equiv_pos_site_id
 _symmetry_equiv_pos_as_xyz
  1  'x, y, z'
loop_
 _atom_site_type_symbol
 _atom_site_label
 _atom_site_symmetry_multiplicity
 _atom_site_fract_x
 _atom_site_fract_y
 _atom_site_fract_z
 _atom_site_occupancy
  Y  Y0  1  0.176989  0.823011  0.250000  1
  Y  Y1  1  0.823011  0.176989  0.750000  1
  Hf  Hf2  1  0.744780  0.677195  0.674228  1
  Hf  Hf3  1  0.322805  0.255220  0.825772  1
  Hf  Hf4  1  0.255220  0.322805  0.325772  1
  Hf  Hf5  1  0.677195  0.744780  0.174228  1
  Sn  Sn6  1  0.752044  0.247956  0.250000  1
  Sn  Sn7  1  0.247956  0.752044  0.750000  1
  F  F8  1  0.316491  0.350077  0.054234  1
  F  F9  1  0.933274  0.810685  0.150865  1
  F  F10  1  0.840918  0.462700  0.683891  1
  F  F11  1  0.462700  0.840918  0.183891  1
  F  F12  1  0.810685  0.933274  0.650865  1
  F  F13  1  0.350077  0.316491  0.554233  1
  F  F14  1  0.683509  0.649923  0.945766  1
  F  F15  1  0.066726  0.189315  0.849135  1
  F  F16  1  0.159082  0.537300  0.316109  1
  F  F17  1  0.537300  0.159082  0.816109  1
  F  F18  1  0.189315  0.066726  0.349135  1
  F  F19  1  0.649923  0.683509  0.445766  1
  F  F20  1  0.772224  0.285017  0.998337  1
  F  F21  1  0.007105  0.275200  0.215435  1
  F  F22  1  0.780111  0.504992  0.223607  1
  F  F23  1  0.504992  0.780111  0.723607  1
  F  F24  1  0.275200  0.007105  0.715435  1
  F  F25  1  0.285017  0.772224  0.498337  1
  F  F26  1  0.227776  0.714983  0.001663  1
  F  F27  1  0.992895  0.724800  0.784565  1
  F  F28  1  0.219889  0.495008  0.776393  1
  F  F29  1  0.495008  0.219889  0.276393  1
  F  F30  1  0.724800  0.992895  0.284565  1
  F  F31  1  0.714983  0.227776  0.501663  1
  F  F32  1  0.469896  0.530104  0.250000  1
  F  F33  1  0.746607  0.952568  0.973938  1
  F  F34  1  0.047432  0.253393  0.526062  1
  F  F35  1  0.253393  0.047432  0.026062  1
  F  F36  1  0.952568  0.746607  0.473938  1
  F  F37  1  0.530104  0.469896  0.750000  1
