# generated using pymatgen
data_AcCo3(Ni3B2)3
_symmetry_space_group_name_H-M   'P 1'
_cell_length_a   6.06883321
_cell_length_b   6.06883282
_cell_length_c   6.06883300
_cell_angle_alpha   104.42771304
_cell_angle_beta   104.42771106
_cell_angle_gamma   104.42770658
_symmetry_Int_Tables_number   1
_chemical_formula_structural   AcCo3(Ni3B2)3
_chemical_formula_sum   'Ac1 Co3 Ni9 B6'
_cell_volume   197.76430518
_cell_formula_units_Z   1
loop_
 _symmetry_equiv_pos_site_id
 _symmetry_equiv_pos_as_xyz
  1  'x, y, z'
loop_
 _atom_site_type_symbol
 _atom_site_label
 _atom_site_symmetry_multiplicity
 _atom_site_fract_x
 _atom_site_fract_y
 _atom_site_fract_z
 _atom_site_occupancy
  Ac  Ac0  1  0.000000  0.000000  0.000000  1
  Co  Co1  1  0.500000  0.864526  0.135474  1
  Co  Co2  1  0.135474  0.500000  0.864526  1
  Co  Co3  1  0.864526  0.135474  0.500000  1
  Ni  Ni4  1  0.538553  0.811343  0.541339  1
  Ni  Ni5  1  0.541339  0.538553  0.811343  1
  Ni  Ni6  1  0.811343  0.541339  0.538553  1
  Ni  Ni7  1  0.458661  0.188657  0.461447  1
  Ni  Ni8  1  0.461447  0.458661  0.188657  1
  Ni  Ni9  1  0.188657  0.461447  0.458661  1
  Ni  Ni10  1  0.132585  0.867415  0.500000  1
  Ni  Ni11  1  0.500000  0.132585  0.867415  1
  Ni  Ni12  1  0.867415  0.500000  0.132585  1
  B  B13  1  0.774962  0.343111  0.766926  1
  B  B14  1  0.766926  0.774962  0.343111  1
  B  B15  1  0.343111  0.766926  0.774962  1
  B  B16  1  0.233074  0.656889  0.225038  1
  B  B17  1  0.225038  0.233074  0.656889  1
  B  B18  1  0.656889  0.225038  0.233074  1
