# generated using pymatgen
data_Sm2Sc2CrFeB12
_symmetry_space_group_name_H-M   'P 1'
_cell_length_a   3.48321600
_cell_length_b   9.00075748
_cell_length_c   11.41565493
_cell_angle_alpha   89.87364388
_cell_angle_beta   90.00000000
_cell_angle_gamma   90.00000000
_symmetry_Int_Tables_number   1
_chemical_formula_structural   Sm2Sc2CrFeB12
_chemical_formula_sum   'Sm4 Sc4 Cr2 Fe2 B24'
_cell_volume   357.89797662
_cell_formula_units_Z   2
loop_
 _symmetry_equiv_pos_site_id
 _symmetry_equiv_pos_as_xyz
  1  'x, y, z'
loop_
 _atom_site_type_symbol
 _atom_site_label
 _atom_site_symmetry_multiplicity
 _atom_site_fract_x
 _atom_site_fract_y
 _atom_site_fract_z
 _atom_site_occupancy
  Sm  Sm0  1  0.000000  0.822675  0.084690  1
  Sm  Sm1  1  0.000000  0.177325  0.915310  1
  Sm  Sm2  1  0.000000  0.321977  0.414520  1
  Sm  Sm3  1  0.000000  0.678023  0.585480  1
  Sc  Sc4  1  0.000000  0.443725  0.129897  1
  Sc  Sc5  1  0.000000  0.556275  0.870103  1
  Sc  Sc6  1  0.000000  0.944121  0.369997  1
  Sc  Sc7  1  0.000000  0.055879  0.630003  1
  Cr  Cr8  1  0.000000  0.642030  0.316524  1
  Cr  Cr9  1  0.000000  0.357970  0.683476  1
  Fe  Fe10  1  0.000000  0.141708  0.182683  1
  Fe  Fe11  1  0.000000  0.858292  0.817317  1
  B  B12  1  0.500000  0.057566  0.071077  1
  B  B13  1  0.500000  0.942434  0.928923  1
  B  B14  1  0.500000  0.555760  0.430313  1
  B  B15  1  0.500000  0.444240  0.569687  1
  B  B16  1  0.500000  0.252267  0.085017  1
  B  B17  1  0.500000  0.747733  0.914983  1
  B  B18  1  0.500000  0.753490  0.415982  1
  B  B19  1  0.500000  0.246510  0.584018  1
  B  B20  1  0.500000  0.292249  0.234085  1
  B  B21  1  0.500000  0.707751  0.765915  1
  B  B22  1  0.500000  0.795049  0.265082  1
  B  B23  1  0.500000  0.204951  0.734918  1
  B  B24  1  0.500000  0.128779  0.314917  1
  B  B25  1  0.500000  0.871221  0.685083  1
  B  B26  1  0.500000  0.629174  0.183491  1
  B  B27  1  0.500000  0.370826  0.816509  1
  B  B28  1  0.500000  0.482940  0.285035  1
  B  B29  1  0.500000  0.517060  0.714965  1
  B  B30  1  0.500000  0.985487  0.214049  1
  B  B31  1  0.500000  0.014513  0.785951  1
  B  B32  1  0.500000  0.095769  0.473933  1
  B  B33  1  0.500000  0.904231  0.526067  1
  B  B34  1  0.500000  0.596260  0.025363  1
  B  B35  1  0.500000  0.403740  0.974637  1
