# generated using pymatgen
data_Lu6Al24Co5Ru3
_symmetry_space_group_name_H-M   'P 1'
_cell_length_a   8.67005500
_cell_length_b   8.67005622
_cell_length_c   9.35870600
_cell_angle_alpha   90.00000000
_cell_angle_beta   90.00000000
_cell_angle_gamma   119.99999917
_symmetry_Int_Tables_number   1
_chemical_formula_structural   Lu6Al24Co5Ru3
_chemical_formula_sum   'Lu6 Al24 Co5 Ru3'
_cell_volume   609.24251978
_cell_formula_units_Z   1
loop_
 _symmetry_equiv_pos_site_id
 _symmetry_equiv_pos_as_xyz
  1  'x, y, z'
loop_
 _atom_site_type_symbol
 _atom_site_label
 _atom_site_symmetry_multiplicity
 _atom_site_fract_x
 _atom_site_fract_y
 _atom_site_fract_z
 _atom_site_occupancy
  Lu  Lu0  1  0.196411  0.392822  0.247651  1
  Lu  Lu1  1  0.803589  0.607178  0.752349  1
  Lu  Lu2  1  0.607178  0.803589  0.247651  1
  Lu  Lu3  1  0.392822  0.196411  0.752349  1
  Lu  Lu4  1  0.196411  0.803589  0.247651  1
  Lu  Lu5  1  0.803589  0.196411  0.752349  1
  Al  Al6  1  0.333333  0.666667  0.019977  1
  Al  Al7  1  0.666667  0.333333  0.980023  1
  Al  Al8  1  0.666667  0.333333  0.518185  1
  Al  Al9  1  0.333333  0.666667  0.481815  1
  Al  Al10  1  0.159682  0.319363  0.578942  1
  Al  Al11  1  0.840318  0.680637  0.421058  1
  Al  Al12  1  0.680637  0.840318  0.578942  1
  Al  Al13  1  0.837952  0.675904  0.075221  1
  Al  Al14  1  0.319363  0.159682  0.421058  1
  Al  Al15  1  0.162048  0.324096  0.924779  1
  Al  Al16  1  0.159682  0.840318  0.578942  1
  Al  Al17  1  0.324096  0.162048  0.075221  1
  Al  Al18  1  0.840318  0.159682  0.421058  1
  Al  Al19  1  0.675904  0.837952  0.924779  1
  Al  Al20  1  0.837952  0.162048  0.075221  1
  Al  Al21  1  0.162048  0.837952  0.924779  1
  Al  Al22  1  0.559854  0.119709  0.243019  1
  Al  Al23  1  0.440146  0.880291  0.756981  1
  Al  Al24  1  0.880291  0.440146  0.243019  1
  Al  Al25  1  0.119709  0.559854  0.756981  1
  Al  Al26  1  0.559854  0.440146  0.243019  1
  Al  Al27  1  0.440146  0.559854  0.756981  1
  Al  Al28  1  0.000000  0.000000  0.249914  1
  Al  Al29  1  0.000000  0.000000  0.750086  1
  Co  Co30  1  0.500000  0.000000  0.000000  1
  Co  Co31  1  0.000000  0.500000  0.000000  1
  Co  Co32  1  0.500000  0.500000  0.000000  1
  Co  Co33  1  0.000000  0.000000  0.000000  1
  Co  Co34  1  0.000000  0.000000  0.500000  1
  Ru  Ru35  1  0.500000  0.000000  0.500000  1
  Ru  Ru36  1  0.000000  0.500000  0.500000  1
  Ru  Ru37  1  0.500000  0.500000  0.500000  1
