# generated using pymatgen
data_Sc8U2Co8Si19Ge
_symmetry_space_group_name_H-M   'P 1'
_cell_length_a   12.02511212
_cell_length_b   12.02511212
_cell_length_c   4.02088900
_cell_angle_alpha   90.00000000
_cell_angle_beta   90.00000000
_cell_angle_gamma   89.95050453
_symmetry_Int_Tables_number   1
_chemical_formula_structural   Sc8U2Co8Si19Ge
_chemical_formula_sum   'Sc8 U2 Co8 Si19 Ge1'
_cell_volume   581.43368800
_cell_formula_units_Z   1
loop_
 _symmetry_equiv_pos_site_id
 _symmetry_equiv_pos_as_xyz
  1  'x, y, z'
loop_
 _atom_site_type_symbol
 _atom_site_label
 _atom_site_symmetry_multiplicity
 _atom_site_fract_x
 _atom_site_fract_y
 _atom_site_fract_z
 _atom_site_occupancy
  Sc  Sc0  1  0.677464  0.177464  0.500000  1
  Sc  Sc1  1  0.176080  0.323881  0.500000  1
  Sc  Sc2  1  0.823881  0.676080  0.500000  1
  Sc  Sc3  1  0.323269  0.823269  0.500000  1
  Sc  Sc4  1  0.890988  0.390988  0.500000  1
  Sc  Sc5  1  0.389048  0.109286  0.500000  1
  Sc  Sc6  1  0.609286  0.889048  0.500000  1
  Sc  Sc7  1  0.109043  0.609043  0.500000  1
  U  U8  1  0.999917  0.000062  0.000000  1
  U  U9  1  0.500062  0.499917  0.000000  1
  Co  Co10  1  0.525617  0.261541  0.000000  1
  Co  Co11  1  0.257476  0.474263  0.000000  1
  Co  Co12  1  0.742518  0.526028  0.000000  1
  Co  Co13  1  0.474152  0.741989  0.000000  1
  Co  Co14  1  0.974263  0.757476  0.000000  1
  Co  Co15  1  0.026028  0.242518  0.000000  1
  Co  Co16  1  0.761541  0.025617  0.000000  1
  Co  Co17  1  0.241989  0.974152  0.000000  1
  Si  Si18  1  0.068673  0.431352  0.000000  1
  Si  Si19  1  0.931352  0.568673  0.000000  1
  Si  Si20  1  0.428807  0.928807  0.000000  1
  Si  Si21  1  0.201715  0.157830  0.000000  1
  Si  Si22  1  0.157742  0.798228  0.000000  1
  Si  Si23  1  0.842717  0.202178  0.000000  1
  Si  Si24  1  0.798487  0.841578  0.000000  1
  Si  Si25  1  0.298228  0.657742  0.000000  1
  Si  Si26  1  0.702178  0.342717  0.000000  1
  Si  Si27  1  0.657830  0.701715  0.000000  1
  Si  Si28  1  0.341578  0.298487  0.000000  1
  Si  Si29  1  0.996804  0.168572  0.500000  1
  Si  Si30  1  0.168319  0.003141  0.500000  1
  Si  Si31  1  0.832158  0.996507  0.500000  1
  Si  Si32  1  0.003237  0.831462  0.500000  1
  Si  Si33  1  0.503141  0.668319  0.500000  1
  Si  Si34  1  0.496507  0.332158  0.500000  1
  Si  Si35  1  0.668572  0.496804  0.500000  1
  Si  Si36  1  0.331462  0.503237  0.500000  1
  Ge  Ge37  1  0.567870  0.067870  0.000000  1
