# generated using pymatgen
data_Be4CrTc
_symmetry_space_group_name_H-M   'P 1'
_cell_length_a   4.27908800
_cell_length_b   4.27908858
_cell_length_c   7.03141300
_cell_angle_alpha   90.00000000
_cell_angle_beta   90.00000000
_cell_angle_gamma   120.00001101
_symmetry_Int_Tables_number   1
_chemical_formula_structural   Be4CrTc
_chemical_formula_sum   'Be8 Cr2 Tc2'
_cell_volume   111.50020998
_cell_formula_units_Z   2
loop_
 _symmetry_equiv_pos_site_id
 _symmetry_equiv_pos_as_xyz
  1  'x, y, z'
loop_
 _atom_site_type_symbol
 _atom_site_label
 _atom_site_symmetry_multiplicity
 _atom_site_fract_x
 _atom_site_fract_y
 _atom_site_fract_z
 _atom_site_occupancy
  Be  Be0  1  0.169595  0.339190  0.749974  1
  Be  Be1  1  0.169595  0.830405  0.749974  1
  Be  Be2  1  0.339190  0.169595  0.249974  1
  Be  Be3  1  0.830405  0.660810  0.249974  1
  Be  Be4  1  0.000000  0.000000  0.000182  1
  Be  Be5  1  0.660810  0.830405  0.749974  1
  Be  Be6  1  0.830405  0.169595  0.249974  1
  Be  Be7  1  0.000000  0.000000  0.500182  1
  Cr  Cr8  1  0.333333  0.666667  0.061253  1
  Cr  Cr9  1  0.666667  0.333333  0.561253  1
  Tc  Tc10  1  0.333333  0.666667  0.438643  1
  Tc  Tc11  1  0.666667  0.333333  0.938643  1
