# generated using pymatgen
data_Tb17Y2LuSn16
_symmetry_space_group_name_H-M   'P 1'
_cell_length_a   8.05878345
_cell_length_b   8.21048698
_cell_length_c   15.53385500
_cell_angle_alpha   90.00000000
_cell_angle_beta   90.00000000
_cell_angle_gamma   89.95289131
_symmetry_Int_Tables_number   1
_chemical_formula_structural   Tb17Y2LuSn16
_chemical_formula_sum   'Tb17 Y2 Lu1 Sn16'
_cell_volume   1027.82103758
_cell_formula_units_Z   1
loop_
 _symmetry_equiv_pos_site_id
 _symmetry_equiv_pos_as_xyz
  1  'x, y, z'
loop_
 _atom_site_type_symbol
 _atom_site_label
 _atom_site_symmetry_multiplicity
 _atom_site_fract_x
 _atom_site_fract_y
 _atom_site_fract_z
 _atom_site_occupancy
  Tb  Tb0  1  0.367511  0.835899  0.878492  1
  Tb  Tb1  1  0.867536  0.664170  0.621389  1
  Tb  Tb2  1  0.632662  0.164448  0.378397  1
  Tb  Tb3  1  0.132017  0.336024  0.121592  1
  Tb  Tb4  1  0.632662  0.164448  0.121603  1
  Tb  Tb5  1  0.132017  0.336024  0.378408  1
  Tb  Tb6  1  0.367511  0.835899  0.621508  1
  Tb  Tb7  1  0.867536  0.664170  0.878611  1
  Tb  Tb8  1  0.520095  0.319868  0.902303  1
  Tb  Tb9  1  0.020210  0.180080  0.597781  1
  Tb  Tb10  1  0.480074  0.679990  0.402163  1
  Tb  Tb11  1  0.979759  0.819693  0.097811  1
  Tb  Tb12  1  0.480074  0.679990  0.097837  1
  Tb  Tb13  1  0.979759  0.819693  0.402189  1
  Tb  Tb14  1  0.520095  0.319868  0.597697  1
  Tb  Tb15  1  0.020210  0.180080  0.902219  1
  Tb  Tb16  1  0.301657  0.002056  0.250000  1
  Y  Y17  1  0.198511  0.502052  0.750000  1
  Y  Y18  1  0.698517  0.997872  0.750000  1
  Lu  Lu19  1  0.801079  0.497763  0.250000  1
  Sn  Sn20  1  0.292151  0.034402  0.042018  1
  Sn  Sn21  1  0.792158  0.465567  0.457466  1
  Sn  Sn22  1  0.707865  0.965666  0.542086  1
  Sn  Sn23  1  0.207873  0.534476  0.957906  1
  Sn  Sn24  1  0.707865  0.965666  0.957914  1
  Sn  Sn25  1  0.207873  0.534476  0.542094  1
  Sn  Sn26  1  0.292151  0.034402  0.457982  1
  Sn  Sn27  1  0.792158  0.465567  0.042534  1
  Sn  Sn28  1  0.565418  0.618569  0.750000  1
  Sn  Sn29  1  0.065223  0.881328  0.750000  1
  Sn  Sn30  1  0.435623  0.381779  0.250000  1
  Sn  Sn31  1  0.934177  0.119127  0.250000  1
  Sn  Sn32  1  0.328230  0.146082  0.750000  1
  Sn  Sn33  1  0.828005  0.354312  0.750000  1
  Sn  Sn34  1  0.672125  0.853008  0.250000  1
  Sn  Sn35  1  0.171613  0.645489  0.250000  1
