# generated using pymatgen
data_La2Er2Zn10SiSn
_symmetry_space_group_name_H-M   'P 1'
_cell_length_a   8.38909708
_cell_length_b   8.38909630
_cell_length_c   8.92837700
_cell_angle_alpha   90.00000000
_cell_angle_beta   90.00000000
_cell_angle_gamma   149.58807297
_symmetry_Int_Tables_number   1
_chemical_formula_structural   La2Er2Zn10SiSn
_chemical_formula_sum   'La2 Er2 Zn10 Si1 Sn1'
_cell_volume   318.08007876
_cell_formula_units_Z   1
loop_
 _symmetry_equiv_pos_site_id
 _symmetry_equiv_pos_as_xyz
  1  'x, y, z'
loop_
 _atom_site_type_symbol
 _atom_site_label
 _atom_site_symmetry_multiplicity
 _atom_site_fract_x
 _atom_site_fract_y
 _atom_site_fract_z
 _atom_site_occupancy
  La  La0  1  0.000948  0.999052  0.487314  1
  La  La1  1  0.000948  0.999052  0.012686  1
  Er  Er2  1  0.202094  0.797906  0.250000  1
  Er  Er3  1  0.794665  0.205335  0.750000  1
  Zn  Zn4  1  0.810777  0.189223  0.389783  1
  Zn  Zn5  1  0.187841  0.812159  0.608272  1
  Zn  Zn6  1  0.810777  0.189223  0.110217  1
  Zn  Zn7  1  0.187841  0.812159  0.891728  1
  Zn  Zn8  1  0.653714  0.346286  0.473664  1
  Zn  Zn9  1  0.341271  0.658729  0.515094  1
  Zn  Zn10  1  0.653714  0.346286  0.026336  1
  Zn  Zn11  1  0.341271  0.658729  0.984906  1
  Zn  Zn12  1  0.403520  0.596480  0.250000  1
  Zn  Zn13  1  0.606545  0.393455  0.750000  1
  Si  Si14  1  0.561740  0.438260  0.250000  1
  Sn  Sn15  1  0.442333  0.557667  0.750000  1
