# generated using pymatgen
data_YIn(Pd2Au)2
_symmetry_space_group_name_H-M   'P 1'
_cell_length_a   6.00139144
_cell_length_b   6.00003244
_cell_length_c   7.88574800
_cell_angle_alpha   89.99927390
_cell_angle_beta   89.99977118
_cell_angle_gamma   90.04385472
_symmetry_Int_Tables_number   1
_chemical_formula_structural   YIn(Pd2Au)2
_chemical_formula_sum   'Y2 In2 Pd8 Au4'
_cell_volume   283.95421527
_cell_formula_units_Z   2
loop_
 _symmetry_equiv_pos_site_id
 _symmetry_equiv_pos_as_xyz
  1  'x, y, z'
loop_
 _atom_site_type_symbol
 _atom_site_label
 _atom_site_symmetry_multiplicity
 _atom_site_fract_x
 _atom_site_fract_y
 _atom_site_fract_z
 _atom_site_occupancy
  Y  Y0  1  0.250027  0.250000  0.999994  1
  Y  Y1  1  0.749973  0.750001  0.000006  1
  In  In2  1  0.249974  0.250025  0.500000  1
  In  In3  1  0.750026  0.749976  0.500000  1
  Pd  Pd4  1  0.000007  0.000011  0.256124  1
  Pd  Pd5  1  0.999995  0.499999  0.256090  1
  Pd  Pd6  1  0.499987  0.999994  0.256135  1
  Pd  Pd7  1  0.499997  0.500007  0.256173  1
  Pd  Pd8  1  0.500013  0.000006  0.743864  1
  Pd  Pd9  1  0.500003  0.499994  0.743826  1
  Pd  Pd10  1  0.999993  0.999989  0.743876  1
  Pd  Pd11  1  0.000005  0.500002  0.743910  1
  Au  Au12  1  0.750001  0.250005  0.000006  1
  Au  Au13  1  0.249999  0.749996  0.999994  1
  Au  Au14  1  0.750098  0.250010  0.499997  1
  Au  Au15  1  0.249902  0.749991  0.500003  1
