# generated using pymatgen
data_Yb3Lu5Np4O24
_symmetry_space_group_name_H-M   'P 1'
_cell_length_a   5.47023100
_cell_length_b   7.74552220
_cell_length_c   11.59199147
_cell_angle_alpha   74.20977329
_cell_angle_beta   90.00000000
_cell_angle_gamma   90.00000000
_symmetry_Int_Tables_number   1
_chemical_formula_structural   Yb3Lu5Np4O24
_chemical_formula_sum   'Yb3 Lu5 Np4 O24'
_cell_volume   472.61646985
_cell_formula_units_Z   1
loop_
 _symmetry_equiv_pos_site_id
 _symmetry_equiv_pos_as_xyz
  1  'x, y, z'
loop_
 _atom_site_type_symbol
 _atom_site_label
 _atom_site_symmetry_multiplicity
 _atom_site_fract_x
 _atom_site_fract_y
 _atom_site_fract_z
 _atom_site_occupancy
  Yb  Yb0  1  0.307818  0.500000  0.750000  1
  Yb  Yb1  1  0.744026  0.000000  0.250000  1
  Yb  Yb2  1  0.255386  0.000000  0.750000  1
  Lu  Lu3  1  0.184187  0.205623  0.417194  1
  Lu  Lu4  1  0.184187  0.794377  0.082806  1
  Lu  Lu5  1  0.814214  0.795707  0.581113  1
  Lu  Lu6  1  0.814214  0.204293  0.918887  1
  Lu  Lu7  1  0.696271  0.500000  0.250000  1
  Np  Np8  1  0.255207  0.279556  0.112032  1
  Np  Np9  1  0.255207  0.720444  0.387968  1
  Np  Np10  1  0.745226  0.721198  0.887407  1
  Np  Np11  1  0.745226  0.278802  0.612593  1
  O  O12  1  0.445812  0.204857  0.271226  1
  O  O13  1  0.445812  0.795143  0.228774  1
  O  O14  1  0.555015  0.796878  0.728321  1
  O  O15  1  0.555015  0.203122  0.771679  1
  O  O16  1  0.047252  0.056470  0.100802  1
  O  O17  1  0.047252  0.943530  0.399198  1
  O  O18  1  0.953002  0.940754  0.901403  1
  O  O19  1  0.953002  0.059246  0.598597  1
  O  O20  1  0.969704  0.295225  0.231468  1
  O  O21  1  0.969704  0.704775  0.268532  1
  O  O22  1  0.019437  0.712902  0.769567  1
  O  O23  1  0.019437  0.287098  0.730433  1
  O  O24  1  0.878613  0.372747  0.441046  1
  O  O25  1  0.878613  0.627253  0.058954  1
  O  O26  1  0.116252  0.627090  0.553632  1
  O  O27  1  0.116252  0.372910  0.946368  1
  O  O28  1  0.622000  0.520900  0.610182  1
  O  O29  1  0.622000  0.479100  0.889818  1
  O  O30  1  0.392043  0.476767  0.385040  1
  O  O31  1  0.392043  0.523233  0.114960  1
  O  O32  1  0.456142  0.155465  0.561579  1
  O  O33  1  0.456142  0.844535  0.938421  1
  O  O34  1  0.544146  0.846143  0.439221  1
  O  O35  1  0.544146  0.153857  0.060779  1
