# generated using pymatgen
data_DyHo2Lu5(InIr)2
_symmetry_space_group_name_H-M   'P 1'
_cell_length_a   9.53650998
_cell_length_b   9.53651056
_cell_length_c   9.53569100
_cell_angle_alpha   60.00283934
_cell_angle_beta   60.00283734
_cell_angle_gamma   59.99431276
_symmetry_Int_Tables_number   1
_chemical_formula_structural   DyHo2Lu5(InIr)2
_chemical_formula_sum   'Dy2 Ho4 Lu10 In4 Ir4'
_cell_volume   613.21969167
_cell_formula_units_Z   2
loop_
 _symmetry_equiv_pos_site_id
 _symmetry_equiv_pos_as_xyz
  1  'x, y, z'
loop_
 _atom_site_type_symbol
 _atom_site_label
 _atom_site_symmetry_multiplicity
 _atom_site_fract_x
 _atom_site_fract_y
 _atom_site_fract_z
 _atom_site_occupancy
  Dy  Dy0  1  0.809609  0.809609  0.190391  1
  Dy  Dy1  1  0.190391  0.190391  0.809609  1
  Ho  Ho2  1  0.190655  0.809345  0.809345  1
  Ho  Ho3  1  0.809345  0.190655  0.190655  1
  Ho  Ho4  1  0.809345  0.190655  0.809345  1
  Ho  Ho5  1  0.190655  0.809345  0.190655  1
  Lu  Lu6  1  0.598227  0.598227  0.598190  1
  Lu  Lu7  1  0.598227  0.598227  0.205356  1
  Lu  Lu8  1  0.598190  0.205356  0.598227  1
  Lu  Lu9  1  0.205356  0.598190  0.598227  1
  Lu  Lu10  1  0.060175  0.439825  0.439825  1
  Lu  Lu11  1  0.439825  0.060175  0.060175  1
  Lu  Lu12  1  0.439825  0.060175  0.439825  1
  Lu  Lu13  1  0.060175  0.439825  0.060175  1
  Lu  Lu14  1  0.439885  0.439885  0.060115  1
  Lu  Lu15  1  0.060115  0.060115  0.439885  1
  In  In16  1  0.832781  0.832781  0.832705  1
  In  In17  1  0.832781  0.832781  0.501735  1
  In  In18  1  0.832705  0.501735  0.832781  1
  In  In19  1  0.501735  0.832705  0.832781  1
  Ir  Ir20  1  0.390966  0.390966  0.390789  1
  Ir  Ir21  1  0.390966  0.390966  0.827278  1
  Ir  Ir22  1  0.390789  0.827278  0.390966  1
  Ir  Ir23  1  0.827278  0.390789  0.390966  1
