# generated using pymatgen
data_NaLaPr5IrI12
_symmetry_space_group_name_H-M   'P 1'
_cell_length_a   10.22344331
_cell_length_b   10.08292083
_cell_length_c   10.11458310
_cell_angle_alpha   106.90682837
_cell_angle_beta   107.05907391
_cell_angle_gamma   107.31484640
_symmetry_Int_Tables_number   1
_chemical_formula_structural   NaLaPr5IrI12
_chemical_formula_sum   'Na1 La1 Pr5 Ir1 I12'
_cell_volume   866.07998553
_cell_formula_units_Z   1
loop_
 _symmetry_equiv_pos_site_id
 _symmetry_equiv_pos_as_xyz
  1  'x, y, z'
loop_
 _atom_site_type_symbol
 _atom_site_label
 _atom_site_symmetry_multiplicity
 _atom_site_fract_x
 _atom_site_fract_y
 _atom_site_fract_z
 _atom_site_occupancy
  Na  Na0  1  0.499963  0.499849  0.500117  1
  La  La1  1  0.101987  0.306094  0.029689  1
  Pr  Pr2  1  0.317343  0.031451  0.106352  1
  Pr  Pr3  1  0.029360  0.101884  0.304625  1
  Pr  Pr4  1  0.970427  0.897134  0.694811  1
  Pr  Pr5  1  0.682734  0.969139  0.893688  1
  Pr  Pr6  1  0.898571  0.697165  0.970466  1
  Ir  Ir7  1  0.000832  0.002743  0.999871  1
  I  I8  1  0.223398  0.682896  0.075059  1
  I  I9  1  0.457593  0.377285  0.151041  1
  I  I10  1  0.684529  0.075440  0.226936  1
  I  I11  1  0.924147  0.772726  0.315433  1
  I  I12  1  0.151053  0.456871  0.380006  1
  I  I13  1  0.373776  0.148070  0.454043  1
  I  I14  1  0.626124  0.851115  0.545752  1
  I  I15  1  0.849172  0.542847  0.624069  1
  I  I16  1  0.074955  0.224280  0.680339  1
  I  I17  1  0.315168  0.923733  0.772991  1
  I  I18  1  0.546163  0.622436  0.850741  1
  I  I19  1  0.772710  0.316843  0.923975  1
