# generated using pymatgen
data_Ba2Ca3(AlSb3)2
_symmetry_space_group_name_H-M   'P 1'
_cell_length_a   4.71443400
_cell_length_b   12.58842000
_cell_length_c   14.27515600
_cell_angle_alpha   90.00000000
_cell_angle_beta   90.00000000
_cell_angle_gamma   90.00000000
_symmetry_Int_Tables_number   1
_chemical_formula_structural   Ba2Ca3(AlSb3)2
_chemical_formula_sum   'Ba4 Ca6 Al4 Sb12'
_cell_volume   847.19161243
_cell_formula_units_Z   2
loop_
 _symmetry_equiv_pos_site_id
 _symmetry_equiv_pos_as_xyz
  1  'x, y, z'
loop_
 _atom_site_type_symbol
 _atom_site_label
 _atom_site_symmetry_multiplicity
 _atom_site_fract_x
 _atom_site_fract_y
 _atom_site_fract_z
 _atom_site_occupancy
  Ba  Ba0  1  0.500000  0.675843  0.475263  1
  Ba  Ba1  1  0.500000  0.324157  0.524737  1
  Ba  Ba2  1  0.500000  0.824157  0.975263  1
  Ba  Ba3  1  0.500000  0.175843  0.024737  1
  Ca  Ca4  1  0.500000  0.000000  0.500000  1
  Ca  Ca5  1  0.500000  0.500000  0.000000  1
  Ca  Ca6  1  0.500000  0.911480  0.246676  1
  Ca  Ca7  1  0.500000  0.088520  0.753324  1
  Ca  Ca8  1  0.500000  0.411480  0.253324  1
  Ca  Ca9  1  0.500000  0.588520  0.746676  1
  Al  Al10  1  0.000000  0.318919  0.712872  1
  Al  Al11  1  0.000000  0.681081  0.287128  1
  Al  Al12  1  0.000000  0.818919  0.787128  1
  Al  Al13  1  0.000000  0.181081  0.212872  1
  Sb  Sb14  1  0.000000  0.985436  0.103201  1
  Sb  Sb15  1  0.000000  0.014564  0.896799  1
  Sb  Sb16  1  0.000000  0.485436  0.396799  1
  Sb  Sb17  1  0.000000  0.514564  0.603201  1
  Sb  Sb18  1  0.500000  0.160840  0.313715  1
  Sb  Sb19  1  0.500000  0.839160  0.686285  1
  Sb  Sb20  1  0.500000  0.660840  0.186285  1
  Sb  Sb21  1  0.500000  0.339160  0.813715  1
  Sb  Sb22  1  0.000000  0.363690  0.107303  1
  Sb  Sb23  1  0.000000  0.636310  0.892697  1
  Sb  Sb24  1  0.000000  0.863690  0.392697  1
  Sb  Sb25  1  0.000000  0.136310  0.607303  1
