# generated using pymatgen
data_NaLi4Eu3Sb4
_symmetry_space_group_name_H-M   'P 1'
_cell_length_a   4.75148200
_cell_length_b   7.78790483
_cell_length_c   8.31031337
_cell_angle_alpha   89.74715129
_cell_angle_beta   90.00000000
_cell_angle_gamma   90.00000000
_symmetry_Int_Tables_number   1
_chemical_formula_structural   NaLi4Eu3Sb4
_chemical_formula_sum   'Na1 Li4 Eu3 Sb4'
_cell_volume   307.51258620
_cell_formula_units_Z   1
loop_
 _symmetry_equiv_pos_site_id
 _symmetry_equiv_pos_as_xyz
  1  'x, y, z'
loop_
 _atom_site_type_symbol
 _atom_site_label
 _atom_site_symmetry_multiplicity
 _atom_site_fract_x
 _atom_site_fract_y
 _atom_site_fract_z
 _atom_site_occupancy
  Na  Na0  1  0.250000  0.005327  0.296829  1
  Li  Li1  1  0.250000  0.156393  0.932276  1
  Li  Li2  1  0.250000  0.666574  0.573737  1
  Li  Li3  1  0.750000  0.851826  0.086791  1
  Li  Li4  1  0.750000  0.330196  0.419833  1
  Eu  Eu5  1  0.250000  0.502833  0.210710  1
  Eu  Eu6  1  0.750000  0.995134  0.700928  1
  Eu  Eu7  1  0.750000  0.497018  0.785789  1
  Sb  Sb8  1  0.250000  0.275333  0.596571  1
  Sb  Sb9  1  0.250000  0.773516  0.900232  1
  Sb  Sb10  1  0.750000  0.714140  0.408188  1
  Sb  Sb11  1  0.750000  0.231710  0.088119  1
