# generated using pymatgen
data_Er3Ga2CuC
_symmetry_space_group_name_H-M   'P 1'
_cell_length_a   8.97538489
_cell_length_b   8.97538580
_cell_length_c   8.97538500
_cell_angle_alpha   59.99999925
_cell_angle_beta   59.99999590
_cell_angle_gamma   60.00000274
_symmetry_Int_Tables_number   1
_chemical_formula_structural   Er3Ga2CuC
_chemical_formula_sum   'Er12 Ga8 Cu4 C4'
_cell_volume   511.26291107
_cell_formula_units_Z   4
loop_
 _symmetry_equiv_pos_site_id
 _symmetry_equiv_pos_as_xyz
  1  'x, y, z'
loop_
 _atom_site_type_symbol
 _atom_site_label
 _atom_site_symmetry_multiplicity
 _atom_site_fract_x
 _atom_site_fract_y
 _atom_site_fract_z
 _atom_site_occupancy
  Er  Er0  1  0.946714  0.946714  0.553286  1
  Er  Er1  1  0.696714  0.303286  0.303286  1
  Er  Er2  1  0.303286  0.696714  0.696714  1
  Er  Er3  1  0.696714  0.696714  0.303286  1
  Er  Er4  1  0.696714  0.303286  0.696714  1
  Er  Er5  1  0.303286  0.696714  0.303286  1
  Er  Er6  1  0.553286  0.946714  0.553286  1
  Er  Er7  1  0.553286  0.946714  0.946714  1
  Er  Er8  1  0.946714  0.553286  0.553286  1
  Er  Er9  1  0.946714  0.553286  0.946714  1
  Er  Er10  1  0.303286  0.303286  0.696714  1
  Er  Er11  1  0.553286  0.553286  0.946714  1
  Ga  Ga12  1  0.921688  0.234935  0.921688  1
  Ga  Ga13  1  0.328312  0.328312  0.015065  1
  Ga  Ga14  1  0.015065  0.328312  0.328312  1
  Ga  Ga15  1  0.328312  0.328312  0.328312  1
  Ga  Ga16  1  0.234935  0.921688  0.921688  1
  Ga  Ga17  1  0.921688  0.921688  0.921688  1
  Ga  Ga18  1  0.921688  0.921688  0.234935  1
  Ga  Ga19  1  0.328312  0.015065  0.328312  1
  Cu  Cu20  1  0.125000  0.625000  0.125000  1
  Cu  Cu21  1  0.125000  0.125000  0.625000  1
  Cu  Cu22  1  0.625000  0.125000  0.125000  1
  Cu  Cu23  1  0.125000  0.125000  0.125000  1
  C  C24  1  0.625000  0.125000  0.625000  1
  C  C25  1  0.625000  0.625000  0.125000  1
  C  C26  1  0.125000  0.625000  0.625000  1
  C  C27  1  0.625000  0.625000  0.625000  1
