# generated using pymatgen
data_Lu2ScB2Rh5
_symmetry_space_group_name_H-M   'P 1'
_cell_length_a   9.58924300
_cell_length_b   9.58924300
_cell_length_c   3.19996200
_cell_angle_alpha   90.00000000
_cell_angle_beta   90.00000000
_cell_angle_gamma   90.00000000
_symmetry_Int_Tables_number   1
_chemical_formula_structural   Lu2ScB2Rh5
_chemical_formula_sum   'Lu4 Sc2 B4 Rh10'
_cell_volume   294.24796597
_cell_formula_units_Z   2
loop_
 _symmetry_equiv_pos_site_id
 _symmetry_equiv_pos_as_xyz
  1  'x, y, z'
loop_
 _atom_site_type_symbol
 _atom_site_label
 _atom_site_symmetry_multiplicity
 _atom_site_fract_x
 _atom_site_fract_y
 _atom_site_fract_z
 _atom_site_occupancy
  Lu  Lu0  1  0.826188  0.326188  0.000000  1
  Lu  Lu1  1  0.326188  0.173812  0.000000  1
  Lu  Lu2  1  0.673812  0.826188  0.000000  1
  Lu  Lu3  1  0.173812  0.673812  0.000000  1
  Sc  Sc4  1  0.000000  0.000000  0.000000  1
  Sc  Sc5  1  0.500000  0.500000  0.000000  1
  B  B6  1  0.621502  0.121502  0.000000  1
  B  B7  1  0.121502  0.378498  0.000000  1
  B  B8  1  0.878498  0.621502  0.000000  1
  B  B9  1  0.378498  0.878498  0.000000  1
  Rh  Rh10  1  0.072519  0.223965  0.500000  1
  Rh  Rh11  1  0.223965  0.927481  0.500000  1
  Rh  Rh12  1  0.776035  0.072519  0.500000  1
  Rh  Rh13  1  0.927481  0.776035  0.500000  1
  Rh  Rh14  1  0.427481  0.723965  0.500000  1
  Rh  Rh15  1  0.572519  0.276035  0.500000  1
  Rh  Rh16  1  0.723965  0.572519  0.500000  1
  Rh  Rh17  1  0.276035  0.427481  0.500000  1
  Rh  Rh18  1  0.500000  0.000000  0.500000  1
  Rh  Rh19  1  0.000000  0.500000  0.500000  1
