# generated using pymatgen
data_InAu19
_symmetry_space_group_name_H-M   'P 1'
_cell_length_a   4.82350500
_cell_length_b   5.06401554
_cell_length_c   14.76253400
_cell_angle_alpha   90.05737481
_cell_angle_beta   90.00000000
_cell_angle_gamma   90.00000000
_symmetry_Int_Tables_number   1
_chemical_formula_structural   InAu19
_chemical_formula_sum   'In1 Au19'
_cell_volume   360.59396652
_cell_formula_units_Z   1
loop_
 _symmetry_equiv_pos_site_id
 _symmetry_equiv_pos_as_xyz
  1  'x, y, z'
loop_
 _atom_site_type_symbol
 _atom_site_label
 _atom_site_symmetry_multiplicity
 _atom_site_fract_x
 _atom_site_fract_y
 _atom_site_fract_z
 _atom_site_occupancy
  In  In0  1  0.250000  0.172619  0.999982  1
  Au  Au1  1  0.250000  0.667752  0.898478  1
  Au  Au2  1  0.250000  0.165320  0.599045  1
  Au  Au3  1  0.750000  0.834483  0.400522  1
  Au  Au4  1  0.750000  0.331641  0.100701  1
  Au  Au5  1  0.250000  0.170634  0.202103  1
  Au  Au6  1  0.250000  0.169355  0.400645  1
  Au  Au7  1  0.750000  0.329897  0.698980  1
  Au  Au8  1  0.750000  0.332518  0.500084  1
  Au  Au9  1  0.250000  0.667171  0.499916  1
  Au  Au10  1  0.750000  0.830502  0.599814  1
  Au  Au11  1  0.250000  0.672223  0.101952  1
  Au  Au12  1  0.750000  0.836272  0.200864  1
  Au  Au13  1  0.250000  0.163993  0.797825  1
  Au  Au14  1  0.750000  0.829500  0.799252  1
  Au  Au15  1  0.750000  0.327879  0.898899  1
  Au  Au16  1  0.250000  0.670390  0.301356  1
  Au  Au17  1  0.250000  0.663903  0.698767  1
  Au  Au18  1  0.750000  0.827319  0.999886  1
  Au  Au19  1  0.750000  0.336625  0.300927  1
