# generated using pymatgen
data_Gd7Y13Sn16
_symmetry_space_group_name_H-M   'P 1'
_cell_length_a   8.06604911
_cell_length_b   8.24169918
_cell_length_c   15.57338854
_cell_angle_alpha   90.01679724
_cell_angle_beta   90.18504900
_cell_angle_gamma   89.94388040
_symmetry_Int_Tables_number   1
_chemical_formula_structural   Gd7Y13Sn16
_chemical_formula_sum   'Gd7 Y13 Sn16'
_cell_volume   1035.28101052
_cell_formula_units_Z   1
loop_
 _symmetry_equiv_pos_site_id
 _symmetry_equiv_pos_as_xyz
  1  'x, y, z'
loop_
 _atom_site_type_symbol
 _atom_site_label
 _atom_site_symmetry_multiplicity
 _atom_site_fract_x
 _atom_site_fract_y
 _atom_site_fract_z
 _atom_site_occupancy
  Gd  Gd0  1  0.017675  0.179846  0.598253  1
  Gd  Gd1  1  0.483189  0.679426  0.403431  1
  Gd  Gd2  1  0.981420  0.820458  0.096081  1
  Gd  Gd3  1  0.481906  0.678908  0.096215  1
  Gd  Gd4  1  0.982914  0.820693  0.403728  1
  Gd  Gd5  1  0.516564  0.320571  0.597427  1
  Gd  Gd6  1  0.017536  0.179724  0.903255  1
  Y  Y7  1  0.363675  0.836208  0.878104  1
  Y  Y8  1  0.862690  0.663197  0.622949  1
  Y  Y9  1  0.637115  0.163321  0.377617  1
  Y  Y10  1  0.135667  0.336960  0.121106  1
  Y  Y11  1  0.635579  0.162511  0.121389  1
  Y  Y12  1  0.137128  0.336807  0.377675  1
  Y  Y13  1  0.362660  0.837970  0.623276  1
  Y  Y14  1  0.864961  0.663168  0.878250  1
  Y  Y15  1  0.521456  0.322141  0.902404  1
  Y  Y16  1  0.196359  0.501000  0.750565  1
  Y  Y17  1  0.696683  0.999082  0.750469  1
  Y  Y18  1  0.802685  0.499070  0.249129  1
  Y  Y19  1  0.303127  0.000846  0.249354  1
  Sn  Sn20  1  0.296088  0.036825  0.040969  1
  Sn  Sn21  1  0.798284  0.462170  0.458599  1
  Sn  Sn22  1  0.702087  0.963395  0.542546  1
  Sn  Sn23  1  0.205418  0.533794  0.956853  1
  Sn  Sn24  1  0.702440  0.963874  0.957338  1
  Sn  Sn25  1  0.201655  0.538030  0.542411  1
  Sn  Sn26  1  0.297918  0.037977  0.458808  1
  Sn  Sn27  1  0.794840  0.461591  0.040314  1
  Sn  Sn28  1  0.561675  0.620020  0.750656  1
  Sn  Sn29  1  0.061677  0.880026  0.750815  1
  Sn  Sn30  1  0.437914  0.379837  0.249376  1
  Sn  Sn31  1  0.938682  0.120625  0.249256  1
  Sn  Sn32  1  0.327041  0.146809  0.751250  1
  Sn  Sn33  1  0.826291  0.353617  0.750670  1
  Sn  Sn34  1  0.673874  0.853494  0.249784  1
  Sn  Sn35  1  0.173122  0.646009  0.249678  1
