# generated using pymatgen
data_Dy5Si10P2Rh19
_symmetry_space_group_name_H-M   'P 1'
_cell_length_a   12.82185572
_cell_length_b   12.82185600
_cell_length_c   3.93313400
_cell_angle_alpha   90.00000000
_cell_angle_beta   90.00000000
_cell_angle_gamma   120.17313220
_symmetry_Int_Tables_number   1
_chemical_formula_structural   Dy5Si10P2Rh19
_chemical_formula_sum   'Dy5 Si10 P2 Rh19'
_cell_volume   558.99875494
_cell_formula_units_Z   1
loop_
 _symmetry_equiv_pos_site_id
 _symmetry_equiv_pos_as_xyz
  1  'x, y, z'
loop_
 _atom_site_type_symbol
 _atom_site_label
 _atom_site_symmetry_multiplicity
 _atom_site_fract_x
 _atom_site_fract_y
 _atom_site_fract_z
 _atom_site_occupancy
  Dy  Dy0  1  0.666723  0.333745  0.000000  1
  Dy  Dy1  1  0.333745  0.666723  0.000000  1
  Dy  Dy2  1  0.187642  0.187642  0.500000  1
  Dy  Dy3  1  0.811815  0.999560  0.500000  1
  Dy  Dy4  1  0.999560  0.811815  0.500000  1
  Si  Si5  1  0.370792  0.370792  0.000000  1
  Si  Si6  1  0.628878  0.000032  0.000000  1
  Si  Si7  1  0.000032  0.628878  0.000000  1
  Si  Si8  1  0.836468  0.314882  0.500000  1
  Si  Si9  1  0.685760  0.522099  0.500000  1
  Si  Si10  1  0.478658  0.163898  0.500000  1
  Si  Si11  1  0.314882  0.836468  0.500000  1
  Si  Si12  1  0.522099  0.685760  0.500000  1
  Si  Si13  1  0.163898  0.478658  0.500000  1
  Si  Si14  1  0.820601  0.820601  0.000000  1
  P  P15  1  0.179866  0.999251  0.000000  1
  P  P16  1  0.999251  0.179866  0.000000  1
  Rh  Rh17  1  0.554616  0.554616  0.000000  1
  Rh  Rh18  1  0.445506  0.001226  0.000000  1
  Rh  Rh19  1  0.001226  0.445506  0.000000  1
  Rh  Rh20  1  0.820219  0.192775  0.000000  1
  Rh  Rh21  1  0.807592  0.625614  0.000000  1
  Rh  Rh22  1  0.371749  0.179413  0.000000  1
  Rh  Rh23  1  0.192775  0.820219  0.000000  1
  Rh  Rh24  1  0.625614  0.807592  0.000000  1
  Rh  Rh25  1  0.179413  0.371749  0.000000  1
  Rh  Rh26  1  0.641195  0.127582  0.500000  1
  Rh  Rh27  1  0.873310  0.513501  0.500000  1
  Rh  Rh28  1  0.485546  0.358433  0.500000  1
  Rh  Rh29  1  0.127582  0.641195  0.500000  1
  Rh  Rh30  1  0.513501  0.873310  0.500000  1
  Rh  Rh31  1  0.358433  0.485546  0.500000  1
  Rh  Rh32  1  0.722217  0.722217  0.500000  1
  Rh  Rh33  1  0.275413  0.999593  0.500000  1
  Rh  Rh34  1  0.999593  0.275413  0.500000  1
  Rh  Rh35  1  0.003830  0.003830  0.000000  1
