# generated using pymatgen
data_BaFeTeO6
_symmetry_space_group_name_H-M   'P 1'
_cell_length_a   5.27279902
_cell_length_b   5.27286830
_cell_length_c   11.66337105
_cell_angle_alpha   90.00322290
_cell_angle_beta   89.98995492
_cell_angle_gamma   119.99912840
_symmetry_Int_Tables_number   1
_chemical_formula_structural   BaFeTeO6
_chemical_formula_sum   'Ba2 Fe2 Te2 O12'
_cell_volume   280.83205166
_cell_formula_units_Z   2
loop_
 _symmetry_equiv_pos_site_id
 _symmetry_equiv_pos_as_xyz
  1  'x, y, z'
loop_
 _atom_site_type_symbol
 _atom_site_label
 _atom_site_symmetry_multiplicity
 _atom_site_fract_x
 _atom_site_fract_y
 _atom_site_fract_z
 _atom_site_occupancy
  Ba  Ba0  1  0.999994  0.999991  0.250119  1
  Ba  Ba1  1  0.000008  0.999991  0.749881  1
  Fe  Fe2  1  0.333331  0.666679  0.000000  1
  Fe  Fe3  1  0.333317  0.666694  0.499999  1
  Te  Te4  1  0.666713  0.333404  0.999999  1
  Te  Te5  1  0.666633  0.333275  0.500000  1
  O  O6  1  0.392767  0.006061  0.095531  1
  O  O7  1  0.613353  0.607212  0.095557  1
  O  O8  1  0.993907  0.386661  0.095525  1
  O  O9  1  0.994029  0.386996  0.404421  1
  O  O10  1  0.613006  0.607051  0.404444  1
  O  O11  1  0.392972  0.006008  0.404421  1
  O  O12  1  0.613040  0.005996  0.595577  1
  O  O13  1  0.994049  0.607045  0.595554  1
  O  O14  1  0.392977  0.386988  0.595584  1
  O  O15  1  0.392746  0.386671  0.904472  1
  O  O16  1  0.993854  0.607207  0.904445  1
  O  O17  1  0.613305  0.006073  0.904472  1
