# generated using pymatgen
data_Sr8Si12HgPt3
_symmetry_space_group_name_H-M   'P 1'
_cell_length_a   11.88151671
_cell_length_b   10.28618916
_cell_length_c   8.37836332
_cell_angle_alpha   78.33441866
_cell_angle_beta   58.06742450
_cell_angle_gamma   43.68779041
_symmetry_Int_Tables_number   1
_chemical_formula_structural   Sr8Si12HgPt3
_chemical_formula_sum   'Sr8 Si12 Hg1 Pt3'
_cell_volume   571.16208752
_cell_formula_units_Z   1
loop_
 _symmetry_equiv_pos_site_id
 _symmetry_equiv_pos_as_xyz
  1  'x, y, z'
loop_
 _atom_site_type_symbol
 _atom_site_label
 _atom_site_symmetry_multiplicity
 _atom_site_fract_x
 _atom_site_fract_y
 _atom_site_fract_z
 _atom_site_occupancy
  Sr  Sr0  1  0.118964  0.126587  0.884272  1
  Sr  Sr1  1  0.884721  0.870364  0.118618  1
  Sr  Sr2  1  0.119281  0.123410  0.374354  1
  Sr  Sr3  1  0.373783  0.382605  0.119717  1
  Sr  Sr4  1  0.629457  0.617745  0.372878  1
  Sr  Sr5  1  0.372781  0.379913  0.629497  1
  Sr  Sr6  1  0.624276  0.620141  0.876770  1
  Sr  Sr7  1  0.877317  0.878808  0.623609  1
  Si  Si8  1  0.917725  0.579887  0.413730  1
  Si  Si9  1  0.064185  0.438189  0.592291  1
  Si  Si10  1  0.414175  0.088802  0.917194  1
  Si  Si11  1  0.592311  0.905912  0.064246  1
  Si  Si12  1  0.334201  0.669448  0.832325  1
  Si  Si13  1  0.665041  0.330511  0.168030  1
  Si  Si14  1  0.831747  0.163927  0.334358  1
  Si  Si15  1  0.167735  0.835782  0.665645  1
  Si  Si16  1  0.919616  0.580734  0.919124  1
  Si  Si17  1  0.593402  0.906829  0.593101  1
  Si  Si18  1  0.332745  0.667207  0.332170  1
  Si  Si19  1  0.666470  0.332931  0.667765  1
  Hg  Hg20  1  0.416463  0.083331  0.416184  1
  Pt  Pt21  1  0.083168  0.416516  0.084378  1
  Pt  Pt22  1  0.833643  0.166835  0.833718  1
  Pt  Pt23  1  0.166794  0.833592  0.166023  1
