# generated using pymatgen
data_Sn3Te11
_symmetry_space_group_name_H-M   'P 1'
_cell_length_a   23.84454900
_cell_length_b   23.84454843
_cell_length_c   3.15991600
_cell_angle_alpha   90.00000000
_cell_angle_beta   90.00000000
_cell_angle_gamma   166.33536152
_symmetry_Int_Tables_number   1
_chemical_formula_structural   Sn3Te11
_chemical_formula_sum   'Sn3 Te11'
_cell_volume   424.42836610
_cell_formula_units_Z   1
loop_
 _symmetry_equiv_pos_site_id
 _symmetry_equiv_pos_as_xyz
  1  'x, y, z'
loop_
 _atom_site_type_symbol
 _atom_site_label
 _atom_site_symmetry_multiplicity
 _atom_site_fract_x
 _atom_site_fract_y
 _atom_site_fract_z
 _atom_site_occupancy
  Sn  Sn0  1  0.684300  0.315154  0.677493  1
  Sn  Sn1  1  0.321146  0.677912  0.899588  1
  Sn  Sn2  1  0.890935  0.109466  0.521251  1
  Te  Te3  1  0.105107  0.894703  0.106010  1
  Te  Te4  1  0.605748  0.394073  0.096698  1
  Te  Te5  1  0.391082  0.609142  0.484734  1
  Te  Te6  1  0.823602  0.175439  0.855747  1
  Te  Te7  1  0.182782  0.816786  0.696522  1
  Te  Te8  1  0.961815  0.039076  0.898256  1
  Te  Te9  1  0.033619  0.967305  0.373184  1
  Te  Te10  1  0.530140  0.470761  0.374676  1
  Te  Te11  1  0.462071  0.538985  0.360435  1
  Te  Te12  1  0.751605  0.247839  0.559630  1
  Te  Te13  1  0.256049  0.743360  0.095775  1
