# generated using pymatgen
data_Yb9Pr(Si2Pb)2
_symmetry_space_group_name_H-M   'P 1'
_cell_length_a   7.75225972
_cell_length_b   7.75226074
_cell_length_c   9.33529938
_cell_angle_alpha   114.46126405
_cell_angle_beta   114.46126787
_cell_angle_gamma   90.26488953
_symmetry_Int_Tables_number   1
_chemical_formula_structural   Yb9Pr(Si2Pb)2
_chemical_formula_sum   'Yb9 Pr1 Si4 Pb2'
_cell_volume   454.21559270
_cell_formula_units_Z   1
loop_
 _symmetry_equiv_pos_site_id
 _symmetry_equiv_pos_as_xyz
  1  'x, y, z'
loop_
 _atom_site_type_symbol
 _atom_site_label
 _atom_site_symmetry_multiplicity
 _atom_site_fract_x
 _atom_site_fract_y
 _atom_site_fract_z
 _atom_site_occupancy
  Yb  Yb0  1  0.498888  0.503702  0.002785  1
  Yb  Yb1  1  0.003702  0.998888  0.002785  1
  Yb  Yb2  1  0.964219  0.811682  0.275537  1
  Yb  Yb3  1  0.311682  0.464219  0.275537  1
  Yb  Yb4  1  0.812402  0.312402  0.275533  1
  Yb  Yb5  1  0.461423  0.961423  0.273104  1
  Yb  Yb6  1  0.037800  0.187805  0.724708  1
  Yb  Yb7  1  0.687805  0.537800  0.724708  1
  Yb  Yb8  1  0.187058  0.687058  0.724443  1
  Pr  Pr9  1  0.541876  0.041876  0.729908  1
  Si  Si10  1  0.613371  0.887612  0.999166  1
  Si  Si11  1  0.387612  0.113371  0.999166  1
  Si  Si12  1  0.882655  0.382655  0.995009  1
  Si  Si13  1  0.110769  0.610769  0.999174  1
  Pb  Pb14  1  0.749709  0.749030  0.499218  1
  Pb  Pb15  1  0.249030  0.249709  0.499218  1
