# generated using pymatgen
data_DyTh(Ni3As2)2
_symmetry_space_group_name_H-M   'P 1'
_cell_length_a   3.97605600
_cell_length_b   10.84592613
_cell_length_c   12.84310156
_cell_angle_alpha   89.88797429
_cell_angle_beta   90.00000000
_cell_angle_gamma   90.00000000
_symmetry_Int_Tables_number   1
_chemical_formula_structural   DyTh(Ni3As2)2
_chemical_formula_sum   'Dy3 Th3 Ni18 As12'
_cell_volume   553.84497706
_cell_formula_units_Z   3
loop_
 _symmetry_equiv_pos_site_id
 _symmetry_equiv_pos_as_xyz
  1  'x, y, z'
loop_
 _atom_site_type_symbol
 _atom_site_label
 _atom_site_symmetry_multiplicity
 _atom_site_fract_x
 _atom_site_fract_y
 _atom_site_fract_z
 _atom_site_occupancy
  Dy  Dy0  1  0.500000  0.187796  0.205924  1
  Dy  Dy1  1  0.000000  0.685878  0.796077  1
  Dy  Dy2  1  0.000000  0.313546  0.792854  1
  Th  Th3  1  0.000000  0.500245  0.522433  1
  Th  Th4  1  0.500000  0.001412  0.479507  1
  Th  Th5  1  0.500000  0.814187  0.205409  1
  Ni  Ni6  1  0.500000  0.499462  0.151312  1
  Ni  Ni7  1  0.000000  0.000661  0.849751  1
  Ni  Ni8  1  0.500000  0.499147  0.696223  1
  Ni  Ni9  1  0.000000  0.998628  0.302170  1
  Ni  Ni10  1  0.000000  0.495372  0.975458  1
  Ni  Ni11  1  0.500000  0.002970  0.020683  1
  Ni  Ni12  1  0.500000  0.333271  0.996212  1
  Ni  Ni13  1  0.500000  0.663615  0.994743  1
  Ni  Ni14  1  0.000000  0.170369  0.001797  1
  Ni  Ni15  1  0.000000  0.833881  0.003971  1
  Ni  Ni16  1  0.500000  0.302182  0.427943  1
  Ni  Ni17  1  0.500000  0.695589  0.428576  1
  Ni  Ni18  1  0.000000  0.196979  0.571580  1
  Ni  Ni19  1  0.000000  0.803926  0.576715  1
  Ni  Ni20  1  0.500000  0.881015  0.712677  1
  Ni  Ni21  1  0.500000  0.118988  0.711210  1
  Ni  Ni22  1  0.000000  0.619339  0.288578  1
  Ni  Ni23  1  0.000000  0.381354  0.288204  1
  As  As24  1  0.500000  0.498852  0.873148  1
  As  As25  1  0.000000  0.005156  0.122563  1
  As  As26  1  0.500000  0.499308  0.337592  1
  As  As27  1  0.000000  0.000936  0.664099  1
  As  As28  1  0.500000  0.307837  0.615276  1
  As  As29  1  0.500000  0.691820  0.617533  1
  As  As30  1  0.000000  0.191528  0.383374  1
  As  As31  1  0.000000  0.808165  0.390107  1
  As  As32  1  0.500000  0.848419  0.894918  1
  As  As33  1  0.500000  0.152653  0.891982  1
  As  As34  1  0.000000  0.646694  0.102449  1
  As  As35  1  0.000000  0.348824  0.106955  1
