# generated using pymatgen
data_ZrCu6WS8
_symmetry_space_group_name_H-M   'P 1'
_cell_length_a   7.69204900
_cell_length_b   7.69204889
_cell_length_c   12.59180300
_cell_angle_alpha   90.00000000
_cell_angle_beta   90.00000000
_cell_angle_gamma   119.99999618
_symmetry_Int_Tables_number   1
_chemical_formula_structural   ZrCu6WS8
_chemical_formula_sum   'Zr2 Cu12 W2 S16'
_cell_volume   645.21231311
_cell_formula_units_Z   2
loop_
 _symmetry_equiv_pos_site_id
 _symmetry_equiv_pos_as_xyz
  1  'x, y, z'
loop_
 _atom_site_type_symbol
 _atom_site_label
 _atom_site_symmetry_multiplicity
 _atom_site_fract_x
 _atom_site_fract_y
 _atom_site_fract_z
 _atom_site_occupancy
  Zr  Zr0  1  0.000000  0.000000  0.849471  1
  Zr  Zr1  1  0.000000  0.000000  0.349471  1
  Cu  Cu2  1  0.836161  0.672324  0.104553  1
  Cu  Cu3  1  0.501970  0.498030  0.354549  1
  Cu  Cu4  1  0.003939  0.501970  0.854549  1
  Cu  Cu5  1  0.836161  0.163839  0.104553  1
  Cu  Cu6  1  0.498030  0.501970  0.854549  1
  Cu  Cu7  1  0.163839  0.327676  0.604553  1
  Cu  Cu8  1  0.501970  0.003939  0.354549  1
  Cu  Cu9  1  0.996061  0.498030  0.354549  1
  Cu  Cu10  1  0.163839  0.836161  0.604553  1
  Cu  Cu11  1  0.498030  0.996061  0.854549  1
  Cu  Cu12  1  0.672324  0.836161  0.604553  1
  Cu  Cu13  1  0.327676  0.163839  0.104553  1
  W  W14  1  0.333333  0.666667  0.480298  1
  W  W15  1  0.666667  0.333333  0.980298  1
  S  S16  1  0.000000  0.000000  0.044539  1
  S  S17  1  0.348290  0.174145  0.288255  1
  S  S18  1  0.825855  0.174145  0.288255  1
  S  S19  1  0.011407  0.505704  0.539776  1
  S  S20  1  0.825855  0.651710  0.288255  1
  S  S21  1  0.666667  0.333333  0.800294  1
  S  S22  1  0.174145  0.348290  0.788255  1
  S  S23  1  0.494296  0.505704  0.539776  1
  S  S24  1  0.000000  0.000000  0.544539  1
  S  S25  1  0.333333  0.666667  0.300294  1
  S  S26  1  0.988593  0.494296  0.039776  1
  S  S27  1  0.494296  0.988593  0.539776  1
  S  S28  1  0.174145  0.825855  0.788255  1
  S  S29  1  0.651710  0.825855  0.788255  1
  S  S30  1  0.505704  0.011407  0.039776  1
  S  S31  1  0.505704  0.494296  0.039776  1
