# generated using pymatgen
data_Dy2Y3HoPtI10
_symmetry_space_group_name_H-M   'P 1'
_cell_length_a   7.73250760
_cell_length_b   9.73337709
_cell_length_c   9.76923706
_cell_angle_alpha   107.07663318
_cell_angle_beta   96.89905174
_cell_angle_gamma   104.34435051
_symmetry_Int_Tables_number   1
_chemical_formula_structural   Dy2Y3HoPtI10
_chemical_formula_sum   'Dy2 Y3 Ho1 Pt1 I10'
_cell_volume   666.00784192
_cell_formula_units_Z   1
loop_
 _symmetry_equiv_pos_site_id
 _symmetry_equiv_pos_as_xyz
  1  'x, y, z'
loop_
 _atom_site_type_symbol
 _atom_site_label
 _atom_site_symmetry_multiplicity
 _atom_site_fract_x
 _atom_site_fract_y
 _atom_site_fract_z
 _atom_site_occupancy
  Dy  Dy0  1  0.885168  0.959197  0.240961  1
  Dy  Dy1  1  0.115886  0.041510  0.759417  1
  Y  Y2  1  0.651361  0.875555  0.833641  1
  Y  Y3  1  0.968833  0.287425  0.086744  1
  Y  Y4  1  0.031545  0.712728  0.913650  1
  Ho  Ho5  1  0.345408  0.123469  0.165104  1
  Pt  Pt6  1  0.000265  0.000187  0.000173  1
  I  I7  1  0.352771  0.450028  0.272332  1
  I  I8  1  0.648579  0.548677  0.727814  1
  I  I9  1  0.914473  0.627528  0.180992  1
  I  I10  1  0.085999  0.372654  0.819370  1
  I  I11  1  0.455162  0.816873  0.093486  1
  I  I12  1  0.544683  0.184421  0.908222  1
  I  I13  1  0.256959  0.086778  0.462275  1
  I  I14  1  0.745034  0.913830  0.537237  1
  I  I15  1  0.773453  0.255516  0.345824  1
  I  I16  1  0.224421  0.743620  0.652757  1
