# generated using pymatgen
data_Cs2NiWSe4
_symmetry_space_group_name_H-M   'P 1'
_cell_length_a   15.00755179
_cell_length_b   13.32595583
_cell_length_c   7.95608784
_cell_angle_alpha   85.76639963
_cell_angle_beta   62.31645480
_cell_angle_gamma   31.91714526
_symmetry_Int_Tables_number   1
_chemical_formula_structural   Cs2NiWSe4
_chemical_formula_sum   'Cs4 Ni2 W2 Se8'
_cell_volume   542.96743046
_cell_formula_units_Z   2
loop_
 _symmetry_equiv_pos_site_id
 _symmetry_equiv_pos_as_xyz
  1  'x, y, z'
loop_
 _atom_site_type_symbol
 _atom_site_label
 _atom_site_symmetry_multiplicity
 _atom_site_fract_x
 _atom_site_fract_y
 _atom_site_fract_z
 _atom_site_occupancy
  Cs  Cs0  1  0.822837  0.822837  0.177163  1
  Cs  Cs1  1  0.427163  0.427163  0.072837  1
  Cs  Cs2  1  0.177163  0.177163  0.822837  1
  Cs  Cs3  1  0.072837  0.072837  0.427163  1
  Ni  Ni4  1  0.500000  0.500000  0.500000  1
  Ni  Ni5  1  0.750000  0.750000  0.750000  1
  W  W6  1  0.000000  0.000000  0.000000  1
  W  W7  1  0.250000  0.250000  0.250000  1
  Se  Se8  1  0.539043  0.856306  0.144414  1
  Se  Se9  1  0.856306  0.539043  0.460238  1
  Se  Se10  1  0.789762  0.105586  0.393694  1
  Se  Se11  1  0.105586  0.789762  0.710957  1
  Se  Se12  1  0.144414  0.460238  0.539043  1
  Se  Se13  1  0.460238  0.144414  0.856306  1
  Se  Se14  1  0.393694  0.710957  0.789762  1
  Se  Se15  1  0.710957  0.393694  0.105586  1
