# generated using pymatgen
data_Dy3Tm13CdIn3Ni4
_symmetry_space_group_name_H-M   'P 1'
_cell_length_a   9.46704783
_cell_length_b   9.48093315
_cell_length_c   9.48093300
_cell_angle_alpha   60.00000401
_cell_angle_beta   59.95147410
_cell_angle_gamma   59.95147658
_symmetry_Int_Tables_number   1
_chemical_formula_structural   Dy3Tm13CdIn3Ni4
_chemical_formula_sum   'Dy3 Tm13 Cd1 In3 Ni4'
_cell_volume   601.28839983
_cell_formula_units_Z   1
loop_
 _symmetry_equiv_pos_site_id
 _symmetry_equiv_pos_as_xyz
  1  'x, y, z'
loop_
 _atom_site_type_symbol
 _atom_site_label
 _atom_site_symmetry_multiplicity
 _atom_site_fract_x
 _atom_site_fract_y
 _atom_site_fract_z
 _atom_site_occupancy
  Dy  Dy0  1  0.347938  0.348980  0.348980  1
  Dy  Dy1  1  0.347938  0.348980  0.954102  1
  Dy  Dy2  1  0.347938  0.954102  0.348980  1
  Tm  Tm3  1  0.954497  0.348501  0.348501  1
  Tm  Tm4  1  0.811989  0.188050  0.188050  1
  Tm  Tm5  1  0.187637  0.812821  0.812821  1
  Tm  Tm6  1  0.187637  0.812821  0.186723  1
  Tm  Tm7  1  0.811989  0.188050  0.811910  1
  Tm  Tm8  1  0.187637  0.186723  0.812821  1
  Tm  Tm9  1  0.811989  0.811910  0.188050  1
  Tm  Tm10  1  0.938036  0.563518  0.563518  1
  Tm  Tm11  1  0.564698  0.936034  0.936034  1
  Tm  Tm12  1  0.564698  0.936034  0.563234  1
  Tm  Tm13  1  0.938036  0.563518  0.934928  1
  Tm  Tm14  1  0.564698  0.563234  0.936034  1
  Tm  Tm15  1  0.938036  0.934928  0.563518  1
  Cd  Cd16  1  0.250912  0.583030  0.583030  1
  In  In17  1  0.582120  0.583199  0.583199  1
  In  In18  1  0.582120  0.583199  0.251482  1
  In  In19  1  0.582120  0.251482  0.583199  1
  Ni  Ni20  1  0.140798  0.142172  0.142172  1
  Ni  Ni21  1  0.140798  0.142172  0.574859  1
  Ni  Ni22  1  0.140798  0.574859  0.142172  1
  Ni  Ni23  1  0.574942  0.141686  0.141686  1
