# generated using pymatgen
data_Sm7Th(Si4Mo3)4
_symmetry_space_group_name_H-M   'P 1'
_cell_length_a   6.88803785
_cell_length_b   7.03641309
_cell_length_c   13.07091613
_cell_angle_alpha   90.05196561
_cell_angle_beta   90.00939691
_cell_angle_gamma   89.95854737
_symmetry_Int_Tables_number   1
_chemical_formula_structural   Sm7Th(Si4Mo3)4
_chemical_formula_sum   'Sm7 Th1 Si16 Mo12'
_cell_volume   633.50869865
_cell_formula_units_Z   1
loop_
 _symmetry_equiv_pos_site_id
 _symmetry_equiv_pos_as_xyz
  1  'x, y, z'
loop_
 _atom_site_type_symbol
 _atom_site_label
 _atom_site_symmetry_multiplicity
 _atom_site_fract_x
 _atom_site_fract_y
 _atom_site_fract_z
 _atom_site_occupancy
  Sm  Sm0  1  0.496071  0.334949  0.094180  1
  Sm  Sm1  1  0.997179  0.164485  0.406099  1
  Sm  Sm2  1  0.502651  0.664849  0.594627  1
  Sm  Sm3  1  0.002718  0.834787  0.904315  1
  Sm  Sm4  1  0.503057  0.665754  0.904393  1
  Sm  Sm5  1  0.002151  0.834617  0.594494  1
  Sm  Sm6  1  0.497142  0.336092  0.407010  1
  Th  Th7  1  0.996425  0.165312  0.094432  1
  Si  Si8  1  0.655095  0.044954  0.548764  1
  Si  Si9  1  0.158047  0.457215  0.950833  1
  Si  Si10  1  0.346879  0.951888  0.047682  1
  Si  Si11  1  0.845529  0.544649  0.450953  1
  Si  Si12  1  0.344788  0.955016  0.451362  1
  Si  Si13  1  0.841617  0.550045  0.047449  1
  Si  Si14  1  0.655210  0.045559  0.950281  1
  Si  Si15  1  0.155520  0.455095  0.548798  1
  Si  Si16  1  0.536533  0.359117  0.749839  1
  Si  Si17  1  0.036650  0.139637  0.749479  1
  Si  Si18  1  0.464220  0.640833  0.249581  1
  Si  Si19  1  0.963541  0.856605  0.251790  1
  Si  Si20  1  0.805203  0.621980  0.749516  1
  Si  Si21  1  0.305707  0.877359  0.749477  1
  Si  Si22  1  0.196353  0.379475  0.251976  1
  Si  Si23  1  0.689884  0.122831  0.252114  1
  Mo  Mo24  1  0.832585  0.334611  0.625797  1
  Mo  Mo25  1  0.331471  0.163873  0.874019  1
  Mo  Mo26  1  0.167873  0.663036  0.126655  1
  Mo  Mo27  1  0.667640  0.834498  0.374515  1
  Mo  Mo28  1  0.169342  0.664647  0.374685  1
  Mo  Mo29  1  0.670037  0.838520  0.126870  1
  Mo  Mo30  1  0.833671  0.335149  0.874260  1
  Mo  Mo31  1  0.331085  0.164959  0.625669  1
  Mo  Mo32  1  0.664962  0.002239  0.749899  1
  Mo  Mo33  1  0.164714  0.497761  0.750455  1
  Mo  Mo34  1  0.333205  0.998664  0.249137  1
  Mo  Mo35  1  0.835245  0.498937  0.248598  1
