# generated using pymatgen
data_Dy3Ho4Sn23Ru6
_symmetry_space_group_name_H-M   'P 1'
_cell_length_a   9.84897511
_cell_length_b   9.84649268
_cell_length_c   10.08200100
_cell_angle_alpha   90.00000027
_cell_angle_beta   90.00263330
_cell_angle_gamma   119.99166131
_symmetry_Int_Tables_number   1
_chemical_formula_structural   Dy3Ho4Sn23Ru6
_chemical_formula_sum   'Dy3 Ho4 Sn23 Ru6'
_cell_volume   846.81093155
_cell_formula_units_Z   1
loop_
 _symmetry_equiv_pos_site_id
 _symmetry_equiv_pos_as_xyz
  1  'x, y, z'
loop_
 _atom_site_type_symbol
 _atom_site_label
 _atom_site_symmetry_multiplicity
 _atom_site_fract_x
 _atom_site_fract_y
 _atom_site_fract_z
 _atom_site_occupancy
  Dy  Dy0  1  0.999995  0.999998  0.000014  1
  Dy  Dy1  1  0.515735  0.484255  0.696784  1
  Dy  Dy2  1  0.515735  0.031479  0.696784  1
  Ho  Ho3  1  0.968740  0.484369  0.696851  1
  Ho  Ho4  1  0.031215  0.515608  0.303159  1
  Ho  Ho5  1  0.484377  0.968788  0.303137  1
  Ho  Ho6  1  0.484377  0.515590  0.303137  1
  Sn  Sn7  1  0.666667  0.333333  0.178212  1
  Sn  Sn8  1  0.666848  0.333424  0.872383  1
  Sn  Sn9  1  0.333331  0.666666  0.127842  1
  Sn  Sn10  1  0.349093  0.349100  0.000029  1
  Sn  Sn11  1  0.999982  0.650852  0.000002  1
  Sn  Sn12  1  0.650911  0.000023  0.000040  1
  Sn  Sn13  1  0.650911  0.650888  0.000040  1
  Sn  Sn14  1  0.333272  0.666637  0.821855  1
  Sn  Sn15  1  0.439542  0.219772  0.462200  1
  Sn  Sn16  1  0.219665  0.780113  0.537579  1
  Sn  Sn17  1  0.219665  0.439550  0.537579  1
  Sn  Sn18  1  0.560460  0.780229  0.537501  1
  Sn  Sn19  1  0.118487  0.881505  0.273746  1
  Sn  Sn20  1  0.780264  0.560441  0.462280  1
  Sn  Sn21  1  0.780264  0.219825  0.462280  1
  Sn  Sn22  1  0.349093  0.999993  0.000029  1
  Sn  Sn23  1  0.118487  0.236982  0.273746  1
  Sn  Sn24  1  0.762998  0.881499  0.273746  1
  Sn  Sn25  1  0.236828  0.118415  0.726287  1
  Sn  Sn26  1  0.881626  0.763108  0.726267  1
  Sn  Sn27  1  0.881626  0.118518  0.726267  1
  Sn  Sn28  1  0.999989  0.999995  0.500001  1
  Sn  Sn29  1  0.999982  0.349130  0.000002  1
  Ru  Ru30  1  0.169880  0.829813  0.797776  1
  Ru  Ru31  1  0.169880  0.340066  0.797776  1
  Ru  Ru32  1  0.660038  0.830019  0.797822  1
  Ru  Ru33  1  0.340145  0.170073  0.202276  1
  Ru  Ru34  1  0.829946  0.659869  0.202284  1
  Ru  Ru35  1  0.829946  0.170078  0.202284  1
