# generated using pymatgen
data_Tm3Zn3IrAu2
_symmetry_space_group_name_H-M   'P 1'
_cell_length_a   7.49070000
_cell_length_b   7.49069921
_cell_length_c   3.70442200
_cell_angle_alpha   90.00000000
_cell_angle_beta   90.00000000
_cell_angle_gamma   120.00001233
_symmetry_Int_Tables_number   1
_chemical_formula_structural   Tm3Zn3IrAu2
_chemical_formula_sum   'Tm3 Zn3 Ir1 Au2'
_cell_volume   180.00965299
_cell_formula_units_Z   1
loop_
 _symmetry_equiv_pos_site_id
 _symmetry_equiv_pos_as_xyz
  1  'x, y, z'
loop_
 _atom_site_type_symbol
 _atom_site_label
 _atom_site_symmetry_multiplicity
 _atom_site_fract_x
 _atom_site_fract_y
 _atom_site_fract_z
 _atom_site_occupancy
  Tm  Tm0  1  0.414388  0.393983  0.500000  1
  Tm  Tm1  1  0.606017  0.020405  0.500000  1
  Tm  Tm2  1  0.979595  0.585612  0.500000  1
  Zn  Zn3  1  0.735776  0.730769  0.000000  1
  Zn  Zn4  1  0.269231  0.005007  0.000000  1
  Zn  Zn5  1  0.994993  0.264224  0.000000  1
  Ir  Ir6  1  0.666667  0.333333  0.000000  1
  Au  Au7  1  0.333333  0.666667  0.000000  1
  Au  Au8  1  0.000000  0.000000  0.500000  1
