# generated using pymatgen
data_TbY5ReB14Os
_symmetry_space_group_name_H-M   'P 1'
_cell_length_a   8.08924005
_cell_length_b   8.08923966
_cell_length_c   9.34951516
_cell_angle_alpha   89.94439516
_cell_angle_beta   90.05560429
_cell_angle_gamma   154.73693746
_symmetry_Int_Tables_number   1
_chemical_formula_structural   TbY5ReB14Os
_chemical_formula_sum   'Tb1 Y5 Re1 B14 Os1'
_cell_volume   261.09779328
_cell_formula_units_Z   1
loop_
 _symmetry_equiv_pos_site_id
 _symmetry_equiv_pos_as_xyz
  1  'x, y, z'
loop_
 _atom_site_type_symbol
 _atom_site_label
 _atom_site_symmetry_multiplicity
 _atom_site_fract_x
 _atom_site_fract_y
 _atom_site_fract_z
 _atom_site_occupancy
  Tb  Tb0  1  0.894393  0.105607  0.939566  1
  Y  Y1  1  0.105645  0.894355  0.061412  1
  Y  Y2  1  0.756996  0.243004  0.250100  1
  Y  Y3  1  0.243332  0.756668  0.750040  1
  Y  Y4  1  0.894430  0.105570  0.560264  1
  Y  Y5  1  0.105706  0.894294  0.438698  1
  Re  Re6  1  0.947252  0.052748  0.250107  1
  B  B7  1  0.542997  0.457003  0.250032  1
  B  B8  1  0.457687  0.542313  0.749756  1
  B  B9  1  0.520876  0.479124  0.903484  1
  B  B10  1  0.479218  0.520782  0.095714  1
  B  B11  1  0.479277  0.520723  0.404517  1
  B  B12  1  0.520864  0.479136  0.596143  1
  B  B13  1  0.631564  0.368436  0.848859  1
  B  B14  1  0.367977  0.632023  0.151157  1
  B  B15  1  0.726647  0.273353  0.965255  1
  B  B16  1  0.272405  0.727595  0.033639  1
  B  B17  1  0.272499  0.727501  0.466402  1
  B  B18  1  0.726849  0.273151  0.534826  1
  B  B19  1  0.631549  0.368451  0.651180  1
  B  B20  1  0.367978  0.632022  0.349011  1
  Os  Os21  1  0.053861  0.946139  0.749838  1
