# generated using pymatgen
data_Tb4CeAl2Ru3
_symmetry_space_group_name_H-M   'P 1'
_cell_length_a   8.47899725
_cell_length_b   8.38671071
_cell_length_c   8.35501909
_cell_angle_alpha   109.92073066
_cell_angle_beta   109.35932309
_cell_angle_gamma   110.26740608
_symmetry_Int_Tables_number   1
_chemical_formula_structural   Tb4CeAl2Ru3
_chemical_formula_sum   'Tb8 Ce2 Al4 Ru6'
_cell_volume   450.82900682
_cell_formula_units_Z   2
loop_
 _symmetry_equiv_pos_site_id
 _symmetry_equiv_pos_as_xyz
  1  'x, y, z'
loop_
 _atom_site_type_symbol
 _atom_site_label
 _atom_site_symmetry_multiplicity
 _atom_site_fract_x
 _atom_site_fract_y
 _atom_site_fract_z
 _atom_site_occupancy
  Tb  Tb0  1  0.781650  0.786218  0.779069  1
  Tb  Tb1  1  0.316431  0.564956  0.754110  1
  Tb  Tb2  1  0.751366  0.316459  0.567689  1
  Tb  Tb3  1  0.566189  0.748417  0.312001  1
  Tb  Tb4  1  0.721946  0.502902  0.998646  1
  Tb  Tb5  1  0.998836  0.719966  0.505994  1
  Tb  Tb6  1  0.500974  0.991436  0.716395  1
  Tb  Tb7  1  0.254108  0.189282  0.933368  1
  Ce  Ce8  1  0.943984  0.250758  0.195302  1
  Ce  Ce9  1  0.196881  0.942315  0.251456  1
  Al  Al10  1  0.414924  0.410210  0.408157  1
  Al  Al11  1  0.092710  0.492153  0.997577  1
  Al  Al12  1  0.998095  0.091802  0.501483  1
  Al  Al13  1  0.503313  0.010784  0.096058  1
  Ru  Ru14  1  0.868949  0.117391  0.740325  1
  Ru  Ru15  1  0.754524  0.904289  0.122223  1
  Ru  Ru16  1  0.128217  0.764614  0.911359  1
  Ru  Ru17  1  0.222926  0.590239  0.363107  1
  Ru  Ru18  1  0.357409  0.220256  0.593455  1
  Ru  Ru19  1  0.626567  0.385554  0.252222  1
