# generated using pymatgen
data_La2Pr(ZnNi)3
_symmetry_space_group_name_H-M   'P 1'
_cell_length_a   7.25363428
_cell_length_b   7.20969336
_cell_length_c   3.93365400
_cell_angle_alpha   90.00000000
_cell_angle_beta   90.00000000
_cell_angle_gamma   119.79980345
_symmetry_Int_Tables_number   1
_chemical_formula_structural   La2Pr(ZnNi)3
_chemical_formula_sum   'La2 Pr1 Zn3 Ni3'
_cell_volume   178.51380862
_cell_formula_units_Z   1
loop_
 _symmetry_equiv_pos_site_id
 _symmetry_equiv_pos_as_xyz
  1  'x, y, z'
loop_
 _atom_site_type_symbol
 _atom_site_label
 _atom_site_symmetry_multiplicity
 _atom_site_fract_x
 _atom_site_fract_y
 _atom_site_fract_z
 _atom_site_occupancy
  La  La0  1  0.583251  0.998664  0.500000  1
  La  La1  1  0.416749  0.415413  0.500000  1
  Pr  Pr2  1  0.000000  0.588024  0.500000  1
  Zn  Zn3  1  0.229544  0.997965  0.000000  1
  Zn  Zn4  1  0.770456  0.768421  0.000000  1
  Zn  Zn5  1  0.000000  0.233517  0.000000  1
  Ni  Ni6  1  0.000000  0.000856  0.500000  1
  Ni  Ni7  1  0.336033  0.666586  0.000000  1
  Ni  Ni8  1  0.663967  0.330552  0.000000  1
