# generated using pymatgen
data_TbSm2(DySn2)2
_symmetry_space_group_name_H-M   'P 1'
_cell_length_a   8.10386000
_cell_length_b   8.25934900
_cell_length_c   15.59799700
_cell_angle_alpha   90.00000000
_cell_angle_beta   90.00000000
_cell_angle_gamma   90.00000000
_symmetry_Int_Tables_number   1
_chemical_formula_structural   TbSm2(DySn2)2
_chemical_formula_sum   'Tb4 Sm8 Dy8 Sn16'
_cell_volume   1044.01461859
_cell_formula_units_Z   4
loop_
 _symmetry_equiv_pos_site_id
 _symmetry_equiv_pos_as_xyz
  1  'x, y, z'
loop_
 _atom_site_type_symbol
 _atom_site_label
 _atom_site_symmetry_multiplicity
 _atom_site_fract_x
 _atom_site_fract_y
 _atom_site_fract_z
 _atom_site_occupancy
  Tb  Tb0  1  0.365806  0.835856  0.877847  1
  Tb  Tb1  1  0.865806  0.664144  0.622153  1
  Tb  Tb2  1  0.634194  0.164144  0.377847  1
  Tb  Tb3  1  0.134194  0.335856  0.122153  1
  Sm  Sm4  1  0.518256  0.320800  0.902416  1
  Sm  Sm5  1  0.018256  0.179200  0.597584  1
  Sm  Sm6  1  0.481744  0.679200  0.402416  1
  Sm  Sm7  1  0.981744  0.820800  0.097584  1
  Sm  Sm8  1  0.481798  0.679245  0.097614  1
  Sm  Sm9  1  0.981798  0.820755  0.402386  1
  Sm  Sm10  1  0.518202  0.320755  0.597614  1
  Sm  Sm11  1  0.018202  0.179245  0.902386  1
  Dy  Dy12  1  0.634245  0.164074  0.122137  1
  Dy  Dy13  1  0.134245  0.335926  0.377863  1
  Dy  Dy14  1  0.365755  0.835926  0.622137  1
  Dy  Dy15  1  0.865755  0.664074  0.877863  1
  Dy  Dy16  1  0.198201  0.502714  0.749983  1
  Dy  Dy17  1  0.698201  0.997286  0.750017  1
  Dy  Dy18  1  0.801799  0.497286  0.249983  1
  Dy  Dy19  1  0.301799  0.002714  0.250017  1
  Sn  Sn20  1  0.296605  0.037610  0.041930  1
  Sn  Sn21  1  0.796605  0.462390  0.458070  1
  Sn  Sn22  1  0.703395  0.962390  0.541930  1
  Sn  Sn23  1  0.203395  0.537610  0.958070  1
  Sn  Sn24  1  0.703668  0.962393  0.958172  1
  Sn  Sn25  1  0.203668  0.537607  0.541828  1
  Sn  Sn26  1  0.296332  0.037607  0.458172  1
  Sn  Sn27  1  0.796332  0.462393  0.041828  1
  Sn  Sn28  1  0.564511  0.620856  0.750007  1
  Sn  Sn29  1  0.064511  0.879144  0.749993  1
  Sn  Sn30  1  0.435489  0.379144  0.250007  1
  Sn  Sn31  1  0.935489  0.120856  0.249993  1
  Sn  Sn32  1  0.326698  0.144223  0.749956  1
  Sn  Sn33  1  0.826698  0.355777  0.750044  1
  Sn  Sn34  1  0.673302  0.855777  0.249956  1
  Sn  Sn35  1  0.173302  0.644223  0.250044  1
