# generated using pymatgen
data_Sr6MnCd2NiO12
_symmetry_space_group_name_H-M   'P 1'
_cell_length_a   6.76716551
_cell_length_b   6.76716623
_cell_length_c   6.76716666
_cell_angle_alpha   90.89890631
_cell_angle_beta   90.89891047
_cell_angle_gamma   90.89889670
_symmetry_Int_Tables_number   1
_chemical_formula_structural   Sr6MnCd2NiO12
_chemical_formula_sum   'Sr6 Mn1 Cd2 Ni1 O12'
_cell_volume   309.78361685
_cell_formula_units_Z   1
loop_
 _symmetry_equiv_pos_site_id
 _symmetry_equiv_pos_as_xyz
  1  'x, y, z'
loop_
 _atom_site_type_symbol
 _atom_site_label
 _atom_site_symmetry_multiplicity
 _atom_site_fract_x
 _atom_site_fract_y
 _atom_site_fract_z
 _atom_site_occupancy
  Sr  Sr0  1  0.749308  0.388207  0.114399  1
  Sr  Sr1  1  0.114399  0.749308  0.388207  1
  Sr  Sr2  1  0.250692  0.611793  0.885601  1
  Sr  Sr3  1  0.388207  0.114399  0.749308  1
  Sr  Sr4  1  0.611793  0.885601  0.250692  1
  Sr  Sr5  1  0.885601  0.250692  0.611793  1
  Mn  Mn6  1  0.000000  0.000000  0.000000  1
  Cd  Cd7  1  0.251033  0.251033  0.251033  1
  Cd  Cd8  1  0.748967  0.748967  0.748967  1
  Ni  Ni9  1  0.500000  0.500000  0.500000  1
  O  O10  1  0.079230  0.275637  0.946395  1
  O  O11  1  0.946395  0.079230  0.275637  1
  O  O12  1  0.275637  0.946395  0.079230  1
  O  O13  1  0.421684  0.552388  0.228000  1
  O  O14  1  0.228000  0.421684  0.552388  1
  O  O15  1  0.552388  0.228000  0.421684  1
  O  O16  1  0.920770  0.724363  0.053605  1
  O  O17  1  0.053605  0.920770  0.724363  1
  O  O18  1  0.724363  0.053605  0.920770  1
  O  O19  1  0.578316  0.447612  0.772000  1
  O  O20  1  0.447612  0.772000  0.578316  1
  O  O21  1  0.772000  0.578316  0.447612  1
