# generated using pymatgen
data_Eu2CuRh3
_symmetry_space_group_name_H-M   'P 1'
_cell_length_a   5.46100023
_cell_length_b   5.30996267
_cell_length_c   5.46100100
_cell_angle_alpha   59.05452873
_cell_angle_beta   60.00000142
_cell_angle_gamma   59.05452824
_symmetry_Int_Tables_number   1
_chemical_formula_structural   Eu2CuRh3
_chemical_formula_sum   'Eu2 Cu1 Rh3'
_cell_volume   110.34797746
_cell_formula_units_Z   1
loop_
 _symmetry_equiv_pos_site_id
 _symmetry_equiv_pos_as_xyz
  1  'x, y, z'
loop_
 _atom_site_type_symbol
 _atom_site_label
 _atom_site_symmetry_multiplicity
 _atom_site_fract_x
 _atom_site_fract_y
 _atom_site_fract_z
 _atom_site_occupancy
  Eu  Eu0  1  0.250023  0.249931  0.250023  1
  Eu  Eu1  1  0.999977  0.000069  0.999977  1
  Cu  Cu2  1  0.625000  0.125000  0.625000  1
  Rh  Rh3  1  0.125000  0.625000  0.625000  1
  Rh  Rh4  1  0.625000  0.625000  0.125000  1
  Rh  Rh5  1  0.625000  0.625000  0.625000  1
