# generated using pymatgen
data_HoLu4Co19(SiP)6
_symmetry_space_group_name_H-M   'P 1'
_cell_length_a   12.02081800
_cell_length_b   12.02082007
_cell_length_c   3.65589300
_cell_angle_alpha   90.00000000
_cell_angle_beta   90.00000000
_cell_angle_gamma   120.00000531
_symmetry_Int_Tables_number   1
_chemical_formula_structural   HoLu4Co19(SiP)6
_chemical_formula_sum   'Ho1 Lu4 Co19 Si6 P6'
_cell_volume   457.50116399
_cell_formula_units_Z   1
loop_
 _symmetry_equiv_pos_site_id
 _symmetry_equiv_pos_as_xyz
  1  'x, y, z'
loop_
 _atom_site_type_symbol
 _atom_site_label
 _atom_site_symmetry_multiplicity
 _atom_site_fract_x
 _atom_site_fract_y
 _atom_site_fract_z
 _atom_site_occupancy
  Ho  Ho0  1  0.333333  0.666667  0.000000  1
  Lu  Lu1  1  0.666667  0.333333  0.000000  1
  Lu  Lu2  1  0.816256  0.816339  0.500000  1
  Lu  Lu3  1  0.183661  0.999917  0.500000  1
  Lu  Lu4  1  0.000083  0.183744  0.500000  1
  Co  Co5  1  0.877491  0.354266  0.500000  1
  Co  Co6  1  0.645734  0.523226  0.500000  1
  Co  Co7  1  0.476774  0.122509  0.500000  1
  Co  Co8  1  0.354391  0.878579  0.500000  1
  Co  Co9  1  0.524189  0.645609  0.500000  1
  Co  Co10  1  0.121421  0.475811  0.500000  1
  Co  Co11  1  0.447814  0.447836  0.000000  1
  Co  Co12  1  0.552164  0.999978  0.000000  1
  Co  Co13  1  0.000022  0.552186  0.000000  1
  Co  Co14  1  0.806438  0.178778  0.000000  1
  Co  Co15  1  0.821222  0.627660  0.000000  1
  Co  Co16  1  0.372340  0.193562  0.000000  1
  Co  Co17  1  0.178155  0.806958  0.000000  1
  Co  Co18  1  0.628803  0.821845  0.000000  1
  Co  Co19  1  0.193042  0.371197  0.000000  1
  Co  Co20  1  0.276975  0.276256  0.500000  1
  Co  Co21  1  0.723744  0.000720  0.500000  1
  Co  Co22  1  0.999280  0.723025  0.500000  1
  Co  Co23  1  0.000000  0.000000  0.000000  1
  Si  Si24  1  0.680542  0.159934  0.500000  1
  Si  Si25  1  0.840066  0.520608  0.500000  1
  Si  Si26  1  0.479392  0.319458  0.500000  1
  Si  Si27  1  0.158366  0.680570  0.500000  1
  Si  Si28  1  0.522205  0.841634  0.500000  1
  Si  Si29  1  0.319430  0.477795  0.500000  1
  P  P30  1  0.179462  0.179075  0.000000  1
  P  P31  1  0.820925  0.000387  0.000000  1
  P  P32  1  0.999613  0.820538  0.000000  1
  P  P33  1  0.633391  0.633300  0.000000  1
  P  P34  1  0.366700  0.000091  0.000000  1
  P  P35  1  0.999909  0.366609  0.000000  1
