# generated using pymatgen
data_Lu5Cd2(HgPt)2
_symmetry_space_group_name_H-M   'P 1'
_cell_length_a   3.54449300
_cell_length_b   7.88346500
_cell_length_c   18.12236300
_cell_angle_alpha   90.00000000
_cell_angle_beta   90.00000000
_cell_angle_gamma   90.00000000
_symmetry_Int_Tables_number   1
_chemical_formula_structural   Lu5Cd2(HgPt)2
_chemical_formula_sum   'Lu10 Cd4 Hg4 Pt4'
_cell_volume   506.39113257
_cell_formula_units_Z   2
loop_
 _symmetry_equiv_pos_site_id
 _symmetry_equiv_pos_as_xyz
  1  'x, y, z'
loop_
 _atom_site_type_symbol
 _atom_site_label
 _atom_site_symmetry_multiplicity
 _atom_site_fract_x
 _atom_site_fract_y
 _atom_site_fract_z
 _atom_site_occupancy
  Lu  Lu0  1  0.000000  0.110615  0.415073  1
  Lu  Lu1  1  0.000000  0.889385  0.584927  1
  Lu  Lu2  1  0.000000  0.389385  0.915073  1
  Lu  Lu3  1  0.000000  0.610615  0.084927  1
  Lu  Lu4  1  0.000000  0.244748  0.217296  1
  Lu  Lu5  1  0.000000  0.755252  0.782704  1
  Lu  Lu6  1  0.000000  0.255252  0.717296  1
  Lu  Lu7  1  0.000000  0.744748  0.282704  1
  Lu  Lu8  1  0.000000  0.000000  0.000000  1
  Lu  Lu9  1  0.000000  0.500000  0.500000  1
  Cd  Cd10  1  0.500000  0.423397  0.352975  1
  Cd  Cd11  1  0.500000  0.576603  0.647025  1
  Cd  Cd12  1  0.500000  0.076603  0.852975  1
  Cd  Cd13  1  0.500000  0.923397  0.147025  1
  Hg  Hg14  1  0.500000  0.284051  0.062575  1
  Hg  Hg15  1  0.500000  0.715949  0.937425  1
  Hg  Hg16  1  0.500000  0.215949  0.562575  1
  Hg  Hg17  1  0.500000  0.784051  0.437425  1
  Pt  Pt18  1  0.500000  0.031267  0.302970  1
  Pt  Pt19  1  0.500000  0.968733  0.697030  1
  Pt  Pt20  1  0.500000  0.468733  0.802970  1
  Pt  Pt21  1  0.500000  0.531267  0.197030  1
