# generated using pymatgen
data_Ho2B8OsRh
_symmetry_space_group_name_H-M   'P 1'
_cell_length_a   3.56466600
_cell_length_b   5.95409855
_cell_length_c   11.53323507
_cell_angle_alpha   90.04940762
_cell_angle_beta   90.00000000
_cell_angle_gamma   90.00000000
_symmetry_Int_Tables_number   1
_chemical_formula_structural   Ho2B8OsRh
_chemical_formula_sum   'Ho4 B16 Os2 Rh2'
_cell_volume   244.78558829
_cell_formula_units_Z   2
loop_
 _symmetry_equiv_pos_site_id
 _symmetry_equiv_pos_as_xyz
  1  'x, y, z'
loop_
 _atom_site_type_symbol
 _atom_site_label
 _atom_site_symmetry_multiplicity
 _atom_site_fract_x
 _atom_site_fract_y
 _atom_site_fract_z
 _atom_site_occupancy
  Ho  Ho0  1  0.500000  0.370534  0.149257  1
  Ho  Ho1  1  0.500000  0.629466  0.850743  1
  Ho  Ho2  1  0.500000  0.129854  0.649168  1
  Ho  Ho3  1  0.500000  0.870146  0.350832  1
  B  B4  1  0.000000  0.112648  0.047511  1
  B  B5  1  0.000000  0.887352  0.952489  1
  B  B6  1  0.000000  0.387424  0.546695  1
  B  B7  1  0.000000  0.612576  0.453305  1
  B  B8  1  0.000000  0.136129  0.470148  1
  B  B9  1  0.000000  0.863871  0.529852  1
  B  B10  1  0.000000  0.363290  0.970582  1
  B  B11  1  0.000000  0.636710  0.029418  1
  B  B12  1  0.000000  0.021620  0.193556  1
  B  B13  1  0.000000  0.978380  0.806444  1
  B  B14  1  0.000000  0.473923  0.691921  1
  B  B15  1  0.000000  0.526077  0.308079  1
  B  B16  1  0.000000  0.210425  0.313286  1
  B  B17  1  0.000000  0.789575  0.686714  1
  B  B18  1  0.000000  0.288688  0.812495  1
  B  B19  1  0.000000  0.711312  0.187505  1
  Os  Os20  1  0.500000  0.357620  0.406781  1
  Os  Os21  1  0.500000  0.642380  0.593219  1
  Rh  Rh22  1  0.500000  0.141566  0.904926  1
  Rh  Rh23  1  0.500000  0.858434  0.095074  1
