# generated using pymatgen
data_Cs2CuPO4
_symmetry_space_group_name_H-M   'P 1'
_cell_length_a   6.57710553
_cell_length_b   6.25804500
_cell_length_c   8.37713267
_cell_angle_alpha   90.00000000
_cell_angle_beta   99.98964468
_cell_angle_gamma   90.00000000
_symmetry_Int_Tables_number   1
_chemical_formula_structural   Cs2CuPO4
_chemical_formula_sum   'Cs4 Cu2 P2 O8'
_cell_volume   339.57380209
_cell_formula_units_Z   2
loop_
 _symmetry_equiv_pos_site_id
 _symmetry_equiv_pos_as_xyz
  1  'x, y, z'
loop_
 _atom_site_type_symbol
 _atom_site_label
 _atom_site_symmetry_multiplicity
 _atom_site_fract_x
 _atom_site_fract_y
 _atom_site_fract_z
 _atom_site_occupancy
  Cs  Cs0  1  0.085773  0.983970  0.172317  1
  Cs  Cs1  1  0.716632  0.967242  0.516779  1
  Cs  Cs2  1  0.283368  0.467243  0.483221  1
  Cs  Cs3  1  0.914228  0.483972  0.827683  1
  Cu  Cu4  1  0.547881  0.179575  0.997172  1
  Cu  Cu5  1  0.452119  0.679575  0.002827  1
  P  P6  1  0.733817  0.467290  0.270172  1
  P  P7  1  0.266183  0.967288  0.729829  1
  O  O8  1  0.921437  0.532371  0.193962  1
  O  O9  1  0.545968  0.627589  0.218668  1
  O  O10  1  0.658814  0.233140  0.210144  1
  O  O11  1  0.778221  0.461424  0.456869  1
  O  O12  1  0.221779  0.961423  0.543131  1
  O  O13  1  0.341184  0.733141  0.789855  1
  O  O14  1  0.454032  0.127588  0.781333  1
  O  O15  1  0.078564  0.032370  0.806037  1
