# generated using pymatgen
data_Zr8In17Ga3Ni4
_symmetry_space_group_name_H-M   'P 1'
_cell_length_a   10.10600603
_cell_length_b   10.10600603
_cell_length_c   6.63474300
_cell_angle_alpha   90.00000000
_cell_angle_beta   90.00000000
_cell_angle_gamma   90.13511503
_symmetry_Int_Tables_number   1
_chemical_formula_structural   Zr8In17Ga3Ni4
_chemical_formula_sum   'Zr8 In17 Ga3 Ni4'
_cell_volume   677.61342696
_cell_formula_units_Z   1
loop_
 _symmetry_equiv_pos_site_id
 _symmetry_equiv_pos_as_xyz
  1  'x, y, z'
loop_
 _atom_site_type_symbol
 _atom_site_label
 _atom_site_symmetry_multiplicity
 _atom_site_fract_x
 _atom_site_fract_y
 _atom_site_fract_z
 _atom_site_occupancy
  Zr  Zr0  1  0.192725  0.807275  0.001268  1
  Zr  Zr1  1  0.695119  0.695119  0.496004  1
  Zr  Zr2  1  0.159956  0.840044  0.500335  1
  Zr  Zr3  1  0.337506  0.337506  0.002051  1
  Zr  Zr4  1  0.807275  0.192725  0.001268  1
  Zr  Zr5  1  0.662494  0.662494  0.002051  1
  Zr  Zr6  1  0.840044  0.159956  0.500335  1
  Zr  Zr7  1  0.304881  0.304881  0.496004  1
  In  In8  1  0.199447  0.558292  0.728872  1
  In  In9  1  0.294530  0.059067  0.225342  1
  In  In10  1  0.441708  0.800553  0.728872  1
  In  In11  1  0.558613  0.202490  0.276915  1
  In  In12  1  0.800553  0.441708  0.728872  1
  In  In13  1  0.940047  0.705849  0.774465  1
  In  In14  1  0.797510  0.441387  0.276915  1
  In  In15  1  0.940933  0.705470  0.225342  1
  In  In16  1  0.294151  0.059953  0.774465  1
  In  In17  1  0.558292  0.199447  0.728872  1
  In  In18  1  0.059953  0.294151  0.774465  1
  In  In19  1  0.705470  0.940933  0.225342  1
  In  In20  1  0.202490  0.558613  0.276915  1
  In  In21  1  0.441387  0.797510  0.276915  1
  In  In22  1  0.059067  0.294530  0.225342  1
  In  In23  1  0.705849  0.940047  0.774465  1
  In  In24  1  0.500000  0.500000  0.685048  1
  Ga  Ga25  1  0.500000  0.500000  0.285442  1
  Ga  Ga26  1  0.000000  0.000000  0.805725  1
  Ga  Ga27  1  0.000000  0.000000  0.194844  1
  Ni  Ni28  1  0.100181  0.100181  0.499992  1
  Ni  Ni29  1  0.899819  0.899819  0.499992  1
  Ni  Ni30  1  0.609012  0.390988  0.003633  1
  Ni  Ni31  1  0.390988  0.609012  0.003633  1
