# generated using pymatgen
data_PaGaBr6
_symmetry_space_group_name_H-M   'P 1'
_cell_length_a   7.64956914
_cell_length_b   7.72583670
_cell_length_c   7.93323278
_cell_angle_alpha   90.14492518
_cell_angle_beta   118.09012044
_cell_angle_gamma   119.70902422
_symmetry_Int_Tables_number   1
_chemical_formula_structural   PaGaBr6
_chemical_formula_sum   'Pa1 Ga1 Br6'
_cell_volume   341.80621713
_cell_formula_units_Z   1
loop_
 _symmetry_equiv_pos_site_id
 _symmetry_equiv_pos_as_xyz
  1  'x, y, z'
loop_
 _atom_site_type_symbol
 _atom_site_label
 _atom_site_symmetry_multiplicity
 _atom_site_fract_x
 _atom_site_fract_y
 _atom_site_fract_z
 _atom_site_occupancy
  Pa  Pa0  1  0.578472  0.289835  0.867964  1
  Ga  Ga1  1  0.242712  0.623599  0.864426  1
  Br  Br2  1  0.456101  0.064441  0.104134  1
  Br  Br3  1  0.131436  0.208840  0.638240  1
  Br  Br4  1  0.714129  0.504413  0.632971  1
  Br  Br5  1  0.433732  0.926471  0.639901  1
  Br  Br6  1  0.707562  0.644612  0.100517  1
  Br  Br7  1  0.034854  0.387290  0.100345  1
