# generated using pymatgen
data_Dy8Nb11Si16Au
_symmetry_space_group_name_H-M   'P 1'
_cell_length_a   7.08142791
_cell_length_b   7.08142730
_cell_length_c   13.02611993
_cell_angle_alpha   89.72208788
_cell_angle_beta   90.27791482
_cell_angle_gamma   89.71938190
_symmetry_Int_Tables_number   1
_chemical_formula_structural   Dy8Nb11Si16Au
_chemical_formula_sum   'Dy8 Nb11 Si16 Au1'
_cell_volume   653.19256734
_cell_formula_units_Z   1
loop_
 _symmetry_equiv_pos_site_id
 _symmetry_equiv_pos_as_xyz
  1  'x, y, z'
loop_
 _atom_site_type_symbol
 _atom_site_label
 _atom_site_symmetry_multiplicity
 _atom_site_fract_x
 _atom_site_fract_y
 _atom_site_fract_z
 _atom_site_occupancy
  Dy  Dy0  1  0.998004  0.657759  0.033120  1
  Dy  Dy1  1  0.998561  0.345258  0.532353  1
  Dy  Dy2  1  0.657759  0.998004  0.966880  1
  Dy  Dy3  1  0.158686  0.503275  0.782728  1
  Dy  Dy4  1  0.842486  0.497397  0.284404  1
  Dy  Dy5  1  0.503275  0.158686  0.217272  1
  Dy  Dy6  1  0.497397  0.842486  0.715596  1
  Dy  Dy7  1  0.345258  0.998561  0.467647  1
  Nb  Nb8  1  0.347775  0.502835  0.377534  1
  Nb  Nb9  1  0.849330  0.992388  0.376318  1
  Nb  Nb10  1  0.008316  0.152013  0.126922  1
  Nb  Nb11  1  0.992388  0.849330  0.623682  1
  Nb  Nb12  1  0.502835  0.347775  0.622466  1
  Nb  Nb13  1  0.152013  0.008316  0.873078  1
  Nb  Nb14  1  0.828332  0.173611  0.749655  1
  Nb  Nb15  1  0.173611  0.828332  0.250345  1
  Nb  Nb16  1  0.328558  0.328558  0.000000  1
  Nb  Nb17  1  0.495063  0.650001  0.124111  1
  Nb  Nb18  1  0.650001  0.495063  0.875889  1
  Si  Si19  1  0.059621  0.712014  0.435502  1
  Si  Si20  1  0.953616  0.293764  0.936718  1
  Si  Si21  1  0.712014  0.059621  0.564498  1
  Si  Si22  1  0.207059  0.454906  0.187785  1
  Si  Si23  1  0.793079  0.545586  0.689826  1
  Si  Si24  1  0.454906  0.207059  0.812215  1
  Si  Si25  1  0.545586  0.793079  0.310174  1
  Si  Si26  1  0.293764  0.953616  0.063282  1
  Si  Si27  1  0.797953  0.864035  0.183608  1
  Si  Si28  1  0.281157  0.628534  0.571101  1
  Si  Si29  1  0.705882  0.365077  0.067829  1
  Si  Si30  1  0.628534  0.281157  0.428899  1
  Si  Si31  1  0.365077  0.705882  0.932171  1
  Si  Si32  1  0.134606  0.203183  0.318411  1
  Si  Si33  1  0.203183  0.134606  0.681589  1
  Si  Si34  1  0.864035  0.797953  0.816392  1
  Au  Au35  1  0.670283  0.670283  0.500000  1
