# generated using pymatgen
data_LiY19Cd6ReRu
_symmetry_space_group_name_H-M   'P 1'
_cell_length_a   9.54882900
_cell_length_b   9.54882833
_cell_length_c   9.88228500
_cell_angle_alpha   90.00000000
_cell_angle_beta   90.00000000
_cell_angle_gamma   119.99999887
_symmetry_Int_Tables_number   1
_chemical_formula_structural   LiY19Cd6ReRu
_chemical_formula_sum   'Li1 Y19 Cd6 Re1 Ru1'
_cell_volume   780.34780422
_cell_formula_units_Z   1
loop_
 _symmetry_equiv_pos_site_id
 _symmetry_equiv_pos_as_xyz
  1  'x, y, z'
loop_
 _atom_site_type_symbol
 _atom_site_label
 _atom_site_symmetry_multiplicity
 _atom_site_fract_x
 _atom_site_fract_y
 _atom_site_fract_z
 _atom_site_occupancy
  Li  Li0  1  0.000000  0.000000  0.499825  1
  Y  Y1  1  0.000000  0.000000  0.999717  1
  Y  Y2  1  0.208037  0.791963  0.441655  1
  Y  Y3  1  0.208037  0.416074  0.441655  1
  Y  Y4  1  0.583926  0.791963  0.441655  1
  Y  Y5  1  0.791751  0.208249  0.559607  1
  Y  Y6  1  0.791751  0.583502  0.559607  1
  Y  Y7  1  0.416498  0.208249  0.559607  1
  Y  Y8  1  0.789279  0.210721  0.941763  1
  Y  Y9  1  0.789279  0.578557  0.941763  1
  Y  Y10  1  0.421443  0.210721  0.941763  1
  Y  Y11  1  0.210311  0.789689  0.057144  1
  Y  Y12  1  0.210311  0.420623  0.057144  1
  Y  Y13  1  0.579377  0.789689  0.057144  1
  Y  Y14  1  0.539973  0.460027  0.252102  1
  Y  Y15  1  0.539973  0.079945  0.252102  1
  Y  Y16  1  0.920055  0.460027  0.252102  1
  Y  Y17  1  0.458267  0.541733  0.748095  1
  Y  Y18  1  0.458267  0.916536  0.748095  1
  Y  Y19  1  0.083464  0.541733  0.748095  1
  Cd  Cd20  1  0.888478  0.111522  0.258197  1
  Cd  Cd21  1  0.888478  0.776958  0.258197  1
  Cd  Cd22  1  0.223042  0.111522  0.258197  1
  Cd  Cd23  1  0.111206  0.888794  0.741727  1
  Cd  Cd24  1  0.111206  0.222409  0.741727  1
  Cd  Cd25  1  0.777591  0.888794  0.741727  1
  Re  Re26  1  0.333333  0.666667  0.249911  1
  Ru  Ru27  1  0.666667  0.333333  0.749675  1
