# generated using pymatgen
data_La4ZnGa24Co
_symmetry_space_group_name_H-M   'P 1'
_cell_length_a   6.19379000
_cell_length_b   6.19379000
_cell_length_c   15.54629200
_cell_angle_alpha   90.00000000
_cell_angle_beta   90.00000000
_cell_angle_gamma   90.00000000
_symmetry_Int_Tables_number   1
_chemical_formula_structural   La4ZnGa24Co
_chemical_formula_sum   'La4 Zn1 Ga24 Co1'
_cell_volume   596.40293734
_cell_formula_units_Z   1
loop_
 _symmetry_equiv_pos_site_id
 _symmetry_equiv_pos_as_xyz
  1  'x, y, z'
loop_
 _atom_site_type_symbol
 _atom_site_label
 _atom_site_symmetry_multiplicity
 _atom_site_fract_x
 _atom_site_fract_y
 _atom_site_fract_z
 _atom_site_occupancy
  La  La0  1  0.500000  0.000000  0.247486  1
  La  La1  1  0.000000  0.500000  0.241309  1
  La  La2  1  0.000000  0.500000  0.758691  1
  La  La3  1  0.500000  0.000000  0.752514  1
  Zn  Zn4  1  0.000000  0.500000  0.000000  1
  Ga  Ga5  1  0.500000  0.500000  0.818920  1
  Ga  Ga6  1  0.000000  0.000000  0.818920  1
  Ga  Ga7  1  0.737697  0.762303  0.915960  1
  Ga  Ga8  1  0.262747  0.762747  0.915648  1
  Ga  Ga9  1  0.000000  0.000000  0.342001  1
  Ga  Ga10  1  0.262303  0.762303  0.084040  1
  Ga  Ga11  1  0.827625  0.327625  0.570105  1
  Ga  Ga12  1  0.500000  0.500000  0.342001  1
  Ga  Ga13  1  0.262303  0.237697  0.915960  1
  Ga  Ga14  1  0.737253  0.762747  0.084352  1
  Ga  Ga15  1  0.326487  0.173513  0.569146  1
  Ga  Ga16  1  0.673513  0.173513  0.430854  1
  Ga  Ga17  1  0.000000  0.000000  0.657999  1
  Ga  Ga18  1  0.172375  0.327625  0.429895  1
  Ga  Ga19  1  0.262747  0.237253  0.084352  1
  Ga  Ga20  1  0.827625  0.672375  0.429895  1
  Ga  Ga21  1  0.673513  0.826487  0.569146  1
  Ga  Ga22  1  0.000000  0.000000  0.181080  1
  Ga  Ga23  1  0.172375  0.672375  0.570105  1
  Ga  Ga24  1  0.500000  0.500000  0.657999  1
  Ga  Ga25  1  0.737253  0.237253  0.915648  1
  Ga  Ga26  1  0.500000  0.500000  0.181080  1
  Ga  Ga27  1  0.326487  0.826487  0.430854  1
  Ga  Ga28  1  0.737697  0.237697  0.084040  1
  Co  Co29  1  0.500000  0.000000  0.000000  1
