# generated using pymatgen
data_TbCeEr4(Si3Ru)8
_symmetry_space_group_name_H-M   'P 1'
_cell_length_a   10.11463299
_cell_length_b   10.11463185
_cell_length_c   8.14731106
_cell_angle_alpha   90.10705246
_cell_angle_beta   89.89294996
_cell_angle_gamma   132.55786911
_symmetry_Int_Tables_number   1
_chemical_formula_structural   TbCeEr4(Si3Ru)8
_chemical_formula_sum   'Tb1 Ce1 Er4 Si24 Ru8'
_cell_volume   613.96291383
_cell_formula_units_Z   1
loop_
 _symmetry_equiv_pos_site_id
 _symmetry_equiv_pos_as_xyz
  1  'x, y, z'
loop_
 _atom_site_type_symbol
 _atom_site_label
 _atom_site_symmetry_multiplicity
 _atom_site_fract_x
 _atom_site_fract_y
 _atom_site_fract_z
 _atom_site_occupancy
  Tb  Tb0  1  0.003203  0.503203  0.750000  1
  Ce  Ce1  1  0.503651  0.003651  0.750000  1
  Er  Er2  1  0.500173  0.499987  0.499199  1
  Er  Er3  1  0.999987  0.000173  0.000801  1
  Er  Er4  1  0.997060  0.497060  0.250000  1
  Er  Er5  1  0.497739  0.997739  0.250000  1
  Si  Si6  1  0.793816  0.205406  0.498812  1
  Si  Si7  1  0.294555  0.705371  0.001068  1
  Si  Si8  1  0.205371  0.794555  0.498932  1
  Si  Si9  1  0.705406  0.293816  0.001188  1
  Si  Si10  1  0.331250  0.333515  0.832128  1
  Si  Si11  1  0.667252  0.667512  0.166984  1
  Si  Si12  1  0.167512  0.167252  0.333016  1
  Si  Si13  1  0.833515  0.831250  0.667872  1
  Si  Si14  1  0.122256  0.887321  0.729896  1
  Si  Si15  1  0.111290  0.878071  0.272667  1
  Si  Si16  1  0.614087  0.379851  0.226856  1
  Si  Si17  1  0.621891  0.386956  0.770703  1
  Si  Si18  1  0.879851  0.114087  0.273144  1
  Si  Si19  1  0.886956  0.121891  0.729297  1
  Si  Si20  1  0.387321  0.622256  0.770104  1
  Si  Si21  1  0.378071  0.611290  0.227333  1
  Si  Si22  1  0.346066  0.111906  0.503949  1
  Si  Si23  1  0.889079  0.655674  0.493491  1
  Si  Si24  1  0.388373  0.153562  0.004861  1
  Si  Si25  1  0.844140  0.610800  0.997087  1
  Si  Si26  1  0.653562  0.888373  0.495139  1
  Si  Si27  1  0.110800  0.344140  0.502913  1
  Si  Si28  1  0.611906  0.846066  0.996051  1
  Si  Si29  1  0.155674  0.389079  0.006509  1
  Ru  Ru30  1  0.670214  0.334105  0.496827  1
  Ru  Ru31  1  0.166501  0.829694  0.003545  1
  Ru  Ru32  1  0.329694  0.666501  0.496455  1
  Ru  Ru33  1  0.834105  0.170214  0.003173  1
  Ru  Ru34  1  0.125501  0.125941  0.627118  1
  Ru  Ru35  1  0.872316  0.873911  0.374121  1
  Ru  Ru36  1  0.373911  0.372316  0.125879  1
  Ru  Ru37  1  0.625941  0.625501  0.872882  1
