# generated using pymatgen
data_Ca2LaTm(Ru2O7)2
_symmetry_space_group_name_H-M   'P 1'
_cell_length_a   7.31999374
_cell_length_b   7.26623355
_cell_length_c   7.28738792
_cell_angle_alpha   60.09597738
_cell_angle_beta   60.31847558
_cell_angle_gamma   60.24264283
_symmetry_Int_Tables_number   1
_chemical_formula_structural   Ca2LaTm(Ru2O7)2
_chemical_formula_sum   'Ca2 La1 Tm1 Ru4 O14'
_cell_volume   275.43680953
_cell_formula_units_Z   1
loop_
 _symmetry_equiv_pos_site_id
 _symmetry_equiv_pos_as_xyz
  1  'x, y, z'
loop_
 _atom_site_type_symbol
 _atom_site_label
 _atom_site_symmetry_multiplicity
 _atom_site_fract_x
 _atom_site_fract_y
 _atom_site_fract_z
 _atom_site_occupancy
  Ca  Ca0  1  0.625000  0.125000  0.625000  1
  Ca  Ca1  1  0.625000  0.625000  0.625000  1
  La  La2  1  0.625000  0.625000  0.125000  1
  Tm  Tm3  1  0.125000  0.625000  0.625000  1
  Ru  Ru4  1  0.625000  0.125000  0.125000  1
  Ru  Ru5  1  0.125000  0.625000  0.125000  1
  Ru  Ru6  1  0.125000  0.125000  0.625000  1
  Ru  Ru7  1  0.125000  0.125000  0.125000  1
  O  O8  1  0.191918  0.206024  0.801451  1
  O  O9  1  0.194657  0.796017  0.213310  1
  O  O10  1  0.449184  0.053384  0.045423  1
  O  O11  1  0.191918  0.800607  0.801451  1
  O  O12  1  0.058082  0.449393  0.448549  1
  O  O13  1  0.800816  0.797990  0.204577  1
  O  O14  1  0.449184  0.452010  0.045423  1
  O  O15  1  0.482420  0.503284  0.511011  1
  O  O16  1  0.058082  0.043976  0.448549  1
  O  O17  1  0.443837  0.056337  0.443489  1
  O  O18  1  0.055343  0.453983  0.036690  1
  O  O19  1  0.767580  0.746716  0.738989  1
  O  O20  1  0.806163  0.193663  0.806511  1
  O  O21  1  0.800816  0.196616  0.204577  1
