# generated using pymatgen
data_Nd3Sm(Ga5Au3)2
_symmetry_space_group_name_H-M   'P 1'
_cell_length_a   8.84713964
_cell_length_b   8.84529435
_cell_length_c   8.84529500
_cell_angle_alpha   138.92774552
_cell_angle_beta   106.53114397
_cell_angle_gamma   87.79532468
_symmetry_Int_Tables_number   1
_chemical_formula_structural   Nd3Sm(Ga5Au3)2
_chemical_formula_sum   'Nd3 Sm1 Ga10 Au6'
_cell_volume   418.60564940
_cell_formula_units_Z   1
loop_
 _symmetry_equiv_pos_site_id
 _symmetry_equiv_pos_as_xyz
  1  'x, y, z'
loop_
 _atom_site_type_symbol
 _atom_site_label
 _atom_site_symmetry_multiplicity
 _atom_site_fract_x
 _atom_site_fract_y
 _atom_site_fract_z
 _atom_site_occupancy
  Nd  Nd0  1  0.630634  0.372881  0.257753  1
  Nd  Nd1  1  0.369519  0.627072  0.742447  1
  Nd  Nd2  1  0.114750  0.872749  0.242001  1
  Sm  Sm3  1  0.884991  0.127747  0.757244  1
  Ga  Ga4  1  0.268150  0.518487  0.250556  1
  Ga  Ga5  1  0.731370  0.481148  0.749634  1
  Ga  Ga6  1  0.731370  0.981736  0.250222  1
  Ga  Ga7  1  0.268150  0.017593  0.749662  1
  Ga  Ga8  1  0.469790  0.116260  0.353531  1
  Ga  Ga9  1  0.531145  0.884295  0.646850  1
  Ga  Ga10  1  0.762672  0.616503  0.146170  1
  Ga  Ga11  1  0.237121  0.383118  0.854004  1
  Ga  Ga12  1  0.000077  0.250772  0.250287  1
  Ga  Ga13  1  0.000077  0.749790  0.749306  1
  Au  Au14  1  0.250488  0.134109  0.116380  1
  Au  Au15  1  0.749950  0.866046  0.883903  1
  Au  Au16  1  0.017020  0.634307  0.382712  1
  Au  Au17  1  0.981984  0.365216  0.616767  1
  Au  Au18  1  0.500370  0.250042  0.750243  1
  Au  Au19  1  0.500370  0.750127  0.250327  1
