# generated using pymatgen
data_Ti8Mn3CuOs4
_symmetry_space_group_name_H-M   'P 1'
_cell_length_a   6.12548900
_cell_length_b   4.31173200
_cell_length_c   8.64637400
_cell_angle_alpha   90.00000000
_cell_angle_beta   90.00009315
_cell_angle_gamma   90.00000000
_symmetry_Int_Tables_number   1
_chemical_formula_structural   Ti8Mn3CuOs4
_chemical_formula_sum   'Ti8 Mn3 Cu1 Os4'
_cell_volume   228.36342103
_cell_formula_units_Z   1
loop_
 _symmetry_equiv_pos_site_id
 _symmetry_equiv_pos_as_xyz
  1  'x, y, z'
loop_
 _atom_site_type_symbol
 _atom_site_label
 _atom_site_symmetry_multiplicity
 _atom_site_fract_x
 _atom_site_fract_y
 _atom_site_fract_z
 _atom_site_occupancy
  Ti  Ti0  1  0.009716  0.749999  0.124969  1
  Ti  Ti1  1  0.490303  0.749999  0.124974  1
  Ti  Ti2  1  0.003367  0.250000  0.379838  1
  Ti  Ti3  1  0.496659  0.250000  0.379846  1
  Ti  Ti4  1  0.501303  0.749999  0.625016  1
  Ti  Ti5  1  0.998675  0.749999  0.625018  1
  Ti  Ti6  1  0.496592  0.250000  0.870173  1
  Ti  Ti7  1  0.003395  0.250000  0.870177  1
  Mn  Mn8  1  0.249999  0.749999  0.373465  1
  Mn  Mn9  1  0.750004  0.250000  0.624992  1
  Mn  Mn10  1  0.249977  0.749999  0.876529  1
  Cu  Cu11  1  0.750012  0.250000  0.125003  1
  Os  Os12  1  0.249990  0.250000  0.125018  1
  Os  Os13  1  0.750021  0.749999  0.372761  1
  Os  Os14  1  0.249986  0.250000  0.624978  1
  Os  Os15  1  0.750003  0.749999  0.877241  1
