# generated using pymatgen
data_K5Ca6Al12TlF54
_symmetry_space_group_name_H-M   'P 1'
_cell_length_a   7.27437343
_cell_length_b   7.27437292
_cell_length_c   23.06284604
_cell_angle_alpha   90.04805996
_cell_angle_beta   90.04805899
_cell_angle_gamma   119.72652957
_symmetry_Int_Tables_number   1
_chemical_formula_structural   K5Ca6Al12TlF54
_chemical_formula_sum   'K5 Ca6 Al12 Tl1 F54'
_cell_volume   1059.80085875
_cell_formula_units_Z   1
loop_
 _symmetry_equiv_pos_site_id
 _symmetry_equiv_pos_as_xyz
  1  'x, y, z'
loop_
 _atom_site_type_symbol
 _atom_site_label
 _atom_site_symmetry_multiplicity
 _atom_site_fract_x
 _atom_site_fract_y
 _atom_site_fract_z
 _atom_site_occupancy
  K  K0  1  0.965084  0.006798  0.082594  1
  K  K1  1  0.988657  0.011343  0.750000  1
  K  K2  1  0.005760  0.964499  0.916540  1
  K  K3  1  0.993202  0.034916  0.417406  1
  K  K4  1  0.035501  0.994240  0.583460  1
  Ca  Ca5  1  0.500038  0.988173  0.833307  1
  Ca  Ca6  1  0.515633  0.515332  0.500473  1
  Ca  Ca7  1  0.988562  0.502014  0.165986  1
  Ca  Ca8  1  0.484668  0.484367  0.999527  1
  Ca  Ca9  1  0.011827  0.499962  0.666693  1
  Ca  Ca10  1  0.497986  0.011438  0.334014  1
  Al  Al11  1  0.001235  0.484006  0.836261  1
  Al  Al12  1  0.520272  0.017288  0.503459  1
  Al  Al13  1  0.982712  0.479728  0.996541  1
  Al  Al14  1  0.485559  0.001958  0.163069  1
  Al  Al15  1  0.496336  0.512668  0.330821  1
  Al  Al16  1  0.998042  0.514441  0.336931  1
  Al  Al17  1  0.479701  0.982659  0.002857  1
  Al  Al18  1  0.017341  0.520299  0.497143  1
  Al  Al19  1  0.487332  0.503664  0.169179  1
  Al  Al20  1  0.512712  0.496971  0.669976  1
  Al  Al21  1  0.503029  0.487288  0.830024  1
  Al  Al22  1  0.515994  0.998765  0.663739  1
  Tl  Tl23  1  0.009017  0.990983  0.250000  1
  F  F24  1  0.462001  0.523320  0.092558  1
  F  F25  1  0.227300  0.338900  0.665534  1
  F  F26  1  0.797071  0.657606  0.678024  1
  F  F27  1  0.522199  0.461195  0.906502  1
  F  F28  1  0.245488  0.716084  0.010110  1
  F  F29  1  0.418821  0.969439  0.926642  1
  F  F30  1  0.486640  0.513360  0.750000  1
  F  F31  1  0.884283  0.669902  0.483298  1
  F  F32  1  0.476680  0.537999  0.407442  1
  F  F33  1  0.203438  0.348410  0.176180  1
  F  F34  1  0.796003  0.132470  0.648035  1
  F  F35  1  0.538805  0.477801  0.593498  1
  F  F36  1  0.754369  0.284197  0.510761  1
  F  F37  1  0.638767  0.857286  0.992948  1
  F  F38  1  0.267088  0.514675  0.844127  1
  F  F39  1  0.006845  0.464073  0.417119  1
  F  F40  1  0.736230  0.492766  0.344281  1
  F  F41  1  0.580700  0.030172  0.427343  1
  F  F42  1  0.233497  0.871945  0.675153  1
  F  F43  1  0.512205  0.487795  0.250000  1
  F  F44  1  0.507234  0.263770  0.155719  1
  F  F45  1  0.670114  0.884442  0.517240  1
  F  F46  1  0.128055  0.766503  0.824847  1
  F  F47  1  0.988025  0.563961  0.260554  1
  F  F48  1  0.740020  0.459106  0.821893  1
  F  F49  1  0.867530  0.203997  0.851965  1
  F  F50  1  0.485325  0.732912  0.655873  1
  F  F51  1  0.651590  0.796562  0.323820  1
  F  F52  1  0.772163  0.656483  0.164045  1
  F  F53  1  0.866278  0.231451  0.326954  1
  F  F54  1  0.540894  0.259980  0.678107  1
  F  F55  1  0.283916  0.754512  0.489890  1
  F  F56  1  0.715803  0.245631  0.989239  1
  F  F57  1  0.135353  0.794315  0.352675  1
  F  F58  1  0.969828  0.419300  0.072657  1
  F  F59  1  0.992680  0.535587  0.916387  1
  F  F60  1  0.330098  0.115717  0.016702  1
  F  F61  1  0.464413  0.007320  0.583613  1
  F  F62  1  0.030561  0.581179  0.573358  1
  F  F63  1  0.011421  0.429021  0.760348  1
  F  F64  1  0.768549  0.133722  0.173046  1
  F  F65  1  0.661100  0.772700  0.834466  1
  F  F66  1  0.361071  0.142536  0.493545  1
  F  F67  1  0.343517  0.227837  0.335955  1
  F  F68  1  0.857464  0.638929  0.006455  1
  F  F69  1  0.467366  0.744296  0.177509  1
  F  F70  1  0.342394  0.202929  0.821976  1
  F  F71  1  0.115558  0.329886  0.982760  1
  F  F72  1  0.142714  0.361233  0.507052  1
  F  F73  1  0.205685  0.864647  0.147325  1
  F  F74  1  0.436039  0.011975  0.239446  1
  F  F75  1  0.570979  0.988579  0.739652  1
  F  F76  1  0.535927  0.993155  0.082881  1
  F  F77  1  0.255704  0.532634  0.322491  1
