# generated using pymatgen
data_Ca5Yb(ErP3)2
_symmetry_space_group_name_H-M   'P 1'
_cell_length_a   7.35421551
_cell_length_b   7.53474499
_cell_length_c   7.53632600
_cell_angle_alpha   109.94999340
_cell_angle_beta   108.98595694
_cell_angle_gamma   108.98047822
_symmetry_Int_Tables_number   1
_chemical_formula_structural   Ca5Yb(ErP3)2
_chemical_formula_sum   'Ca5 Yb1 Er2 P6'
_cell_volume   323.40620978
_cell_formula_units_Z   1
loop_
 _symmetry_equiv_pos_site_id
 _symmetry_equiv_pos_as_xyz
  1  'x, y, z'
loop_
 _atom_site_type_symbol
 _atom_site_label
 _atom_site_symmetry_multiplicity
 _atom_site_fract_x
 _atom_site_fract_y
 _atom_site_fract_z
 _atom_site_occupancy
  Ca  Ca0  1  0.500633  0.997975  0.632912  1
  Ca  Ca1  1  0.367370  0.365027  0.367923  1
  Ca  Ca2  1  0.504004  0.002831  0.135688  1
  Ca  Ca3  1  0.003001  0.635240  0.502636  1
  Ca  Ca4  1  0.867659  0.867373  0.865005  1
  Yb  Yb5  1  0.000376  0.132270  0.497326  1
  Er  Er6  1  0.126848  0.499259  0.998693  1
  Er  Er7  1  0.627263  0.499921  0.999755  1
  P  P8  1  0.376629  0.620192  0.760137  1
  P  P9  1  0.878307  0.260481  0.121995  1
  P  P10  1  0.618180  0.740840  0.361342  1
  P  P11  1  0.116975  0.860977  0.239882  1
  P  P12  1  0.256097  0.139194  0.878097  1
  P  P13  1  0.756660  0.378420  0.638609  1
