# generated using pymatgen
data_Yb3(SmSn2)2
_symmetry_space_group_name_H-M   'P 1'
_cell_length_a   7.93008100
_cell_length_b   8.49663400
_cell_length_c   16.21810900
_cell_angle_alpha   90.00000000
_cell_angle_beta   90.00000000
_cell_angle_gamma   90.00000000
_symmetry_Int_Tables_number   1
_chemical_formula_structural   Yb3(SmSn2)2
_chemical_formula_sum   'Yb12 Sm8 Sn16'
_cell_volume   1092.75989896
_cell_formula_units_Z   4
loop_
 _symmetry_equiv_pos_site_id
 _symmetry_equiv_pos_as_xyz
  1  'x, y, z'
loop_
 _atom_site_type_symbol
 _atom_site_label
 _atom_site_symmetry_multiplicity
 _atom_site_fract_x
 _atom_site_fract_y
 _atom_site_fract_z
 _atom_site_occupancy
  Yb  Yb0  1  0.506364  0.689041  0.593307  1
  Yb  Yb1  1  0.006364  0.810959  0.906693  1
  Yb  Yb2  1  0.493636  0.310959  0.093307  1
  Yb  Yb3  1  0.993636  0.189041  0.406693  1
  Yb  Yb4  1  0.493636  0.310959  0.406693  1
  Yb  Yb5  1  0.993636  0.189041  0.093307  1
  Yb  Yb6  1  0.506364  0.689041  0.906693  1
  Yb  Yb7  1  0.006364  0.810959  0.593307  1
  Yb  Yb8  1  0.839684  0.510854  0.750000  1
  Yb  Yb9  1  0.339684  0.989146  0.750000  1
  Yb  Yb10  1  0.160316  0.489146  0.250000  1
  Yb  Yb11  1  0.660316  0.010854  0.250000  1
  Sm  Sm12  1  0.673756  0.167370  0.622157  1
  Sm  Sm13  1  0.173756  0.332630  0.877843  1
  Sm  Sm14  1  0.326244  0.832630  0.122157  1
  Sm  Sm15  1  0.826244  0.667370  0.377843  1
  Sm  Sm16  1  0.326244  0.832630  0.377843  1
  Sm  Sm17  1  0.826244  0.667370  0.122157  1
  Sm  Sm18  1  0.673756  0.167370  0.877843  1
  Sm  Sm19  1  0.173756  0.332630  0.622157  1
  Sn  Sn20  1  0.669991  0.966436  0.458805  1
  Sn  Sn21  1  0.169991  0.533564  0.041195  1
  Sn  Sn22  1  0.330009  0.033564  0.958805  1
  Sn  Sn23  1  0.830009  0.466436  0.541195  1
  Sn  Sn24  1  0.330009  0.033564  0.541195  1
  Sn  Sn25  1  0.830009  0.466436  0.958805  1
  Sn  Sn26  1  0.669991  0.966436  0.041195  1
  Sn  Sn27  1  0.169991  0.533564  0.458805  1
  Sn  Sn28  1  0.472969  0.381881  0.750000  1
  Sn  Sn29  1  0.972969  0.118119  0.750000  1
  Sn  Sn30  1  0.527031  0.618119  0.250000  1
  Sn  Sn31  1  0.027031  0.881881  0.250000  1
  Sn  Sn32  1  0.718145  0.870320  0.750000  1
  Sn  Sn33  1  0.218145  0.629680  0.750000  1
  Sn  Sn34  1  0.281855  0.129680  0.250000  1
  Sn  Sn35  1  0.781855  0.370320  0.250000  1
