# generated using pymatgen
data_Ca3LaRu3RhO14
_symmetry_space_group_name_H-M   'P 1'
_cell_length_a   7.30665480
_cell_length_b   7.30113073
_cell_length_c   7.30113057
_cell_angle_alpha   60.29266612
_cell_angle_beta   60.44557883
_cell_angle_gamma   60.44557154
_symmetry_Int_Tables_number   1
_chemical_formula_structural   Ca3LaRu3RhO14
_chemical_formula_sum   'Ca3 La1 Ru3 Rh1 O14'
_cell_volume   277.86914040
_cell_formula_units_Z   1
loop_
 _symmetry_equiv_pos_site_id
 _symmetry_equiv_pos_as_xyz
  1  'x, y, z'
loop_
 _atom_site_type_symbol
 _atom_site_label
 _atom_site_symmetry_multiplicity
 _atom_site_fract_x
 _atom_site_fract_y
 _atom_site_fract_z
 _atom_site_occupancy
  Ca  Ca0  1  0.625000  0.125000  0.625000  1
  Ca  Ca1  1  0.625000  0.625000  0.125000  1
  Ca  Ca2  1  0.625000  0.625000  0.625000  1
  La  La3  1  0.125000  0.625000  0.625000  1
  Ru  Ru4  1  0.625000  0.125000  0.125000  1
  Ru  Ru5  1  0.125000  0.625000  0.125000  1
  Ru  Ru6  1  0.125000  0.125000  0.625000  1
  Rh  Rh7  1  0.125000  0.125000  0.125000  1
  O  O8  1  0.205411  0.195714  0.795829  1
  O  O9  1  0.205411  0.795829  0.195714  1
  O  O10  1  0.450374  0.052928  0.052928  1
  O  O11  1  0.204003  0.802303  0.802303  1
  O  O12  1  0.045997  0.447697  0.447697  1
  O  O13  1  0.810155  0.808786  0.192475  1
  O  O14  1  0.439845  0.441214  0.057525  1
  O  O15  1  0.503249  0.499156  0.499156  1
  O  O16  1  0.044589  0.054286  0.454171  1
  O  O17  1  0.439845  0.057525  0.441214  1
  O  O18  1  0.044589  0.454171  0.054286  1
  O  O19  1  0.746751  0.750844  0.750844  1
  O  O20  1  0.810155  0.192475  0.808786  1
  O  O21  1  0.799626  0.197072  0.197072  1
