# generated using pymatgen
data_CaEr2(B3Ir4)2
_symmetry_space_group_name_H-M   'P 1'
_cell_length_a   9.95203006
_cell_length_b   9.11370623
_cell_length_c   5.59017800
_cell_angle_alpha   81.38294161
_cell_angle_beta   64.88076314
_cell_angle_gamma   33.73630659
_symmetry_Int_Tables_number   1
_chemical_formula_structural   CaEr2(B3Ir4)2
_chemical_formula_sum   'Ca1 Er2 B6 Ir8'
_cell_volume   233.21687959
_cell_formula_units_Z   1
loop_
 _symmetry_equiv_pos_site_id
 _symmetry_equiv_pos_as_xyz
  1  'x, y, z'
loop_
 _atom_site_type_symbol
 _atom_site_label
 _atom_site_symmetry_multiplicity
 _atom_site_fract_x
 _atom_site_fract_y
 _atom_site_fract_z
 _atom_site_occupancy
  Ca  Ca0  1  0.680031  0.680031  0.319969  1
  Er  Er1  1  0.321765  0.321765  0.678235  1
  Er  Er2  1  0.502926  0.502926  0.497074  1
  B  B3  1  0.672125  0.979229  0.020771  1
  B  B4  1  0.979229  0.672125  0.327875  1
  B  B5  1  0.325979  0.020620  0.979380  1
  B  B6  1  0.020620  0.325979  0.674021  1
  B  B7  1  0.169112  0.830931  0.169069  1
  B  B8  1  0.830931  0.169112  0.830888  1
  Ir  Ir9  1  0.585713  0.585713  0.914287  1
  Ir  Ir10  1  0.912959  0.912959  0.087041  1
  Ir  Ir11  1  0.414392  0.414392  0.085608  1
  Ir  Ir12  1  0.085713  0.085713  0.414287  1
  Ir  Ir13  1  0.914392  0.914392  0.585608  1
  Ir  Ir14  1  0.249760  0.249760  0.250240  1
  Ir  Ir15  1  0.084591  0.084591  0.915409  1
  Ir  Ir16  1  0.749760  0.749760  0.750240  1
