# generated using pymatgen
data_TmTi(SnRh)2
_symmetry_space_group_name_H-M   'P 1'
_cell_length_a   7.42616600
_cell_length_b   7.42616565
_cell_length_c   7.26223500
_cell_angle_alpha   90.00000000
_cell_angle_beta   90.00000000
_cell_angle_gamma   120.00000158
_symmetry_Int_Tables_number   1
_chemical_formula_structural   TmTi(SnRh)2
_chemical_formula_sum   'Tm3 Ti3 Sn6 Rh6'
_cell_volume   346.84082312
_cell_formula_units_Z   3
loop_
 _symmetry_equiv_pos_site_id
 _symmetry_equiv_pos_as_xyz
  1  'x, y, z'
loop_
 _atom_site_type_symbol
 _atom_site_label
 _atom_site_symmetry_multiplicity
 _atom_site_fract_x
 _atom_site_fract_y
 _atom_site_fract_z
 _atom_site_occupancy
  Tm  Tm0  1  0.999876  0.403591  0.750000  1
  Tm  Tm1  1  0.596409  0.596286  0.750000  1
  Tm  Tm2  1  0.403714  0.000124  0.750000  1
  Ti  Ti3  1  0.999279  0.389904  0.250000  1
  Ti  Ti4  1  0.610096  0.609376  0.250000  1
  Ti  Ti5  1  0.390624  0.000721  0.250000  1
  Sn  Sn6  1  0.272023  0.272425  0.487910  1
  Sn  Sn7  1  0.000402  0.727977  0.487910  1
  Sn  Sn8  1  0.000402  0.727977  0.012090  1
  Sn  Sn9  1  0.727575  0.999598  0.487910  1
  Sn  Sn10  1  0.727575  0.999598  0.012090  1
  Sn  Sn11  1  0.272023  0.272425  0.012090  1
  Rh  Rh12  1  0.333333  0.666667  0.454148  1
  Rh  Rh13  1  0.666667  0.333333  0.454944  1
  Rh  Rh14  1  0.333333  0.666667  0.045852  1
  Rh  Rh15  1  0.000000  0.000000  0.750000  1
  Rh  Rh16  1  0.000000  0.000000  0.250000  1
  Rh  Rh17  1  0.666667  0.333333  0.045056  1
