# generated using pymatgen
data_PrDy3(CuP)6
_symmetry_space_group_name_H-M   'P 1'
_cell_length_a   3.90323300
_cell_length_b   10.76109400
_cell_length_c   13.00233900
_cell_angle_alpha   90.00000000
_cell_angle_beta   90.00000000
_cell_angle_gamma   90.00000000
_symmetry_Int_Tables_number   1
_chemical_formula_structural   PrDy3(CuP)6
_chemical_formula_sum   'Pr2 Dy6 Cu12 P12'
_cell_volume   546.13798897
_cell_formula_units_Z   2
loop_
 _symmetry_equiv_pos_site_id
 _symmetry_equiv_pos_as_xyz
  1  'x, y, z'
loop_
 _atom_site_type_symbol
 _atom_site_label
 _atom_site_symmetry_multiplicity
 _atom_site_fract_x
 _atom_site_fract_y
 _atom_site_fract_z
 _atom_site_occupancy
  Pr  Pr0  1  0.250000  0.931427  0.793211  1
  Pr  Pr1  1  0.750000  0.431427  0.706789  1
  Dy  Dy2  1  0.250000  0.569677  0.292605  1
  Dy  Dy3  1  0.750000  0.069677  0.207395  1
  Dy  Dy4  1  0.250000  0.841106  0.500697  1
  Dy  Dy5  1  0.750000  0.341106  0.999303  1
  Dy  Dy6  1  0.250000  0.657416  0.004335  1
  Dy  Dy7  1  0.750000  0.157416  0.495665  1
  Cu  Cu8  1  0.250000  0.401934  0.510732  1
  Cu  Cu9  1  0.750000  0.901934  0.989268  1
  Cu  Cu10  1  0.250000  0.097857  0.014573  1
  Cu  Cu11  1  0.750000  0.597857  0.485427  1
  Cu  Cu12  1  0.250000  0.272972  0.331656  1
  Cu  Cu13  1  0.750000  0.772972  0.168344  1
  Cu  Cu14  1  0.250000  0.228757  0.833244  1
  Cu  Cu15  1  0.750000  0.728757  0.666756  1
  Cu  Cu16  1  0.250000  0.860456  0.279059  1
  Cu  Cu17  1  0.750000  0.360456  0.220941  1
  Cu  Cu18  1  0.250000  0.640441  0.781106  1
  Cu  Cu19  1  0.750000  0.140441  0.718894  1
  P  P20  1  0.250000  0.235671  0.642096  1
  P  P21  1  0.750000  0.735671  0.857904  1
  P  P22  1  0.250000  0.258976  0.144553  1
  P  P23  1  0.750000  0.758976  0.355447  1
  P  P24  1  0.250000  0.607173  0.599043  1
  P  P25  1  0.750000  0.107173  0.900957  1
  P  P26  1  0.250000  0.896130  0.100313  1
  P  P27  1  0.750000  0.396130  0.399687  1
  P  P28  1  0.250000  0.057490  0.367705  1
  P  P29  1  0.750000  0.557490  0.132295  1
  P  P30  1  0.250000  0.442517  0.874317  1
  P  P31  1  0.750000  0.942517  0.625683  1
