# generated using pymatgen
data_ScU2(GaRu)3
_symmetry_space_group_name_H-M   'P 1'
_cell_length_a   6.84715500
_cell_length_b   7.05622443
_cell_length_c   3.83607200
_cell_angle_alpha   90.00000000
_cell_angle_beta   90.00000000
_cell_angle_gamma   119.02461005
_symmetry_Int_Tables_number   1
_chemical_formula_structural   ScU2(GaRu)3
_chemical_formula_sum   'Sc1 U2 Ga3 Ru3'
_cell_volume   162.06345742
_cell_formula_units_Z   1
loop_
 _symmetry_equiv_pos_site_id
 _symmetry_equiv_pos_as_xyz
  1  'x, y, z'
loop_
 _atom_site_type_symbol
 _atom_site_label
 _atom_site_symmetry_multiplicity
 _atom_site_fract_x
 _atom_site_fract_y
 _atom_site_fract_z
 _atom_site_occupancy
  Sc  Sc0  1  0.410892  0.000000  0.500000  1
  U  U1  1  0.997315  0.409704  0.500000  1
  U  U2  1  0.587612  0.590296  0.500000  1
  Ga  Ga3  1  0.721372  0.000000  0.000000  1
  Ga  Ga4  1  0.028186  0.775315  0.000000  1
  Ga  Ga5  1  0.252871  0.224685  0.000000  1
  Ru  Ru6  1  0.327829  0.626386  0.000000  1
  Ru  Ru7  1  0.701444  0.373614  0.000000  1
  Ru  Ru8  1  0.972480  0.000000  0.500000  1
