# generated using pymatgen
data_LaAl10TcIr
_symmetry_space_group_name_H-M   'P 1'
_cell_length_a   6.93688233
_cell_length_b   6.93948895
_cell_length_c   9.25400500
_cell_angle_alpha   90.00000000
_cell_angle_beta   90.00000000
_cell_angle_gamma   96.67143999
_symmetry_Int_Tables_number   1
_chemical_formula_structural   LaAl10TcIr
_chemical_formula_sum   'La2 Al20 Tc2 Ir2'
_cell_volume   442.45672313
_cell_formula_units_Z   2
loop_
 _symmetry_equiv_pos_site_id
 _symmetry_equiv_pos_as_xyz
  1  'x, y, z'
loop_
 _atom_site_type_symbol
 _atom_site_label
 _atom_site_symmetry_multiplicity
 _atom_site_fract_x
 _atom_site_fract_y
 _atom_site_fract_z
 _atom_site_occupancy
  La  La0  1  0.871273  0.119193  0.750000  1
  La  La1  1  0.128727  0.880807  0.250000  1
  Al  Al2  1  0.590540  0.861013  0.250000  1
  Al  Al3  1  0.778134  0.518010  0.250000  1
  Al  Al4  1  0.161392  0.839080  0.897743  1
  Al  Al5  1  0.409460  0.138987  0.750000  1
  Al  Al6  1  0.619256  0.376382  0.950763  1
  Al  Al7  1  0.838608  0.160920  0.397743  1
  Al  Al8  1  0.771451  0.774356  0.999064  1
  Al  Al9  1  0.860236  0.591966  0.750000  1
  Al  Al10  1  0.838608  0.160920  0.102257  1
  Al  Al11  1  0.221866  0.481990  0.750000  1
  Al  Al12  1  0.161392  0.839080  0.602257  1
  Al  Al13  1  0.771451  0.774356  0.500936  1
  Al  Al14  1  0.483435  0.222380  0.250000  1
  Al  Al15  1  0.619256  0.376382  0.549237  1
  Al  Al16  1  0.228549  0.225644  0.499064  1
  Al  Al17  1  0.380744  0.623618  0.450763  1
  Al  Al18  1  0.139764  0.408034  0.250000  1
  Al  Al19  1  0.516565  0.777620  0.750000  1
  Al  Al20  1  0.380744  0.623618  0.049237  1
  Al  Al21  1  0.228549  0.225644  0.000936  1
  Tc  Tc22  1  0.500000  0.000000  0.000000  1
  Tc  Tc23  1  0.500000  0.000000  0.500000  1
  Ir  Ir24  1  0.000000  0.500000  0.000000  1
  Ir  Ir25  1  0.000000  0.500000  0.500000  1
