# generated using pymatgen
data_Er(As2Rh3)2
_symmetry_space_group_name_H-M   'P 1'
_cell_length_a   7.27493400
_cell_length_b   7.27493343
_cell_length_c   3.82304500
_cell_angle_alpha   90.00000000
_cell_angle_beta   90.00000000
_cell_angle_gamma   120.00000258
_symmetry_Int_Tables_number   1
_chemical_formula_structural   Er(As2Rh3)2
_chemical_formula_sum   'Er1 As4 Rh6'
_cell_volume   175.22582438
_cell_formula_units_Z   1
loop_
 _symmetry_equiv_pos_site_id
 _symmetry_equiv_pos_as_xyz
  1  'x, y, z'
loop_
 _atom_site_type_symbol
 _atom_site_label
 _atom_site_symmetry_multiplicity
 _atom_site_fract_x
 _atom_site_fract_y
 _atom_site_fract_z
 _atom_site_occupancy
  Er  Er0  1  0.000000  0.000000  0.000000  1
  As  As1  1  0.810721  0.189279  0.500000  1
  As  As2  1  0.378558  0.189279  0.500000  1
  As  As3  1  0.333333  0.666667  0.000000  1
  As  As4  1  0.810721  0.621442  0.500000  1
  Rh  Rh5  1  0.196005  0.803995  0.500000  1
  Rh  Rh6  1  0.196005  0.392011  0.500000  1
  Rh  Rh7  1  0.533311  0.066622  0.000000  1
  Rh  Rh8  1  0.933378  0.466689  0.000000  1
  Rh  Rh9  1  0.533311  0.466689  0.000000  1
  Rh  Rh10  1  0.607989  0.803995  0.500000  1
