# generated using pymatgen
data_Ho8NiHg2Ru
_symmetry_space_group_name_H-M   'P 1'
_cell_length_a   9.48413344
_cell_length_b   9.48413296
_cell_length_c   9.52612600
_cell_angle_alpha   59.85343094
_cell_angle_beta   59.85343262
_cell_angle_gamma   59.81951762
_symmetry_Int_Tables_number   1
_chemical_formula_structural   Ho8NiHg2Ru
_chemical_formula_sum   'Ho16 Ni2 Hg4 Ru2'
_cell_volume   603.72293951
_cell_formula_units_Z   2
loop_
 _symmetry_equiv_pos_site_id
 _symmetry_equiv_pos_as_xyz
  1  'x, y, z'
loop_
 _atom_site_type_symbol
 _atom_site_label
 _atom_site_symmetry_multiplicity
 _atom_site_fract_x
 _atom_site_fract_y
 _atom_site_fract_z
 _atom_site_occupancy
  Ho  Ho0  1  0.350681  0.350681  0.345078  1
  Ho  Ho1  1  0.350681  0.350681  0.953558  1
  Ho  Ho2  1  0.354130  0.949946  0.347961  1
  Ho  Ho3  1  0.949946  0.354130  0.347961  1
  Ho  Ho4  1  0.810848  0.187465  0.189686  1
  Ho  Ho5  1  0.187465  0.810848  0.812001  1
  Ho  Ho6  1  0.187465  0.810848  0.189686  1
  Ho  Ho7  1  0.810848  0.187465  0.812001  1
  Ho  Ho8  1  0.188409  0.188409  0.811591  1
  Ho  Ho9  1  0.810362  0.810362  0.189638  1
  Ho  Ho10  1  0.938129  0.559168  0.565915  1
  Ho  Ho11  1  0.559168  0.938129  0.936788  1
  Ho  Ho12  1  0.559168  0.938129  0.565915  1
  Ho  Ho13  1  0.938129  0.559168  0.936788  1
  Ho  Ho14  1  0.564914  0.564914  0.935086  1
  Ho  Ho15  1  0.940173  0.940173  0.559827  1
  Ni  Ni16  1  0.142133  0.574938  0.141464  1
  Ni  Ni17  1  0.574938  0.142133  0.141464  1
  Hg  Hg18  1  0.583017  0.583017  0.585666  1
  Hg  Hg19  1  0.583017  0.583017  0.248302  1
  Hg  Hg20  1  0.583470  0.246828  0.584851  1
  Hg  Hg21  1  0.246828  0.583470  0.584851  1
  Ru  Ru22  1  0.143041  0.143041  0.140916  1
  Ru  Ru23  1  0.143041  0.143041  0.573001  1
