# generated using pymatgen
data_Er4V4OF27
_symmetry_space_group_name_H-M   'P 1'
_cell_length_a   5.47776541
_cell_length_b   8.73613343
_cell_length_c   11.71969669
_cell_angle_alpha   63.50521582
_cell_angle_beta   89.95059418
_cell_angle_gamma   89.70766588
_symmetry_Int_Tables_number   1
_chemical_formula_structural   Er4V4OF27
_chemical_formula_sum   'Er4 V4 O1 F27'
_cell_volume   501.93069759
_cell_formula_units_Z   1
loop_
 _symmetry_equiv_pos_site_id
 _symmetry_equiv_pos_as_xyz
  1  'x, y, z'
loop_
 _atom_site_type_symbol
 _atom_site_label
 _atom_site_symmetry_multiplicity
 _atom_site_fract_x
 _atom_site_fract_y
 _atom_site_fract_z
 _atom_site_occupancy
  Er  Er0  1  0.763053  0.809511  0.766534  1
  Er  Er1  1  0.258241  0.191374  0.730651  1
  Er  Er2  1  0.242510  0.192460  0.229163  1
  Er  Er3  1  0.750180  0.808344  0.268249  1
  V  V4  1  0.754034  0.273737  0.954418  1
  V  V5  1  0.257486  0.726333  0.544494  1
  V  V6  1  0.259670  0.724284  0.036347  1
  V  V7  1  0.745400  0.273626  0.454515  1
  O  O8  1  0.439806  0.707074  0.931400  1
  F  F9  1  0.951037  0.294237  0.576770  1
  F  F10  1  0.548134  0.296671  0.075622  1
  F  F11  1  0.049964  0.704395  0.424040  1
  F  F12  1  0.459589  0.283063  0.546135  1
  F  F13  1  0.959625  0.716934  0.957042  1
  F  F14  1  0.542047  0.715930  0.454565  1
  F  F15  1  0.040006  0.283803  0.044556  1
  F  F16  1  0.767270  0.509727  0.862273  1
  F  F17  1  0.268953  0.491796  0.638857  1
  F  F18  1  0.224679  0.490550  0.141314  1
  F  F19  1  0.730033  0.507719  0.361808  1
  F  F20  1  0.754784  0.042084  0.044477  1
  F  F21  1  0.256093  0.958306  0.455598  1
  F  F22  1  0.239120  0.960284  0.955164  1
  F  F23  1  0.744063  0.040347  0.546038  1
  F  F24  1  0.979185  0.730063  0.641528  1
  F  F25  1  0.477908  0.270363  0.857608  1
  F  F26  1  0.021770  0.267258  0.359433  1
  F  F27  1  0.510958  0.730653  0.142245  1
  F  F28  1  0.038934  0.749150  0.167498  1
  F  F29  1  0.541770  0.251449  0.330032  1
  F  F30  1  0.957052  0.253674  0.828715  1
  F  F31  1  0.458502  0.747642  0.671564  1
  F  F32  1  0.426821  0.973777  0.231916  1
  F  F33  1  0.924498  0.027219  0.268353  1
  F  F34  1  0.577269  0.023881  0.769427  1
  F  F35  1  0.079553  0.972281  0.731655  1
