# generated using pymatgen
data_Cs(Zr3Te4)4
_symmetry_space_group_name_H-M   'P 1'
_cell_length_a   7.89955109
_cell_length_b   11.25645513
_cell_length_c   11.90270332
_cell_angle_alpha   118.11888843
_cell_angle_beta   109.26471937
_cell_angle_gamma   90.07248313
_symmetry_Int_Tables_number   1
_chemical_formula_structural   Cs(Zr3Te4)4
_chemical_formula_sum   'Cs1 Zr12 Te16'
_cell_volume   865.44660527
_cell_formula_units_Z   1
loop_
 _symmetry_equiv_pos_site_id
 _symmetry_equiv_pos_as_xyz
  1  'x, y, z'
loop_
 _atom_site_type_symbol
 _atom_site_label
 _atom_site_symmetry_multiplicity
 _atom_site_fract_x
 _atom_site_fract_y
 _atom_site_fract_z
 _atom_site_occupancy
  Cs  Cs0  1  0.500000  0.000000  0.000000  1
  Zr  Zr1  1  0.122189  0.126711  0.491339  1
  Zr  Zr2  1  0.619957  0.125820  0.492485  1
  Zr  Zr3  1  0.310615  0.365680  0.873588  1
  Zr  Zr4  1  0.812100  0.366096  0.873021  1
  Zr  Zr5  1  0.190419  0.507514  0.633087  1
  Zr  Zr6  1  0.694105  0.508541  0.635097  1
  Zr  Zr7  1  0.380043  0.874180  0.507515  1
  Zr  Zr8  1  0.877811  0.873289  0.508661  1
  Zr  Zr9  1  0.187900  0.633904  0.126979  1
  Zr  Zr10  1  0.689385  0.634320  0.126412  1
  Zr  Zr11  1  0.305895  0.491459  0.364903  1
  Zr  Zr12  1  0.809581  0.492486  0.366913  1
  Te  Te13  1  0.729508  0.055440  0.708770  1
  Te  Te14  1  0.226679  0.056212  0.706079  1
  Te  Te15  1  0.847754  0.653244  0.944682  1
  Te  Te16  1  0.345473  0.650558  0.943962  1
  Te  Te17  1  0.548792  0.293504  0.349833  1
  Te  Te18  1  0.048517  0.290837  0.346250  1
  Te  Te19  1  0.773321  0.943788  0.293921  1
  Te  Te20  1  0.270492  0.944560  0.291230  1
  Te  Te21  1  0.654527  0.349442  0.056038  1
  Te  Te22  1  0.152246  0.346756  0.055318  1
  Te  Te23  1  0.951483  0.709163  0.653750  1
  Te  Te24  1  0.451208  0.706496  0.650167  1
  Te  Te25  1  0.957862  0.332670  0.665776  1
  Te  Te26  1  0.458346  0.334058  0.666802  1
  Te  Te27  1  0.541654  0.665942  0.333198  1
  Te  Te28  1  0.042138  0.667330  0.334224  1
