# generated using pymatgen
data_Ca20Cd3Ga8Sb
_symmetry_space_group_name_H-M   'P 1'
_cell_length_a   8.14516900
_cell_length_b   8.14513500
_cell_length_c   14.61309900
_cell_angle_alpha   90.00000000
_cell_angle_beta   89.99989979
_cell_angle_gamma   89.99949353
_symmetry_Int_Tables_number   1
_chemical_formula_structural   Ca20Cd3Ga8Sb
_chemical_formula_sum   'Ca20 Cd3 Ga8 Sb1'
_cell_volume   969.48414960
_cell_formula_units_Z   1
loop_
 _symmetry_equiv_pos_site_id
 _symmetry_equiv_pos_as_xyz
  1  'x, y, z'
loop_
 _atom_site_type_symbol
 _atom_site_label
 _atom_site_symmetry_multiplicity
 _atom_site_fract_x
 _atom_site_fract_y
 _atom_site_fract_z
 _atom_site_occupancy
  Ca  Ca0  1  0.674887  0.166911  0.107260  1
  Ca  Ca1  1  0.170933  0.670575  0.609762  1
  Ca  Ca2  1  0.325115  0.833092  0.107256  1
  Ca  Ca3  1  0.829071  0.329426  0.609767  1
  Ca  Ca4  1  0.833092  0.674891  0.107260  1
  Ca  Ca5  1  0.329420  0.170927  0.609762  1
  Ca  Ca6  1  0.166913  0.325111  0.107260  1
  Ca  Ca7  1  0.670573  0.829067  0.609762  1
  Ca  Ca8  1  0.833097  0.325116  0.892837  1
  Ca  Ca9  1  0.329423  0.829068  0.390141  1
  Ca  Ca10  1  0.166907  0.674879  0.892836  1
  Ca  Ca11  1  0.670583  0.170937  0.390146  1
  Ca  Ca12  1  0.674882  0.833096  0.892838  1
  Ca  Ca13  1  0.170929  0.329423  0.390140  1
  Ca  Ca14  1  0.325116  0.166902  0.892834  1
  Ca  Ca15  1  0.829060  0.670581  0.390138  1
  Ca  Ca16  1  0.500002  0.500001  0.753597  1
  Ca  Ca17  1  0.999997  0.000001  0.249376  1
  Ca  Ca18  1  0.000001  0.999999  0.750618  1
  Ca  Ca19  1  0.499998  0.500000  0.246397  1
  Cd  Cd20  1  0.500002  0.499998  0.499987  1
  Cd  Cd21  1  0.500000  0.500002  0.000007  1
  Cd  Cd22  1  0.999999  0.999999  0.499981  1
  Ga  Ga23  1  0.613727  0.115885  0.752637  1
  Ga  Ga24  1  0.115997  0.613834  0.247362  1
  Ga  Ga25  1  0.884000  0.386166  0.247362  1
  Ga  Ga26  1  0.386272  0.884109  0.752639  1
  Ga  Ga27  1  0.884111  0.613730  0.752642  1
  Ga  Ga28  1  0.386168  0.115997  0.247363  1
  Ga  Ga29  1  0.115892  0.386273  0.752644  1
  Ga  Ga30  1  0.613831  0.884005  0.247361  1
  Sb  Sb31  1  0.000001  0.000000  0.000026  1
