# generated using pymatgen
data_SrVBiF12
_symmetry_space_group_name_H-M   'P 1'
_cell_length_a   12.11671154
_cell_length_b   6.08260036
_cell_length_c   6.10074200
_cell_angle_alpha   57.34486394
_cell_angle_beta   56.92591618
_cell_angle_gamma   56.90261567
_symmetry_Int_Tables_number   1
_chemical_formula_structural   SrVBiF12
_chemical_formula_sum   'Sr1 V1 Bi1 F12'
_cell_volume   296.36234982
_cell_formula_units_Z   1
loop_
 _symmetry_equiv_pos_site_id
 _symmetry_equiv_pos_as_xyz
  1  'x, y, z'
loop_
 _atom_site_type_symbol
 _atom_site_label
 _atom_site_symmetry_multiplicity
 _atom_site_fract_x
 _atom_site_fract_y
 _atom_site_fract_z
 _atom_site_occupancy
  Sr  Sr0  1  0.736574  0.506079  0.513196  1
  V  V1  1  0.486935  0.013701  0.004376  1
  Bi  Bi2  1  0.017210  0.983040  0.993366  1
  F  F3  1  0.177907  0.125599  0.756885  1
  F  F4  1  0.646828  0.122885  0.793901  1
  F  F5  1  0.058490  0.772947  0.348843  1
  F  F6  1  0.560246  0.793212  0.290734  1
  F  F7  1  0.117924  0.647688  0.875989  1
  F  F8  1  0.604539  0.704406  0.882377  1
  F  F9  1  0.444047  0.202665  0.701015  1
  F  F10  1  0.936375  0.226352  0.673379  1
  F  F11  1  0.347373  0.888335  0.208934  1
  F  F12  1  0.834941  0.881063  0.218963  1
  F  F13  1  0.395396  0.302430  0.115002  1
  F  F14  1  0.885216  0.329597  0.123046  1
