# generated using pymatgen
data_Dy4Y4Tm4CdCo5
_symmetry_space_group_name_H-M   'P 1'
_cell_length_a   8.22358011
_cell_length_b   8.22379251
_cell_length_c   8.22357887
_cell_angle_alpha   110.07264633
_cell_angle_beta   110.49933255
_cell_angle_gamma   107.85296568
_symmetry_Int_Tables_number   1
_chemical_formula_structural   Dy4Y4Tm4CdCo5
_chemical_formula_sum   'Dy4 Y4 Tm4 Cd1 Co5'
_cell_volume   427.87058652
_cell_formula_units_Z   1
loop_
 _symmetry_equiv_pos_site_id
 _symmetry_equiv_pos_as_xyz
  1  'x, y, z'
loop_
 _atom_site_type_symbol
 _atom_site_label
 _atom_site_symmetry_multiplicity
 _atom_site_fract_x
 _atom_site_fract_y
 _atom_site_fract_z
 _atom_site_occupancy
  Dy  Dy0  1  0.598051  0.790468  0.807598  1
  Dy  Dy1  1  0.401949  0.209532  0.192402  1
  Dy  Dy2  1  0.982870  0.790468  0.192417  1
  Dy  Dy3  1  0.017130  0.209532  0.807583  1
  Y  Y4  1  0.813348  0.708984  0.522372  1
  Y  Y5  1  0.186652  0.291016  0.477628  1
  Y  Y6  1  0.186611  0.708984  0.895636  1
  Y  Y7  1  0.813389  0.291016  0.104364  1
  Tm  Tm8  1  0.683962  0.377534  0.693573  1
  Tm  Tm9  1  0.316038  0.622466  0.306427  1
  Tm  Tm10  1  0.684079  0.990543  0.306464  1
  Tm  Tm11  1  0.315921  0.009457  0.693536  1
  Cd  Cd12  1  0.500000  0.500000  0.000000  1
  Co  Co13  1  0.621402  0.000000  0.621402  1
  Co  Co14  1  0.378598  0.000000  0.378598  1
  Co  Co15  1  0.114129  0.614119  0.499989  1
  Co  Co16  1  0.885871  0.385881  0.500011  1
  Co  Co17  1  0.000000  0.000000  0.000000  1
