# generated using pymatgen
data_Co3Ni19As16
_symmetry_space_group_name_H-M   'P 1'
_cell_length_a   6.87069667
_cell_length_b   6.86735411
_cell_length_c   11.24233990
_cell_angle_alpha   81.22093126
_cell_angle_beta   81.08853523
_cell_angle_gamma   90.05309928
_symmetry_Int_Tables_number   1
_chemical_formula_structural   Co3Ni19As16
_chemical_formula_sum   'Co3 Ni19 As16'
_cell_volume   517.74619401
_cell_formula_units_Z   1
loop_
 _symmetry_equiv_pos_site_id
 _symmetry_equiv_pos_as_xyz
  1  'x, y, z'
loop_
 _atom_site_type_symbol
 _atom_site_label
 _atom_site_symmetry_multiplicity
 _atom_site_fract_x
 _atom_site_fract_y
 _atom_site_fract_z
 _atom_site_occupancy
  Co  Co0  1  0.468322  0.148471  0.906753  1
  Co  Co1  1  0.852351  0.531481  0.592857  1
  Co  Co2  1  0.531315  0.853473  0.093498  1
  Ni  Ni3  1  0.146721  0.466763  0.406959  1
  Ni  Ni4  1  0.085869  0.650259  0.907908  1
  Ni  Ni5  1  0.350117  0.913292  0.593033  1
  Ni  Ni6  1  0.914692  0.349337  0.091686  1
  Ni  Ni7  1  0.650747  0.084847  0.407175  1
  Ni  Ni8  1  0.460273  0.649764  0.906529  1
  Ni  Ni9  1  0.349687  0.539899  0.593195  1
  Ni  Ni10  1  0.539885  0.349428  0.092869  1
  Ni  Ni11  1  0.649851  0.459596  0.406167  1
  Ni  Ni12  1  0.803026  0.680405  0.787209  1
  Ni  Ni13  1  0.319234  0.197680  0.713196  1
  Ni  Ni14  1  0.196975  0.322335  0.213470  1
  Ni  Ni15  1  0.681013  0.802737  0.287284  1
  Ni  Ni16  1  0.074590  0.146683  0.905910  1
  Ni  Ni17  1  0.852605  0.923835  0.594733  1
  Ni  Ni18  1  0.146418  0.077413  0.406603  1
  Ni  Ni19  1  0.925662  0.854220  0.094305  1
  Ni  Ni20  1  0.814237  0.186264  0.749770  1
  Ni  Ni21  1  0.186131  0.810927  0.250905  1
  As  As22  1  0.747914  0.628503  0.002244  1
  As  As23  1  0.374855  0.249541  0.498833  1
  As  As24  1  0.252049  0.372094  0.997438  1
  As  As25  1  0.628080  0.747226  0.502401  1
  As  As26  1  0.872387  0.250276  0.509406  1
  As  As27  1  0.747308  0.122964  0.991847  1
  As  As28  1  0.122843  0.749508  0.494061  1
  As  As29  1  0.253275  0.877293  0.006819  1
  As  As30  1  0.066639  0.932783  0.750458  1
  As  As31  1  0.934210  0.067252  0.250214  1
  As  As32  1  0.559486  0.440073  0.750355  1
  As  As33  1  0.445370  0.561275  0.246649  1
  As  As34  1  0.553987  0.937185  0.753215  1
  As  As35  1  0.062757  0.445771  0.747161  1
  As  As36  1  0.445172  0.062974  0.247546  1
  As  As37  1  0.933946  0.556172  0.249337  1
