# generated using pymatgen
data_Tb4Pd2PtAu
_symmetry_space_group_name_H-M   'P 1'
_cell_length_a   4.62492600
_cell_length_b   5.66194336
_cell_length_c   7.07139402
_cell_angle_alpha   90.24218608
_cell_angle_beta   90.00000000
_cell_angle_gamma   90.00000000
_symmetry_Int_Tables_number   1
_chemical_formula_structural   Tb4Pd2PtAu
_chemical_formula_sum   'Tb4 Pd2 Pt1 Au1'
_cell_volume   185.17035775
_cell_formula_units_Z   1
loop_
 _symmetry_equiv_pos_site_id
 _symmetry_equiv_pos_as_xyz
  1  'x, y, z'
loop_
 _atom_site_type_symbol
 _atom_site_label
 _atom_site_symmetry_multiplicity
 _atom_site_fract_x
 _atom_site_fract_y
 _atom_site_fract_z
 _atom_site_occupancy
  Tb  Tb0  1  0.000000  0.110812  0.691037  1
  Tb  Tb1  1  0.000000  0.894366  0.174036  1
  Tb  Tb2  1  0.500000  0.390000  0.313338  1
  Tb  Tb3  1  0.500000  0.608321  0.821396  1
  Pd  Pd4  1  0.000000  0.595261  0.540254  1
  Pd  Pd5  1  0.000000  0.407071  0.043730  1
  Pt  Pt6  1  0.500000  0.096744  0.957611  1
  Au  Au7  1  0.500000  0.897424  0.458599  1
