# generated using pymatgen
data_Er2Cu3Ni3(BIr)2
_symmetry_space_group_name_H-M   'P 1'
_cell_length_a   5.23423767
_cell_length_b   5.25025493
_cell_length_c   7.03452400
_cell_angle_alpha   90.00000000
_cell_angle_beta   90.00000000
_cell_angle_gamma   123.85779173
_symmetry_Int_Tables_number   1
_chemical_formula_structural   Er2Cu3Ni3(BIr)2
_chemical_formula_sum   'Er2 Cu3 Ni3 B2 Ir2'
_cell_volume   160.53431568
_cell_formula_units_Z   1
loop_
 _symmetry_equiv_pos_site_id
 _symmetry_equiv_pos_as_xyz
  1  'x, y, z'
loop_
 _atom_site_type_symbol
 _atom_site_label
 _atom_site_symmetry_multiplicity
 _atom_site_fract_x
 _atom_site_fract_y
 _atom_site_fract_z
 _atom_site_occupancy
  Er  Er0  1  0.000000  0.000000  0.502795  1
  Er  Er1  1  0.000000  0.000000  0.996094  1
  Cu  Cu2  1  0.321601  0.692663  0.998452  1
  Cu  Cu3  1  0.678399  0.307337  0.998452  1
  Cu  Cu4  1  0.000000  0.500000  0.289895  1
  Ni  Ni5  1  0.500000  0.000000  0.302412  1
  Ni  Ni6  1  0.500000  0.000000  0.700608  1
  Ni  Ni7  1  0.000000  0.500000  0.700221  1
  B  B8  1  0.653623  0.333752  0.503749  1
  B  B9  1  0.346377  0.666248  0.503749  1
  Ir  Ir10  1  0.500000  0.500000  0.280656  1
  Ir  Ir11  1  0.500000  0.500000  0.722919  1
