# generated using pymatgen
data_Tb7Sm(Lu3Si4)4
_symmetry_space_group_name_H-M   'P 1'
_cell_length_a   7.62752604
_cell_length_b   7.62751447
_cell_length_c   14.07684600
_cell_angle_alpha   89.97989112
_cell_angle_beta   90.00607698
_cell_angle_gamma   89.99865753
_symmetry_Int_Tables_number   1
_chemical_formula_structural   Tb7Sm(Lu3Si4)4
_chemical_formula_sum   'Tb7 Sm1 Lu12 Si16'
_cell_volume   818.97768705
_cell_formula_units_Z   1
loop_
 _symmetry_equiv_pos_site_id
 _symmetry_equiv_pos_as_xyz
  1  'x, y, z'
loop_
 _atom_site_type_symbol
 _atom_site_label
 _atom_site_symmetry_multiplicity
 _atom_site_fract_x
 _atom_site_fract_y
 _atom_site_fract_z
 _atom_site_occupancy
  Tb  Tb0  1  0.006158  0.641605  0.708464  1
  Tb  Tb1  1  0.142144  0.495014  0.458790  1
  Tb  Tb2  1  0.505775  0.857196  0.040998  1
  Tb  Tb3  1  0.858071  0.505467  0.957867  1
  Tb  Tb4  1  0.494571  0.142547  0.541699  1
  Tb  Tb5  1  0.358464  0.993963  0.791222  1
  Tb  Tb6  1  0.640717  0.005853  0.292191  1
  Sm  Sm7  1  0.992829  0.355559  0.209265  1
  Lu  Lu8  1  0.182038  0.181274  0.999699  1
  Lu  Lu9  1  0.818109  0.818841  0.500450  1
  Lu  Lu10  1  0.318089  0.682444  0.249904  1
  Lu  Lu11  1  0.682299  0.318059  0.749840  1
  Lu  Lu12  1  0.141822  0.007816  0.376937  1
  Lu  Lu13  1  0.859434  0.991597  0.875805  1
  Lu  Lu14  1  0.492653  0.640824  0.626416  1
  Lu  Lu15  1  0.359587  0.506858  0.873480  1
  Lu  Lu16  1  0.506356  0.359354  0.126180  1
  Lu  Lu17  1  0.640991  0.493762  0.374218  1
  Lu  Lu18  1  0.007470  0.141204  0.623744  1
  Lu  Lu19  1  0.991800  0.859162  0.123237  1
  Si  Si20  1  0.292456  0.058168  0.187708  1
  Si  Si21  1  0.708076  0.941070  0.687618  1
  Si  Si22  1  0.440668  0.792493  0.438027  1
  Si  Si23  1  0.208513  0.560005  0.061700  1
  Si  Si24  1  0.559043  0.207382  0.937439  1
  Si  Si25  1  0.792159  0.441146  0.562363  1
  Si  Si26  1  0.059671  0.291514  0.812185  1
  Si  Si27  1  0.939887  0.709835  0.312665  1
  Si  Si28  1  0.349180  0.297675  0.314843  1
  Si  Si29  1  0.652589  0.701715  0.813762  1
  Si  Si30  1  0.202313  0.847709  0.564228  1
  Si  Si31  1  0.152961  0.797640  0.936006  1
  Si  Si32  1  0.796058  0.151523  0.062053  1
  Si  Si33  1  0.847827  0.202611  0.436157  1
  Si  Si34  1  0.298284  0.347328  0.686167  1
  Si  Si35  1  0.700937  0.653787  0.186673  1
