# generated using pymatgen
data_Tm(Al5Ru)2
_symmetry_space_group_name_H-M   'P 1'
_cell_length_a   6.83921583
_cell_length_b   6.83921640
_cell_length_c   9.12803800
_cell_angle_alpha   90.00000000
_cell_angle_beta   90.00000000
_cell_angle_gamma   96.67948964
_symmetry_Int_Tables_number   1
_chemical_formula_structural   Tm(Al5Ru)2
_chemical_formula_sum   'Tm2 Al20 Ru4'
_cell_volume   424.06478113
_cell_formula_units_Z   2
loop_
 _symmetry_equiv_pos_site_id
 _symmetry_equiv_pos_as_xyz
  1  'x, y, z'
loop_
 _atom_site_type_symbol
 _atom_site_label
 _atom_site_symmetry_multiplicity
 _atom_site_fract_x
 _atom_site_fract_y
 _atom_site_fract_z
 _atom_site_occupancy
  Tm  Tm0  1  0.872864  0.127136  0.750000  1
  Tm  Tm1  1  0.127136  0.872864  0.250000  1
  Al  Al2  1  0.623082  0.376918  0.550517  1
  Al  Al3  1  0.376918  0.623082  0.449483  1
  Al  Al4  1  0.376918  0.623082  0.050517  1
  Al  Al5  1  0.623082  0.376918  0.949483  1
  Al  Al6  1  0.225735  0.225735  0.500000  1
  Al  Al7  1  0.774265  0.774265  0.500000  1
  Al  Al8  1  0.774265  0.774265  0.000000  1
  Al  Al9  1  0.225735  0.225735  0.000000  1
  Al  Al10  1  0.843526  0.156474  0.099329  1
  Al  Al11  1  0.156474  0.843526  0.900671  1
  Al  Al12  1  0.156474  0.843526  0.599329  1
  Al  Al13  1  0.843526  0.156474  0.400671  1
  Al  Al14  1  0.859111  0.586512  0.750000  1
  Al  Al15  1  0.140889  0.413488  0.250000  1
  Al  Al16  1  0.413488  0.140889  0.750000  1
  Al  Al17  1  0.586512  0.859111  0.250000  1
  Al  Al18  1  0.220526  0.479046  0.750000  1
  Al  Al19  1  0.779474  0.520954  0.250000  1
  Al  Al20  1  0.520954  0.779474  0.750000  1
  Al  Al21  1  0.479046  0.220526  0.250000  1
  Ru  Ru22  1  0.000000  0.500000  0.500000  1
  Ru  Ru23  1  0.000000  0.500000  0.000000  1
  Ru  Ru24  1  0.500000  0.000000  0.000000  1
  Ru  Ru25  1  0.500000  0.000000  0.500000  1
