# generated using pymatgen
data_Sr3LiFeO6
_symmetry_space_group_name_H-M   'P 1'
_cell_length_a   6.65636132
_cell_length_b   6.65636076
_cell_length_c   6.65636123
_cell_angle_alpha   92.32738716
_cell_angle_beta   92.32739208
_cell_angle_gamma   92.32739861
_symmetry_Int_Tables_number   1
_chemical_formula_structural   Sr3LiFeO6
_chemical_formula_sum   'Sr6 Li2 Fe2 O12'
_cell_volume   294.17408573
_cell_formula_units_Z   2
loop_
 _symmetry_equiv_pos_site_id
 _symmetry_equiv_pos_as_xyz
  1  'x, y, z'
loop_
 _atom_site_type_symbol
 _atom_site_label
 _atom_site_symmetry_multiplicity
 _atom_site_fract_x
 _atom_site_fract_y
 _atom_site_fract_z
 _atom_site_occupancy
  Sr  Sr0  1  0.890364  0.609636  0.250000  1
  Sr  Sr1  1  0.609636  0.250000  0.890364  1
  Sr  Sr2  1  0.750000  0.109636  0.390364  1
  Sr  Sr3  1  0.390364  0.750000  0.109636  1
  Sr  Sr4  1  0.109636  0.390364  0.750000  1
  Sr  Sr5  1  0.250000  0.890364  0.609636  1
  Li  Li6  1  0.250000  0.250000  0.250000  1
  Li  Li7  1  0.750000  0.750000  0.750000  1
  Fe  Fe8  1  0.000000  0.000000  0.000000  1
  Fe  Fe9  1  0.500000  0.500000  0.500000  1
  O  O10  1  0.773581  0.454173  0.581608  1
  O  O11  1  0.918392  0.045827  0.726419  1
  O  O12  1  0.726419  0.918392  0.045827  1
  O  O13  1  0.045827  0.726419  0.918392  1
  O  O14  1  0.581608  0.773581  0.454173  1
  O  O15  1  0.454173  0.581608  0.773581  1
  O  O16  1  0.418392  0.226419  0.545827  1
  O  O17  1  0.545827  0.418392  0.226419  1
  O  O18  1  0.954173  0.273581  0.081608  1
  O  O19  1  0.273581  0.081608  0.954173  1
  O  O20  1  0.081608  0.954173  0.273581  1
  O  O21  1  0.226419  0.545827  0.418392  1
