# generated using pymatgen
data_Lu6InGa2
_symmetry_space_group_name_H-M   'P 1'
_cell_length_a   8.44772380
_cell_length_b   8.44772402
_cell_length_c   8.44772319
_cell_angle_alpha   112.20969445
_cell_angle_beta   112.49295658
_cell_angle_gamma   103.85306206
_symmetry_Int_Tables_number   1
_chemical_formula_structural   Lu6InGa2
_chemical_formula_sum   'Lu12 In2 Ga4'
_cell_volume   460.77924865
_cell_formula_units_Z   2
loop_
 _symmetry_equiv_pos_site_id
 _symmetry_equiv_pos_as_xyz
  1  'x, y, z'
loop_
 _atom_site_type_symbol
 _atom_site_label
 _atom_site_symmetry_multiplicity
 _atom_site_fract_x
 _atom_site_fract_y
 _atom_site_fract_z
 _atom_site_occupancy
  Lu  Lu0  1  0.446298  0.242553  0.203745  1
  Lu  Lu1  1  0.553702  0.757447  0.796255  1
  Lu  Lu2  1  0.038808  0.242553  0.796255  1
  Lu  Lu3  1  0.961192  0.757447  0.203745  1
  Lu  Lu4  1  0.187590  0.279265  0.466855  1
  Lu  Lu5  1  0.812410  0.720735  0.533145  1
  Lu  Lu6  1  0.187590  0.720735  0.908327  1
  Lu  Lu7  1  0.812410  0.279265  0.091673  1
  Lu  Lu8  1  0.320749  0.616886  0.296136  1
  Lu  Lu9  1  0.679251  0.383114  0.703864  1
  Lu  Lu10  1  0.320749  0.024613  0.703864  1
  Lu  Lu11  1  0.679251  0.975387  0.296136  1
  In  In12  1  0.500000  0.500000  0.000000  1
  In  In13  1  0.000000  0.000000  0.000000  1
  Ga  Ga14  1  0.351167  0.000000  0.351167  1
  Ga  Ga15  1  0.648833  0.000000  0.648833  1
  Ga  Ga16  1  0.121522  0.621522  0.500000  1
  Ga  Ga17  1  0.878478  0.378478  0.500000  1
