# generated using pymatgen
data_SrLi4(Cu2P3)2
_symmetry_space_group_name_H-M   'P 1'
_cell_length_a   8.13754228
_cell_length_b   8.13754312
_cell_length_c   8.13754235
_cell_angle_alpha   151.68532931
_cell_angle_beta   114.73127327
_cell_angle_gamma   72.61932362
_symmetry_Int_Tables_number   1
_chemical_formula_structural   SrLi4(Cu2P3)2
_chemical_formula_sum   'Sr1 Li4 Cu4 P6'
_cell_volume   229.09944826
_cell_formula_units_Z   1
loop_
 _symmetry_equiv_pos_site_id
 _symmetry_equiv_pos_as_xyz
  1  'x, y, z'
loop_
 _atom_site_type_symbol
 _atom_site_label
 _atom_site_symmetry_multiplicity
 _atom_site_fract_x
 _atom_site_fract_y
 _atom_site_fract_z
 _atom_site_occupancy
  Sr  Sr0  1  0.000000  0.000000  0.000000  1
  Li  Li1  1  0.716973  0.716973  0.000000  1
  Li  Li2  1  0.663866  0.500000  0.163866  1
  Li  Li3  1  0.336134  0.500000  0.836134  1
  Li  Li4  1  0.283027  0.283027  0.000000  1
  Cu  Cu5  1  0.905663  0.175503  0.730161  1
  Cu  Cu6  1  0.554658  0.824497  0.730161  1
  Cu  Cu7  1  0.445342  0.175503  0.269839  1
  Cu  Cu8  1  0.094337  0.824497  0.269839  1
  P  P9  1  0.970752  0.343106  0.627646  1
  P  P10  1  0.715459  0.343106  0.372354  1
  P  P11  1  0.584707  0.084707  0.500000  1
  P  P12  1  0.415293  0.915293  0.500000  1
  P  P13  1  0.284541  0.656894  0.627646  1
  P  P14  1  0.029248  0.656894  0.372354  1
