# generated using pymatgen
data_Pr3TmHf4F28
_symmetry_space_group_name_H-M   'P 1'
_cell_length_a   5.85843727
_cell_length_b   9.31331794
_cell_length_c   12.48356600
_cell_angle_alpha   62.00638162
_cell_angle_beta   90.01742804
_cell_angle_gamma   89.97666342
_symmetry_Int_Tables_number   1
_chemical_formula_structural   Pr3TmHf4F28
_chemical_formula_sum   'Pr3 Tm1 Hf4 F28'
_cell_volume   601.43045197
_cell_formula_units_Z   1
loop_
 _symmetry_equiv_pos_site_id
 _symmetry_equiv_pos_as_xyz
  1  'x, y, z'
loop_
 _atom_site_type_symbol
 _atom_site_label
 _atom_site_symmetry_multiplicity
 _atom_site_fract_x
 _atom_site_fract_y
 _atom_site_fract_z
 _atom_site_occupancy
  Pr  Pr0  1  0.743057  0.808876  0.266489  1
  Pr  Pr1  1  0.242893  0.186778  0.233508  1
  Pr  Pr2  1  0.256889  0.181617  0.733904  1
  Tm  Tm3  1  0.758360  0.810746  0.766042  1
  Hf  Hf4  1  0.746311  0.267798  0.458933  1
  Hf  Hf5  1  0.244517  0.726104  0.037779  1
  Hf  Hf6  1  0.257456  0.726313  0.551966  1
  Hf  Hf7  1  0.755649  0.281517  0.951537  1
  F  F8  1  0.467240  0.714570  0.919465  1
  F  F9  1  0.960188  0.286395  0.577165  1
  F  F10  1  0.542277  0.291987  0.073293  1
  F  F11  1  0.042291  0.714226  0.431305  1
  F  F12  1  0.465581  0.280602  0.547766  1
  F  F13  1  0.964040  0.720986  0.943252  1
  F  F14  1  0.531600  0.717602  0.456940  1
  F  F15  1  0.035512  0.288311  0.043106  1
  F  F16  1  0.762346  0.527641  0.857599  1
  F  F17  1  0.264702  0.482749  0.643771  1
  F  F18  1  0.231627  0.483721  0.135300  1
  F  F19  1  0.734917  0.512709  0.363811  1
  F  F20  1  0.760686  0.038977  0.053282  1
  F  F21  1  0.260964  0.968395  0.448396  1
  F  F22  1  0.240503  0.969435  0.943016  1
  F  F23  1  0.741386  0.025495  0.561174  1
  F  F24  1  0.993852  0.737918  0.652990  1
  F  F25  1  0.492832  0.267446  0.853372  1
  F  F26  1  0.011581  0.265406  0.358429  1
  F  F27  1  0.506171  0.733350  0.139441  1
  F  F28  1  0.038109  0.744639  0.161394  1
  F  F29  1  0.543097  0.252699  0.334068  1
  F  F30  1  0.960478  0.259608  0.829857  1
  F  F31  1  0.474040  0.750253  0.670966  1
  F  F32  1  0.419482  0.967167  0.232449  1
  F  F33  1  0.916552  0.029300  0.267617  1
  F  F34  1  0.577024  0.012492  0.765029  1
  F  F35  1  0.055785  0.966169  0.735585  1
