# generated using pymatgen
data_Er10TcIr3
_symmetry_space_group_name_H-M   'P 1'
_cell_length_a   6.38536196
_cell_length_b   7.24873459
_cell_length_c   8.36589205
_cell_angle_alpha   96.68542666
_cell_angle_beta   111.92091350
_cell_angle_gamma   89.99785509
_symmetry_Int_Tables_number   1
_chemical_formula_structural   Er10TcIr3
_chemical_formula_sum   'Er10 Tc1 Ir3'
_cell_volume   356.38673989
_cell_formula_units_Z   1
loop_
 _symmetry_equiv_pos_site_id
 _symmetry_equiv_pos_as_xyz
  1  'x, y, z'
loop_
 _atom_site_type_symbol
 _atom_site_label
 _atom_site_symmetry_multiplicity
 _atom_site_fract_x
 _atom_site_fract_y
 _atom_site_fract_z
 _atom_site_occupancy
  Er  Er0  1  0.423809  0.750647  0.999587  1
  Er  Er1  1  0.575924  0.250095  0.000195  1
  Er  Er2  1  0.973087  0.916174  0.184977  1
  Er  Er3  1  0.212979  0.418846  0.185918  1
  Er  Er4  1  0.653203  0.816715  0.438561  1
  Er  Er5  1  0.788490  0.317862  0.438130  1
  Er  Er6  1  0.348321  0.182297  0.560394  1
  Er  Er7  1  0.209477  0.683089  0.559633  1
  Er  Er8  1  0.025557  0.084460  0.817863  1
  Er  Er9  1  0.792949  0.582323  0.822418  1
  Tc  Tc10  1  0.824349  0.572054  0.213953  1
  Ir  Ir11  1  0.393227  0.075183  0.220709  1
  Ir  Ir12  1  0.603480  0.926218  0.777749  1
  Ir  Ir13  1  0.175147  0.424039  0.779912  1
