# generated using pymatgen
data_Y2Ho5Sn23Ru6
_symmetry_space_group_name_H-M   'P 1'
_cell_length_a   9.85310808
_cell_length_b   9.85304632
_cell_length_c   10.08733801
_cell_angle_alpha   89.99591476
_cell_angle_beta   90.00471214
_cell_angle_gamma   119.98685068
_symmetry_Int_Tables_number   1
_chemical_formula_structural   Y2Ho5Sn23Ru6
_chemical_formula_sum   'Y2 Ho5 Sn23 Ru6'
_cell_volume   848.21999118
_cell_formula_units_Z   1
loop_
 _symmetry_equiv_pos_site_id
 _symmetry_equiv_pos_as_xyz
  1  'x, y, z'
loop_
 _atom_site_type_symbol
 _atom_site_label
 _atom_site_symmetry_multiplicity
 _atom_site_fract_x
 _atom_site_fract_y
 _atom_site_fract_z
 _atom_site_occupancy
  Y  Y0  1  0.999997  0.999999  0.000002  1
  Y  Y1  1  0.515892  0.484107  0.696648  1
  Ho  Ho2  1  0.515652  0.031291  0.696835  1
  Ho  Ho3  1  0.968708  0.484348  0.696835  1
  Ho  Ho4  1  0.031280  0.515652  0.303166  1
  Ho  Ho5  1  0.484344  0.968720  0.303167  1
  Ho  Ho6  1  0.484358  0.515641  0.303129  1
  Sn  Sn7  1  0.666668  0.333332  0.178220  1
  Sn  Sn8  1  0.666801  0.333197  0.872360  1
  Sn  Sn9  1  0.333343  0.666659  0.127818  1
  Sn  Sn10  1  0.349023  0.349052  0.000069  1
  Sn  Sn11  1  0.000002  0.650891  0.000002  1
  Sn  Sn12  1  0.650888  0.999997  0.000017  1
  Sn  Sn13  1  0.650950  0.650978  0.000070  1
  Sn  Sn14  1  0.333283  0.666717  0.821798  1
  Sn  Sn15  1  0.439442  0.219610  0.462102  1
  Sn  Sn16  1  0.219734  0.780268  0.537755  1
  Sn  Sn17  1  0.219535  0.439433  0.537684  1
  Sn  Sn18  1  0.560566  0.780465  0.537685  1
  Sn  Sn19  1  0.118482  0.881520  0.273705  1
  Sn  Sn20  1  0.780389  0.560559  0.462102  1
  Sn  Sn21  1  0.780259  0.219742  0.462236  1
  Sn  Sn22  1  0.349110  0.999998  0.000002  1
  Sn  Sn23  1  0.118481  0.236953  0.273705  1
  Sn  Sn24  1  0.763043  0.881519  0.273703  1
  Sn  Sn25  1  0.236817  0.118331  0.726339  1
  Sn  Sn26  1  0.881670  0.763189  0.726337  1
  Sn  Sn27  1  0.881524  0.118473  0.726292  1
  Sn  Sn28  1  0.000000  0.000000  0.500003  1
  Sn  Sn29  1  0.000003  0.349112  0.000017  1
  Ru  Ru30  1  0.170056  0.829939  0.797684  1
  Ru  Ru31  1  0.169642  0.339948  0.797791  1
  Ru  Ru32  1  0.660053  0.830357  0.797795  1
  Ru  Ru33  1  0.340125  0.170073  0.202304  1
  Ru  Ru34  1  0.829929  0.659876  0.202307  1
  Ru  Ru35  1  0.829950  0.170055  0.202316  1
