# generated using pymatgen
data_NdErTm2(Si3Rh)2
_symmetry_space_group_name_H-M   'P 1'
_cell_length_a   8.17257604
_cell_length_b   8.17257563
_cell_length_c   7.94060900
_cell_angle_alpha   90.00000000
_cell_angle_beta   90.00000000
_cell_angle_gamma   119.98816693
_symmetry_Int_Tables_number   1
_chemical_formula_structural   NdErTm2(Si3Rh)2
_chemical_formula_sum   'Nd2 Er2 Tm4 Si12 Rh4'
_cell_volume   459.36101426
_cell_formula_units_Z   2
loop_
 _symmetry_equiv_pos_site_id
 _symmetry_equiv_pos_as_xyz
  1  'x, y, z'
loop_
 _atom_site_type_symbol
 _atom_site_label
 _atom_site_symmetry_multiplicity
 _atom_site_fract_x
 _atom_site_fract_y
 _atom_site_fract_z
 _atom_site_occupancy
  Nd  Nd0  1  0.999976  0.000024  0.250000  1
  Nd  Nd1  1  0.000026  0.999974  0.750000  1
  Er  Er2  1  0.983828  0.491948  0.750000  1
  Er  Er3  1  0.508052  0.016172  0.750000  1
  Tm  Tm4  1  0.492026  0.507974  0.250000  1
  Tm  Tm5  1  0.492028  0.984028  0.250000  1
  Tm  Tm6  1  0.015972  0.507972  0.250000  1
  Tm  Tm7  1  0.507923  0.492077  0.750000  1
  Si  Si8  1  0.831435  0.168565  0.502395  1
  Si  Si9  1  0.831307  0.662794  0.502529  1
  Si  Si10  1  0.337206  0.168693  0.502529  1
  Si  Si11  1  0.831435  0.168565  0.997605  1
  Si  Si12  1  0.831307  0.662794  0.997471  1
  Si  Si13  1  0.337206  0.168693  0.997471  1
  Si  Si14  1  0.168598  0.831402  0.002799  1
  Si  Si15  1  0.662796  0.831341  0.002761  1
  Si  Si16  1  0.168659  0.337204  0.002761  1
  Si  Si17  1  0.168598  0.831402  0.497201  1
  Si  Si18  1  0.662796  0.831341  0.497239  1
  Si  Si19  1  0.168659  0.337204  0.497239  1
  Rh  Rh20  1  0.666601  0.333399  0.464289  1
  Rh  Rh21  1  0.666601  0.333399  0.035711  1
  Rh  Rh22  1  0.333481  0.666519  0.965120  1
  Rh  Rh23  1  0.333481  0.666519  0.534880  1
