# generated using pymatgen
data_Tb12Al3ZnPd20
_symmetry_space_group_name_H-M   'P 1'
_cell_length_a   8.23526405
_cell_length_b   8.23526338
_cell_length_c   13.14930100
_cell_angle_alpha   90.00000000
_cell_angle_beta   90.00000000
_cell_angle_gamma   127.45755637
_symmetry_Int_Tables_number   1
_chemical_formula_structural   Tb12Al3ZnPd20
_chemical_formula_sum   'Tb12 Al3 Zn1 Pd20'
_cell_volume   707.89853964
_cell_formula_units_Z   1
loop_
 _symmetry_equiv_pos_site_id
 _symmetry_equiv_pos_as_xyz
  1  'x, y, z'
loop_
 _atom_site_type_symbol
 _atom_site_label
 _atom_site_symmetry_multiplicity
 _atom_site_fract_x
 _atom_site_fract_y
 _atom_site_fract_z
 _atom_site_occupancy
  Tb  Tb0  1  0.932798  0.067202  0.250000  1
  Tb  Tb1  1  0.067810  0.932190  0.750000  1
  Tb  Tb2  1  0.317589  0.682411  0.250000  1
  Tb  Tb3  1  0.679001  0.320999  0.750000  1
  Tb  Tb4  1  0.629111  0.370889  0.466960  1
  Tb  Tb5  1  0.372620  0.627380  0.535270  1
  Tb  Tb6  1  0.629111  0.370889  0.033040  1
  Tb  Tb7  1  0.372620  0.627380  0.964730  1
  Tb  Tb8  1  0.878759  0.121241  0.946912  1
  Tb  Tb9  1  0.120643  0.879357  0.053913  1
  Tb  Tb10  1  0.878759  0.121241  0.553088  1
  Tb  Tb11  1  0.120643  0.879357  0.446087  1
  Al  Al12  1  0.722856  0.277144  0.250000  1
  Al  Al13  1  0.277505  0.722495  0.750000  1
  Al  Al14  1  0.529994  0.470006  0.250000  1
  Zn  Zn15  1  0.469495  0.530505  0.750000  1
  Pd  Pd16  1  0.331591  0.077129  0.250000  1
  Pd  Pd17  1  0.071360  0.328835  0.750000  1
  Pd  Pd18  1  0.671165  0.928640  0.750000  1
  Pd  Pd19  1  0.922871  0.668409  0.250000  1
  Pd  Pd20  1  0.570611  0.006431  0.394493  1
  Pd  Pd21  1  0.007412  0.570556  0.606141  1
  Pd  Pd22  1  0.570611  0.006431  0.105507  1
  Pd  Pd23  1  0.007412  0.570556  0.893859  1
  Pd  Pd24  1  0.429444  0.992588  0.606141  1
  Pd  Pd25  1  0.993569  0.429389  0.394493  1
  Pd  Pd26  1  0.429444  0.992588  0.893859  1
  Pd  Pd27  1  0.993569  0.429389  0.105507  1
  Pd  Pd28  1  0.687618  0.741923  0.391760  1
  Pd  Pd29  1  0.749005  0.693887  0.606246  1
  Pd  Pd30  1  0.687618  0.741923  0.108240  1
  Pd  Pd31  1  0.749005  0.693887  0.893754  1
  Pd  Pd32  1  0.306113  0.250995  0.606246  1
  Pd  Pd33  1  0.258077  0.312382  0.391760  1
  Pd  Pd34  1  0.306113  0.250995  0.893754  1
  Pd  Pd35  1  0.258077  0.312382  0.108240  1
