# generated using pymatgen
data_Pr4NbIO12
_symmetry_space_group_name_H-M   'P 1'
_cell_length_a   5.55418500
_cell_length_b   7.87849662
_cell_length_c   11.76787700
_cell_angle_alpha   76.16214989
_cell_angle_beta   90.00000000
_cell_angle_gamma   90.00000000
_symmetry_Int_Tables_number   1
_chemical_formula_structural   Pr4NbIO12
_chemical_formula_sum   'Pr8 Nb2 I2 O24'
_cell_volume   500.00060469
_cell_formula_units_Z   2
loop_
 _symmetry_equiv_pos_site_id
 _symmetry_equiv_pos_as_xyz
  1  'x, y, z'
loop_
 _atom_site_type_symbol
 _atom_site_label
 _atom_site_symmetry_multiplicity
 _atom_site_fract_x
 _atom_site_fract_y
 _atom_site_fract_z
 _atom_site_occupancy
  Pr  Pr0  1  0.740010  0.986167  0.755653  1
  Pr  Pr1  1  0.259990  0.986167  0.255653  1
  Pr  Pr2  1  0.196638  0.788585  0.575991  1
  Pr  Pr3  1  0.803362  0.788585  0.075991  1
  Pr  Pr4  1  0.690505  0.512072  0.751133  1
  Pr  Pr5  1  0.309495  0.512072  0.251133  1
  Pr  Pr6  1  0.194839  0.200764  0.925150  1
  Pr  Pr7  1  0.805161  0.200764  0.425150  1
  Nb  Nb8  1  0.252940  0.718329  0.889900  1
  Nb  Nb9  1  0.747060  0.718329  0.389900  1
  I  I10  1  0.254133  0.274866  0.615646  1
  I  I11  1  0.745867  0.274866  0.115646  1
  O  O12  1  0.025209  0.940083  0.904113  1
  O  O13  1  0.510127  0.864918  0.928699  1
  O  O14  1  0.974791  0.940083  0.404113  1
  O  O15  1  0.475155  0.778913  0.726202  1
  O  O16  1  0.489873  0.864918  0.428699  1
  O  O17  1  0.988733  0.718654  0.770522  1
  O  O18  1  0.524845  0.778913  0.226202  1
  O  O19  1  0.848699  0.632538  0.549565  1
  O  O20  1  0.361401  0.488810  0.883649  1
  O  O21  1  0.011267  0.718654  0.270522  1
  O  O22  1  0.376693  0.496473  0.608027  1
  O  O23  1  0.854980  0.362045  0.960526  1
  O  O24  1  0.151301  0.632538  0.049565  1
  O  O25  1  0.638599  0.488810  0.383649  1
  O  O26  1  0.991891  0.303118  0.717266  1
  O  O27  1  0.623307  0.496473  0.108027  1
  O  O28  1  0.145020  0.362045  0.460526  1
  O  O29  1  0.434968  0.206130  0.760785  1
  O  O30  1  0.008109  0.303118  0.217266  1
  O  O31  1  0.515096  0.158732  0.565975  1
  O  O32  1  0.565032  0.206130  0.260785  1
  O  O33  1  0.069079  0.068803  0.611199  1
  O  O34  1  0.484904  0.158732  0.065975  1
  O  O35  1  0.930921  0.068803  0.111199  1
