# generated using pymatgen
data_ErTm2Zn3Si2Hg
_symmetry_space_group_name_H-M   'P 1'
_cell_length_a   6.87671227
_cell_length_b   6.87671142
_cell_length_c   4.29327900
_cell_angle_alpha   90.00000000
_cell_angle_beta   90.00000000
_cell_angle_gamma   120.05775322
_symmetry_Int_Tables_number   1
_chemical_formula_structural   ErTm2Zn3Si2Hg
_chemical_formula_sum   'Er1 Tm2 Zn3 Si2 Hg1'
_cell_volume   175.72289945
_cell_formula_units_Z   1
loop_
 _symmetry_equiv_pos_site_id
 _symmetry_equiv_pos_as_xyz
  1  'x, y, z'
loop_
 _atom_site_type_symbol
 _atom_site_label
 _atom_site_symmetry_multiplicity
 _atom_site_fract_x
 _atom_site_fract_y
 _atom_site_fract_z
 _atom_site_occupancy
  Er  Er0  1  0.429292  0.429292  0.500000  1
  Tm  Tm1  1  0.571165  0.000309  0.500000  1
  Tm  Tm2  1  0.000309  0.571165  0.500000  1
  Zn  Zn3  1  0.742176  0.742176  0.000000  1
  Zn  Zn4  1  0.257832  0.999953  0.000000  1
  Zn  Zn5  1  0.999953  0.257832  0.000000  1
  Si  Si6  1  0.667320  0.333070  0.000000  1
  Si  Si7  1  0.333070  0.667320  0.000000  1
  Hg  Hg8  1  0.998884  0.998884  0.500000  1
