# generated using pymatgen
data_Pr4Lu2Ga3Si
_symmetry_space_group_name_H-M   'P 1'
_cell_length_a   7.67291002
_cell_length_b   7.67291002
_cell_length_c   4.54256700
_cell_angle_alpha   90.00000000
_cell_angle_beta   90.00000000
_cell_angle_gamma   90.37472379
_symmetry_Int_Tables_number   1
_chemical_formula_structural   Pr4Lu2Ga3Si
_chemical_formula_sum   'Pr4 Lu2 Ga3 Si1'
_cell_volume   267.43131783
_cell_formula_units_Z   1
loop_
 _symmetry_equiv_pos_site_id
 _symmetry_equiv_pos_as_xyz
  1  'x, y, z'
loop_
 _atom_site_type_symbol
 _atom_site_label
 _atom_site_symmetry_multiplicity
 _atom_site_fract_x
 _atom_site_fract_y
 _atom_site_fract_z
 _atom_site_occupancy
  Pr  Pr0  1  0.327286  0.175126  0.500001  1
  Pr  Pr1  1  0.821215  0.321214  0.500001  1
  Pr  Pr2  1  0.175821  0.675822  0.500001  1
  Pr  Pr3  1  0.675127  0.827287  0.500001  1
  Lu  Lu4  1  0.995903  0.000523  0.000000  1
  Lu  Lu5  1  0.500522  0.495902  0.000000  1
  Ga  Ga6  1  0.120345  0.380156  0.000000  1
  Ga  Ga7  1  0.880156  0.620344  0.000000  1
  Ga  Ga8  1  0.382970  0.882970  0.000000  1
  Si  Si9  1  0.620655  0.120656  0.000000  1
