# generated using pymatgen
data_Dy5Pa3(ReB6)4
_symmetry_space_group_name_H-M   'P 1'
_cell_length_a   3.70917800
_cell_length_b   9.19955377
_cell_length_c   11.53401024
_cell_angle_alpha   90.15245151
_cell_angle_beta   90.00000000
_cell_angle_gamma   90.00000000
_symmetry_Int_Tables_number   1
_chemical_formula_structural   Dy5Pa3(ReB6)4
_chemical_formula_sum   'Dy5 Pa3 Re4 B24'
_cell_volume   393.57112920
_cell_formula_units_Z   1
loop_
 _symmetry_equiv_pos_site_id
 _symmetry_equiv_pos_as_xyz
  1  'x, y, z'
loop_
 _atom_site_type_symbol
 _atom_site_label
 _atom_site_symmetry_multiplicity
 _atom_site_fract_x
 _atom_site_fract_y
 _atom_site_fract_z
 _atom_site_occupancy
  Dy  Dy0  1  0.000000  0.178291  0.912854  1
  Dy  Dy1  1  0.000000  0.945456  0.375094  1
  Dy  Dy2  1  0.000000  0.055459  0.626973  1
  Dy  Dy3  1  0.000000  0.443605  0.124671  1
  Dy  Dy4  1  0.000000  0.553526  0.874343  1
  Pa  Pa5  1  0.000000  0.321847  0.413117  1
  Pa  Pa6  1  0.000000  0.677528  0.587475  1
  Pa  Pa7  1  0.000000  0.823746  0.086195  1
  Re  Re8  1  0.000000  0.638300  0.322188  1
  Re  Re9  1  0.000000  0.364389  0.674768  1
  Re  Re10  1  0.000000  0.137661  0.180633  1
  Re  Re11  1  0.000000  0.859590  0.821600  1
  B  B12  1  0.500000  0.553229  0.432551  1
  B  B13  1  0.500000  0.447647  0.566156  1
  B  B14  1  0.500000  0.052382  0.068073  1
  B  B15  1  0.500000  0.945870  0.933288  1
  B  B16  1  0.500000  0.747635  0.420655  1
  B  B17  1  0.500000  0.253044  0.579731  1
  B  B18  1  0.500000  0.246992  0.079460  1
  B  B19  1  0.500000  0.752800  0.920711  1
  B  B20  1  0.500000  0.792622  0.266173  1
  B  B21  1  0.500000  0.208425  0.733105  1
  B  B22  1  0.500000  0.292471  0.233258  1
  B  B23  1  0.500000  0.707061  0.766337  1
  B  B24  1  0.500000  0.633420  0.185295  1
  B  B25  1  0.500000  0.367238  0.813819  1
  B  B26  1  0.500000  0.133510  0.314771  1
  B  B27  1  0.500000  0.866569  0.686459  1
  B  B28  1  0.500000  0.982690  0.213255  1
  B  B29  1  0.500000  0.017115  0.786848  1
  B  B30  1  0.500000  0.483139  0.286145  1
  B  B31  1  0.500000  0.516735  0.713366  1
  B  B32  1  0.500000  0.613303  0.031504  1
  B  B33  1  0.500000  0.386620  0.968320  1
  B  B34  1  0.500000  0.115069  0.468657  1
  B  B35  1  0.500000  0.885017  0.532152  1
