# generated using pymatgen
data_CaCdNi2(Pd3O8)2
_symmetry_space_group_name_H-M   'P 1'
_cell_length_a   6.14927720
_cell_length_b   10.64944056
_cell_length_c   6.56243127
_cell_angle_alpha   105.71059316
_cell_angle_beta   62.05662575
_cell_angle_gamma   89.99786177
_symmetry_Int_Tables_number   1
_chemical_formula_structural   CaCdNi2(Pd3O8)2
_chemical_formula_sum   'Ca1 Cd1 Ni2 Pd6 O16'
_cell_volume   361.36941218
_cell_formula_units_Z   1
loop_
 _symmetry_equiv_pos_site_id
 _symmetry_equiv_pos_as_xyz
  1  'x, y, z'
loop_
 _atom_site_type_symbol
 _atom_site_label
 _atom_site_symmetry_multiplicity
 _atom_site_fract_x
 _atom_site_fract_y
 _atom_site_fract_z
 _atom_site_occupancy
  Ca  Ca0  1  0.249975  0.250005  0.500043  1
  Cd  Cd1  1  0.749989  0.750006  0.500024  1
  Ni  Ni2  1  0.499797  0.499711  0.000238  1
  Ni  Ni3  1  0.000180  0.000335  0.999882  1
  Pd  Pd4  1  0.750015  0.749996  0.999968  1
  Pd  Pd5  1  0.750005  0.249996  0.999985  1
  Pd  Pd6  1  0.999979  0.500182  0.000012  1
  Pd  Pd7  1  0.250003  0.249998  0.999983  1
  Pd  Pd8  1  0.250018  0.749995  0.999965  1
  Pd  Pd9  1  0.500042  0.999804  0.999939  1
  O  O10  1  0.091011  0.636223  0.817973  1
  O  O11  1  0.590859  0.136436  0.818273  1
  O  O12  1  0.409028  0.863760  0.181951  1
  O  O13  1  0.909147  0.363564  0.181703  1
  O  O14  1  0.357523  0.880794  0.807468  1
  O  O15  1  0.854182  0.381937  0.808704  1
  O  O16  1  0.903783  0.857960  0.192376  1
  O  O17  1  0.404135  0.359422  0.191646  1
  O  O18  1  0.142441  0.619212  0.192530  1
  O  O19  1  0.645780  0.118076  0.191325  1
  O  O20  1  0.664965  0.619230  0.192562  1
  O  O21  1  0.162858  0.118084  0.191340  1
  O  O22  1  0.835059  0.880783  0.807449  1
  O  O23  1  0.337163  0.381924  0.808672  1
  O  O24  1  0.596211  0.642013  0.807634  1
  O  O25  1  0.095857  0.140553  0.808364  1
