# generated using pymatgen
data_Ta14Nb2Al3CoTe16
_symmetry_space_group_name_H-M   'P 1'
_cell_length_a   4.87258300
_cell_length_b   11.02011525
_cell_length_c   19.27833300
_cell_angle_alpha   89.87636408
_cell_angle_beta   89.99905685
_cell_angle_gamma   90.00318736
_symmetry_Int_Tables_number   1
_chemical_formula_structural   Ta14Nb2Al3CoTe16
_chemical_formula_sum   'Ta14 Nb2 Al3 Co1 Te16'
_cell_volume   1035.17517431
_cell_formula_units_Z   1
loop_
 _symmetry_equiv_pos_site_id
 _symmetry_equiv_pos_as_xyz
  1  'x, y, z'
loop_
 _atom_site_type_symbol
 _atom_site_label
 _atom_site_symmetry_multiplicity
 _atom_site_fract_x
 _atom_site_fract_y
 _atom_site_fract_z
 _atom_site_occupancy
  Ta  Ta0  1  0.500456  0.434654  0.617327  1
  Ta  Ta1  1  0.501335  0.063858  0.115522  1
  Ta  Ta2  1  0.501462  0.936036  0.884311  1
  Ta  Ta3  1  0.499759  0.707479  0.536714  1
  Ta  Ta4  1  0.499700  0.293764  0.463720  1
  Ta  Ta5  1  0.503056  0.203259  0.963525  1
  Ta  Ta6  1  0.503019  0.796642  0.036382  1
  Ta  Ta7  1  0.000152  0.308649  0.557267  1
  Ta  Ta8  1  0.997121  0.188885  0.056047  1
  Ta  Ta9  1  0.997073  0.810963  0.943829  1
  Ta  Ta10  1  0.999736  0.399311  0.390550  1
  Ta  Ta11  1  0.999776  0.599774  0.609189  1
  Ta  Ta12  1  0.998426  0.901372  0.107552  1
  Ta  Ta13  1  0.998395  0.098529  0.892313  1
  Nb  Nb14  1  0.500356  0.565788  0.381545  1
  Nb  Nb15  1  0.000149  0.693654  0.442474  1
  Al  Al16  1  0.250007  0.500972  0.499443  1
  Al  Al17  1  0.750340  0.999943  0.999941  1
  Al  Al18  1  0.750004  0.500973  0.499440  1
  Co  Co19  1  0.250228  0.999854  0.999870  1
  Te  Te20  1  0.000029  0.846958  0.563207  1
  Te  Te21  1  0.999955  0.152436  0.438446  1
  Te  Te22  1  0.008576  0.345108  0.937541  1
  Te  Te23  1  0.008586  0.654773  0.062309  1
  Te  Te24  1  0.500064  0.330886  0.316856  1
  Te  Te25  1  0.500052  0.667133  0.683699  1
  Te  Te26  1  0.492356  0.833111  0.182785  1
  Te  Te27  1  0.492467  0.166812  0.817116  1
  Te  Te28  1  0.500143  0.823776  0.404266  1
  Te  Te29  1  0.500028  0.176952  0.596867  1
  Te  Te30  1  0.491319  0.320844  0.095396  1
  Te  Te31  1  0.491268  0.679047  0.904439  1
  Te  Te32  1  0.000065  0.607049  0.302034  1
  Te  Te33  1  0.999997  0.390953  0.698210  1
  Te  Te34  1  0.007249  0.107813  0.196646  1
  Te  Te35  1  0.007294  0.891987  0.803225  1
