# generated using pymatgen
data_Rb2Re6Te11
_symmetry_space_group_name_H-M   'P 1'
_cell_length_a   13.29167577
_cell_length_b   13.29167570
_cell_length_c   13.29167409
_cell_angle_alpha   46.60089980
_cell_angle_beta   46.60090593
_cell_angle_gamma   46.60090452
_symmetry_Int_Tables_number   1
_chemical_formula_structural   Rb2Re6Te11
_chemical_formula_sum   'Rb4 Re12 Te22'
_cell_volume   1132.22366192
_cell_formula_units_Z   2
loop_
 _symmetry_equiv_pos_site_id
 _symmetry_equiv_pos_as_xyz
  1  'x, y, z'
loop_
 _atom_site_type_symbol
 _atom_site_label
 _atom_site_symmetry_multiplicity
 _atom_site_fract_x
 _atom_site_fract_y
 _atom_site_fract_z
 _atom_site_occupancy
  Rb  Rb0  1  0.306135  0.306135  0.306135  1
  Rb  Rb1  1  0.193865  0.193865  0.193865  1
  Rb  Rb2  1  0.693865  0.693865  0.693865  1
  Rb  Rb3  1  0.806135  0.806135  0.806135  1
  Re  Re4  1  0.613624  0.317136  0.474357  1
  Re  Re5  1  0.474357  0.613624  0.317136  1
  Re  Re6  1  0.817136  0.113624  0.974357  1
  Re  Re7  1  0.974357  0.817136  0.113624  1
  Re  Re8  1  0.113624  0.974357  0.817136  1
  Re  Re9  1  0.682864  0.525643  0.386376  1
  Re  Re10  1  0.386376  0.682864  0.525643  1
  Re  Re11  1  0.525643  0.386376  0.682864  1
  Re  Re12  1  0.317136  0.474357  0.613624  1
  Re  Re13  1  0.886376  0.025643  0.182864  1
  Re  Re14  1  0.025643  0.182864  0.886376  1
  Re  Re15  1  0.182864  0.886376  0.025643  1
  Te  Te16  1  0.094057  0.094057  0.094057  1
  Te  Te17  1  0.405943  0.405943  0.405943  1
  Te  Te18  1  0.905943  0.905943  0.905943  1
  Te  Te19  1  0.594057  0.594057  0.594057  1
  Te  Te20  1  0.250000  0.953216  0.546784  1
  Te  Te21  1  0.546784  0.250000  0.953216  1
  Te  Te22  1  0.953216  0.546784  0.250000  1
  Te  Te23  1  0.750000  0.046784  0.453216  1
  Te  Te24  1  0.453216  0.750000  0.046784  1
  Te  Te25  1  0.046784  0.453216  0.750000  1
  Te  Te26  1  0.046533  0.722417  0.322631  1
  Te  Te27  1  0.322631  0.046533  0.722417  1
  Te  Te28  1  0.722417  0.322631  0.046533  1
  Te  Te29  1  0.453467  0.177369  0.777583  1
  Te  Te30  1  0.777583  0.453467  0.177369  1
  Te  Te31  1  0.177369  0.777583  0.453467  1
  Te  Te32  1  0.822631  0.222417  0.546533  1
  Te  Te33  1  0.222417  0.546533  0.822631  1
  Te  Te34  1  0.546533  0.822631  0.222417  1
  Te  Te35  1  0.277583  0.677369  0.953467  1
  Te  Te36  1  0.677369  0.953467  0.277583  1
  Te  Te37  1  0.953467  0.277583  0.677369  1
