# generated using pymatgen
data_TaNb6Co4WN2
_symmetry_space_group_name_H-M   'P 1'
_cell_length_a   8.21022195
_cell_length_b   8.23316877
_cell_length_c   8.21025670
_cell_angle_alpha   59.90759217
_cell_angle_beta   59.81723302
_cell_angle_gamma   59.90746252
_symmetry_Int_Tables_number   1
_chemical_formula_structural   TaNb6Co4WN2
_chemical_formula_sum   'Ta2 Nb12 Co8 W2 N4'
_cell_volume   391.33926486
_cell_formula_units_Z   2
loop_
 _symmetry_equiv_pos_site_id
 _symmetry_equiv_pos_as_xyz
  1  'x, y, z'
loop_
 _atom_site_type_symbol
 _atom_site_label
 _atom_site_symmetry_multiplicity
 _atom_site_fract_x
 _atom_site_fract_y
 _atom_site_fract_z
 _atom_site_occupancy
  Ta  Ta0  1  0.125000  0.625000  0.625000  1
  Ta  Ta1  1  0.625000  0.625000  0.125000  1
  Nb  Nb2  1  0.810748  0.811410  0.190262  1
  Nb  Nb3  1  0.190262  0.187586  0.810740  1
  Nb  Nb4  1  0.808130  0.191874  0.808122  1
  Nb  Nb5  1  0.185912  0.814076  0.185937  1
  Nb  Nb6  1  0.190262  0.811412  0.810741  1
  Nb  Nb7  1  0.810747  0.187579  0.190262  1
  Nb  Nb8  1  0.439252  0.438590  0.059738  1
  Nb  Nb9  1  0.059738  0.062414  0.439260  1
  Nb  Nb10  1  0.441870  0.058126  0.441878  1
  Nb  Nb11  1  0.064088  0.435924  0.064063  1
  Nb  Nb12  1  0.059738  0.438588  0.439259  1
  Nb  Nb13  1  0.439253  0.062421  0.059738  1
  Co  Co14  1  0.731401  0.421406  0.425789  1
  Co  Co15  1  0.423272  0.734739  0.423278  1
  Co  Co16  1  0.425784  0.421406  0.731404  1
  Co  Co17  1  0.423272  0.418712  0.423278  1
  Co  Co18  1  0.518599  0.828594  0.824211  1
  Co  Co19  1  0.826728  0.515261  0.826722  1
  Co  Co20  1  0.824216  0.828594  0.518596  1
  Co  Co21  1  0.826728  0.831288  0.826722  1
  W  W22  1  0.625000  0.125000  0.625000  1
  W  W23  1  0.625000  0.625000  0.625000  1
  N  N24  1  0.625000  0.125000  0.125000  1
  N  N25  1  0.125000  0.625000  0.125000  1
  N  N26  1  0.125000  0.125000  0.625000  1
  N  N27  1  0.125000  0.125000  0.125000  1
