# generated using pymatgen
data_YbPr3Sm3CoI12
_symmetry_space_group_name_H-M   'P 1'
_cell_length_a   9.89982237
_cell_length_b   10.02623056
_cell_length_c   9.99063823
_cell_angle_alpha   106.85545150
_cell_angle_beta   107.14278945
_cell_angle_gamma   106.89037615
_symmetry_Int_Tables_number   1
_chemical_formula_structural   YbPr3Sm3CoI12
_chemical_formula_sum   'Yb1 Pr3 Sm3 Co1 I12'
_cell_volume   826.68563806
_cell_formula_units_Z   1
loop_
 _symmetry_equiv_pos_site_id
 _symmetry_equiv_pos_as_xyz
  1  'x, y, z'
loop_
 _atom_site_type_symbol
 _atom_site_label
 _atom_site_symmetry_multiplicity
 _atom_site_fract_x
 _atom_site_fract_y
 _atom_site_fract_z
 _atom_site_occupancy
  Yb  Yb0  1  0.499893  0.500149  0.499726  1
  Pr  Pr1  1  0.290197  0.024993  0.095707  1
  Pr  Pr2  1  0.899695  0.695714  0.974924  1
  Pr  Pr3  1  0.710223  0.975409  0.904347  1
  Sm  Sm4  1  0.974698  0.902154  0.699910  1
  Sm  Sm5  1  0.025978  0.100055  0.300652  1
  Sm  Sm6  1  0.099280  0.299654  0.025407  1
  Co  Co7  1  0.000409  0.000730  0.000456  1
  I  I8  1  0.533547  0.615363  0.838632  1
  I  I9  1  0.460781  0.384465  0.158346  1
  I  I10  1  0.316338  0.926617  0.772121  1
  I  I11  1  0.381134  0.159675  0.463341  1
  I  I12  1  0.929594  0.780578  0.324488  1
  I  I13  1  0.683759  0.073479  0.227933  1
  I  I14  1  0.071847  0.223266  0.681494  1
  I  I15  1  0.776656  0.320068  0.927739  1
  I  I16  1  0.228014  0.677384  0.073290  1
  I  I17  1  0.844357  0.541686  0.616053  1
  I  I18  1  0.154782  0.457940  0.378681  1
  I  I19  1  0.618820  0.840621  0.536753  1
