# generated using pymatgen
data_Ba4Pr7BiS16
_symmetry_space_group_name_H-M   'P 1'
_cell_length_a   4.22005900
_cell_length_b   12.51647346
_cell_length_c   15.03388407
_cell_angle_alpha   89.96366342
_cell_angle_beta   90.00000000
_cell_angle_gamma   90.00000000
_symmetry_Int_Tables_number   1
_chemical_formula_structural   Ba4Pr7BiS16
_chemical_formula_sum   'Ba4 Pr7 Bi1 S16'
_cell_volume   794.09345225
_cell_formula_units_Z   1
loop_
 _symmetry_equiv_pos_site_id
 _symmetry_equiv_pos_as_xyz
  1  'x, y, z'
loop_
 _atom_site_type_symbol
 _atom_site_label
 _atom_site_symmetry_multiplicity
 _atom_site_fract_x
 _atom_site_fract_y
 _atom_site_fract_z
 _atom_site_occupancy
  Ba  Ba0  1  0.250000  0.754083  0.340733  1
  Ba  Ba1  1  0.250000  0.255764  0.159830  1
  Ba  Ba2  1  0.750000  0.243998  0.657655  1
  Ba  Ba3  1  0.750000  0.744332  0.840161  1
  Pr  Pr4  1  0.250000  0.423720  0.393391  1
  Pr  Pr5  1  0.250000  0.925204  0.106958  1
  Pr  Pr6  1  0.750000  0.574161  0.608450  1
  Pr  Pr7  1  0.750000  0.075028  0.891746  1
  Pr  Pr8  1  0.250000  0.421007  0.896361  1
  Pr  Pr9  1  0.250000  0.923844  0.602770  1
  Pr  Pr10  1  0.750000  0.578179  0.104204  1
  Bi  Bi11  1  0.750000  0.077195  0.396165  1
  S  S12  1  0.250000  0.208454  0.824605  1
  S  S13  1  0.250000  0.709653  0.674017  1
  S  S14  1  0.750000  0.791899  0.175463  1
  S  S15  1  0.750000  0.290134  0.324312  1
  S  S16  1  0.250000  0.131527  0.524406  1
  S  S17  1  0.250000  0.630321  0.976709  1
  S  S18  1  0.750000  0.871137  0.473926  1
  S  S19  1  0.750000  0.369562  0.023698  1
  S  S20  1  0.250000  0.519448  0.218118  1
  S  S21  1  0.250000  0.022226  0.284118  1
  S  S22  1  0.750000  0.480525  0.783086  1
  S  S23  1  0.750000  0.980135  0.717482  1
  S  S24  1  0.250000  0.420292  0.581341  1
  S  S25  1  0.250000  0.919874  0.919450  1
  S  S26  1  0.750000  0.579049  0.420449  1
  S  S27  1  0.750000  0.079246  0.080395  1
