# generated using pymatgen
data_LaPr3(RhBr)2
_symmetry_space_group_name_H-M   'P 1'
_cell_length_a   4.14411300
_cell_length_b   4.14411313
_cell_length_c   15.97352900
_cell_angle_alpha   90.00000000
_cell_angle_beta   90.00000000
_cell_angle_gamma   120.00000691
_symmetry_Int_Tables_number   1
_chemical_formula_structural   LaPr3(RhBr)2
_chemical_formula_sum   'La1 Pr3 Rh2 Br2'
_cell_volume   237.57167963
_cell_formula_units_Z   1
loop_
 _symmetry_equiv_pos_site_id
 _symmetry_equiv_pos_as_xyz
  1  'x, y, z'
loop_
 _atom_site_type_symbol
 _atom_site_label
 _atom_site_symmetry_multiplicity
 _atom_site_fract_x
 _atom_site_fract_y
 _atom_site_fract_z
 _atom_site_occupancy
  La  La0  1  0.333333  0.666667  0.097609  1
  Pr  Pr1  1  0.666667  0.333333  0.598100  1
  Pr  Pr2  1  0.666667  0.333333  0.900505  1
  Pr  Pr3  1  0.333333  0.666667  0.402085  1
  Rh  Rh4  1  0.000000  0.000000  0.001525  1
  Rh  Rh5  1  0.000000  0.000000  0.499930  1
  Br  Br6  1  0.666667  0.333333  0.250213  1
  Br  Br7  1  0.333333  0.666667  0.750034  1
