# generated using pymatgen
data_Rb8Na4Tb3YSb8
_symmetry_space_group_name_H-M   'P 1'
_cell_length_a   11.37705007
_cell_length_b   11.37704957
_cell_length_c   7.49382400
_cell_angle_alpha   90.00298760
_cell_angle_beta   89.99701323
_cell_angle_gamma   98.21982590
_symmetry_Int_Tables_number   1
_chemical_formula_structural   Rb8Na4Tb3YSb8
_chemical_formula_sum   'Rb8 Na4 Tb3 Y1 Sb8'
_cell_volume   960.01528136
_cell_formula_units_Z   1
loop_
 _symmetry_equiv_pos_site_id
 _symmetry_equiv_pos_as_xyz
  1  'x, y, z'
loop_
 _atom_site_type_symbol
 _atom_site_label
 _atom_site_symmetry_multiplicity
 _atom_site_fract_x
 _atom_site_fract_y
 _atom_site_fract_z
 _atom_site_occupancy
  Rb  Rb0  1  0.070236  0.429763  0.250007  1
  Rb  Rb1  1  0.429763  0.070236  0.749993  1
  Rb  Rb2  1  0.929766  0.570227  0.749997  1
  Rb  Rb3  1  0.570227  0.929766  0.250003  1
  Rb  Rb4  1  0.676817  0.323190  0.215043  1
  Rb  Rb5  1  0.823187  0.176822  0.715027  1
  Rb  Rb6  1  0.323190  0.676817  0.784957  1
  Rb  Rb7  1  0.176822  0.823187  0.284973  1
  Na  Na8  1  0.382079  0.382079  0.000000  1
  Na  Na9  1  0.117924  0.117924  0.500000  1
  Na  Na10  1  0.617921  0.617921  0.000000  1
  Na  Na11  1  0.882065  0.882065  0.500000  1
  Tb  Tb12  1  0.131186  0.131186  0.000000  1
  Tb  Tb13  1  0.368893  0.368893  0.500000  1
  Tb  Tb14  1  0.868838  0.868838  0.000000  1
  Y  Y15  1  0.631130  0.631130  0.500000  1
  Sb  Sb16  1  0.846928  0.652955  0.250156  1
  Sb  Sb17  1  0.652955  0.846928  0.749844  1
  Sb  Sb18  1  0.152946  0.347038  0.750011  1
  Sb  Sb19  1  0.347038  0.152946  0.249989  1
  Sb  Sb20  1  0.899623  0.100359  0.212167  1
  Sb  Sb21  1  0.600358  0.399748  0.712043  1
  Sb  Sb22  1  0.100359  0.899623  0.787833  1
  Sb  Sb23  1  0.399748  0.600358  0.287957  1
