# generated using pymatgen
data_HfAl2Ni12Sb
_symmetry_space_group_name_H-M   'P 1'
_cell_length_a   3.66373000
_cell_length_b   3.66373000
_cell_length_c   14.34946200
_cell_angle_alpha   90.00000000
_cell_angle_beta   90.00000000
_cell_angle_gamma   90.00000000
_symmetry_Int_Tables_number   1
_chemical_formula_structural   HfAl2Ni12Sb
_chemical_formula_sum   'Hf1 Al2 Ni12 Sb1'
_cell_volume   192.61164478
_cell_formula_units_Z   1
loop_
 _symmetry_equiv_pos_site_id
 _symmetry_equiv_pos_as_xyz
  1  'x, y, z'
loop_
 _atom_site_type_symbol
 _atom_site_label
 _atom_site_symmetry_multiplicity
 _atom_site_fract_x
 _atom_site_fract_y
 _atom_site_fract_z
 _atom_site_occupancy
  Hf  Hf0  1  0.000000  0.000000  0.000000  1
  Al  Al1  1  0.000000  0.000000  0.248684  1
  Al  Al2  1  0.000000  0.000000  0.751316  1
  Ni  Ni3  1  0.500000  0.500000  0.000000  1
  Ni  Ni4  1  0.500000  0.500000  0.250955  1
  Ni  Ni5  1  0.500000  0.500000  0.500000  1
  Ni  Ni6  1  0.500000  0.500000  0.749045  1
  Ni  Ni7  1  0.500000  0.000000  0.131084  1
  Ni  Ni8  1  0.500000  0.000000  0.368964  1
  Ni  Ni9  1  0.500000  0.000000  0.631036  1
  Ni  Ni10  1  0.500000  0.000000  0.868916  1
  Ni  Ni11  1  0.000000  0.500000  0.131084  1
  Ni  Ni12  1  0.000000  0.500000  0.368964  1
  Ni  Ni13  1  0.000000  0.500000  0.631036  1
  Ni  Ni14  1  0.000000  0.500000  0.868916  1
  Sb  Sb15  1  0.000000  0.000000  0.500000  1
