# generated using pymatgen
data_Er4Zn3MoRu4
_symmetry_space_group_name_H-M   'P 1'
_cell_length_a   5.51143900
_cell_length_b   5.20596238
_cell_length_c   9.01928500
_cell_angle_alpha   90.00000000
_cell_angle_beta   90.00000000
_cell_angle_gamma   121.96081861
_symmetry_Int_Tables_number   1
_chemical_formula_structural   Er4Zn3MoRu4
_chemical_formula_sum   'Er4 Zn3 Mo1 Ru4'
_cell_volume   219.55536959
_cell_formula_units_Z   1
loop_
 _symmetry_equiv_pos_site_id
 _symmetry_equiv_pos_as_xyz
  1  'x, y, z'
loop_
 _atom_site_type_symbol
 _atom_site_label
 _atom_site_symmetry_multiplicity
 _atom_site_fract_x
 _atom_site_fract_y
 _atom_site_fract_z
 _atom_site_occupancy
  Er  Er0  1  0.332585  0.665171  0.445579  1
  Er  Er1  1  0.670589  0.341179  0.568308  1
  Er  Er2  1  0.670589  0.341179  0.931692  1
  Er  Er3  1  0.332585  0.665171  0.054421  1
  Zn  Zn4  1  0.328538  0.170594  0.250000  1
  Zn  Zn5  1  0.833227  0.666455  0.250000  1
  Zn  Zn6  1  0.842056  0.170594  0.250000  1
  Mo  Mo7  1  0.157370  0.314741  0.750000  1
  Ru  Ru8  1  0.167099  0.815739  0.750000  1
  Ru  Ru9  1  0.648640  0.815739  0.750000  1
  Ru  Ru10  1  0.008360  0.016719  0.998200  1
  Ru  Ru11  1  0.008360  0.016719  0.501800  1
