# generated using pymatgen
data_DyY12Th3(CdNi)4
_symmetry_space_group_name_H-M   'P 1'
_cell_length_a   9.63354058
_cell_length_b   9.65875565
_cell_length_c   9.65875500
_cell_angle_alpha   59.99999880
_cell_angle_beta   59.91337724
_cell_angle_gamma   59.91337618
_symmetry_Int_Tables_number   1
_chemical_formula_structural   DyY12Th3(CdNi)4
_chemical_formula_sum   'Dy1 Y12 Th3 Cd4 Ni4'
_cell_volume   634.66330615
_cell_formula_units_Z   1
loop_
 _symmetry_equiv_pos_site_id
 _symmetry_equiv_pos_as_xyz
  1  'x, y, z'
loop_
 _atom_site_type_symbol
 _atom_site_label
 _atom_site_symmetry_multiplicity
 _atom_site_fract_x
 _atom_site_fract_y
 _atom_site_fract_z
 _atom_site_occupancy
  Dy  Dy0  1  0.197026  0.600992  0.600992  1
  Y  Y1  1  0.062213  0.438402  0.438402  1
  Y  Y2  1  0.439542  0.062178  0.062178  1
  Y  Y3  1  0.439542  0.062178  0.436101  1
  Y  Y4  1  0.062213  0.438402  0.060982  1
  Y  Y5  1  0.439542  0.436101  0.062178  1
  Y  Y6  1  0.062213  0.060982  0.438402  1
  Y  Y7  1  0.186901  0.815482  0.815482  1
  Y  Y8  1  0.813956  0.185419  0.185419  1
  Y  Y9  1  0.813956  0.185419  0.815206  1
  Y  Y10  1  0.186901  0.815482  0.182134  1
  Y  Y11  1  0.813956  0.815206  0.185419  1
  Y  Y12  1  0.186901  0.182134  0.815482  1
  Th  Th13  1  0.593250  0.598990  0.598990  1
  Th  Th14  1  0.593250  0.598990  0.208770  1
  Th  Th15  1  0.593250  0.208770  0.598990  1
  Cd  Cd16  1  0.833469  0.831551  0.831551  1
  Cd  Cd17  1  0.833469  0.831551  0.503428  1
  Cd  Cd18  1  0.833469  0.503428  0.831551  1
  Cd  Cd19  1  0.504204  0.831932  0.831932  1
  Ni  Ni20  1  0.398401  0.391531  0.391531  1
  Ni  Ni21  1  0.398401  0.391531  0.818538  1
  Ni  Ni22  1  0.398401  0.818538  0.391531  1
  Ni  Ni23  1  0.815568  0.394811  0.394811  1
