# generated using pymatgen
data_Ho4VRe3B16
_symmetry_space_group_name_H-M   'P 1'
_cell_length_a   3.57892300
_cell_length_b   5.96722792
_cell_length_c   11.53875968
_cell_angle_alpha   90.11351560
_cell_angle_beta   90.00000000
_cell_angle_gamma   90.00000000
_symmetry_Int_Tables_number   1
_chemical_formula_structural   Ho4VRe3B16
_chemical_formula_sum   'Ho4 V1 Re3 B16'
_cell_volume   246.42414405
_cell_formula_units_Z   1
loop_
 _symmetry_equiv_pos_site_id
 _symmetry_equiv_pos_as_xyz
  1  'x, y, z'
loop_
 _atom_site_type_symbol
 _atom_site_label
 _atom_site_symmetry_multiplicity
 _atom_site_fract_x
 _atom_site_fract_y
 _atom_site_fract_z
 _atom_site_occupancy
  Ho  Ho0  1  0.500000  0.125920  0.648824  1
  Ho  Ho1  1  0.500000  0.875060  0.350736  1
  Ho  Ho2  1  0.500000  0.626392  0.849036  1
  Ho  Ho3  1  0.500000  0.373128  0.152225  1
  V  V4  1  0.500000  0.371791  0.417189  1
  Re  Re5  1  0.500000  0.133080  0.912895  1
  Re  Re6  1  0.500000  0.866883  0.086080  1
  Re  Re7  1  0.500000  0.627126  0.584076  1
  B  B8  1  0.000000  0.476480  0.692337  1
  B  B9  1  0.000000  0.523220  0.307556  1
  B  B10  1  0.000000  0.976038  0.807420  1
  B  B11  1  0.000000  0.024106  0.192710  1
  B  B12  1  0.000000  0.285834  0.814135  1
  B  B13  1  0.000000  0.714308  0.185712  1
  B  B14  1  0.000000  0.786212  0.684671  1
  B  B15  1  0.000000  0.213932  0.315070  1
  B  B16  1  0.000000  0.364323  0.968448  1
  B  B17  1  0.000000  0.635800  0.031615  1
  B  B18  1  0.000000  0.864784  0.532048  1
  B  B19  1  0.000000  0.134985  0.467497  1
  B  B20  1  0.000000  0.385533  0.546954  1
  B  B21  1  0.000000  0.614530  0.452677  1
  B  B22  1  0.000000  0.885918  0.952547  1
  B  B23  1  0.000000  0.114618  0.047542  1
