# generated using pymatgen
data_NdCd(CuPd)2
_symmetry_space_group_name_H-M   'P 1'
_cell_length_a   5.17475211
_cell_length_b   5.29318271
_cell_length_c   5.29318332
_cell_angle_alpha   62.91628023
_cell_angle_beta   60.73741235
_cell_angle_gamma   60.73741481
_symmetry_Int_Tables_number   1
_chemical_formula_structural   NdCd(CuPd)2
_chemical_formula_sum   'Nd1 Cd1 Cu2 Pd2'
_cell_volume   105.79008349
_cell_formula_units_Z   1
loop_
 _symmetry_equiv_pos_site_id
 _symmetry_equiv_pos_as_xyz
  1  'x, y, z'
loop_
 _atom_site_type_symbol
 _atom_site_label
 _atom_site_symmetry_multiplicity
 _atom_site_fract_x
 _atom_site_fract_y
 _atom_site_fract_z
 _atom_site_occupancy
  Nd  Nd0  1  0.999404  0.000596  0.000596  1
  Cd  Cd1  1  0.240530  0.259470  0.259470  1
  Cu  Cu2  1  0.127538  0.621113  0.621113  1
  Cu  Cu3  1  0.630234  0.621113  0.621113  1
  Pd  Pd4  1  0.626146  0.622766  0.124941  1
  Pd  Pd5  1  0.626146  0.124941  0.622766  1
