# generated using pymatgen
data_Tm5Sc5(InBi2)2
_symmetry_space_group_name_H-M   'P 1'
_cell_length_a   6.22310700
_cell_length_b   8.89188689
_cell_length_c   8.76625277
_cell_angle_alpha   120.43339750
_cell_angle_beta   90.00234711
_cell_angle_gamma   89.99635642
_symmetry_Int_Tables_number   1
_chemical_formula_structural   Tm5Sc5(InBi2)2
_chemical_formula_sum   'Tm5 Sc5 In2 Bi4'
_cell_volume   418.24672801
_cell_formula_units_Z   1
loop_
 _symmetry_equiv_pos_site_id
 _symmetry_equiv_pos_as_xyz
  1  'x, y, z'
loop_
 _atom_site_type_symbol
 _atom_site_label
 _atom_site_symmetry_multiplicity
 _atom_site_fract_x
 _atom_site_fract_y
 _atom_site_fract_z
 _atom_site_occupancy
  Tm  Tm0  1  0.750001  0.766547  0.764492  1
  Tm  Tm1  1  0.750000  0.002260  0.235528  1
  Tm  Tm2  1  0.250008  0.762510  0.000038  1
  Tm  Tm3  1  0.249996  0.232298  0.240722  1
  Tm  Tm4  1  0.249996  0.991477  0.759353  1
  Sc  Sc5  1  0.496989  0.330750  0.658787  1
  Sc  Sc6  1  0.496751  0.672292  0.341275  1
  Sc  Sc7  1  0.003263  0.672253  0.341238  1
  Sc  Sc8  1  0.003041  0.330737  0.658776  1
  Sc  Sc9  1  0.750035  0.240794  0.999901  1
  In  In10  1  0.249960  0.599121  0.600377  1
  In  In11  1  0.249934  0.998825  0.399647  1
  Bi  Bi12  1  0.750010  0.600543  0.000162  1
  Bi  Bi13  1  0.749998  0.399797  0.392370  1
  Bi  Bi14  1  0.749999  0.007487  0.607483  1
  Bi  Bi15  1  0.250017  0.392310  0.999852  1
