# generated using pymatgen
data_Nd5Ge8P4Ir19
_symmetry_space_group_name_H-M   'P 1'
_cell_length_a   13.11875956
_cell_length_b   13.09095574
_cell_length_c   4.03878200
_cell_angle_alpha   90.00000000
_cell_angle_beta   90.00000000
_cell_angle_gamma   120.14040367
_symmetry_Int_Tables_number   1
_chemical_formula_structural   Nd5Ge8P4Ir19
_chemical_formula_sum   'Nd5 Ge8 P4 Ir19'
_cell_volume   599.83111536
_cell_formula_units_Z   1
loop_
 _symmetry_equiv_pos_site_id
 _symmetry_equiv_pos_as_xyz
  1  'x, y, z'
loop_
 _atom_site_type_symbol
 _atom_site_label
 _atom_site_symmetry_multiplicity
 _atom_site_fract_x
 _atom_site_fract_y
 _atom_site_fract_z
 _atom_site_occupancy
  Nd  Nd0  1  0.667380  0.333164  0.000000  1
  Nd  Nd1  1  0.331664  0.665323  0.000000  1
  Nd  Nd2  1  0.815633  0.815442  0.500000  1
  Nd  Nd3  1  0.183872  0.001429  0.500000  1
  Nd  Nd4  1  0.000872  0.183619  0.500000  1
  Ge  Ge5  1  0.682554  0.162463  0.500000  1
  Ge  Ge6  1  0.837027  0.519530  0.500000  1
  Ge  Ge7  1  0.482112  0.318035  0.500000  1
  Ge  Ge8  1  0.165402  0.685135  0.500000  1
  Ge  Ge9  1  0.517080  0.830533  0.500000  1
  Ge  Ge10  1  0.635188  0.635321  0.000000  1
  Ge  Ge11  1  0.364557  0.999907  0.000000  1
  Ge  Ge12  1  0.001083  0.364470  0.000000  1
  P  P13  1  0.306543  0.480230  0.500000  1
  P  P14  1  0.180422  0.181503  0.000000  1
  P  P15  1  0.819581  0.997754  0.000000  1
  P  P16  1  0.000438  0.821889  0.000000  1
  Ir  Ir17  1  0.807431  0.173843  0.000000  1
  Ir  Ir18  1  0.825808  0.631818  0.000000  1
  Ir  Ir19  1  0.366609  0.193361  0.000000  1
  Ir  Ir20  1  0.175046  0.806371  0.000000  1
  Ir  Ir21  1  0.626555  0.820817  0.000000  1
  Ir  Ir22  1  0.207829  0.381896  0.000000  1
  Ir  Ir23  1  0.451147  0.443185  0.000000  1
  Ir  Ir24  1  0.554601  0.001440  0.000000  1
  Ir  Ir25  1  0.000634  0.553173  0.000000  1
  Ir  Ir26  1  0.277292  0.283324  0.500000  1
  Ir  Ir27  1  0.725264  0.997282  0.500000  1
  Ir  Ir28  1  0.000687  0.727636  0.500000  1
  Ir  Ir29  1  0.873481  0.355554  0.500000  1
  Ir  Ir30  1  0.645448  0.519060  0.500000  1
  Ir  Ir31  1  0.482362  0.127523  0.500000  1
  Ir  Ir32  1  0.358598  0.874874  0.500000  1
  Ir  Ir33  1  0.500735  0.628132  0.500000  1
  Ir  Ir34  1  0.127960  0.483008  0.500000  1
  Ir  Ir35  1  0.001103  0.001957  0.000000  1
