# generated using pymatgen
data_Cs2Hf(AgSe2)2
_symmetry_space_group_name_H-M   'P 1'
_cell_length_a   7.81941900
_cell_length_b   7.81941875
_cell_length_c   6.23935000
_cell_angle_alpha   90.00000000
_cell_angle_beta   90.00000000
_cell_angle_gamma   132.93332260
_symmetry_Int_Tables_number   1
_chemical_formula_structural   Cs2Hf(AgSe2)2
_chemical_formula_sum   'Cs2 Hf1 Ag2 Se4'
_cell_volume   279.31002118
_cell_formula_units_Z   1
loop_
 _symmetry_equiv_pos_site_id
 _symmetry_equiv_pos_as_xyz
  1  'x, y, z'
loop_
 _atom_site_type_symbol
 _atom_site_label
 _atom_site_symmetry_multiplicity
 _atom_site_fract_x
 _atom_site_fract_y
 _atom_site_fract_z
 _atom_site_occupancy
  Cs  Cs0  1  0.500000  0.000000  0.264028  1
  Cs  Cs1  1  0.000000  0.500000  0.735972  1
  Hf  Hf2  1  0.000000  0.000000  0.000000  1
  Ag  Ag3  1  0.000000  0.000000  0.500000  1
  Ag  Ag4  1  0.500000  0.500000  0.000000  1
  Se  Se5  1  0.874402  0.662947  0.230030  1
  Se  Se6  1  0.125598  0.337053  0.230030  1
  Se  Se7  1  0.662947  0.874402  0.769970  1
  Se  Se8  1  0.337053  0.125598  0.769970  1
