# generated using pymatgen
data_Y4PdPt3
_symmetry_space_group_name_H-M   'P 1'
_cell_length_a   4.52914400
_cell_length_b   5.61003966
_cell_length_c   7.08821711
_cell_angle_alpha   90.21223940
_cell_angle_beta   90.00000000
_cell_angle_gamma   90.00000000
_symmetry_Int_Tables_number   1
_chemical_formula_structural   Y4PdPt3
_chemical_formula_sum   'Y4 Pd1 Pt3'
_cell_volume   180.10098672
_cell_formula_units_Z   1
loop_
 _symmetry_equiv_pos_site_id
 _symmetry_equiv_pos_as_xyz
  1  'x, y, z'
loop_
 _atom_site_type_symbol
 _atom_site_label
 _atom_site_symmetry_multiplicity
 _atom_site_fract_x
 _atom_site_fract_y
 _atom_site_fract_z
 _atom_site_occupancy
  Y  Y0  1  0.250000  0.642283  0.182757  1
  Y  Y1  1  0.750000  0.361002  0.814860  1
  Y  Y2  1  0.750000  0.139353  0.321372  1
  Y  Y3  1  0.250000  0.857316  0.682230  1
  Pd  Pd4  1  0.250000  0.152306  0.042319  1
  Pt  Pt5  1  0.750000  0.850495  0.958127  1
  Pt  Pt6  1  0.750000  0.653504  0.455030  1
  Pt  Pt7  1  0.250000  0.343742  0.543304  1
