# generated using pymatgen
data_Ca2Si6GeRh12
_symmetry_space_group_name_H-M   'P 1'
_cell_length_a   9.82642000
_cell_length_b   9.82642020
_cell_length_c   3.86004000
_cell_angle_alpha   90.00000000
_cell_angle_beta   90.00000000
_cell_angle_gamma   120.00000606
_symmetry_Int_Tables_number   1
_chemical_formula_structural   Ca2Si6GeRh12
_chemical_formula_sum   'Ca2 Si6 Ge1 Rh12'
_cell_volume   322.78479187
_cell_formula_units_Z   1
loop_
 _symmetry_equiv_pos_site_id
 _symmetry_equiv_pos_as_xyz
  1  'x, y, z'
loop_
 _atom_site_type_symbol
 _atom_site_label
 _atom_site_symmetry_multiplicity
 _atom_site_fract_x
 _atom_site_fract_y
 _atom_site_fract_z
 _atom_site_occupancy
  Ca  Ca0  1  0.000000  0.000000  0.749309  1
  Ca  Ca1  1  0.333333  0.666667  0.251787  1
  Si  Si2  1  0.066350  0.623522  0.750110  1
  Si  Si3  1  0.376478  0.442827  0.750110  1
  Si  Si4  1  0.557173  0.933650  0.750110  1
  Si  Si5  1  0.267117  0.042665  0.250997  1
  Si  Si6  1  0.957335  0.224452  0.250997  1
  Si  Si7  1  0.775548  0.732883  0.250997  1
  Ge  Ge8  1  0.666667  0.333333  0.527038  1
  Rh  Rh9  1  0.813160  0.601709  0.749708  1
  Rh  Rh10  1  0.398291  0.211450  0.749708  1
  Rh  Rh11  1  0.788550  0.186840  0.749708  1
  Rh  Rh12  1  0.522830  0.069598  0.251853  1
  Rh  Rh13  1  0.930402  0.453232  0.251853  1
  Rh  Rh14  1  0.546768  0.477170  0.251853  1
  Rh  Rh15  1  0.110347  0.396115  0.751821  1
  Rh  Rh16  1  0.603885  0.714233  0.751821  1
  Rh  Rh17  1  0.285767  0.889653  0.751821  1
  Rh  Rh18  1  0.223068  0.271842  0.249445  1
  Rh  Rh19  1  0.728158  0.951226  0.249445  1
  Rh  Rh20  1  0.048774  0.776932  0.249445  1
