# generated using pymatgen
data_SrPr3Dy3CoI12
_symmetry_space_group_name_H-M   'P 1'
_cell_length_a   9.86212088
_cell_length_b   9.96967883
_cell_length_c   9.93182970
_cell_angle_alpha   105.96365543
_cell_angle_beta   106.60460551
_cell_angle_gamma   106.22107331
_symmetry_Int_Tables_number   1
_chemical_formula_structural   SrPr3Dy3CoI12
_chemical_formula_sum   'Sr1 Pr3 Dy3 Co1 I12'
_cell_volume   829.03860035
_cell_formula_units_Z   1
loop_
 _symmetry_equiv_pos_site_id
 _symmetry_equiv_pos_as_xyz
  1  'x, y, z'
loop_
 _atom_site_type_symbol
 _atom_site_label
 _atom_site_symmetry_multiplicity
 _atom_site_fract_x
 _atom_site_fract_y
 _atom_site_fract_z
 _atom_site_occupancy
  Sr  Sr0  1  0.500007  0.500458  0.499587  1
  Pr  Pr1  1  0.287229  0.020424  0.091927  1
  Pr  Pr2  1  0.903767  0.698851  0.980963  1
  Pr  Pr3  1  0.713432  0.980377  0.908103  1
  Dy  Dy4  1  0.979320  0.908785  0.708258  1
  Dy  Dy5  1  0.021870  0.095212  0.292095  1
  Dy  Dy6  1  0.094010  0.290746  0.019937  1
  Co  Co7  1  0.000517  0.000643  0.000689  1
  I  I8  1  0.540075  0.625876  0.855905  1
  I  I9  1  0.447897  0.374112  0.137938  1
  I  I10  1  0.313175  0.924067  0.767829  1
  I  I11  1  0.365479  0.141826  0.455074  1
  I  I12  1  0.931350  0.788412  0.331921  1
  I  I13  1  0.687001  0.076435  0.232406  1
  I  I14  1  0.071620  0.220039  0.680448  1
  I  I15  1  0.781439  0.323975  0.927529  1
  I  I16  1  0.228539  0.671202  0.074376  1
  I  I17  1  0.865173  0.556360  0.626800  1
  I  I18  1  0.133801  0.443201  0.362925  1
  I  I19  1  0.634300  0.858998  0.545289  1
