# generated using pymatgen
data_Rb(AsPt2)4
_symmetry_space_group_name_H-M   'P 1'
_cell_length_a   8.13794685
_cell_length_b   8.13794560
_cell_length_c   8.13794598
_cell_angle_alpha   93.66536350
_cell_angle_beta   93.66535621
_cell_angle_gamma   150.70852781
_symmetry_Int_Tables_number   1
_chemical_formula_structural   Rb(AsPt2)4
_chemical_formula_sum   'Rb1 As4 Pt8'
_cell_volume   255.11266327
_cell_formula_units_Z   1
loop_
 _symmetry_equiv_pos_site_id
 _symmetry_equiv_pos_as_xyz
  1  'x, y, z'
loop_
 _atom_site_type_symbol
 _atom_site_label
 _atom_site_symmetry_multiplicity
 _atom_site_fract_x
 _atom_site_fract_y
 _atom_site_fract_z
 _atom_site_occupancy
  Rb  Rb0  1  0.000000  0.000000  0.000000  1
  As  As1  1  0.764905  0.433821  0.198726  1
  As  As2  1  0.433821  0.235095  0.668918  1
  As  As3  1  0.566179  0.764905  0.331082  1
  As  As4  1  0.235095  0.566179  0.801274  1
  Pt  Pt5  1  0.019738  0.637778  0.657516  1
  Pt  Pt6  1  0.663103  0.241852  0.904954  1
  Pt  Pt7  1  0.241852  0.336897  0.578749  1
  Pt  Pt8  1  0.758148  0.663103  0.421251  1
  Pt  Pt9  1  0.336897  0.758148  0.095046  1
  Pt  Pt10  1  0.980262  0.362222  0.342484  1
  Pt  Pt11  1  0.362222  0.019738  0.381960  1
  Pt  Pt12  1  0.637778  0.980262  0.618040  1
