# generated using pymatgen
data_Hf18Re7Si2Mo
_symmetry_space_group_name_H-M   'P 1'
_cell_length_a   8.56737105
_cell_length_b   8.56737052
_cell_length_c   8.69839300
_cell_angle_alpha   90.00000000
_cell_angle_beta   90.00000000
_cell_angle_gamma   120.05669951
_symmetry_Int_Tables_number   1
_chemical_formula_structural   Hf18Re7Si2Mo
_chemical_formula_sum   'Hf18 Re7 Si2 Mo1'
_cell_volume   552.60698347
_cell_formula_units_Z   1
loop_
 _symmetry_equiv_pos_site_id
 _symmetry_equiv_pos_as_xyz
  1  'x, y, z'
loop_
 _atom_site_type_symbol
 _atom_site_label
 _atom_site_symmetry_multiplicity
 _atom_site_fract_x
 _atom_site_fract_y
 _atom_site_fract_z
 _atom_site_occupancy
  Hf  Hf0  1  0.195379  0.804621  0.452984  1
  Hf  Hf1  1  0.195644  0.390859  0.453524  1
  Hf  Hf2  1  0.609141  0.804356  0.453524  1
  Hf  Hf3  1  0.804531  0.195469  0.547988  1
  Hf  Hf4  1  0.804808  0.609706  0.547351  1
  Hf  Hf5  1  0.390294  0.195192  0.547351  1
  Hf  Hf6  1  0.804531  0.195469  0.952012  1
  Hf  Hf7  1  0.804808  0.609706  0.952649  1
  Hf  Hf8  1  0.390294  0.195192  0.952649  1
  Hf  Hf9  1  0.195379  0.804621  0.047016  1
  Hf  Hf10  1  0.195644  0.390859  0.046476  1
  Hf  Hf11  1  0.609141  0.804356  0.046476  1
  Hf  Hf12  1  0.539289  0.460711  0.250000  1
  Hf  Hf13  1  0.538451  0.078214  0.250000  1
  Hf  Hf14  1  0.921786  0.461549  0.250000  1
  Hf  Hf15  1  0.460598  0.539402  0.750000  1
  Hf  Hf16  1  0.460507  0.921311  0.750000  1
  Hf  Hf17  1  0.078689  0.539493  0.750000  1
  Re  Re18  1  0.890454  0.781078  0.250000  1
  Re  Re19  1  0.218922  0.109546  0.250000  1
  Re  Re20  1  0.109212  0.890788  0.750000  1
  Re  Re21  1  0.109498  0.218544  0.750000  1
  Re  Re22  1  0.781456  0.890502  0.750000  1
  Re  Re23  1  0.000244  0.999756  0.500425  1
  Re  Re24  1  0.000244  0.999756  0.999575  1
  Si  Si25  1  0.333174  0.666826  0.250000  1
  Si  Si26  1  0.666643  0.333357  0.750000  1
  Mo  Mo27  1  0.891240  0.108760  0.250000  1
