# generated using pymatgen
data_Dy9Ho3(TcRu)2
_symmetry_space_group_name_H-M   'P 1'
_cell_length_a   6.26928631
_cell_length_b   7.38121038
_cell_length_c   9.15233382
_cell_angle_alpha   89.96516521
_cell_angle_beta   90.03406349
_cell_angle_gamma   90.01201130
_symmetry_Int_Tables_number   1
_chemical_formula_structural   Dy9Ho3(TcRu)2
_chemical_formula_sum   'Dy9 Ho3 Tc2 Ru2'
_cell_volume   423.52336431
_cell_formula_units_Z   1
loop_
 _symmetry_equiv_pos_site_id
 _symmetry_equiv_pos_as_xyz
  1  'x, y, z'
loop_
 _atom_site_type_symbol
 _atom_site_label
 _atom_site_symmetry_multiplicity
 _atom_site_fract_x
 _atom_site_fract_y
 _atom_site_fract_z
 _atom_site_occupancy
  Dy  Dy0  1  0.334529  0.676527  0.064177  1
  Dy  Dy1  1  0.165435  0.176232  0.436007  1
  Dy  Dy2  1  0.664232  0.324390  0.562468  1
  Dy  Dy3  1  0.835890  0.824581  0.937212  1
  Dy  Dy4  1  0.664285  0.324091  0.937436  1
  Dy  Dy5  1  0.875591  0.540226  0.250281  1
  Dy  Dy6  1  0.624489  0.039843  0.250144  1
  Dy  Dy7  1  0.132360  0.457444  0.749784  1
  Dy  Dy8  1  0.367761  0.957220  0.749835  1
  Ho  Ho9  1  0.835679  0.824371  0.562607  1
  Ho  Ho10  1  0.334546  0.676567  0.436046  1
  Ho  Ho11  1  0.165527  0.176293  0.064194  1
  Tc  Tc12  1  0.038311  0.885346  0.250428  1
  Tc  Tc13  1  0.461172  0.385263  0.249761  1
  Ru  Ru14  1  0.961311  0.115503  0.750251  1
  Ru  Ru15  1  0.538883  0.616103  0.749367  1
