# generated using pymatgen
data_HoTm9(Tl3Ir)2
_symmetry_space_group_name_H-M   'P 1'
_cell_length_a   9.13104700
_cell_length_b   9.13104617
_cell_length_c   6.77984500
_cell_angle_alpha   90.00000000
_cell_angle_beta   90.00000000
_cell_angle_gamma   119.99999937
_symmetry_Int_Tables_number   1
_chemical_formula_structural   HoTm9(Tl3Ir)2
_chemical_formula_sum   'Ho1 Tm9 Tl6 Ir2'
_cell_volume   489.54375732
_cell_formula_units_Z   1
loop_
 _symmetry_equiv_pos_site_id
 _symmetry_equiv_pos_as_xyz
  1  'x, y, z'
loop_
 _atom_site_type_symbol
 _atom_site_label
 _atom_site_symmetry_multiplicity
 _atom_site_fract_x
 _atom_site_fract_y
 _atom_site_fract_z
 _atom_site_occupancy
  Ho  Ho0  1  0.333333  0.666667  0.500000  1
  Tm  Tm1  1  0.763370  0.763262  0.249932  1
  Tm  Tm2  1  0.999894  0.763262  0.750068  1
  Tm  Tm3  1  0.236738  0.000106  0.249932  1
  Tm  Tm4  1  0.236738  0.236630  0.750068  1
  Tm  Tm5  1  0.999894  0.236630  0.249932  1
  Tm  Tm6  1  0.666667  0.333333  0.500000  1
  Tm  Tm7  1  0.763370  0.000106  0.750068  1
  Tm  Tm8  1  0.333333  0.666667  0.000000  1
  Tm  Tm9  1  0.666667  0.333333  0.000000  1
  Tl  Tl10  1  0.406958  0.000433  0.750369  1
  Tl  Tl11  1  0.593475  0.000433  0.249631  1
  Tl  Tl12  1  0.406958  0.406525  0.249631  1
  Tl  Tl13  1  0.999567  0.593042  0.249631  1
  Tl  Tl14  1  0.999567  0.406525  0.750369  1
  Tl  Tl15  1  0.593475  0.593042  0.750369  1
  Ir  Ir16  1  0.000000  0.000000  0.000000  1
  Ir  Ir17  1  0.000000  0.000000  0.500000  1
