# generated using pymatgen
data_Sr3La(Al3Pt)6
_symmetry_space_group_name_H-M   'P 1'
_cell_length_a   7.72077002
_cell_length_b   7.72285046
_cell_length_c   9.68374400
_cell_angle_alpha   90.00000000
_cell_angle_beta   90.00000000
_cell_angle_gamma   119.52047955
_symmetry_Int_Tables_number   1
_chemical_formula_structural   Sr3La(Al3Pt)6
_chemical_formula_sum   'Sr3 La1 Al18 Pt6'
_cell_volume   502.44722787
_cell_formula_units_Z   1
loop_
 _symmetry_equiv_pos_site_id
 _symmetry_equiv_pos_as_xyz
  1  'x, y, z'
loop_
 _atom_site_type_symbol
 _atom_site_label
 _atom_site_symmetry_multiplicity
 _atom_site_fract_x
 _atom_site_fract_y
 _atom_site_fract_z
 _atom_site_occupancy
  Sr  Sr0  1  0.004320  0.329359  0.750000  1
  Sr  Sr1  1  0.669988  0.995570  0.250000  1
  Sr  Sr2  1  0.330152  0.004968  0.750000  1
  La  La3  1  0.996546  0.669811  0.250000  1
  Al  Al4  1  0.134682  0.133157  0.250000  1
  Al  Al5  1  0.865034  0.865269  0.750000  1
  Al  Al6  1  0.001971  0.333872  0.074565  1
  Al  Al7  1  0.997659  0.665292  0.925634  1
  Al  Al8  1  0.997659  0.665292  0.574366  1
  Al  Al9  1  0.335464  0.002928  0.425375  1
  Al  Al10  1  0.001971  0.333872  0.425435  1
  Al  Al11  1  0.665267  0.997632  0.573781  1
  Al  Al12  1  0.665267  0.997632  0.926219  1
  Al  Al13  1  0.335464  0.002928  0.074625  1
  Al  Al14  1  0.334345  0.334424  0.550118  1
  Al  Al15  1  0.665415  0.665827  0.449111  1
  Al  Al16  1  0.665415  0.665827  0.050889  1
  Al  Al17  1  0.334345  0.334424  0.949882  1
  Al  Al18  1  0.339703  0.542667  0.250000  1
  Al  Al19  1  0.658715  0.457137  0.750000  1
  Al  Al20  1  0.544501  0.343606  0.250000  1
  Al  Al21  1  0.456692  0.659055  0.750000  1
  Pt  Pt22  1  0.670773  0.329696  0.000218  1
  Pt  Pt23  1  0.329096  0.670616  0.000627  1
  Pt  Pt24  1  0.329096  0.670616  0.499373  1
  Pt  Pt25  1  0.670773  0.329696  0.499782  1
  Pt  Pt26  1  0.999843  0.999413  0.000629  1
  Pt  Pt27  1  0.999843  0.999413  0.499371  1
