# generated using pymatgen
data_Pr2Nd4BAsBr6
_symmetry_space_group_name_H-M   'P 1'
_cell_length_a   10.43022661
_cell_length_b   10.43022694
_cell_length_c   10.23665328
_cell_angle_alpha   109.42986576
_cell_angle_beta   109.42986390
_cell_angle_gamma   110.30649155
_symmetry_Int_Tables_number   1
_chemical_formula_structural   Pr2Nd4BAsBr6
_chemical_formula_sum   'Pr4 Nd8 B2 As2 Br12'
_cell_volume   849.17676690
_cell_formula_units_Z   2
loop_
 _symmetry_equiv_pos_site_id
 _symmetry_equiv_pos_as_xyz
  1  'x, y, z'
loop_
 _atom_site_type_symbol
 _atom_site_label
 _atom_site_symmetry_multiplicity
 _atom_site_fract_x
 _atom_site_fract_y
 _atom_site_fract_z
 _atom_site_occupancy
  Pr  Pr0  1  0.491201  0.241201  0.482403  1
  Pr  Pr1  1  0.019622  0.480378  0.750000  1
  Pr  Pr2  1  0.258799  0.008799  0.017597  1
  Pr  Pr3  1  0.230378  0.269622  0.750000  1
  Nd  Nd4  1  0.465225  0.494699  0.221167  1
  Nd  Nd5  1  0.773532  0.244056  0.278833  1
  Nd  Nd6  1  0.771168  0.027855  0.497832  1
  Nd  Nd7  1  0.226664  0.469978  0.497832  1
  Nd  Nd8  1  0.255944  0.726468  0.221167  1
  Nd  Nd9  1  0.030022  0.273336  0.002168  1
  Nd  Nd10  1  0.005301  0.034775  0.278833  1
  Nd  Nd11  1  0.472145  0.728832  0.002168  1
  B  B12  1  0.999038  0.249038  0.498076  1
  B  B13  1  0.250962  0.500962  0.001924  1
  As  As14  1  0.248489  0.251511  0.250000  1
  As  As15  1  0.501511  0.998489  0.250000  1
  Br  Br16  1  0.250379  0.755099  0.740984  1
  Br  Br17  1  0.514116  0.509396  0.759016  1
  Br  Br18  1  0.991816  0.744868  0.997650  1
  Br  Br19  1  0.744901  0.249621  0.759016  1
  Br  Br20  1  0.990604  0.985884  0.740984  1
  Br  Br21  1  0.247218  0.994165  0.502350  1
  Br  Br22  1  0.755132  0.508184  0.502350  1
  Br  Br23  1  0.505835  0.252782  0.997650  1
  Br  Br24  1  0.754714  0.745286  0.250000  1
  Br  Br25  1  0.746676  0.996676  0.993353  1
  Br  Br26  1  0.995286  0.504714  0.250000  1
  Br  Br27  1  0.503324  0.753324  0.506647  1
