# generated using pymatgen
data_Sr6NbV3S16
_symmetry_space_group_name_H-M   'P 1'
_cell_length_a   10.68094353
_cell_length_b   10.68094309
_cell_length_c   10.68094400
_cell_angle_alpha   51.64257020
_cell_angle_beta   51.64256521
_cell_angle_gamma   51.64257112
_symmetry_Int_Tables_number   1
_chemical_formula_structural   Sr6NbV3S16
_chemical_formula_sum   'Sr6 Nb1 V3 S16'
_cell_volume   692.14874829
_cell_formula_units_Z   1
loop_
 _symmetry_equiv_pos_site_id
 _symmetry_equiv_pos_as_xyz
  1  'x, y, z'
loop_
 _atom_site_type_symbol
 _atom_site_label
 _atom_site_symmetry_multiplicity
 _atom_site_fract_x
 _atom_site_fract_y
 _atom_site_fract_z
 _atom_site_occupancy
  Sr  Sr0  1  0.744268  0.433555  0.070461  1
  Sr  Sr1  1  0.576421  0.926394  0.249357  1
  Sr  Sr2  1  0.070461  0.744268  0.433556  1
  Sr  Sr3  1  0.926395  0.249357  0.576421  1
  Sr  Sr4  1  0.433556  0.070462  0.744267  1
  Sr  Sr5  1  0.249357  0.576421  0.926395  1
  Nb  Nb6  1  0.159641  0.159641  0.159641  1
  V  V7  1  0.340209  0.340209  0.340209  1
  V  V8  1  0.659972  0.659972  0.659972  1
  V  V9  1  0.839928  0.839928  0.839928  1
  S  S10  1  0.610823  0.786659  0.043693  1
  S  S11  1  0.076516  0.076516  0.076516  1
  S  S12  1  0.546298  0.281574  0.114462  1
  S  S13  1  0.939515  0.397272  0.225299  1
  S  S14  1  0.114462  0.546297  0.281574  1
  S  S15  1  0.225298  0.939516  0.397272  1
  S  S16  1  0.418856  0.418856  0.418856  1
  S  S17  1  0.717827  0.886426  0.454342  1
  S  S18  1  0.281574  0.114462  0.546298  1
  S  S19  1  0.581569  0.581569  0.581569  1
  S  S20  1  0.786659  0.043693  0.610823  1
  S  S21  1  0.886426  0.454343  0.717827  1
  S  S22  1  0.043693  0.610823  0.786659  1
  S  S23  1  0.454343  0.717827  0.886426  1
  S  S24  1  0.918657  0.918657  0.918657  1
  S  S25  1  0.397273  0.225298  0.939515  1
