# generated using pymatgen
data_Y4Ga18Rh5Au
_symmetry_space_group_name_H-M   'P 1'
_cell_length_a   7.62478713
_cell_length_b   7.62478738
_cell_length_c   9.53696654
_cell_angle_alpha   89.98084914
_cell_angle_beta   89.98084919
_cell_angle_gamma   119.79336602
_symmetry_Int_Tables_number   1
_chemical_formula_structural   Y4Ga18Rh5Au
_chemical_formula_sum   'Y4 Ga18 Rh5 Au1'
_cell_volume   481.16804203
_cell_formula_units_Z   1
loop_
 _symmetry_equiv_pos_site_id
 _symmetry_equiv_pos_as_xyz
  1  'x, y, z'
loop_
 _atom_site_type_symbol
 _atom_site_label
 _atom_site_symmetry_multiplicity
 _atom_site_fract_x
 _atom_site_fract_y
 _atom_site_fract_z
 _atom_site_occupancy
  Y  Y0  1  0.993033  0.664289  0.250466  1
  Y  Y1  1  0.998811  0.329840  0.750009  1
  Y  Y2  1  0.670160  0.001189  0.249991  1
  Y  Y3  1  0.335711  0.006967  0.749534  1
  Ga  Ga4  1  0.329476  0.330691  0.562743  1
  Ga  Ga5  1  0.669309  0.670524  0.437257  1
  Ga  Ga6  1  0.667347  0.675177  0.070335  1
  Ga  Ga7  1  0.324823  0.332653  0.929665  1
  Ga  Ga8  1  0.340731  0.550992  0.251642  1
  Ga  Ga9  1  0.661306  0.462403  0.741950  1
  Ga  Ga10  1  0.537597  0.338694  0.258050  1
  Ga  Ga11  1  0.449008  0.659269  0.748358  1
  Ga  Ga12  1  0.011754  0.334441  0.083268  1
  Ga  Ga13  1  0.010548  0.675150  0.917462  1
  Ga  Ga14  1  0.003127  0.666653  0.578055  1
  Ga  Ga15  1  0.333347  0.996873  0.421945  1
  Ga  Ga16  1  0.999914  0.334014  0.421190  1
  Ga  Ga17  1  0.665986  0.000086  0.578810  1
  Ga  Ga18  1  0.665559  0.988246  0.916732  1
  Ga  Ga19  1  0.324850  0.989452  0.082538  1
  Ga  Ga20  1  0.124546  0.120962  0.251256  1
  Ga  Ga21  1  0.879038  0.875454  0.748744  1
  Rh  Rh22  1  0.000349  0.999651  0.000000  1
  Rh  Rh23  1  0.999964  0.000036  0.500000  1
  Rh  Rh24  1  0.330019  0.669981  0.000000  1
  Rh  Rh25  1  0.328795  0.671205  0.500000  1
  Rh  Rh26  1  0.672145  0.327855  0.500000  1
  Au  Au27  1  0.672745  0.327255  0.000000  1
