# generated using pymatgen
data_Na4Ac3Sb(PSe3)8
_symmetry_space_group_name_H-M   'P 1'
_cell_length_a   12.04611194
_cell_length_b   7.87137631
_cell_length_c   12.32695314
_cell_angle_alpha   89.36053915
_cell_angle_beta   108.97972000
_cell_angle_gamma   89.63784524
_symmetry_Int_Tables_number   1
_chemical_formula_structural   Na4Ac3Sb(PSe3)8
_chemical_formula_sum   'Na4 Ac3 Sb1 P8 Se24'
_cell_volume   1105.16006565
_cell_formula_units_Z   1
loop_
 _symmetry_equiv_pos_site_id
 _symmetry_equiv_pos_as_xyz
  1  'x, y, z'
loop_
 _atom_site_type_symbol
 _atom_site_label
 _atom_site_symmetry_multiplicity
 _atom_site_fract_x
 _atom_site_fract_y
 _atom_site_fract_z
 _atom_site_occupancy
  Na  Na0  1  0.414306  0.604947  0.129761  1
  Na  Na1  1  0.593331  0.107564  0.378566  1
  Na  Na2  1  0.412640  0.891125  0.619442  1
  Na  Na3  1  0.608686  0.393805  0.878127  1
  Ac  Ac4  1  0.894226  0.889399  0.157804  1
  Ac  Ac5  1  0.098544  0.386282  0.333065  1
  Ac  Ac6  1  0.891090  0.613810  0.666250  1
  Sb  Sb7  1  0.147008  0.146256  0.841045  1
  P  P8  1  0.246062  0.106718  0.173608  1
  P  P9  1  0.753292  0.384823  0.205995  1
  P  P10  1  0.247536  0.885615  0.293824  1
  P  P11  1  0.748156  0.598535  0.325868  1
  P  P12  1  0.245254  0.408025  0.671414  1
  P  P13  1  0.751722  0.108972  0.700849  1
  P  P14  1  0.247420  0.616747  0.798514  1
  P  P15  1  0.745682  0.895766  0.824689  1
  Se  Se16  1  0.318477  0.005042  0.041588  1
  Se  Se17  1  0.847555  0.494131  0.093363  1
  Se  Se18  1  0.059682  0.193781  0.099249  1
  Se  Se19  1  0.577027  0.292459  0.123552  1
  Se  Se20  1  0.132692  0.697432  0.175980  1
  Se  Se21  1  0.650582  0.802821  0.211492  1
  Se  Se22  1  0.347673  0.304156  0.285413  1
  Se  Se23  1  0.868042  0.189731  0.323389  1
  Se  Se24  1  0.424760  0.788447  0.372935  1
  Se  Se25  1  0.935323  0.684948  0.402693  1
  Se  Se26  1  0.156512  0.990276  0.409437  1
  Se  Se27  1  0.676040  0.489938  0.453902  1
  Se  Se28  1  0.319015  0.510490  0.544897  1
  Se  Se29  1  0.820095  0.992881  0.572170  1
  Se  Se30  1  0.061796  0.309145  0.605107  1
  Se  Se31  1  0.574290  0.218148  0.631201  1
  Se  Se32  1  0.127995  0.816260  0.693896  1
  Se  Se33  1  0.646008  0.691662  0.715506  1
  Se  Se34  1  0.348320  0.197442  0.785003  1
  Se  Se35  1  0.879556  0.286144  0.814415  1
  Se  Se36  1  0.424438  0.703361  0.878382  1
  Se  Se37  1  0.930427  0.809047  0.906283  1
  Se  Se38  1  0.157127  0.485185  0.911226  1
  Se  Se39  1  0.671614  0.008680  0.950102  1
