# generated using pymatgen
data_LiPaReH6
_symmetry_space_group_name_H-M   'P 1'
_cell_length_a   4.88482263
_cell_length_b   4.88472909
_cell_length_c   4.88484000
_cell_angle_alpha   59.99874775
_cell_angle_beta   59.99813522
_cell_angle_gamma   59.99918422
_symmetry_Int_Tables_number   1
_chemical_formula_structural   LiPaReH6
_chemical_formula_sum   'Li1 Pa1 Re1 H6'
_cell_volume   82.41603528
_cell_formula_units_Z   1
loop_
 _symmetry_equiv_pos_site_id
 _symmetry_equiv_pos_as_xyz
  1  'x, y, z'
loop_
 _atom_site_type_symbol
 _atom_site_label
 _atom_site_symmetry_multiplicity
 _atom_site_fract_x
 _atom_site_fract_y
 _atom_site_fract_z
 _atom_site_occupancy
  Li  Li0  1  0.750025  0.749976  0.749986  1
  Pa  Pa1  1  0.249989  0.249996  0.250006  1
  Re  Re2  1  0.000052  0.000015  0.999995  1
  H  H3  1  0.743685  0.743696  0.256312  1
  H  H4  1  0.743692  0.256300  0.256299  1
  H  H5  1  0.256281  0.743709  0.256296  1
  H  H6  1  0.256293  0.743705  0.743701  1
  H  H7  1  0.743696  0.256304  0.743707  1
  H  H8  1  0.256281  0.256301  0.743703  1
