# generated using pymatgen
data_LiZr2BRh5
_symmetry_space_group_name_H-M   'P 1'
_cell_length_a   5.67469442
_cell_length_b   5.67469425
_cell_length_c   5.79638400
_cell_angle_alpha   59.28804507
_cell_angle_beta   59.28804605
_cell_angle_gamma   61.42388343
_symmetry_Int_Tables_number   1
_chemical_formula_structural   LiZr2BRh5
_chemical_formula_sum   'Li1 Zr2 B1 Rh5'
_cell_volume   131.86167526
_cell_formula_units_Z   1
loop_
 _symmetry_equiv_pos_site_id
 _symmetry_equiv_pos_as_xyz
  1  'x, y, z'
loop_
 _atom_site_type_symbol
 _atom_site_label
 _atom_site_symmetry_multiplicity
 _atom_site_fract_x
 _atom_site_fract_y
 _atom_site_fract_z
 _atom_site_occupancy
  Li  Li0  1  0.726289  0.726289  0.273711  1
  Zr  Zr1  1  0.750066  0.750066  0.749934  1
  Zr  Zr2  1  0.250066  0.250066  0.249934  1
  B  B3  1  0.005407  0.005407  0.994593  1
  Rh  Rh4  1  0.254226  0.747638  0.252362  1
  Rh  Rh5  1  0.747638  0.254226  0.252362  1
  Rh  Rh6  1  0.264445  0.264445  0.735555  1
  Rh  Rh7  1  0.747638  0.254226  0.745774  1
  Rh  Rh8  1  0.254226  0.747638  0.745774  1
