# generated using pymatgen
data_Ce2YHo(InPd2)2
_symmetry_space_group_name_H-M   'P 1'
_cell_length_a   7.85772208
_cell_length_b   7.75429801
_cell_length_c   3.76181500
_cell_angle_alpha   90.00000000
_cell_angle_beta   90.00000000
_cell_angle_gamma   90.73723114
_symmetry_Int_Tables_number   1
_chemical_formula_structural   Ce2YHo(InPd2)2
_chemical_formula_sum   'Ce2 Y1 Ho1 In2 Pd4'
_cell_volume   229.19262204
_cell_formula_units_Z   1
loop_
 _symmetry_equiv_pos_site_id
 _symmetry_equiv_pos_as_xyz
  1  'x, y, z'
loop_
 _atom_site_type_symbol
 _atom_site_label
 _atom_site_symmetry_multiplicity
 _atom_site_fract_x
 _atom_site_fract_y
 _atom_site_fract_z
 _atom_site_occupancy
  Ce  Ce0  1  0.326171  0.829639  0.500000  1
  Ce  Ce1  1  0.825092  0.671042  0.500000  1
  Y  Y2  1  0.172815  0.324857  0.500000  1
  Ho  Ho3  1  0.672625  0.174113  0.500000  1
  In  In4  1  0.998589  0.004465  0.000000  1
  In  In5  1  0.499028  0.495410  0.000000  1
  Pd  Pd6  1  0.375696  0.124407  0.000000  1
  Pd  Pd7  1  0.870522  0.374493  0.000000  1
  Pd  Pd8  1  0.128738  0.633074  0.000000  1
  Pd  Pd9  1  0.630723  0.868501  0.000000  1
