# generated using pymatgen
data_Ca2Si3SnPb2O11
_symmetry_space_group_name_H-M   'P 1'
_cell_length_a   10.03925998
_cell_length_b   10.03396272
_cell_length_c   10.24610544
_cell_angle_alpha   90.15001698
_cell_angle_beta   89.82191152
_cell_angle_gamma   119.89265065
_symmetry_Int_Tables_number   1
_chemical_formula_structural   Ca2Si3SnPb2O11
_chemical_formula_sum   'Ca6 Si9 Sn3 Pb6 O33'
_cell_volume   894.80824828
_cell_formula_units_Z   3
loop_
 _symmetry_equiv_pos_site_id
 _symmetry_equiv_pos_as_xyz
  1  'x, y, z'
loop_
 _atom_site_type_symbol
 _atom_site_label
 _atom_site_symmetry_multiplicity
 _atom_site_fract_x
 _atom_site_fract_y
 _atom_site_fract_z
 _atom_site_occupancy
  Ca  Ca0  1  0.002652  0.999978  0.840274  1
  Ca  Ca1  1  0.002292  0.001945  0.160423  1
  Ca  Ca2  1  0.664838  0.333156  0.823268  1
  Ca  Ca3  1  0.667376  0.331744  0.175964  1
  Ca  Ca4  1  0.664978  0.333706  0.500795  1
  Ca  Ca5  1  0.998478  0.998770  0.499536  1
  Si  Si6  1  0.926969  0.282144  0.997613  1
  Si  Si7  1  0.358854  0.076284  0.000260  1
  Si  Si8  1  0.719782  0.646556  0.999672  1
  Si  Si9  1  0.740004  0.049770  0.651435  1
  Si  Si10  1  0.306616  0.259263  0.649097  1
  Si  Si11  1  0.741332  0.048629  0.350549  1
  Si  Si12  1  0.947456  0.689622  0.651226  1
  Si  Si13  1  0.309264  0.258844  0.348593  1
  Si  Si14  1  0.948729  0.688628  0.348983  1
  Sn  Sn15  1  0.615661  0.680209  0.683459  1
  Sn  Sn16  1  0.065463  0.383365  0.682686  1
  Sn  Sn17  1  0.614937  0.680078  0.316946  1
  Pb  Pb18  1  0.326972  0.935790  0.676477  1
  Pb  Pb19  1  0.065147  0.394827  0.323648  1
  Pb  Pb20  1  0.329400  0.938139  0.323561  1
  Pb  Pb21  1  0.588172  0.938285  0.998682  1
  Pb  Pb22  1  0.347923  0.412114  0.005383  1
  Pb  Pb23  1  0.061614  0.651400  0.000615  1
  O  O24  1  0.654247  0.904189  0.753717  1
  O  O25  1  0.246283  0.344104  0.753010  1
  O  O26  1  0.652339  0.902246  0.248885  1
  O  O27  1  0.090239  0.746394  0.754719  1
  O  O28  1  0.256724  0.347149  0.243112  1
  O  O29  1  0.092880  0.743377  0.246342  1
  O  O30  1  0.988537  0.399529  0.869412  1
  O  O31  1  0.420632  0.015460  0.875635  1
  O  O32  1  0.986937  0.406644  0.120170  1
  O  O33  1  0.599814  0.590482  0.873814  1
  O  O34  1  0.421390  0.016195  0.124205  1
  O  O35  1  0.598895  0.589620  0.125954  1
  O  O36  1  0.712099  0.970059  0.501311  1
  O  O37  1  0.260902  0.293015  0.498509  1
  O  O38  1  0.027357  0.741116  0.500027  1
  O  O39  1  0.843608  0.827384  0.000663  1
  O  O40  1  0.988304  0.161357  0.000544  1
  O  O41  1  0.177121  0.014934  0.000521  1
  O  O42  1  0.683927  0.173795  0.660255  1
  O  O43  1  0.483634  0.305041  0.661652  1
  O  O44  1  0.688796  0.175396  0.340401  1
  O  O45  1  0.817547  0.511738  0.659983  1
  O  O46  1  0.485784  0.300785  0.339445  1
  O  O47  1  0.823015  0.508972  0.340679  1
  O  O48  1  0.736434  0.198673  0.997815  1
  O  O49  1  0.464201  0.267171  0.000646  1
  O  O50  1  0.800139  0.536387  0.999571  1
  O  O51  1  0.929745  0.131064  0.672594  1
  O  O52  1  0.193624  0.069739  0.666810  1
  O  O53  1  0.929955  0.126371  0.330379  1
  O  O54  1  0.868113  0.801182  0.671516  1
  O  O55  1  0.194177  0.069310  0.331329  1
  O  O56  1  0.867691  0.797877  0.327228  1
