# generated using pymatgen
data_Ba20SiBi8P3
_symmetry_space_group_name_H-M   'P 1'
_cell_length_a   14.23925492
_cell_length_b   10.52187300
_cell_length_c   9.19372219
_cell_angle_alpha   90.00000000
_cell_angle_beta   89.60127923
_cell_angle_gamma   90.00000000
_symmetry_Int_Tables_number   1
_chemical_formula_structural   Ba20SiBi8P3
_chemical_formula_sum   'Ba20 Si1 Bi8 P3'
_cell_volume   1377.40349598
_cell_formula_units_Z   1
loop_
 _symmetry_equiv_pos_site_id
 _symmetry_equiv_pos_as_xyz
  1  'x, y, z'
loop_
 _atom_site_type_symbol
 _atom_site_label
 _atom_site_symmetry_multiplicity
 _atom_site_fract_x
 _atom_site_fract_y
 _atom_site_fract_z
 _atom_site_occupancy
  Ba  Ba0  1  0.075038  0.533103  0.817091  1
  Ba  Ba1  1  0.574002  0.969038  0.681091  1
  Ba  Ba2  1  0.925796  0.027089  0.182059  1
  Ba  Ba3  1  0.425568  0.468902  0.318960  1
  Ba  Ba4  1  0.925796  0.472911  0.182059  1
  Ba  Ba5  1  0.425568  0.031098  0.318960  1
  Ba  Ba6  1  0.075038  0.966897  0.817091  1
  Ba  Ba7  1  0.574002  0.530962  0.681091  1
  Ba  Ba8  1  0.999565  0.750000  0.445906  1
  Ba  Ba9  1  0.500011  0.750000  0.054018  1
  Ba  Ba10  1  0.999698  0.250000  0.554474  1
  Ba  Ba11  1  0.500629  0.250000  0.944788  1
  Ba  Ba12  1  0.208589  0.750000  0.161943  1
  Ba  Ba13  1  0.708370  0.750000  0.336579  1
  Ba  Ba14  1  0.789155  0.250000  0.836523  1
  Ba  Ba15  1  0.288299  0.250000  0.666767  1
  Ba  Ba16  1  0.303430  0.750000  0.641711  1
  Ba  Ba17  1  0.803208  0.750000  0.858384  1
  Ba  Ba18  1  0.695834  0.250000  0.357261  1
  Ba  Ba19  1  0.200010  0.250000  0.144254  1
  Si  Si20  1  0.010733  0.250000  0.937737  1
  Bi  Bi21  1  0.331645  0.508397  0.935841  1
  Bi  Bi22  1  0.827521  0.992097  0.562259  1
  Bi  Bi23  1  0.669546  0.006185  0.064830  1
  Bi  Bi24  1  0.172208  0.495111  0.436600  1
  Bi  Bi25  1  0.669546  0.493815  0.064830  1
  Bi  Bi26  1  0.172208  0.004889  0.436600  1
  Bi  Bi27  1  0.331645  0.991603  0.935841  1
  Bi  Bi28  1  0.827521  0.507903  0.562259  1
  P  P29  1  0.490645  0.750000  0.438930  1
  P  P30  1  0.990191  0.750000  0.063147  1
  P  P31  1  0.508983  0.250000  0.560116  1
