# generated using pymatgen
data_YAl7Cu3
_symmetry_space_group_name_H-M   'P 1'
_cell_length_a   8.19339804
_cell_length_b   8.19339862
_cell_length_c   8.19339849
_cell_angle_alpha   56.84990123
_cell_angle_beta   56.84989663
_cell_angle_gamma   56.84989500
_symmetry_Int_Tables_number   1
_chemical_formula_structural   YAl7Cu3
_chemical_formula_sum   'Y2 Al14 Cu6'
_cell_volume   360.66435152
_cell_formula_units_Z   2
loop_
 _symmetry_equiv_pos_site_id
 _symmetry_equiv_pos_as_xyz
  1  'x, y, z'
loop_
 _atom_site_type_symbol
 _atom_site_label
 _atom_site_symmetry_multiplicity
 _atom_site_fract_x
 _atom_site_fract_y
 _atom_site_fract_z
 _atom_site_occupancy
  Y  Y0  1  0.000000  0.000000  0.000000  1
  Y  Y1  1  0.500000  0.500000  0.500000  1
  Al  Al2  1  0.922830  0.148367  0.339527  1
  Al  Al3  1  0.339527  0.922830  0.148367  1
  Al  Al4  1  0.148367  0.339527  0.922830  1
  Al  Al5  1  0.577170  0.160473  0.351633  1
  Al  Al6  1  0.351633  0.577170  0.160473  1
  Al  Al7  1  0.160473  0.351633  0.577170  1
  Al  Al8  1  0.077170  0.851633  0.660473  1
  Al  Al9  1  0.660473  0.077170  0.851633  1
  Al  Al10  1  0.750000  0.750000  0.750000  1
  Al  Al11  1  0.250000  0.250000  0.250000  1
  Al  Al12  1  0.839527  0.648367  0.422830  1
  Al  Al13  1  0.648367  0.422830  0.839527  1
  Al  Al14  1  0.422830  0.839527  0.648367  1
  Al  Al15  1  0.851633  0.660473  0.077170  1
  Cu  Cu16  1  0.250000  0.575115  0.924885  1
  Cu  Cu17  1  0.924885  0.250000  0.575115  1
  Cu  Cu18  1  0.575115  0.924885  0.250000  1
  Cu  Cu19  1  0.750000  0.424885  0.075115  1
  Cu  Cu20  1  0.075115  0.750000  0.424885  1
  Cu  Cu21  1  0.424885  0.075115  0.750000  1
