# generated using pymatgen
data_HoEr2Mg3Pb2Au
_symmetry_space_group_name_H-M   'P 1'
_cell_length_a   7.54436000
_cell_length_b   7.54523694
_cell_length_c   4.48491000
_cell_angle_alpha   90.00000000
_cell_angle_beta   90.00000000
_cell_angle_gamma   119.99615540
_symmetry_Int_Tables_number   1
_chemical_formula_structural   HoEr2Mg3Pb2Au
_chemical_formula_sum   'Ho1 Er2 Mg3 Pb2 Au1'
_cell_volume   221.10393600
_cell_formula_units_Z   1
loop_
 _symmetry_equiv_pos_site_id
 _symmetry_equiv_pos_as_xyz
  1  'x, y, z'
loop_
 _atom_site_type_symbol
 _atom_site_label
 _atom_site_symmetry_multiplicity
 _atom_site_fract_x
 _atom_site_fract_y
 _atom_site_fract_z
 _atom_site_occupancy
  Ho  Ho0  1  0.596729  0.000000  0.000000  1
  Er  Er1  1  0.999964  0.596796  0.000000  1
  Er  Er2  1  0.403167  0.403204  0.000000  1
  Mg  Mg3  1  0.233352  0.000000  0.500000  1
  Mg  Mg4  1  0.000051  0.233430  0.500000  1
  Mg  Mg5  1  0.766621  0.766570  0.500000  1
  Pb  Pb6  1  0.333209  0.666480  0.500000  1
  Pb  Pb7  1  0.666730  0.333520  0.500000  1
  Au  Au8  1  0.000178  0.000000  0.000000  1
