# generated using pymatgen
data_Rb4NaGaSe4
_symmetry_space_group_name_H-M   'P 1'
_cell_length_a   8.58174032
_cell_length_b   8.58174034
_cell_length_c   8.58172473
_cell_angle_alpha   131.33481540
_cell_angle_beta   129.54527262
_cell_angle_gamma   72.71388103
_symmetry_Int_Tables_number   1
_chemical_formula_structural   Rb4NaGaSe4
_chemical_formula_sum   'Rb4 Na1 Ga1 Se4'
_cell_volume   357.53708445
_cell_formula_units_Z   1
loop_
 _symmetry_equiv_pos_site_id
 _symmetry_equiv_pos_as_xyz
  1  'x, y, z'
loop_
 _atom_site_type_symbol
 _atom_site_label
 _atom_site_symmetry_multiplicity
 _atom_site_fract_x
 _atom_site_fract_y
 _atom_site_fract_z
 _atom_site_occupancy
  Rb  Rb0  1  0.814597  0.649086  0.174615  1
  Rb  Rb1  1  0.185408  0.360017  0.834488  1
  Rb  Rb2  1  0.525529  0.850919  0.665512  1
  Rb  Rb3  1  0.474470  0.139981  0.325385  1
  Na  Na4  1  0.000001  0.750001  0.750000  1
  Ga  Ga5  1  0.999999  0.249999  0.250000  1
  Se  Se6  1  0.291822  0.562824  0.646963  1
  Se  Se7  1  0.084127  0.937166  0.228979  1
  Se  Se8  1  0.915861  0.144859  0.853037  1
  Se  Se9  1  0.708187  0.355148  0.271021  1
