# generated using pymatgen
data_Ho4Er4Sc11Si16Hg
_symmetry_space_group_name_H-M   'P 1'
_cell_length_a   7.03511411
_cell_length_b   7.38311626
_cell_length_c   13.99437119
_cell_angle_alpha   90.00592927
_cell_angle_beta   90.01792473
_cell_angle_gamma   89.89650449
_symmetry_Int_Tables_number   1
_chemical_formula_structural   Ho4Er4Sc11Si16Hg
_chemical_formula_sum   'Ho4 Er4 Sc11 Si16 Hg1'
_cell_volume   726.88132382
_cell_formula_units_Z   1
loop_
 _symmetry_equiv_pos_site_id
 _symmetry_equiv_pos_as_xyz
  1  'x, y, z'
loop_
 _atom_site_type_symbol
 _atom_site_label
 _atom_site_symmetry_multiplicity
 _atom_site_fract_x
 _atom_site_fract_y
 _atom_site_fract_z
 _atom_site_occupancy
  Ho  Ho0  1  0.010134  0.175063  0.096585  1
  Ho  Ho1  1  0.990405  0.816322  0.902442  1
  Ho  Ho2  1  0.485514  0.673459  0.902641  1
  Ho  Ho3  1  0.990413  0.816312  0.597531  1
  Er  Er4  1  0.510664  0.323606  0.096903  1
  Er  Er5  1  0.010277  0.175068  0.403351  1
  Er  Er6  1  0.510640  0.323647  0.403122  1
  Er  Er7  1  0.485582  0.673559  0.597407  1
  Sc  Sc8  1  0.837817  0.497417  0.250026  1
  Sc  Sc9  1  0.339847  0.004323  0.250028  1
  Sc  Sc10  1  0.656877  0.996905  0.749969  1
  Sc  Sc11  1  0.324986  0.182672  0.626190  1
  Sc  Sc12  1  0.671468  0.824179  0.374989  1
  Sc  Sc13  1  0.169290  0.680643  0.373229  1
  Sc  Sc14  1  0.671475  0.824157  0.125054  1
  Sc  Sc15  1  0.838708  0.325369  0.626036  1
  Sc  Sc16  1  0.324972  0.182623  0.873784  1
  Sc  Sc17  1  0.838764  0.325353  0.873932  1
  Sc  Sc18  1  0.169304  0.680567  0.126797  1
  Si  Si19  1  0.026305  0.091980  0.749981  1
  Si  Si20  1  0.968400  0.889979  0.250056  1
  Si  Si21  1  0.467046  0.616262  0.250019  1
  Si  Si22  1  0.543773  0.380332  0.749952  1
  Si  Si23  1  0.290777  0.884351  0.749930  1
  Si  Si24  1  0.713272  0.130462  0.250089  1
  Si  Si25  1  0.212863  0.371988  0.250072  1
  Si  Si26  1  0.769378  0.632304  0.749896  1
  Si  Si27  1  0.164138  0.459288  0.528264  1
  Si  Si28  1  0.841232  0.535607  0.461832  1
  Si  Si29  1  0.343452  0.966645  0.462284  1
  Si  Si30  1  0.841216  0.535708  0.038143  1
  Si  Si31  1  0.657893  0.033224  0.540390  1
  Si  Si32  1  0.163977  0.459360  0.971749  1
  Si  Si33  1  0.657912  0.033360  0.959625  1
  Si  Si34  1  0.343627  0.966678  0.037721  1
  Hg  Hg35  1  0.157604  0.511224  0.749983  1
