# generated using pymatgen
data_Tb2Er3GaSb2
_symmetry_space_group_name_H-M   'P 1'
_cell_length_a   8.82434748
_cell_length_b   8.79714419
_cell_length_c   6.39166100
_cell_angle_alpha   90.00000000
_cell_angle_beta   90.00000000
_cell_angle_gamma   119.89807031
_symmetry_Int_Tables_number   1
_chemical_formula_structural   Tb2Er3GaSb2
_chemical_formula_sum   'Tb4 Er6 Ga2 Sb4'
_cell_volume   430.14395994
_cell_formula_units_Z   2
loop_
 _symmetry_equiv_pos_site_id
 _symmetry_equiv_pos_as_xyz
  1  'x, y, z'
loop_
 _atom_site_type_symbol
 _atom_site_label
 _atom_site_symmetry_multiplicity
 _atom_site_fract_x
 _atom_site_fract_y
 _atom_site_fract_z
 _atom_site_occupancy
  Tb  Tb0  1  0.011581  0.767279  0.750000  1
  Tb  Tb1  1  0.011581  0.244301  0.250000  1
  Tb  Tb2  1  0.752444  0.753202  0.250000  1
  Tb  Tb3  1  0.752444  0.999244  0.750000  1
  Er  Er4  1  0.244710  0.233208  0.750000  1
  Er  Er5  1  0.244710  0.011502  0.250000  1
  Er  Er6  1  0.335999  0.668000  0.500000  1
  Er  Er7  1  0.652699  0.326350  0.000000  1
  Er  Er8  1  0.652699  0.326350  0.500000  1
  Er  Er9  1  0.335999  0.668000  0.000000  1
  Ga  Ga10  1  0.394748  0.997911  0.750000  1
  Ga  Ga11  1  0.394748  0.396837  0.250000  1
  Sb  Sb12  1  0.999562  0.607798  0.250000  1
  Sb  Sb13  1  0.999562  0.391764  0.750000  1
  Sb  Sb14  1  0.608257  0.606663  0.750000  1
  Sb  Sb15  1  0.608257  0.001594  0.250000  1
