# generated using pymatgen
data_Y2Co2S
_symmetry_space_group_name_H-M   'P 1'
_cell_length_a   3.96852000
_cell_length_b   3.96851865
_cell_length_c   14.66099200
_cell_angle_alpha   90.00000000
_cell_angle_beta   90.00000000
_cell_angle_gamma   120.00002792
_symmetry_Int_Tables_number   1
_chemical_formula_structural   Y2Co2S
_chemical_formula_sum   'Y4 Co4 S2'
_cell_volume   199.96356245
_cell_formula_units_Z   2
loop_
 _symmetry_equiv_pos_site_id
 _symmetry_equiv_pos_as_xyz
  1  'x, y, z'
loop_
 _atom_site_type_symbol
 _atom_site_label
 _atom_site_symmetry_multiplicity
 _atom_site_fract_x
 _atom_site_fract_y
 _atom_site_fract_z
 _atom_site_occupancy
  Y  Y0  1  0.333333  0.666667  0.379043  1
  Y  Y1  1  0.666667  0.333333  0.620957  1
  Y  Y2  1  0.666667  0.333333  0.879043  1
  Y  Y3  1  0.333333  0.666667  0.120957  1
  Co  Co4  1  0.000000  0.000000  0.250000  1
  Co  Co5  1  0.000000  0.000000  0.750000  1
  Co  Co6  1  0.333333  0.666667  0.750000  1
  Co  Co7  1  0.666667  0.333333  0.250000  1
  S  S8  1  0.000000  0.000000  0.500000  1
  S  S9  1  0.000000  0.000000  0.000000  1
