# generated using pymatgen
data_Tb4CoSi12Ni19
_symmetry_space_group_name_H-M   'P 1'
_cell_length_a   3.80041100
_cell_length_b   6.58540607
_cell_length_c   18.77867171
_cell_angle_alpha   90.16234204
_cell_angle_beta   90.00000000
_cell_angle_gamma   90.00000000
_symmetry_Int_Tables_number   1
_chemical_formula_structural   Tb4CoSi12Ni19
_chemical_formula_sum   'Tb4 Co1 Si12 Ni19'
_cell_volume   469.97661876
_cell_formula_units_Z   1
loop_
 _symmetry_equiv_pos_site_id
 _symmetry_equiv_pos_as_xyz
  1  'x, y, z'
loop_
 _atom_site_type_symbol
 _atom_site_label
 _atom_site_symmetry_multiplicity
 _atom_site_fract_x
 _atom_site_fract_y
 _atom_site_fract_z
 _atom_site_occupancy
  Tb  Tb0  1  0.250000  0.874972  0.356387  1
  Tb  Tb1  1  0.750000  0.124416  0.643808  1
  Tb  Tb2  1  0.750000  0.376076  0.144050  1
  Tb  Tb3  1  0.250000  0.623936  0.856232  1
  Co  Co4  1  0.250000  0.064367  0.205362  1
  Si  Si5  1  0.250000  0.080297  0.086178  1
  Si  Si6  1  0.750000  0.921600  0.913881  1
  Si  Si7  1  0.750000  0.577794  0.414053  1
  Si  Si8  1  0.250000  0.421538  0.586276  1
  Si  Si9  1  0.250000  0.657682  0.074645  1
  Si  Si10  1  0.750000  0.344701  0.926085  1
  Si  Si11  1  0.750000  0.156744  0.425671  1
  Si  Si12  1  0.250000  0.843647  0.573974  1
  Si  Si13  1  0.250000  0.373551  0.261512  1
  Si  Si14  1  0.750000  0.620942  0.737150  1
  Si  Si15  1  0.750000  0.880146  0.237459  1
  Si  Si16  1  0.250000  0.121321  0.762852  1
  Ni  Ni17  1  0.750000  0.929626  0.793304  1
  Ni  Ni18  1  0.750000  0.569322  0.293612  1
  Ni  Ni19  1  0.250000  0.429989  0.707110  1
  Ni  Ni20  1  0.250000  0.614372  0.484189  1
  Ni  Ni21  1  0.750000  0.385317  0.515763  1
  Ni  Ni22  1  0.750000  0.115493  0.015434  1
  Ni  Ni23  1  0.250000  0.886011  0.984444  1
  Ni  Ni24  1  0.250000  0.683322  0.199976  1
  Ni  Ni25  1  0.750000  0.314637  0.800774  1
  Ni  Ni26  1  0.750000  0.185068  0.300084  1
  Ni  Ni27  1  0.250000  0.815094  0.699183  1
  Ni  Ni28  1  0.250000  0.355182  0.383510  1
  Ni  Ni29  1  0.750000  0.645236  0.615450  1
  Ni  Ni30  1  0.750000  0.860211  0.116686  1
  Ni  Ni31  1  0.250000  0.144925  0.884480  1
  Ni  Ni32  1  0.250000  0.366464  0.005409  1
  Ni  Ni33  1  0.750000  0.635619  0.995330  1
  Ni  Ni34  1  0.750000  0.866047  0.494685  1
  Ni  Ni35  1  0.250000  0.134332  0.505004  1
