# generated using pymatgen
data_Er20Ir6Pd5Ru
_symmetry_space_group_name_H-M   'P 1'
_cell_length_a   10.93581852
_cell_length_b   10.91583920
_cell_length_c   6.32283010
_cell_angle_alpha   89.95792442
_cell_angle_beta   89.94678447
_cell_angle_gamma   89.74811184
_symmetry_Int_Tables_number   1
_chemical_formula_structural   Er20Ir6Pd5Ru
_chemical_formula_sum   'Er20 Ir6 Pd5 Ru1'
_cell_volume   754.77140039
_cell_formula_units_Z   1
loop_
 _symmetry_equiv_pos_site_id
 _symmetry_equiv_pos_as_xyz
  1  'x, y, z'
loop_
 _atom_site_type_symbol
 _atom_site_label
 _atom_site_symmetry_multiplicity
 _atom_site_fract_x
 _atom_site_fract_y
 _atom_site_fract_z
 _atom_site_occupancy
  Er  Er0  1  0.297560  0.089257  0.370601  1
  Er  Er1  1  0.298255  0.909794  0.871972  1
  Er  Er2  1  0.701779  0.083826  0.872363  1
  Er  Er3  1  0.701963  0.909484  0.369528  1
  Er  Er4  1  0.582645  0.790814  0.879722  1
  Er  Er5  1  0.580509  0.205042  0.370494  1
  Er  Er6  1  0.417137  0.792435  0.376753  1
  Er  Er7  1  0.412005  0.205834  0.881020  1
  Er  Er8  1  0.210756  0.416533  0.621348  1
  Er  Er9  1  0.208628  0.583586  0.122426  1
  Er  Er10  1  0.793781  0.418674  0.128286  1
  Er  Er11  1  0.792798  0.589103  0.619842  1
  Er  Er12  1  0.909127  0.703017  0.127954  1
  Er  Er13  1  0.914751  0.296864  0.629787  1
  Er  Er14  1  0.092144  0.702987  0.629759  1
  Er  Er15  1  0.092049  0.297448  0.129237  1
  Er  Er16  1  0.000123  0.999924  0.498560  1
  Er  Er17  1  0.999964  0.999988  0.999143  1
  Er  Er18  1  0.497567  0.501711  0.999626  1
  Er  Er19  1  0.498132  0.502437  0.497214  1
  Ir  Ir20  1  0.654315  0.652322  0.250099  1
  Ir  Ir21  1  0.346860  0.346390  0.249493  1
  Ir  Ir22  1  0.345057  0.654588  0.749707  1
  Ir  Ir23  1  0.500245  0.000950  0.623684  1
  Ir  Ir24  1  0.998761  0.499717  0.877850  1
  Ir  Ir25  1  0.999321  0.499589  0.380910  1
  Pd  Pd26  1  0.845545  0.154876  0.250008  1
  Pd  Pd27  1  0.846381  0.847119  0.750116  1
  Pd  Pd28  1  0.152900  0.153528  0.749336  1
  Pd  Pd29  1  0.153556  0.846111  0.249861  1
  Pd  Pd30  1  0.654914  0.345212  0.749757  1
  Ru  Ru31  1  0.500474  0.000842  0.123543  1
