# generated using pymatgen
data_Ho2Ga9RuPt2
_symmetry_space_group_name_H-M   'P 1'
_cell_length_a   7.62800193
_cell_length_b   7.62800233
_cell_length_c   9.53176510
_cell_angle_alpha   90.05228992
_cell_angle_beta   90.05228743
_cell_angle_gamma   119.75522740
_symmetry_Int_Tables_number   1
_chemical_formula_structural   Ho2Ga9RuPt2
_chemical_formula_sum   'Ho4 Ga18 Ru2 Pt4'
_cell_volume   481.49387188
_cell_formula_units_Z   2
loop_
 _symmetry_equiv_pos_site_id
 _symmetry_equiv_pos_as_xyz
  1  'x, y, z'
loop_
 _atom_site_type_symbol
 _atom_site_label
 _atom_site_symmetry_multiplicity
 _atom_site_fract_x
 _atom_site_fract_y
 _atom_site_fract_z
 _atom_site_occupancy
  Ho  Ho0  1  0.996926  0.670194  0.250818  1
  Ho  Ho1  1  0.002215  0.329541  0.749300  1
  Ho  Ho2  1  0.670459  0.997785  0.250700  1
  Ho  Ho3  1  0.329806  0.003074  0.749182  1
  Ga  Ga4  1  0.126180  0.127517  0.254321  1
  Ga  Ga5  1  0.872483  0.873820  0.745679  1
  Ga  Ga6  1  0.000593  0.335066  0.083383  1
  Ga  Ga7  1  0.999387  0.665482  0.915728  1
  Ga  Ga8  1  0.995097  0.664917  0.577450  1
  Ga  Ga9  1  0.335083  0.004903  0.422550  1
  Ga  Ga10  1  0.993958  0.329298  0.422865  1
  Ga  Ga11  1  0.670702  0.006042  0.577135  1
  Ga  Ga12  1  0.664934  0.999407  0.916617  1
  Ga  Ga13  1  0.334518  0.000613  0.084272  1
  Ga  Ga14  1  0.331664  0.326092  0.563337  1
  Ga  Ga15  1  0.673908  0.668336  0.436663  1
  Ga  Ga16  1  0.666476  0.666713  0.070291  1
  Ga  Ga17  1  0.333287  0.333524  0.929709  1
  Ga  Ga18  1  0.339253  0.544399  0.251277  1
  Ga  Ga19  1  0.660308  0.451450  0.745100  1
  Ga  Ga20  1  0.548550  0.339692  0.254900  1
  Ga  Ga21  1  0.455601  0.660747  0.748723  1
  Ru  Ru22  1  0.672101  0.327899  0.500000  1
  Ru  Ru23  1  0.000104  0.999896  0.500000  1
  Pt  Pt24  1  0.671310  0.328690  0.000000  1
  Pt  Pt25  1  0.327962  0.672038  0.000000  1
  Pt  Pt26  1  0.326960  0.673040  0.500000  1
  Pt  Pt27  1  0.000174  0.999826  0.000000  1
