# generated using pymatgen
data_HfScSiH
_symmetry_space_group_name_H-M   'P 1'
_cell_length_a   5.45639253
_cell_length_b   5.45639262
_cell_length_c   5.34997627
_cell_angle_alpha   104.16363217
_cell_angle_beta   104.16363178
_cell_angle_gamma   121.34301621
_symmetry_Int_Tables_number   1
_chemical_formula_structural   HfScSiH
_chemical_formula_sum   'Hf2 Sc2 Si2 H2'
_cell_volume   117.84578122
_cell_formula_units_Z   2
loop_
 _symmetry_equiv_pos_site_id
 _symmetry_equiv_pos_as_xyz
  1  'x, y, z'
loop_
 _atom_site_type_symbol
 _atom_site_label
 _atom_site_symmetry_multiplicity
 _atom_site_fract_x
 _atom_site_fract_y
 _atom_site_fract_z
 _atom_site_occupancy
  Hf  Hf0  1  0.337680  0.162320  0.500000  1
  Hf  Hf1  1  0.662320  0.837680  0.500000  1
  Sc  Sc2  1  0.161900  0.661900  0.823800  1
  Sc  Sc3  1  0.838100  0.338100  0.176200  1
  Si  Si4  1  0.250000  0.250000  0.000000  1
  Si  Si5  1  0.750000  0.750000  0.000000  1
  H  H6  1  0.737726  0.237726  0.500000  1
  H  H7  1  0.262274  0.762274  0.500000  1
