# generated using pymatgen
data_Dy5Hf3Pt4
_symmetry_space_group_name_H-M   'P 1'
_cell_length_a   4.71711000
_cell_length_b   7.09765290
_cell_length_c   8.32975262
_cell_angle_alpha   89.57502963
_cell_angle_beta   90.00000000
_cell_angle_gamma   90.00000000
_symmetry_Int_Tables_number   1
_chemical_formula_structural   Dy5Hf3Pt4
_chemical_formula_sum   'Dy5 Hf3 Pt4'
_cell_volume   278.87585724
_cell_formula_units_Z   1
loop_
 _symmetry_equiv_pos_site_id
 _symmetry_equiv_pos_as_xyz
  1  'x, y, z'
loop_
 _atom_site_type_symbol
 _atom_site_label
 _atom_site_symmetry_multiplicity
 _atom_site_fract_x
 _atom_site_fract_y
 _atom_site_fract_z
 _atom_site_occupancy
  Dy  Dy0  1  0.250000  0.478999  0.179385  1
  Dy  Dy1  1  0.750000  0.521552  0.829773  1
  Dy  Dy2  1  0.750000  0.011701  0.672964  1
  Dy  Dy3  1  0.250000  0.980774  0.317438  1
  Dy  Dy4  1  0.250000  0.355508  0.582604  1
  Hf  Hf5  1  0.250000  0.851686  0.923237  1
  Hf  Hf6  1  0.750000  0.139102  0.074281  1
  Hf  Hf7  1  0.750000  0.648237  0.422052  1
  Pt  Pt8  1  0.250000  0.748892  0.595145  1
  Pt  Pt9  1  0.750000  0.271360  0.385966  1
  Pt  Pt10  1  0.750000  0.768525  0.097350  1
  Pt  Pt11  1  0.250000  0.223664  0.919806  1
