# generated using pymatgen
data_Pr4Fe3(CoO4)5
_symmetry_space_group_name_H-M   'P 1'
_cell_length_a   5.78548400
_cell_length_b   7.62874749
_cell_length_c   8.66022212
_cell_angle_alpha   90.34198268
_cell_angle_beta   90.00000000
_cell_angle_gamma   90.00000000
_symmetry_Int_Tables_number   1
_chemical_formula_structural   Pr4Fe3(CoO4)5
_chemical_formula_sum   'Pr4 Fe3 Co5 O20'
_cell_volume   382.22072490
_cell_formula_units_Z   1
loop_
 _symmetry_equiv_pos_site_id
 _symmetry_equiv_pos_as_xyz
  1  'x, y, z'
loop_
 _atom_site_type_symbol
 _atom_site_label
 _atom_site_symmetry_multiplicity
 _atom_site_fract_x
 _atom_site_fract_y
 _atom_site_fract_z
 _atom_site_occupancy
  Pr  Pr0  1  0.000000  0.355285  0.669995  1
  Pr  Pr1  1  0.000000  0.644285  0.328800  1
  Pr  Pr2  1  0.000000  0.858148  0.827568  1
  Pr  Pr3  1  0.000000  0.138131  0.175497  1
  Fe  Fe4  1  0.500000  0.111521  0.858417  1
  Fe  Fe5  1  0.500000  0.886430  0.143419  1
  Fe  Fe6  1  0.500000  0.612303  0.642276  1
  Co  Co7  1  0.500000  0.411907  0.345990  1
  Co  Co8  1  0.254059  0.499199  0.999826  1
  Co  Co9  1  0.743746  0.002401  0.501395  1
  Co  Co10  1  0.745941  0.499199  0.999826  1
  Co  Co11  1  0.256254  0.002401  0.501395  1
  O  O12  1  0.250089  0.905584  0.296871  1
  O  O13  1  0.249423  0.094543  0.704281  1
  O  O14  1  0.749096  0.405860  0.204489  1
  O  O15  1  0.751635  0.591602  0.796086  1
  O  O16  1  0.750577  0.094543  0.704281  1
  O  O17  1  0.749911  0.905584  0.296871  1
  O  O18  1  0.248365  0.591602  0.796086  1
  O  O19  1  0.250904  0.405860  0.204489  1
  O  O20  1  0.500000  0.349300  0.939027  1
  O  O21  1  0.500000  0.649154  0.060269  1
  O  O22  1  0.500000  0.847060  0.564436  1
  O  O23  1  0.500000  0.147720  0.443806  1
  O  O24  1  0.272648  0.998795  0.000425  1
  O  O25  1  0.721113  0.494770  0.496061  1
  O  O26  1  0.727352  0.998795  0.000425  1
  O  O27  1  0.278887  0.494770  0.496061  1
  O  O28  1  0.000000  0.154829  0.449584  1
  O  O29  1  0.000000  0.849913  0.549733  1
  O  O30  1  0.000000  0.650977  0.050729  1
  O  O31  1  0.000000  0.347526  0.951583  1
