# generated using pymatgen
data_Th3RhAu3
_symmetry_space_group_name_H-M   'P 1'
_cell_length_a   8.25620716
_cell_length_b   8.25620706
_cell_length_c   8.25620704
_cell_angle_alpha   114.13235163
_cell_angle_beta   114.13235868
_cell_angle_gamma   114.13234130
_symmetry_Int_Tables_number   1
_chemical_formula_structural   Th3RhAu3
_chemical_formula_sum   'Th6 Rh2 Au6'
_cell_volume   338.53886092
_cell_formula_units_Z   2
loop_
 _symmetry_equiv_pos_site_id
 _symmetry_equiv_pos_as_xyz
  1  'x, y, z'
loop_
 _atom_site_type_symbol
 _atom_site_label
 _atom_site_symmetry_multiplicity
 _atom_site_fract_x
 _atom_site_fract_y
 _atom_site_fract_z
 _atom_site_occupancy
  Th  Th0  1  0.041369  0.395266  0.284762  1
  Th  Th1  1  0.395266  0.284762  0.041369  1
  Th  Th2  1  0.715238  0.958631  0.604734  1
  Th  Th3  1  0.284762  0.041369  0.395266  1
  Th  Th4  1  0.604734  0.715238  0.958631  1
  Th  Th5  1  0.958631  0.604734  0.715238  1
  Rh  Rh6  1  0.000000  0.000000  0.000000  1
  Rh  Rh7  1  0.500000  0.500000  0.500000  1
  Au  Au8  1  0.431985  0.937544  0.771550  1
  Au  Au9  1  0.937544  0.771550  0.431985  1
  Au  Au10  1  0.228450  0.568015  0.062456  1
  Au  Au11  1  0.771550  0.431985  0.937544  1
  Au  Au12  1  0.062456  0.228450  0.568015  1
  Au  Au13  1  0.568015  0.062456  0.228450  1
