# generated using pymatgen
data_Pr2Th2Re15Si8Mo
_symmetry_space_group_name_H-M   'P 1'
_cell_length_a   4.18145600
_cell_length_b   7.30677058
_cell_length_c   15.69316169
_cell_angle_alpha   90.32199482
_cell_angle_beta   90.00000000
_cell_angle_gamma   90.00000000
_symmetry_Int_Tables_number   1
_chemical_formula_structural   Pr2Th2Re15Si8Mo
_chemical_formula_sum   'Pr2 Th2 Re15 Si8 Mo1'
_cell_volume   479.46465091
_cell_formula_units_Z   1
loop_
 _symmetry_equiv_pos_site_id
 _symmetry_equiv_pos_as_xyz
  1  'x, y, z'
loop_
 _atom_site_type_symbol
 _atom_site_label
 _atom_site_symmetry_multiplicity
 _atom_site_fract_x
 _atom_site_fract_y
 _atom_site_fract_z
 _atom_site_occupancy
  Pr  Pr0  1  0.000000  0.586281  0.117443  1
  Pr  Pr1  1  0.000000  0.417916  0.881718  1
  Th  Th2  1  0.500000  0.083915  0.381933  1
  Th  Th3  1  0.500000  0.916475  0.618509  1
  Re  Re4  1  0.000000  0.860883  0.947256  1
  Re  Re5  1  0.500000  0.640976  0.449374  1
  Re  Re6  1  0.500000  0.358362  0.551051  1
  Re  Re7  1  0.000000  0.737684  0.321495  1
  Re  Re8  1  0.000000  0.262477  0.678813  1
  Re  Re9  1  0.500000  0.233725  0.180218  1
  Re  Re10  1  0.500000  0.764882  0.819889  1
  Re  Re11  1  0.000000  0.429253  0.419807  1
  Re  Re12  1  0.000000  0.570396  0.580439  1
  Re  Re13  1  0.500000  0.932915  0.080841  1
  Re  Re14  1  0.500000  0.065009  0.918546  1
  Re  Re15  1  0.000000  0.996279  0.208370  1
  Re  Re16  1  0.000000  0.003174  0.792693  1
  Re  Re17  1  0.500000  0.497633  0.294662  1
  Re  Re18  1  0.500000  0.502249  0.705480  1
  Si  Si19  1  0.000000  0.828354  0.475108  1
  Si  Si20  1  0.000000  0.171460  0.525135  1
  Si  Si21  1  0.500000  0.328037  0.024959  1
  Si  Si22  1  0.500000  0.673184  0.974269  1
  Si  Si23  1  0.000000  0.302977  0.272824  1
  Si  Si24  1  0.000000  0.697639  0.726728  1
  Si  Si25  1  0.500000  0.798093  0.225552  1
  Si  Si26  1  0.500000  0.202777  0.774787  1
  Mo  Mo27  1  0.000000  0.136995  0.052101  1
