# generated using pymatgen
data_Yb12AlSi3O20
_symmetry_space_group_name_H-M   'P 1'
_cell_length_a   5.26980600
_cell_length_b   7.22487700
_cell_length_c   12.52858200
_cell_angle_alpha   90.00000000
_cell_angle_beta   89.99881540
_cell_angle_gamma   90.00000000
_symmetry_Int_Tables_number   1
_chemical_formula_structural   Yb12AlSi3O20
_chemical_formula_sum   'Yb12 Al1 Si3 O20'
_cell_volume   477.00947471
_cell_formula_units_Z   1
loop_
 _symmetry_equiv_pos_site_id
 _symmetry_equiv_pos_as_xyz
  1  'x, y, z'
loop_
 _atom_site_type_symbol
 _atom_site_label
 _atom_site_symmetry_multiplicity
 _atom_site_fract_x
 _atom_site_fract_y
 _atom_site_fract_z
 _atom_site_occupancy
  Yb  Yb0  1  0.234798  0.250000  0.407903  1
  Yb  Yb1  1  0.761262  0.750000  0.596851  1
  Yb  Yb2  1  0.266223  0.750000  0.904765  1
  Yb  Yb3  1  0.734838  0.250000  0.094914  1
  Yb  Yb4  1  0.257258  0.020349  0.173826  1
  Yb  Yb5  1  0.743660  0.982180  0.824952  1
  Yb  Yb6  1  0.239318  0.985567  0.671499  1
  Yb  Yb7  1  0.743660  0.517820  0.824952  1
  Yb  Yb8  1  0.757722  0.022365  0.327620  1
  Yb  Yb9  1  0.257258  0.479651  0.173826  1
  Yb  Yb10  1  0.757722  0.477635  0.327620  1
  Yb  Yb11  1  0.239318  0.514433  0.671499  1
  Al  Al12  1  0.705912  0.250000  0.583659  1
  Si  Si13  1  0.298196  0.750000  0.416103  1
  Si  Si14  1  0.796164  0.750000  0.083342  1
  Si  Si15  1  0.204476  0.250000  0.916752  1
  O  O16  1  0.200089  0.562444  0.352127  1
  O  O17  1  0.806347  0.451239  0.651904  1
  O  O18  1  0.301828  0.438132  0.854390  1
  O  O19  1  0.806347  0.048762  0.651904  1
  O  O20  1  0.697670  0.561688  0.145955  1
  O  O21  1  0.200089  0.937556  0.352127  1
  O  O22  1  0.697670  0.938312  0.145955  1
  O  O23  1  0.301828  0.061869  0.854390  1
  O  O24  1  0.364596  0.250000  0.582148  1
  O  O25  1  0.614066  0.750000  0.415946  1
  O  O26  1  0.112595  0.750000  0.083715  1
  O  O27  1  0.888477  0.250000  0.918690  1
  O  O28  1  0.302805  0.250000  0.042066  1
  O  O29  1  0.700713  0.750000  0.958143  1
  O  O30  1  0.202720  0.750000  0.541619  1
  O  O31  1  0.804463  0.250000  0.448429  1
  O  O32  1  0.999005  0.250000  0.237653  1
  O  O33  1  0.005518  0.750000  0.762087  1
  O  O34  1  0.498692  0.750000  0.745001  1
  O  O35  1  0.496697  0.250000  0.255669  1
