# generated using pymatgen
data_Ca7Mg(SnN)2
_symmetry_space_group_name_H-M   'P 1'
_cell_length_a   12.45412506
_cell_length_b   12.45412542
_cell_length_c   4.94013600
_cell_angle_alpha   90.00000000
_cell_angle_beta   90.00000000
_cell_angle_gamma   157.02311312
_symmetry_Int_Tables_number   1
_chemical_formula_structural   Ca7Mg(SnN)2
_chemical_formula_sum   'Ca7 Mg1 Sn2 N2'
_cell_volume   299.10964018
_cell_formula_units_Z   1
loop_
 _symmetry_equiv_pos_site_id
 _symmetry_equiv_pos_as_xyz
  1  'x, y, z'
loop_
 _atom_site_type_symbol
 _atom_site_label
 _atom_site_symmetry_multiplicity
 _atom_site_fract_x
 _atom_site_fract_y
 _atom_site_fract_z
 _atom_site_occupancy
  Ca  Ca0  1  0.905989  0.094010  0.000000  1
  Ca  Ca1  1  0.694575  0.305424  0.000000  1
  Ca  Ca2  1  0.501752  0.498248  0.000000  1
  Ca  Ca3  1  0.302529  0.697470  0.000000  1
  Ca  Ca4  1  0.098993  0.901006  0.000000  1
  Ca  Ca5  1  0.599104  0.400896  0.500001  1
  Ca  Ca6  1  0.405045  0.594955  0.500001  1
  Mg  Mg7  1  0.786424  0.213575  0.500001  1
  Sn  Sn8  1  0.000096  0.999904  0.500001  1
  Sn  Sn9  1  0.207702  0.792297  0.500001  1
  N  N10  1  0.601050  0.398949  0.000000  1
  N  N11  1  0.396737  0.603262  0.000000  1
