# generated using pymatgen
data_Sc3Al(B4Ru5)2
_symmetry_space_group_name_H-M   'P 1'
_cell_length_a   2.98056800
_cell_length_b   8.49895092
_cell_length_c   10.06967189
_cell_angle_alpha   88.77741141
_cell_angle_beta   90.00000000
_cell_angle_gamma   90.00000000
_symmetry_Int_Tables_number   1
_chemical_formula_structural   Sc3Al(B4Ru5)2
_chemical_formula_sum   'Sc3 Al1 B8 Ru10'
_cell_volume   255.02384950
_cell_formula_units_Z   1
loop_
 _symmetry_equiv_pos_site_id
 _symmetry_equiv_pos_as_xyz
  1  'x, y, z'
loop_
 _atom_site_type_symbol
 _atom_site_label
 _atom_site_symmetry_multiplicity
 _atom_site_fract_x
 _atom_site_fract_y
 _atom_site_fract_z
 _atom_site_occupancy
  Sc  Sc0  1  0.500000  0.153681  0.825209  1
  Sc  Sc1  1  0.500000  0.656701  0.676669  1
  Sc  Sc2  1  0.500000  0.347873  0.312507  1
  Al  Al3  1  0.500000  0.857754  0.192647  1
  B  B4  1  0.500000  0.966360  0.591524  1
  B  B5  1  0.500000  0.039141  0.416305  1
  B  B6  1  0.500000  0.846569  0.898053  1
  B  B7  1  0.500000  0.141840  0.101781  1
  B  B8  1  0.500000  0.652158  0.393989  1
  B  B9  1  0.500000  0.352986  0.599366  1
  B  B10  1  0.500000  0.459636  0.908973  1
  B  B11  1  0.500000  0.536194  0.085926  1
  Ru  Ru12  1  0.000000  0.651427  0.945210  1
  Ru  Ru13  1  0.000000  0.335002  0.047996  1
  Ru  Ru14  1  0.000000  0.839153  0.457974  1
  Ru  Ru15  1  0.000000  0.162666  0.548367  1
  Ru  Ru16  1  0.000000  0.983063  0.008905  1
  Ru  Ru17  1  0.000000  0.401276  0.758955  1
  Ru  Ru18  1  0.000000  0.619740  0.230184  1
  Ru  Ru19  1  0.000000  0.501154  0.493875  1
  Ru  Ru20  1  0.000000  0.903471  0.740845  1
  Ru  Ru21  1  0.000000  0.092154  0.264738  1
