# generated using pymatgen
data_Ba6CePr2(CuO2)12
_symmetry_space_group_name_H-M   'P 1'
_cell_length_a   14.43706534
_cell_length_b   14.43706604
_cell_length_c   5.57599392
_cell_angle_alpha   84.44932666
_cell_angle_beta   84.44932005
_cell_angle_gamma   144.45140644
_symmetry_Int_Tables_number   1
_chemical_formula_structural   Ba6CePr2(CuO2)12
_chemical_formula_sum   'Ba6 Ce1 Pr2 Cu12 O24'
_cell_volume   640.87797872
_cell_formula_units_Z   1
loop_
 _symmetry_equiv_pos_site_id
 _symmetry_equiv_pos_as_xyz
  1  'x, y, z'
loop_
 _atom_site_type_symbol
 _atom_site_label
 _atom_site_symmetry_multiplicity
 _atom_site_fract_x
 _atom_site_fract_y
 _atom_site_fract_z
 _atom_site_occupancy
  Ba  Ba0  1  0.137384  0.862616  0.500000  1
  Ba  Ba1  1  0.472136  0.196762  0.833055  1
  Ba  Ba2  1  0.803238  0.527864  0.166945  1
  Ba  Ba3  1  0.196762  0.472136  0.833055  1
  Ba  Ba4  1  0.527864  0.803238  0.166945  1
  Ba  Ba5  1  0.862616  0.137384  0.500000  1
  Ce  Ce6  1  0.000000  0.000000  0.500000  1
  Pr  Pr7  1  0.664153  0.664153  0.167942  1
  Pr  Pr8  1  0.335847  0.335847  0.832058  1
  Cu  Cu9  1  0.269293  0.395901  0.333681  1
  Cu  Cu10  1  0.604099  0.730707  0.666319  1
  Cu  Cu11  1  0.937376  0.062624  0.000000  1
  Cu  Cu12  1  0.730707  0.604099  0.666319  1
  Cu  Cu13  1  0.062624  0.937376  0.000000  1
  Cu  Cu14  1  0.395901  0.269293  0.333681  1
  Cu  Cu15  1  0.119636  0.546086  0.333197  1
  Cu  Cu16  1  0.453914  0.880364  0.666803  1
  Cu  Cu17  1  0.787142  0.212858  0.000000  1
  Cu  Cu18  1  0.880364  0.453914  0.666803  1
  Cu  Cu19  1  0.212858  0.787142  0.000000  1
  Cu  Cu20  1  0.546086  0.119636  0.333197  1
  O  O21  1  0.443513  0.556487  0.500000  1
  O  O22  1  0.783655  0.891282  0.824764  1
  O  O23  1  0.108718  0.216345  0.175236  1
  O  O24  1  0.891282  0.783655  0.824764  1
  O  O25  1  0.216345  0.108718  0.175236  1
  O  O26  1  0.556487  0.443513  0.500000  1
  O  O27  1  0.891608  0.785233  0.338211  1
  O  O28  1  0.214767  0.108392  0.661789  1
  O  O29  1  0.555902  0.444098  0.000000  1
  O  O30  1  0.108392  0.214767  0.661789  1
  O  O31  1  0.444098  0.555902  0.000000  1
  O  O32  1  0.785233  0.891608  0.338211  1
  O  O33  1  0.186647  0.478682  0.333702  1
  O  O34  1  0.521318  0.813353  0.666298  1
  O  O35  1  0.854525  0.145475  0.000000  1
  O  O36  1  0.813353  0.521318  0.666298  1
  O  O37  1  0.145475  0.854525  0.000000  1
  O  O38  1  0.478682  0.186647  0.333702  1
  O  O39  1  0.050750  0.614900  0.333183  1
  O  O40  1  0.385100  0.949250  0.666817  1
  O  O41  1  0.718153  0.281847  0.000000  1
  O  O42  1  0.949250  0.385100  0.666817  1
  O  O43  1  0.281847  0.718153  0.000000  1
  O  O44  1  0.614900  0.050750  0.333183  1
