# generated using pymatgen
data_Ho2SnB2Rh5
_symmetry_space_group_name_H-M   'P 1'
_cell_length_a   9.54178500
_cell_length_b   9.54178500
_cell_length_c   3.29584900
_cell_angle_alpha   90.00000000
_cell_angle_beta   90.00000000
_cell_angle_gamma   90.00000000
_symmetry_Int_Tables_number   1
_chemical_formula_structural   Ho2SnB2Rh5
_chemical_formula_sum   'Ho4 Sn2 B4 Rh10'
_cell_volume   300.07275072
_cell_formula_units_Z   2
loop_
 _symmetry_equiv_pos_site_id
 _symmetry_equiv_pos_as_xyz
  1  'x, y, z'
loop_
 _atom_site_type_symbol
 _atom_site_label
 _atom_site_symmetry_multiplicity
 _atom_site_fract_x
 _atom_site_fract_y
 _atom_site_fract_z
 _atom_site_occupancy
  Ho  Ho0  1  0.675089  0.175089  0.000000  1
  Ho  Ho1  1  0.324911  0.824911  0.000000  1
  Ho  Ho2  1  0.175089  0.324911  0.000000  1
  Ho  Ho3  1  0.824911  0.675089  0.000000  1
  Sn  Sn4  1  0.000000  0.000000  0.000000  1
  Sn  Sn5  1  0.500000  0.500000  0.000000  1
  B  B6  1  0.120359  0.620359  0.000000  1
  B  B7  1  0.879641  0.379641  0.000000  1
  B  B8  1  0.620359  0.879641  0.000000  1
  B  B9  1  0.379641  0.120359  0.000000  1
  Rh  Rh10  1  0.500000  0.000000  0.500000  1
  Rh  Rh11  1  0.000000  0.500000  0.500000  1
  Rh  Rh12  1  0.224234  0.070902  0.500000  1
  Rh  Rh13  1  0.775766  0.929098  0.500000  1
  Rh  Rh14  1  0.070902  0.775766  0.500000  1
  Rh  Rh15  1  0.724234  0.429098  0.500000  1
  Rh  Rh16  1  0.929098  0.224234  0.500000  1
  Rh  Rh17  1  0.275766  0.570902  0.500000  1
  Rh  Rh18  1  0.570902  0.724234  0.500000  1
  Rh  Rh19  1  0.429098  0.275766  0.500000  1
