# generated using pymatgen
data_La19PrSi15Ge
_symmetry_space_group_name_H-M   'P 1'
_cell_length_a   8.02715565
_cell_length_b   8.03676280
_cell_length_c   15.59362500
_cell_angle_alpha   89.92785949
_cell_angle_beta   89.57229529
_cell_angle_gamma   90.10802215
_symmetry_Int_Tables_number   1
_chemical_formula_structural   La19PrSi15Ge
_chemical_formula_sum   'La19 Pr1 Si15 Ge1'
_cell_volume   1005.95069827
_cell_formula_units_Z   1
loop_
 _symmetry_equiv_pos_site_id
 _symmetry_equiv_pos_as_xyz
  1  'x, y, z'
loop_
 _atom_site_type_symbol
 _atom_site_label
 _atom_site_symmetry_multiplicity
 _atom_site_fract_x
 _atom_site_fract_y
 _atom_site_fract_z
 _atom_site_occupancy
  La  La0  1  0.309023  0.308800  0.999006  1
  La  La1  1  0.191644  0.808530  0.250591  1
  La  La2  1  0.806452  0.190329  0.752106  1
  La  La3  1  0.689087  0.686888  0.498509  1
  La  La4  1  0.376563  0.010277  0.448060  1
  La  La5  1  0.490315  0.875840  0.698262  1
  La  La6  1  0.510917  0.120172  0.196696  1
  La  La7  1  0.878248  0.487471  0.301881  1
  La  La8  1  0.121669  0.514818  0.801682  1
  La  La9  1  0.624798  0.989044  0.947937  1
  La  La10  1  0.004639  0.382100  0.552490  1
  La  La11  1  0.990899  0.622034  0.052610  1
  La  La12  1  0.130063  0.982135  0.876195  1
  La  La13  1  0.519936  0.628767  0.125976  1
  La  La14  1  0.481205  0.372969  0.627082  1
  La  La15  1  0.629549  0.520522  0.873648  1
  La  La16  1  0.370444  0.480084  0.373925  1
  La  La17  1  0.872375  0.019419  0.377328  1
  La  La18  1  0.980595  0.126856  0.123687  1
  Pr  Pr19  1  0.017206  0.873336  0.622685  1
  Si  Si20  1  0.333445  0.696683  0.953541  1
  Si  Si21  1  0.665383  0.301546  0.454400  1
  Si  Si22  1  0.698193  0.332474  0.046219  1
  Si  Si23  1  0.300119  0.668535  0.547752  1
  Si  Si24  1  0.804968  0.830693  0.204982  1
  Si  Si25  1  0.167888  0.195290  0.295470  1
  Si  Si26  1  0.835457  0.804422  0.795355  1
  Si  Si27  1  0.289790  0.920948  0.059152  1
  Si  Si28  1  0.578680  0.788899  0.309147  1
  Si  Si29  1  0.424628  0.209388  0.809875  1
  Si  Si30  1  0.790635  0.581911  0.689883  1
  Si  Si31  1  0.211272  0.420556  0.190621  1
  Si  Si32  1  0.709524  0.077271  0.560495  1
  Si  Si33  1  0.922603  0.289961  0.941151  1
  Si  Si34  1  0.079195  0.712992  0.441558  1
  Ge  Ge35  1  0.192591  0.168042  0.700044  1
