# generated using pymatgen
data_Tm2Sc3Si4(GePt3)3
_symmetry_space_group_name_H-M   'P 1'
_cell_length_a   10.14489100
_cell_length_b   10.14489047
_cell_length_c   4.00596100
_cell_angle_alpha   90.00000000
_cell_angle_beta   90.00000000
_cell_angle_gamma   119.99999847
_symmetry_Int_Tables_number   1
_chemical_formula_structural   Tm2Sc3Si4(GePt3)3
_chemical_formula_sum   'Tm2 Sc3 Si4 Ge3 Pt9'
_cell_volume   357.05252030
_cell_formula_units_Z   1
loop_
 _symmetry_equiv_pos_site_id
 _symmetry_equiv_pos_as_xyz
  1  'x, y, z'
loop_
 _atom_site_type_symbol
 _atom_site_label
 _atom_site_symmetry_multiplicity
 _atom_site_fract_x
 _atom_site_fract_y
 _atom_site_fract_z
 _atom_site_occupancy
  Tm  Tm0  1  0.000000  0.000000  0.000000  1
  Tm  Tm1  1  0.333333  0.666667  0.500000  1
  Sc  Sc2  1  0.894197  0.456528  0.500000  1
  Sc  Sc3  1  0.562332  0.105803  0.500000  1
  Sc  Sc4  1  0.543472  0.437668  0.500000  1
  Si  Si5  1  0.555220  0.646604  0.000000  1
  Si  Si6  1  0.353396  0.908616  0.000000  1
  Si  Si7  1  0.091384  0.444780  0.000000  1
  Si  Si8  1  0.666667  0.333333  0.000000  1
  Ge  Ge9  1  0.242330  0.194021  0.500000  1
  Ge  Ge10  1  0.805979  0.048311  0.500000  1
  Ge  Ge11  1  0.951689  0.757670  0.500000  1
  Pt  Pt12  1  0.229624  0.934733  0.500000  1
  Pt  Pt13  1  0.065267  0.294892  0.500000  1
  Pt  Pt14  1  0.705108  0.770376  0.500000  1
  Pt  Pt15  1  0.316321  0.418583  0.000000  1
  Pt  Pt16  1  0.581417  0.897738  0.000000  1
  Pt  Pt17  1  0.102262  0.683679  0.000000  1
  Pt  Pt18  1  0.389688  0.171733  0.000000  1
  Pt  Pt19  1  0.828267  0.217954  0.000000  1
  Pt  Pt20  1  0.782046  0.610312  0.000000  1
