# generated using pymatgen
data_Tb5Nd(Si3Os)8
_symmetry_space_group_name_H-M   'P 1'
_cell_length_a   10.15823842
_cell_length_b   10.15823767
_cell_length_c   8.19663449
_cell_angle_alpha   89.80037813
_cell_angle_beta   90.19961489
_cell_angle_gamma   132.39887694
_symmetry_Int_Tables_number   1
_chemical_formula_structural   Tb5Nd(Si3Os)8
_chemical_formula_sum   'Tb5 Nd1 Si24 Os8'
_cell_volume   624.59887924
_cell_formula_units_Z   1
loop_
 _symmetry_equiv_pos_site_id
 _symmetry_equiv_pos_as_xyz
  1  'x, y, z'
loop_
 _atom_site_type_symbol
 _atom_site_label
 _atom_site_symmetry_multiplicity
 _atom_site_fract_x
 _atom_site_fract_y
 _atom_site_fract_z
 _atom_site_occupancy
  Tb  Tb0  1  0.501015  0.001015  0.750000  1
  Tb  Tb1  1  0.998997  0.498997  0.250000  1
  Tb  Tb2  1  0.499783  0.999783  0.250000  1
  Tb  Tb3  1  0.000275  0.000153  0.999820  1
  Tb  Tb4  1  0.500153  0.500275  0.500180  1
  Nd  Nd5  1  0.001993  0.501993  0.750000  1
  Si  Si6  1  0.794673  0.204775  0.498800  1
  Si  Si7  1  0.704775  0.294673  0.001200  1
  Si  Si8  1  0.205684  0.795572  0.498696  1
  Si  Si9  1  0.295572  0.705684  0.001304  1
  Si  Si10  1  0.667756  0.667364  0.166825  1
  Si  Si11  1  0.167364  0.167756  0.333175  1
  Si  Si12  1  0.833003  0.831671  0.667233  1
  Si  Si13  1  0.331671  0.333003  0.832767  1
  Si  Si14  1  0.846643  0.612049  0.998185  1
  Si  Si15  1  0.112049  0.346643  0.501815  1
  Si  Si16  1  0.657518  0.889906  0.496586  1
  Si  Si17  1  0.389906  0.157518  0.003414  1
  Si  Si18  1  0.151965  0.387587  0.006889  1
  Si  Si19  1  0.887587  0.651965  0.493111  1
  Si  Si20  1  0.122366  0.887624  0.728940  1
  Si  Si21  1  0.387624  0.622366  0.771060  1
  Si  Si22  1  0.376966  0.611231  0.226943  1
  Si  Si23  1  0.111231  0.876966  0.273057  1
  Si  Si24  1  0.881430  0.114947  0.272304  1
  Si  Si25  1  0.614947  0.381430  0.227696  1
  Si  Si26  1  0.620140  0.385691  0.772599  1
  Si  Si27  1  0.885691  0.120140  0.727401  1
  Si  Si28  1  0.610530  0.842734  0.995022  1
  Si  Si29  1  0.342734  0.110530  0.504978  1
  Os  Os30  1  0.626758  0.625876  0.872553  1
  Os  Os31  1  0.125876  0.126758  0.627447  1
  Os  Os32  1  0.372606  0.373640  0.126693  1
  Os  Os33  1  0.873640  0.872606  0.373307  1
  Os  Os34  1  0.172787  0.836065  0.003148  1
  Os  Os35  1  0.336065  0.672787  0.496852  1
  Os  Os36  1  0.826785  0.163444  0.000943  1
  Os  Os37  1  0.663444  0.326785  0.499057  1
