# generated using pymatgen
data_Ta7Nb9(Co2N)4
_symmetry_space_group_name_H-M   'P 1'
_cell_length_a   8.22956020
_cell_length_b   8.22643741
_cell_length_c   8.23527463
_cell_angle_alpha   59.98955426
_cell_angle_beta   60.04878731
_cell_angle_gamma   60.05850272
_symmetry_Int_Tables_number   1
_chemical_formula_structural   Ta7Nb9(Co2N)4
_chemical_formula_sum   'Ta7 Nb9 Co8 N4'
_cell_volume   394.51981817
_cell_formula_units_Z   1
loop_
 _symmetry_equiv_pos_site_id
 _symmetry_equiv_pos_as_xyz
  1  'x, y, z'
loop_
 _atom_site_type_symbol
 _atom_site_label
 _atom_site_symmetry_multiplicity
 _atom_site_fract_x
 _atom_site_fract_y
 _atom_site_fract_z
 _atom_site_occupancy
  Ta  Ta0  1  0.125963  0.627524  0.624818  1
  Ta  Ta1  1  0.627466  0.126049  0.621856  1
  Ta  Ta2  1  0.624818  0.621695  0.125963  1
  Ta  Ta3  1  0.621856  0.624629  0.627466  1
  Ta  Ta4  1  0.063812  0.436188  0.063812  1
  Ta  Ta5  1  0.062442  0.437642  0.437876  1
  Ta  Ta6  1  0.437876  0.062039  0.062442  1
  Nb  Nb7  1  0.811454  0.812032  0.188311  1
  Nb  Nb8  1  0.188311  0.188202  0.811454  1
  Nb  Nb9  1  0.813329  0.186671  0.813329  1
  Nb  Nb10  1  0.185362  0.814638  0.185362  1
  Nb  Nb11  1  0.183704  0.816699  0.816055  1
  Nb  Nb12  1  0.816055  0.183542  0.183704  1
  Nb  Nb13  1  0.435470  0.435224  0.065006  1
  Nb  Nb14  1  0.065006  0.064299  0.435470  1
  Nb  Nb15  1  0.436585  0.063415  0.436585  1
  Co  Co16  1  0.752163  0.418920  0.415140  1
  Co  Co17  1  0.419092  0.749472  0.413545  1
  Co  Co18  1  0.415140  0.413777  0.752163  1
  Co  Co19  1  0.413545  0.417892  0.419092  1
  Co  Co20  1  0.504963  0.833863  0.832282  1
  Co  Co21  1  0.834584  0.504128  0.829881  1
  Co  Co22  1  0.832282  0.828892  0.504963  1
  Co  Co23  1  0.829881  0.831406  0.834584  1
  N  N24  1  0.622939  0.124102  0.124548  1
  N  N25  1  0.123603  0.621430  0.127751  1
  N  N26  1  0.124548  0.128411  0.622939  1
  N  N27  1  0.127751  0.127215  0.123603  1
