# generated using pymatgen
data_Ho4Al4PdRh3
_symmetry_space_group_name_H-M   'P 1'
_cell_length_a   4.21241200
_cell_length_b   6.91220895
_cell_length_c   7.94531201
_cell_angle_alpha   89.83742503
_cell_angle_beta   90.00000000
_cell_angle_gamma   90.00000000
_symmetry_Int_Tables_number   1
_chemical_formula_structural   Ho4Al4PdRh3
_chemical_formula_sum   'Ho4 Al4 Pd1 Rh3'
_cell_volume   231.34328979
_cell_formula_units_Z   1
loop_
 _symmetry_equiv_pos_site_id
 _symmetry_equiv_pos_as_xyz
  1  'x, y, z'
loop_
 _atom_site_type_symbol
 _atom_site_label
 _atom_site_symmetry_multiplicity
 _atom_site_fract_x
 _atom_site_fract_y
 _atom_site_fract_z
 _atom_site_occupancy
  Ho  Ho0  1  0.250000  0.532508  0.183243  1
  Ho  Ho1  1  0.750000  0.458922  0.819062  1
  Ho  Ho2  1  0.750000  0.968140  0.676241  1
  Ho  Ho3  1  0.250000  0.034460  0.320556  1
  Al  Al4  1  0.250000  0.634176  0.559054  1
  Al  Al5  1  0.750000  0.364126  0.438768  1
  Al  Al6  1  0.750000  0.865837  0.064068  1
  Al  Al7  1  0.250000  0.140083  0.939025  1
  Pd  Pd8  1  0.250000  0.766877  0.878920  1
  Rh  Rh9  1  0.750000  0.235918  0.119971  1
  Rh  Rh10  1  0.750000  0.735423  0.379940  1
  Rh  Rh11  1  0.250000  0.263531  0.621152  1
