# generated using pymatgen
data_Tm12Co8Si7Os
_symmetry_space_group_name_H-M   'P 1'
_cell_length_a   5.44666461
_cell_length_b   7.53569481
_cell_length_c   12.51951200
_cell_angle_alpha   90.00000000
_cell_angle_beta   90.00000000
_cell_angle_gamma   90.55566307
_symmetry_Int_Tables_number   1
_chemical_formula_structural   Tm12Co8Si7Os
_chemical_formula_sum   'Tm12 Co8 Si7 Os1'
_cell_volume   513.83172089
_cell_formula_units_Z   1
loop_
 _symmetry_equiv_pos_site_id
 _symmetry_equiv_pos_as_xyz
  1  'x, y, z'
loop_
 _atom_site_type_symbol
 _atom_site_label
 _atom_site_symmetry_multiplicity
 _atom_site_fract_x
 _atom_site_fract_y
 _atom_site_fract_z
 _atom_site_occupancy
  Tm  Tm0  1  0.641560  0.249061  0.250000  1
  Tm  Tm1  1  0.371407  0.747511  0.750000  1
  Tm  Tm2  1  0.366862  0.752239  0.250000  1
  Tm  Tm3  1  0.631339  0.245049  0.750000  1
  Tm  Tm4  1  0.137908  0.390475  0.105024  1
  Tm  Tm5  1  0.862810  0.604719  0.900676  1
  Tm  Tm6  1  0.862810  0.604719  0.599324  1
  Tm  Tm7  1  0.855922  0.901407  0.396884  1
  Tm  Tm8  1  0.137908  0.390475  0.394976  1
  Tm  Tm9  1  0.139613  0.104137  0.601754  1
  Tm  Tm10  1  0.139613  0.104137  0.898246  1
  Tm  Tm11  1  0.855922  0.901407  0.103116  1
  Co  Co12  1  0.367041  0.028776  0.084174  1
  Co  Co13  1  0.639788  0.972622  0.909740  1
  Co  Co14  1  0.639788  0.972622  0.590260  1
  Co  Co15  1  0.626493  0.529003  0.413095  1
  Co  Co16  1  0.367041  0.028776  0.415826  1
  Co  Co17  1  0.365098  0.471031  0.587696  1
  Co  Co18  1  0.365098  0.471031  0.912304  1
  Co  Co19  1  0.626493  0.529003  0.086905  1
  Si  Si20  1  0.851386  0.895645  0.750000  1
  Si  Si21  1  0.842318  0.602455  0.250000  1
  Si  Si22  1  0.152254  0.398508  0.750000  1
  Si  Si23  1  0.611228  0.251770  0.997552  1
  Si  Si24  1  0.387573  0.751334  0.997834  1
  Si  Si25  1  0.387573  0.751334  0.502166  1
  Si  Si26  1  0.611228  0.251770  0.502448  1
  Os  Os27  1  0.155926  0.098985  0.250000  1
