# generated using pymatgen
data_La6Sn7(GeAu4)3
_symmetry_space_group_name_H-M   'P 1'
_cell_length_a   4.62844500
_cell_length_b   10.17806647
_cell_length_c   13.88863525
_cell_angle_alpha   89.95883500
_cell_angle_beta   90.00000000
_cell_angle_gamma   90.00000000
_symmetry_Int_Tables_number   1
_chemical_formula_structural   La6Sn7(GeAu4)3
_chemical_formula_sum   'La6 Sn7 Ge3 Au12'
_cell_volume   654.27428356
_cell_formula_units_Z   1
loop_
 _symmetry_equiv_pos_site_id
 _symmetry_equiv_pos_as_xyz
  1  'x, y, z'
loop_
 _atom_site_type_symbol
 _atom_site_label
 _atom_site_symmetry_multiplicity
 _atom_site_fract_x
 _atom_site_fract_y
 _atom_site_fract_z
 _atom_site_occupancy
  La  La0  1  0.000000  0.736517  0.810554  1
  La  La1  1  0.000000  0.741641  0.185602  1
  La  La2  1  0.500000  0.262500  0.692059  1
  La  La3  1  0.500000  0.258742  0.307534  1
  La  La4  1  0.000000  0.737388  0.504760  1
  La  La5  1  0.500000  0.264692  0.998309  1
  Sn  Sn6  1  0.500000  0.622337  0.341769  1
  Sn  Sn7  1  0.000000  0.028288  0.360987  1
  Sn  Sn8  1  0.000000  0.024041  0.641961  1
  Sn  Sn9  1  0.500000  0.977089  0.136703  1
  Sn  Sn10  1  0.500000  0.976042  0.858944  1
  Sn  Sn11  1  0.000000  0.285006  0.501664  1
  Sn  Sn12  1  0.500000  0.712370  0.999077  1
  Ge  Ge13  1  0.000000  0.380430  0.839933  1
  Ge  Ge14  1  0.000000  0.378923  0.159069  1
  Ge  Ge15  1  0.500000  0.619797  0.662854  1
  Au  Au16  1  0.000000  0.129832  0.838312  1
  Au  Au17  1  0.000000  0.127812  0.157972  1
  Au  Au18  1  0.500000  0.870804  0.661389  1
  Au  Au19  1  0.500000  0.886084  0.335241  1
  Au  Au20  1  0.000000  0.519603  0.999687  1
  Au  Au21  1  0.500000  0.471347  0.507189  1
  Au  Au22  1  0.000000  0.474034  0.344417  1
  Au  Au23  1  0.000000  0.488939  0.657958  1
  Au  Au24  1  0.500000  0.510344  0.151738  1
  Au  Au25  1  0.500000  0.513174  0.844584  1
  Au  Au26  1  0.000000  0.936915  0.997150  1
  Au  Au27  1  0.500000  0.065306  0.502585  1
