# generated using pymatgen
data_Sc2AlB2IrRh4
_symmetry_space_group_name_H-M   'P 1'
_cell_length_a   9.37488500
_cell_length_b   9.37488500
_cell_length_c   3.06211800
_cell_angle_alpha   90.00000000
_cell_angle_beta   90.00000000
_cell_angle_gamma   90.00000000
_symmetry_Int_Tables_number   1
_chemical_formula_structural   Sc2AlB2IrRh4
_chemical_formula_sum   'Sc4 Al2 B4 Ir2 Rh8'
_cell_volume   269.12486219
_cell_formula_units_Z   2
loop_
 _symmetry_equiv_pos_site_id
 _symmetry_equiv_pos_as_xyz
  1  'x, y, z'
loop_
 _atom_site_type_symbol
 _atom_site_label
 _atom_site_symmetry_multiplicity
 _atom_site_fract_x
 _atom_site_fract_y
 _atom_site_fract_z
 _atom_site_occupancy
  Sc  Sc0  1  0.675924  0.175924  0.000000  1
  Sc  Sc1  1  0.324076  0.824076  0.000000  1
  Sc  Sc2  1  0.175924  0.324076  0.000000  1
  Sc  Sc3  1  0.824076  0.675924  0.000000  1
  Al  Al4  1  0.500000  0.500000  0.000000  1
  Al  Al5  1  0.000000  0.000000  0.000000  1
  B  B6  1  0.124095  0.624095  0.000000  1
  B  B7  1  0.875905  0.375905  0.000000  1
  B  B8  1  0.624095  0.875905  0.000000  1
  B  B9  1  0.375905  0.124095  0.000000  1
  Ir  Ir10  1  0.500000  0.000000  0.500000  1
  Ir  Ir11  1  0.000000  0.500000  0.500000  1
  Rh  Rh12  1  0.571023  0.715608  0.500000  1
  Rh  Rh13  1  0.428977  0.284392  0.500000  1
  Rh  Rh14  1  0.071023  0.784392  0.500000  1
  Rh  Rh15  1  0.928977  0.215608  0.500000  1
  Rh  Rh16  1  0.284392  0.571023  0.500000  1
  Rh  Rh17  1  0.715608  0.428977  0.500000  1
  Rh  Rh18  1  0.215608  0.071023  0.500000  1
  Rh  Rh19  1  0.784392  0.928977  0.500000  1
