# generated using pymatgen
data_Ac3Ho2(Sn5Ir2)2
_symmetry_space_group_name_H-M   'P 1'
_cell_length_a   14.30589800
_cell_length_b   14.30589800
_cell_length_c   4.71307700
_cell_angle_alpha   90.00000000
_cell_angle_beta   90.00000000
_cell_angle_gamma   90.00000000
_symmetry_Int_Tables_number   1
_chemical_formula_structural   Ac3Ho2(Sn5Ir2)2
_chemical_formula_sum   'Ac6 Ho4 Sn20 Ir8'
_cell_volume   964.57229471
_cell_formula_units_Z   2
loop_
 _symmetry_equiv_pos_site_id
 _symmetry_equiv_pos_as_xyz
  1  'x, y, z'
loop_
 _atom_site_type_symbol
 _atom_site_label
 _atom_site_symmetry_multiplicity
 _atom_site_fract_x
 _atom_site_fract_y
 _atom_site_fract_z
 _atom_site_occupancy
  Ac  Ac0  1  0.500000  0.500000  0.000000  1
  Ac  Ac1  1  0.000000  0.000000  0.000000  1
  Ac  Ac2  1  0.887323  0.387323  0.500000  1
  Ac  Ac3  1  0.112677  0.612677  0.500000  1
  Ac  Ac4  1  0.387323  0.112677  0.500000  1
  Ac  Ac5  1  0.612677  0.887323  0.500000  1
  Ho  Ho6  1  0.675339  0.175339  0.500000  1
  Ho  Ho7  1  0.324661  0.824661  0.500000  1
  Ho  Ho8  1  0.175339  0.324661  0.500000  1
  Ho  Ho9  1  0.824661  0.675339  0.500000  1
  Sn  Sn10  1  0.571369  0.071369  0.000000  1
  Sn  Sn11  1  0.428631  0.928631  0.000000  1
  Sn  Sn12  1  0.071369  0.428631  0.000000  1
  Sn  Sn13  1  0.928631  0.571369  0.000000  1
  Sn  Sn14  1  0.655898  0.698042  0.000000  1
  Sn  Sn15  1  0.344102  0.301958  0.000000  1
  Sn  Sn16  1  0.155898  0.801958  0.000000  1
  Sn  Sn17  1  0.844102  0.198042  0.000000  1
  Sn  Sn18  1  0.301958  0.655898  0.000000  1
  Sn  Sn19  1  0.698042  0.344102  0.000000  1
  Sn  Sn20  1  0.198042  0.155898  0.000000  1
  Sn  Sn21  1  0.801958  0.844102  0.000000  1
  Sn  Sn22  1  0.665925  0.508071  0.500000  1
  Sn  Sn23  1  0.334075  0.491929  0.500000  1
  Sn  Sn24  1  0.165925  0.991929  0.500000  1
  Sn  Sn25  1  0.834075  0.008071  0.500000  1
  Sn  Sn26  1  0.491929  0.665925  0.500000  1
  Sn  Sn27  1  0.508071  0.334075  0.500000  1
  Sn  Sn28  1  0.008071  0.165925  0.500000  1
  Sn  Sn29  1  0.991929  0.834075  0.500000  1
  Ir  Ir30  1  0.746955  0.530278  0.000000  1
  Ir  Ir31  1  0.253045  0.469722  0.000000  1
  Ir  Ir32  1  0.246955  0.969722  0.000000  1
  Ir  Ir33  1  0.753045  0.030278  0.000000  1
  Ir  Ir34  1  0.469722  0.746955  0.000000  1
  Ir  Ir35  1  0.530278  0.253045  0.000000  1
  Ir  Ir36  1  0.030278  0.246955  0.000000  1
  Ir  Ir37  1  0.969722  0.753045  0.000000  1
