# generated using pymatgen
data_Pa3Mn(Al4Os)3
_symmetry_space_group_name_H-M   'P 1'
_cell_length_a   8.85776300
_cell_length_b   8.85776258
_cell_length_c   9.33949400
_cell_angle_alpha   90.00000000
_cell_angle_beta   90.00000000
_cell_angle_gamma   120.00000532
_symmetry_Int_Tables_number   1
_chemical_formula_structural   Pa3Mn(Al4Os)3
_chemical_formula_sum   'Pa6 Mn2 Al24 Os6'
_cell_volume   634.60289228
_cell_formula_units_Z   2
loop_
 _symmetry_equiv_pos_site_id
 _symmetry_equiv_pos_as_xyz
  1  'x, y, z'
loop_
 _atom_site_type_symbol
 _atom_site_label
 _atom_site_symmetry_multiplicity
 _atom_site_fract_x
 _atom_site_fract_y
 _atom_site_fract_z
 _atom_site_occupancy
  Pa  Pa0  1  0.196392  0.392784  0.250000  1
  Pa  Pa1  1  0.803608  0.607216  0.750000  1
  Pa  Pa2  1  0.607216  0.803608  0.250000  1
  Pa  Pa3  1  0.392784  0.196392  0.750000  1
  Pa  Pa4  1  0.196392  0.803608  0.250000  1
  Pa  Pa5  1  0.803608  0.196392  0.750000  1
  Mn  Mn6  1  0.000000  0.000000  0.000000  1
  Mn  Mn7  1  0.000000  0.000000  0.500000  1
  Al  Al8  1  0.333333  0.666667  0.016039  1
  Al  Al9  1  0.666667  0.333333  0.983961  1
  Al  Al10  1  0.666667  0.333333  0.516039  1
  Al  Al11  1  0.333333  0.666667  0.483961  1
  Al  Al12  1  0.158467  0.316932  0.578612  1
  Al  Al13  1  0.841533  0.683068  0.421388  1
  Al  Al14  1  0.683068  0.841533  0.578612  1
  Al  Al15  1  0.841533  0.683068  0.078612  1
  Al  Al16  1  0.316932  0.158467  0.421388  1
  Al  Al17  1  0.158467  0.316932  0.921388  1
  Al  Al18  1  0.158467  0.841533  0.578612  1
  Al  Al19  1  0.316932  0.158467  0.078612  1
  Al  Al20  1  0.841533  0.158467  0.421388  1
  Al  Al21  1  0.683068  0.841533  0.921388  1
  Al  Al22  1  0.841533  0.158467  0.078612  1
  Al  Al23  1  0.158467  0.841533  0.921388  1
  Al  Al24  1  0.563204  0.126409  0.250000  1
  Al  Al25  1  0.436796  0.873591  0.750000  1
  Al  Al26  1  0.873591  0.436796  0.250000  1
  Al  Al27  1  0.126409  0.563204  0.750000  1
  Al  Al28  1  0.563204  0.436796  0.250000  1
  Al  Al29  1  0.436796  0.563204  0.750000  1
  Al  Al30  1  0.000000  0.000000  0.250000  1
  Al  Al31  1  0.000000  0.000000  0.750000  1
  Os  Os32  1  0.500000  0.000000  0.000000  1
  Os  Os33  1  0.000000  0.500000  0.000000  1
  Os  Os34  1  0.500000  0.000000  0.500000  1
  Os  Os35  1  0.500000  0.500000  0.000000  1
  Os  Os36  1  0.000000  0.500000  0.500000  1
  Os  Os37  1  0.500000  0.500000  0.500000  1
