# generated using pymatgen
data_SrPt2PbO7
_symmetry_space_group_name_H-M   'P 1'
_cell_length_a   7.40883212
_cell_length_b   7.40883221
_cell_length_c   7.46456600
_cell_angle_alpha   59.75084034
_cell_angle_beta   59.75083995
_cell_angle_gamma   58.86119477
_symmetry_Int_Tables_number   1
_chemical_formula_structural   SrPt2PbO7
_chemical_formula_sum   'Sr2 Pt4 Pb2 O14'
_cell_volume   286.08383250
_cell_formula_units_Z   2
loop_
 _symmetry_equiv_pos_site_id
 _symmetry_equiv_pos_as_xyz
  1  'x, y, z'
loop_
 _atom_site_type_symbol
 _atom_site_label
 _atom_site_symmetry_multiplicity
 _atom_site_fract_x
 _atom_site_fract_y
 _atom_site_fract_z
 _atom_site_occupancy
  Sr  Sr0  1  0.625000  0.125000  0.125000  1
  Sr  Sr1  1  0.125000  0.625000  0.125000  1
  Pt  Pt2  1  0.625000  0.625000  0.125000  1
  Pt  Pt3  1  0.625000  0.125000  0.625000  1
  Pt  Pt4  1  0.125000  0.625000  0.625000  1
  Pt  Pt5  1  0.625000  0.625000  0.625000  1
  Pb  Pb6  1  0.125000  0.125000  0.125000  1
  Pb  Pb7  1  0.125000  0.125000  0.625000  1
  O  O8  1  0.227378  0.227378  0.272622  1
  O  O9  1  0.717048  0.289826  0.293869  1
  O  O10  1  0.717048  0.289826  0.699257  1
  O  O11  1  0.289826  0.717048  0.293869  1
  O  O12  1  0.707282  0.707282  0.292718  1
  O  O13  1  0.295465  0.295465  0.704535  1
  O  O14  1  0.960174  0.532952  0.550743  1
  O  O15  1  0.289826  0.717048  0.699257  1
  O  O16  1  0.954535  0.954535  0.545465  1
  O  O17  1  0.532952  0.960174  0.550743  1
  O  O18  1  0.542718  0.542718  0.957282  1
  O  O19  1  0.960174  0.532952  0.956131  1
  O  O20  1  0.532952  0.960174  0.956131  1
  O  O21  1  0.022622  0.022622  0.977378  1
