# generated using pymatgen
data_Cs2SbIr3S8
_symmetry_space_group_name_H-M   'P 1'
_cell_length_a   6.34257900
_cell_length_b   7.33491985
_cell_length_c   16.20052506
_cell_angle_alpha   89.82313809
_cell_angle_beta   90.00000000
_cell_angle_gamma   90.00000000
_symmetry_Int_Tables_number   1
_chemical_formula_structural   Cs2SbIr3S8
_chemical_formula_sum   'Cs4 Sb2 Ir6 S16'
_cell_volume   753.68223506
_cell_formula_units_Z   2
loop_
 _symmetry_equiv_pos_site_id
 _symmetry_equiv_pos_as_xyz
  1  'x, y, z'
loop_
 _atom_site_type_symbol
 _atom_site_label
 _atom_site_symmetry_multiplicity
 _atom_site_fract_x
 _atom_site_fract_y
 _atom_site_fract_z
 _atom_site_occupancy
  Cs  Cs0  1  0.350790  0.000000  0.000000  1
  Cs  Cs1  1  0.649210  0.500000  0.500000  1
  Cs  Cs2  1  0.029604  0.000000  0.500000  1
  Cs  Cs3  1  0.970396  0.500000  0.000000  1
  Sb  Sb4  1  0.500000  0.250000  0.250000  1
  Sb  Sb5  1  0.500000  0.750000  0.750000  1
  Ir  Ir6  1  0.001343  0.998749  0.250316  1
  Ir  Ir7  1  0.001343  0.001251  0.749684  1
  Ir  Ir8  1  0.998657  0.501251  0.249684  1
  Ir  Ir9  1  0.998657  0.498749  0.750316  1
  Ir  Ir10  1  0.500000  0.750000  0.250000  1
  Ir  Ir11  1  0.500000  0.250000  0.750000  1
  S  S12  1  0.855949  0.250171  0.327476  1
  S  S13  1  0.855949  0.749829  0.672524  1
  S  S14  1  0.165419  0.750305  0.177099  1
  S  S15  1  0.165419  0.249695  0.822901  1
  S  S16  1  0.144051  0.249829  0.172524  1
  S  S17  1  0.144051  0.750171  0.827476  1
  S  S18  1  0.834581  0.749695  0.322901  1
  S  S19  1  0.834581  0.250305  0.677099  1
  S  S20  1  0.681128  0.982600  0.173179  1
  S  S21  1  0.681128  0.017400  0.826821  1
  S  S22  1  0.318872  0.517400  0.326821  1
  S  S23  1  0.318872  0.482600  0.673179  1
  S  S24  1  0.324899  0.981762  0.326108  1
  S  S25  1  0.324899  0.018238  0.673892  1
  S  S26  1  0.675101  0.518238  0.173892  1
  S  S27  1  0.675101  0.481762  0.826108  1
