# generated using pymatgen
data_KU2S5
_symmetry_space_group_name_H-M   'P 1'
_cell_length_a   7.41438500
_cell_length_b   8.38972993
_cell_length_c   11.64569004
_cell_angle_alpha   90.03018644
_cell_angle_beta   90.00000000
_cell_angle_gamma   90.00000000
_symmetry_Int_Tables_number   1
_chemical_formula_structural   KU2S5
_chemical_formula_sum   'K4 U8 S20'
_cell_volume   724.41641245
_cell_formula_units_Z   4
loop_
 _symmetry_equiv_pos_site_id
 _symmetry_equiv_pos_as_xyz
  1  'x, y, z'
loop_
 _atom_site_type_symbol
 _atom_site_label
 _atom_site_symmetry_multiplicity
 _atom_site_fract_x
 _atom_site_fract_y
 _atom_site_fract_z
 _atom_site_occupancy
  K  K0  1  0.054497  0.490182  0.332394  1
  K  K1  1  0.554497  0.509818  0.167606  1
  K  K2  1  0.945503  0.509818  0.667606  1
  K  K3  1  0.445503  0.490182  0.832394  1
  U  U4  1  0.024690  0.999762  0.319986  1
  U  U5  1  0.524690  0.000238  0.180014  1
  U  U6  1  0.975310  0.000238  0.680014  1
  U  U7  1  0.475310  0.999762  0.819986  1
  U  U8  1  0.068895  0.749626  0.007375  1
  U  U9  1  0.568895  0.250374  0.492625  1
  U  U10  1  0.931105  0.250374  0.992625  1
  U  U11  1  0.431105  0.749626  0.507375  1
  S  S12  1  0.661168  0.956424  0.403475  1
  S  S13  1  0.161168  0.043576  0.096525  1
  S  S14  1  0.338832  0.043576  0.596525  1
  S  S15  1  0.838832  0.956424  0.903475  1
  S  S16  1  0.447490  0.797823  0.002699  1
  S  S17  1  0.947490  0.202177  0.497301  1
  S  S18  1  0.552510  0.202177  0.997301  1
  S  S19  1  0.052510  0.797823  0.502699  1
  S  S20  1  0.838860  0.792888  0.185230  1
  S  S21  1  0.338860  0.207112  0.314770  1
  S  S22  1  0.161140  0.207112  0.814770  1
  S  S23  1  0.661140  0.792888  0.685230  1
  S  S24  1  0.310133  0.782961  0.285671  1
  S  S25  1  0.810133  0.217039  0.214329  1
  S  S26  1  0.689867  0.217039  0.714329  1
  S  S27  1  0.189867  0.782961  0.785671  1
  S  S28  1  0.171185  0.460024  0.070817  1
  S  S29  1  0.671185  0.539976  0.429183  1
  S  S30  1  0.828815  0.539976  0.929183  1
  S  S31  1  0.328815  0.460024  0.570817  1
