# generated using pymatgen
data_Ho3Tm3Tc2
_symmetry_space_group_name_H-M   'P 1'
_cell_length_a   6.18926733
_cell_length_b   7.41613100
_cell_length_c   9.02932021
_cell_angle_alpha   90.00000000
_cell_angle_beta   90.12372038
_cell_angle_gamma   90.00000000
_symmetry_Int_Tables_number   1
_chemical_formula_structural   Ho3Tm3Tc2
_chemical_formula_sum   'Ho6 Tm6 Tc4'
_cell_volume   414.44859979
_cell_formula_units_Z   2
loop_
 _symmetry_equiv_pos_site_id
 _symmetry_equiv_pos_as_xyz
  1  'x, y, z'
loop_
 _atom_site_type_symbol
 _atom_site_label
 _atom_site_symmetry_multiplicity
 _atom_site_fract_x
 _atom_site_fract_y
 _atom_site_fract_z
 _atom_site_occupancy
  Ho  Ho0  1  0.343445  0.676517  0.062425  1
  Ho  Ho1  1  0.156555  0.176517  0.437575  1
  Ho  Ho2  1  0.874202  0.540506  0.250267  1
  Ho  Ho3  1  0.625798  0.040506  0.249733  1
  Ho  Ho4  1  0.124786  0.459656  0.750036  1
  Ho  Ho5  1  0.375214  0.959656  0.749964  1
  Tm  Tm6  1  0.656662  0.324049  0.562426  1
  Tm  Tm7  1  0.843338  0.824049  0.937574  1
  Tm  Tm8  1  0.655751  0.323871  0.937301  1
  Tm  Tm9  1  0.844249  0.823871  0.562699  1
  Tm  Tm10  1  0.344514  0.675679  0.438079  1
  Tm  Tm11  1  0.155486  0.175679  0.061921  1
  Tc  Tc12  1  0.043300  0.884335  0.250527  1
  Tc  Tc13  1  0.456700  0.384335  0.249473  1
  Tc  Tc14  1  0.954992  0.115386  0.751073  1
  Tc  Tc15  1  0.545008  0.615386  0.748927  1
