# generated using pymatgen
data_Li3YTh2Pt3
_symmetry_space_group_name_H-M   'P 1'
_cell_length_a   7.29760283
_cell_length_b   7.29760245
_cell_length_c   4.09125200
_cell_angle_alpha   90.00000000
_cell_angle_beta   90.00000000
_cell_angle_gamma   120.50946710
_symmetry_Int_Tables_number   1
_chemical_formula_structural   Li3YTh2Pt3
_chemical_formula_sum   'Li3 Y1 Th2 Pt3'
_cell_volume   187.71317948
_cell_formula_units_Z   1
loop_
 _symmetry_equiv_pos_site_id
 _symmetry_equiv_pos_as_xyz
  1  'x, y, z'
loop_
 _atom_site_type_symbol
 _atom_site_label
 _atom_site_symmetry_multiplicity
 _atom_site_fract_x
 _atom_site_fract_y
 _atom_site_fract_z
 _atom_site_occupancy
  Li  Li0  1  0.758090  0.758090  0.000000  1
  Li  Li1  1  0.234550  0.007569  0.000000  1
  Li  Li2  1  0.007569  0.234550  0.000000  1
  Y  Y3  1  0.403066  0.403066  0.500000  1
  Th  Th4  1  0.594722  0.000276  0.500000  1
  Th  Th5  1  0.000276  0.594722  0.500000  1
  Pt  Pt6  1  0.672347  0.333402  0.000000  1
  Pt  Pt7  1  0.333402  0.672347  0.000000  1
  Pt  Pt8  1  0.995979  0.995979  0.500000  1
