# generated using pymatgen
data_Tb2Lu3RuRh
_symmetry_space_group_name_H-M   'P 1'
_cell_length_a   6.33316804
_cell_length_b   7.21356379
_cell_length_c   8.39990677
_cell_angle_alpha   96.85357616
_cell_angle_beta   112.55837620
_cell_angle_gamma   90.09252490
_symmetry_Int_Tables_number   1
_chemical_formula_structural   Tb2Lu3RuRh
_chemical_formula_sum   'Tb4 Lu6 Ru2 Rh2'
_cell_volume   351.38380826
_cell_formula_units_Z   2
loop_
 _symmetry_equiv_pos_site_id
 _symmetry_equiv_pos_as_xyz
  1  'x, y, z'
loop_
 _atom_site_type_symbol
 _atom_site_label
 _atom_site_symmetry_multiplicity
 _atom_site_fract_x
 _atom_site_fract_y
 _atom_site_fract_z
 _atom_site_occupancy
  Tb  Tb0  1  0.524380  0.080820  0.813429  1
  Tb  Tb1  1  0.475620  0.919180  0.186571  1
  Tb  Tb2  1  0.714285  0.416360  0.190308  1
  Tb  Tb3  1  0.285715  0.583640  0.809692  1
  Lu  Lu4  1  0.290857  0.312711  0.434618  1
  Lu  Lu5  1  0.709143  0.687289  0.565382  1
  Lu  Lu6  1  0.859223  0.182443  0.563437  1
  Lu  Lu7  1  0.140777  0.817557  0.436563  1
  Lu  Lu8  1  0.078319  0.247660  0.999286  1
  Lu  Lu9  1  0.921681  0.752340  0.000714  1
  Ru  Ru10  1  0.101388  0.924083  0.781395  1
  Ru  Ru11  1  0.898612  0.075917  0.218605  1
  Rh  Rh12  1  0.320175  0.574271  0.224347  1
  Rh  Rh13  1  0.679825  0.425729  0.775653  1
