# generated using pymatgen
data_Zr4V5Ir3
_symmetry_space_group_name_H-M   'P 1'
_cell_length_a   5.19451064
_cell_length_b   5.19451009
_cell_length_c   8.68796900
_cell_angle_alpha   90.00000000
_cell_angle_beta   90.00000000
_cell_angle_gamma   121.36013020
_symmetry_Int_Tables_number   1
_chemical_formula_structural   Zr4V5Ir3
_chemical_formula_sum   'Zr4 V5 Ir3'
_cell_volume   200.18023432
_cell_formula_units_Z   1
loop_
 _symmetry_equiv_pos_site_id
 _symmetry_equiv_pos_as_xyz
  1  'x, y, z'
loop_
 _atom_site_type_symbol
 _atom_site_label
 _atom_site_symmetry_multiplicity
 _atom_site_fract_x
 _atom_site_fract_y
 _atom_site_fract_z
 _atom_site_occupancy
  Zr  Zr0  1  0.335630  0.664370  0.438187  1
  Zr  Zr1  1  0.666970  0.333030  0.560330  1
  Zr  Zr2  1  0.666970  0.333030  0.939670  1
  Zr  Zr3  1  0.335630  0.664370  0.061813  1
  V  V4  1  0.829339  0.670981  0.250000  1
  V  V5  1  0.329019  0.170661  0.250000  1
  V  V6  1  0.175471  0.824529  0.750000  1
  V  V7  1  0.171915  0.340466  0.750000  1
  V  V8  1  0.659534  0.828085  0.750000  1
  Ir  Ir9  1  0.004674  0.995326  0.504636  1
  Ir  Ir10  1  0.004674  0.995326  0.995364  1
  Ir  Ir11  1  0.820178  0.179822  0.250000  1
