# generated using pymatgen
data_La10Pr7(NdIr4)3
_symmetry_space_group_name_H-M   'P 1'
_cell_length_a   11.38549693
_cell_length_b   11.39573193
_cell_length_c   6.66483400
_cell_angle_alpha   90.00000000
_cell_angle_beta   90.00000000
_cell_angle_gamma   89.87359890
_symmetry_Int_Tables_number   1
_chemical_formula_structural   La10Pr7(NdIr4)3
_chemical_formula_sum   'La10 Pr7 Nd3 Ir12'
_cell_volume   864.73392037
_cell_formula_units_Z   1
loop_
 _symmetry_equiv_pos_site_id
 _symmetry_equiv_pos_as_xyz
  1  'x, y, z'
loop_
 _atom_site_type_symbol
 _atom_site_label
 _atom_site_symmetry_multiplicity
 _atom_site_fract_x
 _atom_site_fract_y
 _atom_site_fract_z
 _atom_site_occupancy
  La  La0  1  0.291874  0.090574  0.385732  1
  La  La1  1  0.708126  0.909426  0.385732  1
  La  La2  1  0.409674  0.208976  0.886057  1
  La  La3  1  0.708262  0.091485  0.885861  1
  La  La4  1  0.291738  0.908515  0.885861  1
  La  La5  1  0.590326  0.791024  0.886057  1
  La  La6  1  0.091299  0.708452  0.613919  1
  La  La7  1  0.908701  0.291548  0.613919  1
  La  La8  1  0.208559  0.409361  0.614326  1
  La  La9  1  0.791441  0.590639  0.614326  1
  Pr  Pr10  1  0.089898  0.292251  0.115439  1
  Pr  Pr11  1  0.791559  0.409923  0.115214  1
  Pr  Pr12  1  0.208441  0.590077  0.115214  1
  Pr  Pr13  1  0.910102  0.707749  0.115439  1
  Pr  Pr14  1  0.409364  0.790700  0.384222  1
  Pr  Pr15  1  0.590636  0.209300  0.384222  1
  Pr  Pr16  1  0.000000  0.000000  0.000416  1
  Nd  Nd17  1  0.500000  0.500000  0.001305  1
  Nd  Nd18  1  0.500000  0.500000  0.499087  1
  Nd  Nd19  1  0.000000  0.000000  0.499116  1
  Ir  Ir20  1  0.153480  0.846440  0.250278  1
  Ir  Ir21  1  0.346826  0.346584  0.250129  1
  Ir  Ir22  1  0.653174  0.653416  0.250129  1
  Ir  Ir23  1  0.846520  0.153560  0.250278  1
  Ir  Ir24  1  0.346793  0.653077  0.750026  1
  Ir  Ir25  1  0.154311  0.153302  0.748571  1
  Ir  Ir26  1  0.845689  0.846698  0.748571  1
  Ir  Ir27  1  0.653207  0.346923  0.750026  1
  Ir  Ir28  1  0.000000  0.500000  0.382217  1
  Ir  Ir29  1  0.500000  0.000000  0.119072  1
  Ir  Ir30  1  0.500000  0.000000  0.621161  1
  Ir  Ir31  1  0.000000  0.500000  0.878078  1
