# generated using pymatgen
data_MnNb4Fe(B2Ru5)2
_symmetry_space_group_name_H-M   'P 1'
_cell_length_a   9.30933200
_cell_length_b   9.30933200
_cell_length_c   2.99831500
_cell_angle_alpha   90.00000000
_cell_angle_beta   90.00000000
_cell_angle_gamma   90.00000000
_symmetry_Int_Tables_number   1
_chemical_formula_structural   MnNb4Fe(B2Ru5)2
_chemical_formula_sum   'Mn1 Nb4 Fe1 B4 Ru10'
_cell_volume   259.84495859
_cell_formula_units_Z   1
loop_
 _symmetry_equiv_pos_site_id
 _symmetry_equiv_pos_as_xyz
  1  'x, y, z'
loop_
 _atom_site_type_symbol
 _atom_site_label
 _atom_site_symmetry_multiplicity
 _atom_site_fract_x
 _atom_site_fract_y
 _atom_site_fract_z
 _atom_site_occupancy
  Mn  Mn0  1  0.500000  0.500000  0.000000  1
  Nb  Nb1  1  0.822731  0.677148  0.000000  1
  Nb  Nb2  1  0.177269  0.322852  0.000000  1
  Nb  Nb3  1  0.322852  0.822731  0.000000  1
  Nb  Nb4  1  0.677148  0.177269  0.000000  1
  Fe  Fe5  1  0.000000  0.000000  0.000000  1
  B  B6  1  0.625124  0.876804  0.000000  1
  B  B7  1  0.374876  0.123196  0.000000  1
  B  B8  1  0.123196  0.625124  0.000000  1
  B  B9  1  0.876804  0.374876  0.000000  1
  Ru  Ru10  1  0.570084  0.714091  0.500000  1
  Ru  Ru11  1  0.429916  0.285909  0.500000  1
  Ru  Ru12  1  0.070636  0.785759  0.500000  1
  Ru  Ru13  1  0.929364  0.214241  0.500000  1
  Ru  Ru14  1  0.285909  0.570084  0.500000  1
  Ru  Ru15  1  0.714091  0.429916  0.500000  1
  Ru  Ru16  1  0.214241  0.070636  0.500000  1
  Ru  Ru17  1  0.785759  0.929364  0.500000  1
  Ru  Ru18  1  0.500000  0.000000  0.500000  1
  Ru  Ru19  1  0.000000  0.500000  0.500000  1
