# generated using pymatgen
data_Ba3HoErCl2O5
_symmetry_space_group_name_H-M   'P 1'
_cell_length_a   4.43331247
_cell_length_b   4.43331123
_cell_length_c   12.96785992
_cell_angle_alpha   99.85288996
_cell_angle_beta   99.85292548
_cell_angle_gamma   89.99768174
_symmetry_Int_Tables_number   1
_chemical_formula_structural   Ba3HoErCl2O5
_chemical_formula_sum   'Ba3 Ho1 Er1 Cl2 O5'
_cell_volume   247.29816664
_cell_formula_units_Z   1
loop_
 _symmetry_equiv_pos_site_id
 _symmetry_equiv_pos_as_xyz
  1  'x, y, z'
loop_
 _atom_site_type_symbol
 _atom_site_label
 _atom_site_symmetry_multiplicity
 _atom_site_fract_x
 _atom_site_fract_y
 _atom_site_fract_z
 _atom_site_occupancy
  Ba  Ba0  1  0.661881  0.661880  0.323373  1
  Ba  Ba1  1  0.338040  0.338040  0.676456  1
  Ba  Ba2  1  0.500145  0.500147  0.000288  1
  Ho  Ho3  1  0.915412  0.915413  0.830860  1
  Er  Er4  1  0.084683  0.084683  0.169350  1
  Cl  Cl5  1  0.204969  0.204968  0.409211  1
  Cl  Cl6  1  0.794921  0.794921  0.590579  1
  O  O7  1  0.903721  0.403733  0.807646  1
  O  O8  1  0.403732  0.903721  0.807646  1
  O  O9  1  0.096077  0.596081  0.191970  1
  O  O10  1  0.000336  0.000336  0.000655  1
  O  O11  1  0.596081  0.096076  0.191970  1
