# generated using pymatgen
data_Li2Mg2TaNb7N12
_symmetry_space_group_name_H-M   'P 1'
_cell_length_a   5.26833800
_cell_length_b   5.26833753
_cell_length_c   10.42102200
_cell_angle_alpha   90.00000000
_cell_angle_beta   90.00000000
_cell_angle_gamma   120.00000296
_symmetry_Int_Tables_number   1
_chemical_formula_structural   Li2Mg2TaNb7N12
_chemical_formula_sum   'Li2 Mg2 Ta1 Nb7 N12'
_cell_volume   250.48870816
_cell_formula_units_Z   1
loop_
 _symmetry_equiv_pos_site_id
 _symmetry_equiv_pos_as_xyz
  1  'x, y, z'
loop_
 _atom_site_type_symbol
 _atom_site_label
 _atom_site_symmetry_multiplicity
 _atom_site_fract_x
 _atom_site_fract_y
 _atom_site_fract_z
 _atom_site_occupancy
  Li  Li0  1  0.333333  0.666667  0.000000  1
  Li  Li1  1  0.333333  0.666667  0.500000  1
  Mg  Mg2  1  0.666667  0.333333  0.500000  1
  Mg  Mg3  1  0.666667  0.333333  0.000000  1
  Ta  Ta4  1  0.000000  0.000000  0.000000  1
  Nb  Nb5  1  0.004150  0.345277  0.250175  1
  Nb  Nb6  1  0.654723  0.995850  0.749825  1
  Nb  Nb7  1  0.341127  0.345277  0.749825  1
  Nb  Nb8  1  0.000000  0.000000  0.500000  1
  Nb  Nb9  1  0.654723  0.658873  0.250175  1
  Nb  Nb10  1  0.341127  0.995850  0.250175  1
  Nb  Nb11  1  0.004150  0.658873  0.749825  1
  N  N12  1  0.673354  0.670812  0.622701  1
  N  N13  1  0.676604  0.673930  0.878528  1
  N  N14  1  0.326070  0.323396  0.121472  1
  N  N15  1  0.329188  0.326646  0.377299  1
  N  N16  1  0.326070  0.002674  0.878528  1
  N  N17  1  0.329188  0.002543  0.622701  1
  N  N18  1  0.997457  0.670812  0.377299  1
  N  N19  1  0.997326  0.673930  0.121472  1
  N  N20  1  0.676604  0.002674  0.121472  1
  N  N21  1  0.673354  0.002543  0.377299  1
  N  N22  1  0.997326  0.323396  0.878528  1
  N  N23  1  0.997457  0.326646  0.622701  1
