# generated using pymatgen
data_Y3P4Rh7
_symmetry_space_group_name_H-M   'P 1'
_cell_length_a   3.95651236
_cell_length_b   8.15331001
_cell_length_c   7.77078800
_cell_angle_alpha   102.11641464
_cell_angle_beta   104.74847623
_cell_angle_gamma   104.04195768
_symmetry_Int_Tables_number   1
_chemical_formula_structural   Y3P4Rh7
_chemical_formula_sum   'Y3 P4 Rh7'
_cell_volume   225.09648033
_cell_formula_units_Z   1
loop_
 _symmetry_equiv_pos_site_id
 _symmetry_equiv_pos_as_xyz
  1  'x, y, z'
loop_
 _atom_site_type_symbol
 _atom_site_label
 _atom_site_symmetry_multiplicity
 _atom_site_fract_x
 _atom_site_fract_y
 _atom_site_fract_z
 _atom_site_occupancy
  Y  Y0  1  0.000000  0.000000  0.000000  1
  Y  Y1  1  0.997883  0.669090  0.326677  1
  Y  Y2  1  0.002117  0.330910  0.673324  1
  P  P3  1  0.392402  0.725066  0.059739  1
  P  P4  1  0.283591  0.174821  0.392363  1
  P  P5  1  0.716409  0.825179  0.607638  1
  P  P6  1  0.607599  0.274935  0.940262  1
  Rh  Rh7  1  0.252090  0.420535  0.083646  1
  Rh  Rh8  1  0.762803  0.269786  0.255820  1
  Rh  Rh9  1  0.651400  0.953648  0.349151  1
  Rh  Rh10  1  0.500000  0.499999  0.500000  1
  Rh  Rh11  1  0.348601  0.046352  0.650849  1
  Rh  Rh12  1  0.237196  0.730213  0.744179  1
  Rh  Rh13  1  0.747909  0.579464  0.916353  1
