# generated using pymatgen
data_TaTi3(CoP)4
_symmetry_space_group_name_H-M   'P 1'
_cell_length_a   3.56793200
_cell_length_b   6.06262944
_cell_length_c   6.90168051
_cell_angle_alpha   90.04387064
_cell_angle_beta   90.00000000
_cell_angle_gamma   90.00000000
_symmetry_Int_Tables_number   1
_chemical_formula_structural   TaTi3(CoP)4
_chemical_formula_sum   'Ta1 Ti3 Co4 P4'
_cell_volume   149.29054957
_cell_formula_units_Z   1
loop_
 _symmetry_equiv_pos_site_id
 _symmetry_equiv_pos_as_xyz
  1  'x, y, z'
loop_
 _atom_site_type_symbol
 _atom_site_label
 _atom_site_symmetry_multiplicity
 _atom_site_fract_x
 _atom_site_fract_y
 _atom_site_fract_z
 _atom_site_occupancy
  Ta  Ta0  1  0.250000  0.973988  0.324340  1
  Ti  Ti1  1  0.250000  0.473391  0.176656  1
  Ti  Ti2  1  0.750000  0.025280  0.678171  1
  Ti  Ti3  1  0.750000  0.523739  0.822163  1
  Co  Co4  1  0.250000  0.861433  0.937499  1
  Co  Co5  1  0.250000  0.359426  0.562402  1
  Co  Co6  1  0.750000  0.140455  0.061057  1
  Co  Co7  1  0.750000  0.640163  0.438073  1
  P  P8  1  0.250000  0.233555  0.877399  1
  P  P9  1  0.250000  0.730545  0.625414  1
  P  P10  1  0.750000  0.764869  0.118168  1
  P  P11  1  0.750000  0.273156  0.378659  1
