# generated using pymatgen
data_Ac4Ag5Pb3
_symmetry_space_group_name_H-M   'P 1'
_cell_length_a   5.04343800
_cell_length_b   8.24551315
_cell_length_c   8.54626095
_cell_angle_alpha   90.29612796
_cell_angle_beta   90.00000000
_cell_angle_gamma   90.00000000
_symmetry_Int_Tables_number   1
_chemical_formula_structural   Ac4Ag5Pb3
_chemical_formula_sum   'Ac4 Ag5 Pb3'
_cell_volume   355.39779049
_cell_formula_units_Z   1
loop_
 _symmetry_equiv_pos_site_id
 _symmetry_equiv_pos_as_xyz
  1  'x, y, z'
loop_
 _atom_site_type_symbol
 _atom_site_label
 _atom_site_symmetry_multiplicity
 _atom_site_fract_x
 _atom_site_fract_y
 _atom_site_fract_z
 _atom_site_occupancy
  Ac  Ac0  1  0.500000  0.506709  0.781515  1
  Ac  Ac1  1  0.500000  0.999148  0.718880  1
  Ac  Ac2  1  0.000000  0.506483  0.227242  1
  Ac  Ac3  1  0.000000  0.988944  0.275740  1
  Ag  Ag4  1  0.500000  0.782235  0.089457  1
  Ag  Ag5  1  0.500000  0.283616  0.419210  1
  Ag  Ag6  1  0.000000  0.207954  0.915966  1
  Ag  Ag7  1  0.000000  0.710674  0.571076  1
  Ag  Ag8  1  0.500000  0.721804  0.418080  1
  Pb  Pb9  1  0.500000  0.213387  0.087403  1
  Pb  Pb10  1  0.000000  0.293823  0.584449  1
  Pb  Pb11  1  0.000000  0.785223  0.910985  1
