# generated using pymatgen
data_TmCd3(Ir2O7)2
_symmetry_space_group_name_H-M   'P 1'
_cell_length_a   7.21046140
_cell_length_b   7.27890957
_cell_length_c   7.21046100
_cell_angle_alpha   60.31057330
_cell_angle_beta   59.99998809
_cell_angle_gamma   60.31058245
_symmetry_Int_Tables_number   1
_chemical_formula_structural   TmCd3(Ir2O7)2
_chemical_formula_sum   'Tm1 Cd3 Ir4 O14'
_cell_volume   268.84393797
_cell_formula_units_Z   1
loop_
 _symmetry_equiv_pos_site_id
 _symmetry_equiv_pos_as_xyz
  1  'x, y, z'
loop_
 _atom_site_type_symbol
 _atom_site_label
 _atom_site_symmetry_multiplicity
 _atom_site_fract_x
 _atom_site_fract_y
 _atom_site_fract_z
 _atom_site_occupancy
  Tm  Tm0  1  0.125000  0.625000  0.125000  1
  Cd  Cd1  1  0.625000  0.125000  0.125000  1
  Cd  Cd2  1  0.125000  0.125000  0.625000  1
  Cd  Cd3  1  0.125000  0.125000  0.125000  1
  Ir  Ir4  1  0.125000  0.625000  0.625000  1
  Ir  Ir5  1  0.625000  0.125000  0.625000  1
  Ir  Ir6  1  0.625000  0.625000  0.125000  1
  Ir  Ir7  1  0.625000  0.625000  0.625000  1
  O  O8  1  0.717850  0.692281  0.294935  1
  O  O9  1  0.298744  0.303427  0.698914  1
  O  O10  1  0.698914  0.303427  0.698914  1
  O  O11  1  0.294935  0.692281  0.294935  1
  O  O12  1  0.294935  0.692281  0.717850  1
  O  O13  1  0.698914  0.303427  0.298744  1
  O  O14  1  0.532150  0.557719  0.955065  1
  O  O15  1  0.951256  0.946573  0.551086  1
  O  O16  1  0.551086  0.946573  0.551086  1
  O  O17  1  0.955065  0.557719  0.955065  1
  O  O18  1  0.955065  0.557719  0.532150  1
  O  O19  1  0.551086  0.946573  0.951256  1
  O  O20  1  0.249136  0.252592  0.249136  1
  O  O21  1  0.000864  0.997408  0.000864  1
