# generated using pymatgen
data_DyMnFe(PIr)3
_symmetry_space_group_name_H-M   'P 1'
_cell_length_a   3.87127300
_cell_length_b   10.66137500
_cell_length_c   12.38950700
_cell_angle_alpha   90.00000000
_cell_angle_beta   90.00000000
_cell_angle_gamma   90.00000000
_symmetry_Int_Tables_number   1
_chemical_formula_structural   DyMnFe(PIr)3
_chemical_formula_sum   'Dy4 Mn4 Fe4 P12 Ir12'
_cell_volume   511.35327687
_cell_formula_units_Z   4
loop_
 _symmetry_equiv_pos_site_id
 _symmetry_equiv_pos_as_xyz
  1  'x, y, z'
loop_
 _atom_site_type_symbol
 _atom_site_label
 _atom_site_symmetry_multiplicity
 _atom_site_fract_x
 _atom_site_fract_y
 _atom_site_fract_z
 _atom_site_occupancy
  Dy  Dy0  1  0.250000  0.580691  0.710424  1
  Dy  Dy1  1  0.250000  0.919309  0.210424  1
  Dy  Dy2  1  0.750000  0.419309  0.289576  1
  Dy  Dy3  1  0.750000  0.080691  0.789576  1
  Mn  Mn4  1  0.250000  0.712461  0.985616  1
  Mn  Mn5  1  0.250000  0.787539  0.485616  1
  Mn  Mn6  1  0.750000  0.287539  0.014384  1
  Mn  Mn7  1  0.750000  0.212461  0.514384  1
  Fe  Fe8  1  0.250000  0.462079  0.934193  1
  Fe  Fe9  1  0.250000  0.037921  0.434193  1
  Fe  Fe10  1  0.750000  0.537921  0.065807  1
  Fe  Fe11  1  0.750000  0.962079  0.565807  1
  P  P12  1  0.250000  0.429166  0.104196  1
  P  P13  1  0.250000  0.070834  0.604196  1
  P  P14  1  0.750000  0.570834  0.895804  1
  P  P15  1  0.750000  0.929166  0.395804  1
  P  P16  1  0.250000  0.270212  0.870789  1
  P  P17  1  0.250000  0.229788  0.370789  1
  P  P18  1  0.750000  0.729788  0.129211  1
  P  P19  1  0.750000  0.770212  0.629211  1
  P  P20  1  0.250000  0.602734  0.389845  1
  P  P21  1  0.250000  0.897266  0.889845  1
  P  P22  1  0.750000  0.397266  0.610155  1
  P  P23  1  0.750000  0.102734  0.110155  1
  Ir  Ir24  1  0.250000  0.405638  0.480013  1
  Ir  Ir25  1  0.250000  0.094362  0.980013  1
  Ir  Ir26  1  0.750000  0.594362  0.519987  1
  Ir  Ir27  1  0.750000  0.905638  0.019987  1
  Ir  Ir28  1  0.250000  0.233121  0.175694  1
  Ir  Ir29  1  0.250000  0.266879  0.675694  1
  Ir  Ir30  1  0.750000  0.766879  0.824306  1
  Ir  Ir31  1  0.750000  0.733121  0.324306  1
  Ir  Ir32  1  0.250000  0.881580  0.698424  1
  Ir  Ir33  1  0.250000  0.618420  0.198424  1
  Ir  Ir34  1  0.750000  0.118420  0.301576  1
  Ir  Ir35  1  0.750000  0.381580  0.801576  1
