# generated using pymatgen
data_Nd2DyRuBr3
_symmetry_space_group_name_H-M   'P 1'
_cell_length_a   4.22437200
_cell_length_b   8.66451964
_cell_length_c   12.10084542
_cell_angle_alpha   86.75816056
_cell_angle_beta   90.00000000
_cell_angle_gamma   90.00000000
_symmetry_Int_Tables_number   1
_chemical_formula_structural   Nd2DyRuBr3
_chemical_formula_sum   'Nd4 Dy2 Ru2 Br6'
_cell_volume   442.20822489
_cell_formula_units_Z   2
loop_
 _symmetry_equiv_pos_site_id
 _symmetry_equiv_pos_as_xyz
  1  'x, y, z'
loop_
 _atom_site_type_symbol
 _atom_site_label
 _atom_site_symmetry_multiplicity
 _atom_site_fract_x
 _atom_site_fract_y
 _atom_site_fract_z
 _atom_site_occupancy
  Nd  Nd0  1  0.750000  0.100103  0.671382  1
  Nd  Nd1  1  0.250000  0.899897  0.328618  1
  Nd  Nd2  1  0.250000  0.281016  0.897803  1
  Nd  Nd3  1  0.750000  0.718984  0.102197  1
  Dy  Dy4  1  0.750000  0.132273  0.128066  1
  Dy  Dy5  1  0.250000  0.867727  0.871934  1
  Ru  Ru6  1  0.750000  0.056096  0.903994  1
  Ru  Ru7  1  0.250000  0.943904  0.096006  1
  Br  Br8  1  0.250000  0.343267  0.642469  1
  Br  Br9  1  0.750000  0.656733  0.357531  1
  Br  Br10  1  0.750000  0.137909  0.390223  1
  Br  Br11  1  0.250000  0.862091  0.609777  1
  Br  Br12  1  0.250000  0.423649  0.131559  1
  Br  Br13  1  0.750000  0.576351  0.868441  1
