# generated using pymatgen
data_YHo5U4O20
_symmetry_space_group_name_H-M   'P 1'
_cell_length_a   6.63918080
_cell_length_b   7.47994032
_cell_length_c   8.39421471
_cell_angle_alpha   100.77969017
_cell_angle_beta   97.68620354
_cell_angle_gamma   107.28198852
_symmetry_Int_Tables_number   1
_chemical_formula_structural   YHo5U4O20
_chemical_formula_sum   'Y1 Ho5 U4 O20'
_cell_volume   382.97245336
_cell_formula_units_Z   1
loop_
 _symmetry_equiv_pos_site_id
 _symmetry_equiv_pos_as_xyz
  1  'x, y, z'
loop_
 _atom_site_type_symbol
 _atom_site_label
 _atom_site_symmetry_multiplicity
 _atom_site_fract_x
 _atom_site_fract_y
 _atom_site_fract_z
 _atom_site_occupancy
  Y  Y0  1  0.000000  0.500000  0.500000  1
  Ho  Ho1  1  0.615084  0.703912  0.699318  1
  Ho  Ho2  1  0.384916  0.296088  0.300682  1
  Ho  Ho3  1  0.197193  0.896565  0.891484  1
  Ho  Ho4  1  0.802807  0.103435  0.108516  1
  Ho  Ho5  1  0.000000  0.000000  0.500000  1
  U  U6  1  0.401752  0.804581  0.301862  1
  U  U7  1  0.199068  0.399566  0.899151  1
  U  U8  1  0.800932  0.600434  0.100849  1
  U  U9  1  0.598248  0.195419  0.698138  1
  O  O10  1  0.440209  0.531895  0.138153  1
  O  O11  1  0.554998  0.986055  0.841801  1
  O  O12  1  0.267025  0.142196  0.744599  1
  O  O13  1  0.361556  0.594038  0.442984  1
  O  O14  1  0.053556  0.729772  0.333914  1
  O  O15  1  0.445002  0.013945  0.158199  1
  O  O16  1  0.150510  0.182486  0.032714  1
  O  O17  1  0.559791  0.468105  0.861847  1
  O  O18  1  0.854329  0.335515  0.950474  1
  O  O19  1  0.258473  0.608235  0.759732  1
  O  O20  1  0.953080  0.772993  0.653146  1
  O  O21  1  0.352893  0.062932  0.452974  1
  O  O22  1  0.647107  0.937068  0.547026  1
  O  O23  1  0.046920  0.227007  0.346854  1
  O  O24  1  0.741527  0.391765  0.240268  1
  O  O25  1  0.145671  0.664485  0.049526  1
  O  O26  1  0.849490  0.817514  0.967286  1
  O  O27  1  0.946444  0.270228  0.666086  1
  O  O28  1  0.638444  0.405962  0.557016  1
  O  O29  1  0.732975  0.857804  0.255401  1
