# generated using pymatgen
data_TbPr2(YPb2)2
_symmetry_space_group_name_H-M   'P 1'
_cell_length_a   8.35426600
_cell_length_b   8.53658100
_cell_length_c   16.10587200
_cell_angle_alpha   90.00000000
_cell_angle_beta   90.00000000
_cell_angle_gamma   90.00000000
_symmetry_Int_Tables_number   1
_chemical_formula_structural   TbPr2(YPb2)2
_chemical_formula_sum   'Tb4 Pr8 Y8 Pb16'
_cell_volume   1148.62035396
_cell_formula_units_Z   4
loop_
 _symmetry_equiv_pos_site_id
 _symmetry_equiv_pos_as_xyz
  1  'x, y, z'
loop_
 _atom_site_type_symbol
 _atom_site_label
 _atom_site_symmetry_multiplicity
 _atom_site_fract_x
 _atom_site_fract_y
 _atom_site_fract_z
 _atom_site_occupancy
  Tb  Tb0  1  0.347991  0.836422  0.876387  1
  Tb  Tb1  1  0.847991  0.663578  0.623613  1
  Tb  Tb2  1  0.652009  0.163578  0.376387  1
  Tb  Tb3  1  0.152009  0.336422  0.123613  1
  Pr  Pr4  1  0.509109  0.322308  0.903196  1
  Pr  Pr5  1  0.009109  0.177692  0.596804  1
  Pr  Pr6  1  0.490891  0.677692  0.403196  1
  Pr  Pr7  1  0.990891  0.822308  0.096804  1
  Pr  Pr8  1  0.491223  0.678248  0.096843  1
  Pr  Pr9  1  0.991223  0.821752  0.403157  1
  Pr  Pr10  1  0.508777  0.321752  0.596843  1
  Pr  Pr11  1  0.008777  0.178248  0.903157  1
  Y  Y12  1  0.652385  0.163102  0.123794  1
  Y  Y13  1  0.152385  0.336898  0.376206  1
  Y  Y14  1  0.347615  0.836898  0.623794  1
  Y  Y15  1  0.847615  0.663102  0.876206  1
  Y  Y16  1  0.181410  0.502014  0.749833  1
  Y  Y17  1  0.681410  0.997986  0.750167  1
  Y  Y18  1  0.818590  0.497986  0.249833  1
  Y  Y19  1  0.318590  0.002014  0.250167  1
  Pb  Pb20  1  0.308810  0.040385  0.042497  1
  Pb  Pb21  1  0.808810  0.459615  0.457503  1
  Pb  Pb22  1  0.691190  0.959615  0.542497  1
  Pb  Pb23  1  0.191190  0.540385  0.957503  1
  Pb  Pb24  1  0.692066  0.959702  0.957717  1
  Pb  Pb25  1  0.192066  0.540298  0.542283  1
  Pb  Pb26  1  0.307934  0.040298  0.457717  1
  Pb  Pb27  1  0.807934  0.459702  0.042283  1
  Pb  Pb28  1  0.542488  0.626958  0.750016  1
  Pb  Pb29  1  0.042488  0.873042  0.749984  1
  Pb  Pb30  1  0.457512  0.373042  0.250016  1
  Pb  Pb31  1  0.957512  0.126958  0.249984  1
  Pb  Pb32  1  0.318326  0.149207  0.750088  1
  Pb  Pb33  1  0.818326  0.350793  0.749912  1
  Pb  Pb34  1  0.681674  0.850793  0.250088  1
  Pb  Pb35  1  0.181674  0.649207  0.249912  1
