# generated using pymatgen
data_ZrUBr9
_symmetry_space_group_name_H-M   'P 1'
_cell_length_a   12.92604800
_cell_length_b   7.55436261
_cell_length_c   10.43754308
_cell_angle_alpha   75.81707663
_cell_angle_beta   90.00000000
_cell_angle_gamma   90.00000000
_symmetry_Int_Tables_number   1
_chemical_formula_structural   ZrUBr9
_chemical_formula_sum   'Zr2 U2 Br18'
_cell_volume   988.13876447
_cell_formula_units_Z   2
loop_
 _symmetry_equiv_pos_site_id
 _symmetry_equiv_pos_as_xyz
  1  'x, y, z'
loop_
 _atom_site_type_symbol
 _atom_site_label
 _atom_site_symmetry_multiplicity
 _atom_site_fract_x
 _atom_site_fract_y
 _atom_site_fract_z
 _atom_site_occupancy
  Zr  Zr0  1  0.250000  0.758398  0.466266  1
  Zr  Zr1  1  0.750000  0.241602  0.533734  1
  U  U2  1  0.250000  0.647067  0.847642  1
  U  U3  1  0.750000  0.352933  0.152358  1
  Br  Br4  1  0.610058  0.439350  0.330428  1
  Br  Br5  1  0.110058  0.560650  0.669572  1
  Br  Br6  1  0.389942  0.560650  0.669572  1
  Br  Br7  1  0.889942  0.439350  0.330428  1
  Br  Br8  1  0.750000  0.689885  0.003962  1
  Br  Br9  1  0.250000  0.310115  0.996038  1
  Br  Br10  1  0.750000  0.512058  0.632594  1
  Br  Br11  1  0.250000  0.487942  0.367406  1
  Br  Br12  1  0.750000  0.021331  0.342072  1
  Br  Br13  1  0.250000  0.978669  0.657928  1
  Br  Br14  1  0.898460  0.245985  0.015272  1
  Br  Br15  1  0.398460  0.754015  0.984728  1
  Br  Br16  1  0.101540  0.754015  0.984728  1
  Br  Br17  1  0.601540  0.245985  0.015272  1
  Br  Br18  1  0.900646  0.061417  0.647297  1
  Br  Br19  1  0.400646  0.938583  0.352703  1
  Br  Br20  1  0.099354  0.938583  0.352703  1
  Br  Br21  1  0.599354  0.061417  0.647297  1
