# generated using pymatgen
data_SmNb8FeSe16
_symmetry_space_group_name_H-M   'P 1'
_cell_length_a   7.00943600
_cell_length_b   7.00943631
_cell_length_c   13.80512400
_cell_angle_alpha   90.00000000
_cell_angle_beta   90.00000000
_cell_angle_gamma   119.99999854
_symmetry_Int_Tables_number   1
_chemical_formula_structural   SmNb8FeSe16
_chemical_formula_sum   'Sm1 Nb8 Fe1 Se16'
_cell_volume   587.40429637
_cell_formula_units_Z   1
loop_
 _symmetry_equiv_pos_site_id
 _symmetry_equiv_pos_as_xyz
  1  'x, y, z'
loop_
 _atom_site_type_symbol
 _atom_site_label
 _atom_site_symmetry_multiplicity
 _atom_site_fract_x
 _atom_site_fract_y
 _atom_site_fract_z
 _atom_site_occupancy
  Sm  Sm0  1  0.000000  0.000000  0.500000  1
  Nb  Nb1  1  0.000000  0.000000  0.232389  1
  Nb  Nb2  1  0.000000  0.000000  0.767611  1
  Nb  Nb3  1  0.507513  0.015027  0.230795  1
  Nb  Nb4  1  0.984973  0.492487  0.230795  1
  Nb  Nb5  1  0.507513  0.492487  0.230795  1
  Nb  Nb6  1  0.492487  0.984973  0.769205  1
  Nb  Nb7  1  0.015027  0.507513  0.769205  1
  Nb  Nb8  1  0.492487  0.507513  0.769205  1
  Fe  Fe9  1  0.000000  0.000000  0.000000  1
  Se  Se10  1  0.333333  0.666667  0.893727  1
  Se  Se11  1  0.666667  0.333333  0.106273  1
  Se  Se12  1  0.666667  0.333333  0.357769  1
  Se  Se13  1  0.333333  0.666667  0.642231  1
  Se  Se14  1  0.169855  0.830145  0.352146  1
  Se  Se15  1  0.169855  0.339710  0.352146  1
  Se  Se16  1  0.660290  0.830145  0.352146  1
  Se  Se17  1  0.830145  0.169855  0.647854  1
  Se  Se18  1  0.830145  0.660290  0.647854  1
  Se  Se19  1  0.339710  0.169855  0.647854  1
  Se  Se20  1  0.832086  0.167914  0.888585  1
  Se  Se21  1  0.832086  0.664174  0.888585  1
  Se  Se22  1  0.335826  0.167914  0.888585  1
  Se  Se23  1  0.167914  0.832086  0.111415  1
  Se  Se24  1  0.167914  0.335826  0.111415  1
  Se  Se25  1  0.664174  0.832086  0.111415  1
