# generated using pymatgen
data_Zr16FeCo3Os4
_symmetry_space_group_name_H-M   'P 1'
_cell_length_a   8.67886130
_cell_length_b   8.67886235
_cell_length_c   8.67886214
_cell_angle_alpha   60.01655108
_cell_angle_beta   60.01654710
_cell_angle_gamma   60.01654993
_symmetry_Int_Tables_number   1
_chemical_formula_structural   Zr16FeCo3Os4
_chemical_formula_sum   'Zr16 Fe1 Co3 Os4'
_cell_volume   462.41961309
_cell_formula_units_Z   1
loop_
 _symmetry_equiv_pos_site_id
 _symmetry_equiv_pos_as_xyz
  1  'x, y, z'
loop_
 _atom_site_type_symbol
 _atom_site_label
 _atom_site_symmetry_multiplicity
 _atom_site_fract_x
 _atom_site_fract_y
 _atom_site_fract_z
 _atom_site_occupancy
  Zr  Zr0  1  0.051889  0.649615  0.649615  1
  Zr  Zr1  1  0.649615  0.051889  0.649615  1
  Zr  Zr2  1  0.649615  0.649615  0.051889  1
  Zr  Zr3  1  0.648722  0.648722  0.648722  1
  Zr  Zr4  1  0.798268  0.798268  0.200646  1
  Zr  Zr5  1  0.203580  0.203580  0.796660  1
  Zr  Zr6  1  0.798268  0.200646  0.798268  1
  Zr  Zr7  1  0.203580  0.796660  0.203580  1
  Zr  Zr8  1  0.200646  0.798268  0.798268  1
  Zr  Zr9  1  0.796660  0.203580  0.203580  1
  Zr  Zr10  1  0.435678  0.435678  0.064483  1
  Zr  Zr11  1  0.064199  0.064199  0.436169  1
  Zr  Zr12  1  0.435678  0.064483  0.435678  1
  Zr  Zr13  1  0.064199  0.436169  0.064199  1
  Zr  Zr14  1  0.064483  0.435678  0.435678  1
  Zr  Zr15  1  0.436169  0.064199  0.064199  1
  Fe  Fe16  1  0.860020  0.860020  0.860020  1
  Co  Co17  1  0.418532  0.860202  0.860202  1
  Co  Co18  1  0.860202  0.418532  0.860202  1
  Co  Co19  1  0.860202  0.860202  0.418532  1
  Os  Os20  1  0.744916  0.418326  0.418326  1
  Os  Os21  1  0.418326  0.744916  0.418326  1
  Os  Os22  1  0.418326  0.418326  0.744916  1
  Os  Os23  1  0.418228  0.418228  0.418228  1
