# generated using pymatgen
data_Ta7Ti5Al8(RhC)4
_symmetry_space_group_name_H-M   'P 1'
_cell_length_a   8.26156378
_cell_length_b   8.27683734
_cell_length_c   8.26250763
_cell_angle_alpha   59.97500506
_cell_angle_beta   60.08138900
_cell_angle_gamma   59.97947797
_symmetry_Int_Tables_number   1
_chemical_formula_structural   Ta7Ti5Al8(RhC)4
_chemical_formula_sum   'Ta7 Ti5 Al8 Rh4 C4'
_cell_volume   399.61364675
_cell_formula_units_Z   1
loop_
 _symmetry_equiv_pos_site_id
 _symmetry_equiv_pos_as_xyz
  1  'x, y, z'
loop_
 _atom_site_type_symbol
 _atom_site_label
 _atom_site_symmetry_multiplicity
 _atom_site_fract_x
 _atom_site_fract_y
 _atom_site_fract_z
 _atom_site_occupancy
  Ta  Ta0  1  0.936513  0.935230  0.562963  1
  Ta  Ta1  1  0.688220  0.314546  0.311302  1
  Ta  Ta2  1  0.312024  0.687116  0.687213  1
  Ta  Ta3  1  0.685484  0.684693  0.313734  1
  Ta  Ta4  1  0.688082  0.313045  0.686910  1
  Ta  Ta5  1  0.314561  0.686570  0.313540  1
  Ta  Ta6  1  0.564337  0.937094  0.562610  1
  Ti  Ti7  1  0.563404  0.936586  0.936162  1
  Ti  Ti8  1  0.937546  0.565557  0.561594  1
  Ti  Ti9  1  0.937717  0.563688  0.936495  1
  Ti  Ti10  1  0.311872  0.314520  0.687247  1
  Ti  Ti11  1  0.561035  0.563358  0.938604  1
  Al  Al12  1  0.916456  0.255546  0.913534  1
  Al  Al13  1  0.332544  0.332490  0.997886  1
  Al  Al14  1  0.000280  0.334756  0.332636  1
  Al  Al15  1  0.332680  0.333976  0.336461  1
  Al  Al16  1  0.253166  0.916281  0.917372  1
  Al  Al17  1  0.913629  0.914298  0.917856  1
  Al  Al18  1  0.917490  0.913162  0.250994  1
  Al  Al19  1  0.334435  0.999272  0.332467  1
  Rh  Rh20  1  0.126480  0.624720  0.123590  1
  Rh  Rh21  1  0.124888  0.123209  0.625453  1
  Rh  Rh22  1  0.624907  0.126088  0.125085  1
  Rh  Rh23  1  0.122726  0.124470  0.127405  1
  C  C24  1  0.620224  0.127927  0.627775  1
  C  C25  1  0.627737  0.627471  0.117161  1
  C  C26  1  0.123923  0.620463  0.627765  1
  C  C27  1  0.627642  0.623867  0.628187  1
