# generated using pymatgen
data_LiZr5(AsRu)6
_symmetry_space_group_name_H-M   'P 1'
_cell_length_a   7.69493296
_cell_length_b   7.70656633
_cell_length_c   7.69493422
_cell_angle_alpha   128.25866602
_cell_angle_beta   120.18364192
_cell_angle_gamma   82.94994492
_symmetry_Int_Tables_number   1
_chemical_formula_structural   LiZr5(AsRu)6
_chemical_formula_sum   'Li1 Zr5 As6 Ru6'
_cell_volume   297.53823166
_cell_formula_units_Z   1
loop_
 _symmetry_equiv_pos_site_id
 _symmetry_equiv_pos_as_xyz
  1  'x, y, z'
loop_
 _atom_site_type_symbol
 _atom_site_label
 _atom_site_symmetry_multiplicity
 _atom_site_fract_x
 _atom_site_fract_y
 _atom_site_fract_z
 _atom_site_occupancy
  Li  Li0  1  0.477208  0.714216  0.737008  1
  Zr  Zr1  1  0.527473  0.256210  0.228738  1
  Zr  Zr2  1  0.749697  0.834565  0.584868  1
  Zr  Zr3  1  0.250391  0.833218  0.082825  1
  Zr  Zr4  1  0.051254  0.257336  0.706082  1
  Zr  Zr5  1  0.946888  0.648585  0.201698  1
  As  As6  1  0.282510  0.298909  0.516401  1
  As  As7  1  0.719094  0.208216  0.989122  1
  As  As8  1  0.331771  0.588634  0.259426  1
  As  As9  1  0.667996  0.913821  0.245900  1
  As  As10  1  0.167920  0.913821  0.745824  1
  As  As11  1  0.829208  0.588634  0.756863  1
  Ru  Ru12  1  0.508907  0.492920  0.006157  1
  Ru  Ru13  1  0.986762  0.492920  0.484012  1
  Ru  Ru14  1  0.093716  0.248778  0.099937  1
  Ru  Ru15  1  0.916849  0.010022  0.166504  1
  Ru  Ru16  1  0.343517  0.010022  0.593172  1
  Ru  Ru17  1  0.648839  0.248778  0.655061  1
