# generated using pymatgen
data_Ac2Y3Si4
_symmetry_space_group_name_H-M   'P 1'
_cell_length_a   7.98347400
_cell_length_b   7.98347400
_cell_length_c   14.75229500
_cell_angle_alpha   90.00000000
_cell_angle_beta   90.00000000
_cell_angle_gamma   90.00000000
_symmetry_Int_Tables_number   1
_chemical_formula_structural   Ac2Y3Si4
_chemical_formula_sum   'Ac8 Y12 Si16'
_cell_volume   940.25016615
_cell_formula_units_Z   4
loop_
 _symmetry_equiv_pos_site_id
 _symmetry_equiv_pos_as_xyz
  1  'x, y, z'
loop_
 _atom_site_type_symbol
 _atom_site_label
 _atom_site_symmetry_multiplicity
 _atom_site_fract_x
 _atom_site_fract_y
 _atom_site_fract_z
 _atom_site_occupancy
  Ac  Ac0  1  0.143900  0.509917  0.290759  1
  Ac  Ac1  1  0.856100  0.490083  0.790759  1
  Ac  Ac2  1  0.009917  0.356100  0.040759  1
  Ac  Ac3  1  0.990083  0.643900  0.540759  1
  Ac  Ac4  1  0.490083  0.856100  0.209241  1
  Ac  Ac5  1  0.509917  0.143900  0.709241  1
  Ac  Ac6  1  0.356100  0.009917  0.959241  1
  Ac  Ac7  1  0.643900  0.990083  0.459241  1
  Y  Y8  1  0.181927  0.818073  0.750000  1
  Y  Y9  1  0.818073  0.181927  0.250000  1
  Y  Y10  1  0.318073  0.318073  0.500000  1
  Y  Y11  1  0.681927  0.681927  0.000000  1
  Y  Y12  1  0.139369  0.994097  0.375646  1
  Y  Y13  1  0.860631  0.005903  0.875646  1
  Y  Y14  1  0.494097  0.360631  0.125646  1
  Y  Y15  1  0.505903  0.639369  0.625646  1
  Y  Y16  1  0.005903  0.860631  0.124354  1
  Y  Y17  1  0.994097  0.139369  0.624354  1
  Y  Y18  1  0.360631  0.494097  0.874354  1
  Y  Y19  1  0.639369  0.505903  0.374354  1
  Si  Si20  1  0.349858  0.704426  0.442676  1
  Si  Si21  1  0.650142  0.295574  0.942676  1
  Si  Si22  1  0.204426  0.150142  0.192676  1
  Si  Si23  1  0.795574  0.849858  0.692676  1
  Si  Si24  1  0.295574  0.650142  0.057324  1
  Si  Si25  1  0.704426  0.349858  0.557324  1
  Si  Si26  1  0.150142  0.204426  0.807324  1
  Si  Si27  1  0.849858  0.795574  0.307324  1
  Si  Si28  1  0.286199  0.934196  0.562524  1
  Si  Si29  1  0.713801  0.065804  0.062524  1
  Si  Si30  1  0.434196  0.213801  0.312524  1
  Si  Si31  1  0.565804  0.786199  0.812524  1
  Si  Si32  1  0.065804  0.713801  0.937476  1
  Si  Si33  1  0.934196  0.286199  0.437476  1
  Si  Si34  1  0.213801  0.434196  0.687476  1
  Si  Si35  1  0.786199  0.565804  0.187476  1
