# generated using pymatgen
data_Mn3CrFe8(Mo3N)4
_symmetry_space_group_name_H-M   'P 1'
_cell_length_a   7.81017697
_cell_length_b   7.82484423
_cell_length_c   7.82484400
_cell_angle_alpha   60.00000099
_cell_angle_beta   59.93785885
_cell_angle_gamma   59.93786783
_symmetry_Int_Tables_number   1
_chemical_formula_structural   Mn3CrFe8(Mo3N)4
_chemical_formula_sum   'Mn3 Cr1 Fe8 Mo12 N4'
_cell_volume   337.82263312
_cell_formula_units_Z   1
loop_
 _symmetry_equiv_pos_site_id
 _symmetry_equiv_pos_as_xyz
  1  'x, y, z'
loop_
 _atom_site_type_symbol
 _atom_site_label
 _atom_site_symmetry_multiplicity
 _atom_site_fract_x
 _atom_site_fract_y
 _atom_site_fract_z
 _atom_site_occupancy
  Mn  Mn0  1  0.625000  0.125000  0.625000  1
  Mn  Mn1  1  0.625000  0.625000  0.125000  1
  Mn  Mn2  1  0.625000  0.625000  0.625000  1
  Cr  Cr3  1  0.125000  0.625000  0.625000  1
  Fe  Fe4  1  0.729712  0.423430  0.423430  1
  Fe  Fe5  1  0.422039  0.732191  0.422885  1
  Fe  Fe6  1  0.422039  0.422885  0.732191  1
  Fe  Fe7  1  0.422039  0.422885  0.422885  1
  Fe  Fe8  1  0.520288  0.826570  0.826570  1
  Fe  Fe9  1  0.827961  0.517809  0.827115  1
  Fe  Fe10  1  0.827961  0.827115  0.517809  1
  Fe  Fe11  1  0.827961  0.827115  0.827115  1
  Mo  Mo12  1  0.796913  0.797458  0.202815  1
  Mo  Mo13  1  0.202146  0.198989  0.799433  1
  Mo  Mo14  1  0.796913  0.202815  0.797458  1
  Mo  Mo15  1  0.202146  0.799433  0.198989  1
  Mo  Mo16  1  0.202146  0.799433  0.799433  1
  Mo  Mo17  1  0.796913  0.202815  0.202815  1
  Mo  Mo18  1  0.453087  0.452542  0.047185  1
  Mo  Mo19  1  0.047854  0.051011  0.450567  1
  Mo  Mo20  1  0.453087  0.047185  0.452542  1
  Mo  Mo21  1  0.047854  0.450567  0.051011  1
  Mo  Mo22  1  0.047854  0.450567  0.450567  1
  Mo  Mo23  1  0.453087  0.047185  0.047185  1
  N  N24  1  0.625000  0.125000  0.125000  1
  N  N25  1  0.125000  0.625000  0.125000  1
  N  N26  1  0.125000  0.125000  0.625000  1
  N  N27  1  0.125000  0.125000  0.125000  1
