# generated using pymatgen
data_Na4MnFeF12
_symmetry_space_group_name_H-M   'P 1'
_cell_length_a   5.02806700
_cell_length_b   5.02806700
_cell_length_c   10.02325600
_cell_angle_alpha   90.00000000
_cell_angle_beta   90.00000000
_cell_angle_gamma   90.00000000
_symmetry_Int_Tables_number   1
_chemical_formula_structural   Na4MnFeF12
_chemical_formula_sum   'Na4 Mn1 Fe1 F12'
_cell_volume   253.40252315
_cell_formula_units_Z   1
loop_
 _symmetry_equiv_pos_site_id
 _symmetry_equiv_pos_as_xyz
  1  'x, y, z'
loop_
 _atom_site_type_symbol
 _atom_site_label
 _atom_site_symmetry_multiplicity
 _atom_site_fract_x
 _atom_site_fract_y
 _atom_site_fract_z
 _atom_site_occupancy
  Na  Na0  1  0.000000  0.000000  0.332292  1
  Na  Na1  1  0.500000  0.500000  0.836621  1
  Na  Na2  1  0.000000  0.000000  0.667708  1
  Na  Na3  1  0.500000  0.500000  0.163379  1
  Mn  Mn4  1  0.000000  0.000000  0.000000  1
  Fe  Fe5  1  0.500000  0.500000  0.500000  1
  F  F6  1  0.739799  0.739799  0.000000  1
  F  F7  1  0.754790  0.245210  0.500000  1
  F  F8  1  0.245210  0.754790  0.500000  1
  F  F9  1  0.260201  0.260201  0.000000  1
  F  F10  1  0.683665  0.683665  0.361325  1
  F  F11  1  0.316335  0.316335  0.361325  1
  F  F12  1  0.316335  0.316335  0.638675  1
  F  F13  1  0.178761  0.821239  0.134504  1
  F  F14  1  0.821239  0.178761  0.134504  1
  F  F15  1  0.821239  0.178761  0.865496  1
  F  F16  1  0.178761  0.821239  0.865496  1
  F  F17  1  0.683665  0.683665  0.638675  1
