# generated using pymatgen
data_Y2Er18Cd5InNi2
_symmetry_space_group_name_H-M   'P 1'
_cell_length_a   9.58395925
_cell_length_b   9.57950791
_cell_length_c   9.70090700
_cell_angle_alpha   90.00000000
_cell_angle_beta   90.00000000
_cell_angle_gamma   120.02221313
_symmetry_Int_Tables_number   1
_chemical_formula_structural   Y2Er18Cd5InNi2
_chemical_formula_sum   'Y2 Er18 Cd5 In1 Ni2'
_cell_volume   771.14114879
_cell_formula_units_Z   1
loop_
 _symmetry_equiv_pos_site_id
 _symmetry_equiv_pos_as_xyz
  1  'x, y, z'
loop_
 _atom_site_type_symbol
 _atom_site_label
 _atom_site_symmetry_multiplicity
 _atom_site_fract_x
 _atom_site_fract_y
 _atom_site_fract_z
 _atom_site_occupancy
  Y  Y0  1  0.912622  0.460875  0.250000  1
  Y  Y1  1  0.086635  0.542614  0.750000  1
  Er  Er2  1  0.001953  0.997997  0.502114  1
  Er  Er3  1  0.001953  0.997997  0.997886  1
  Er  Er4  1  0.541747  0.457762  0.250000  1
  Er  Er5  1  0.539216  0.087127  0.250000  1
  Er  Er6  1  0.456491  0.544015  0.750000  1
  Er  Er7  1  0.457342  0.913468  0.750000  1
  Er  Er8  1  0.212661  0.789835  0.438021  1
  Er  Er9  1  0.211344  0.421380  0.437204  1
  Er  Er10  1  0.578531  0.789762  0.437497  1
  Er  Er11  1  0.788121  0.209254  0.562270  1
  Er  Er12  1  0.787458  0.577905  0.563640  1
  Er  Er13  1  0.422093  0.211366  0.563446  1
  Er  Er14  1  0.788121  0.209254  0.937730  1
  Er  Er15  1  0.787458  0.577905  0.936360  1
  Er  Er16  1  0.422093  0.211366  0.936554  1
  Er  Er17  1  0.212661  0.789835  0.061979  1
  Er  Er18  1  0.211344  0.421380  0.062796  1
  Er  Er19  1  0.578531  0.789762  0.062503  1
  Cd  Cd20  1  0.884868  0.771366  0.250000  1
  Cd  Cd21  1  0.229820  0.114636  0.250000  1
  Cd  Cd22  1  0.116942  0.885005  0.750000  1
  Cd  Cd23  1  0.115387  0.229466  0.750000  1
  Cd  Cd24  1  0.769400  0.885178  0.750000  1
  In  In25  1  0.884572  0.114283  0.250000  1
  Ni  Ni26  1  0.333663  0.666689  0.250000  1
  Ni  Ni27  1  0.666976  0.332516  0.750000  1
