# generated using pymatgen
data_Y5Tm7Ru4
_symmetry_space_group_name_H-M   'P 1'
_cell_length_a   6.26501697
_cell_length_b   7.30541885
_cell_length_c   9.05900533
_cell_angle_alpha   89.95916898
_cell_angle_beta   89.75954253
_cell_angle_gamma   89.90731422
_symmetry_Int_Tables_number   1
_chemical_formula_structural   Y5Tm7Ru4
_chemical_formula_sum   'Y5 Tm7 Ru4'
_cell_volume   414.61345000
_cell_formula_units_Z   1
loop_
 _symmetry_equiv_pos_site_id
 _symmetry_equiv_pos_as_xyz
  1  'x, y, z'
loop_
 _atom_site_type_symbol
 _atom_site_label
 _atom_site_symmetry_multiplicity
 _atom_site_fract_x
 _atom_site_fract_y
 _atom_site_fract_z
 _atom_site_occupancy
  Y  Y0  1  0.631844  0.040131  0.251038  1
  Y  Y1  1  0.369027  0.959271  0.748831  1
  Y  Y2  1  0.130657  0.459977  0.748947  1
  Y  Y3  1  0.868425  0.541014  0.250502  1
  Y  Y4  1  0.168120  0.176440  0.063523  1
  Tm  Tm5  1  0.830935  0.823739  0.934945  1
  Tm  Tm6  1  0.668265  0.324973  0.935136  1
  Tm  Tm7  1  0.831731  0.824167  0.564171  1
  Tm  Tm8  1  0.332351  0.675388  0.064359  1
  Tm  Tm9  1  0.168123  0.175185  0.436554  1
  Tm  Tm10  1  0.332051  0.675962  0.435617  1
  Tm  Tm11  1  0.667707  0.324540  0.564226  1
  Ru  Ru12  1  0.458930  0.386835  0.251718  1
  Ru  Ru13  1  0.543289  0.614375  0.750435  1
  Ru  Ru14  1  0.955767  0.114005  0.747979  1
  Ru  Ru15  1  0.042777  0.883997  0.252019  1
