# generated using pymatgen
data_Ce3Dy(TlRh2)2
_symmetry_space_group_name_H-M   'P 1'
_cell_length_a   7.69621200
_cell_length_b   7.69621272
_cell_length_c   3.66353700
_cell_angle_alpha   90.00000000
_cell_angle_beta   90.00000000
_cell_angle_gamma   91.73337660
_symmetry_Int_Tables_number   1
_chemical_formula_structural   Ce3Dy(TlRh2)2
_chemical_formula_sum   'Ce3 Dy1 Tl2 Rh4'
_cell_volume   216.89817228
_cell_formula_units_Z   1
loop_
 _symmetry_equiv_pos_site_id
 _symmetry_equiv_pos_as_xyz
  1  'x, y, z'
loop_
 _atom_site_type_symbol
 _atom_site_label
 _atom_site_symmetry_multiplicity
 _atom_site_fract_x
 _atom_site_fract_y
 _atom_site_fract_z
 _atom_site_occupancy
  Ce  Ce0  1  0.331226  0.168775  0.500001  1
  Ce  Ce1  1  0.828987  0.332556  0.500001  1
  Ce  Ce2  1  0.167445  0.671014  0.500001  1
  Dy  Dy3  1  0.668067  0.831934  0.500001  1
  Tl  Tl4  1  0.993934  0.998551  0.000000  1
  Tl  Tl5  1  0.501449  0.506066  0.000000  1
  Rh  Rh6  1  0.632314  0.141582  0.000000  1
  Rh  Rh7  1  0.140529  0.359472  0.000000  1
  Rh  Rh8  1  0.877631  0.622368  0.000000  1
  Rh  Rh9  1  0.358419  0.867685  0.000000  1
