# generated using pymatgen
data_RbSm2(PN2)6
_symmetry_space_group_name_H-M   'P 1'
_cell_length_a   10.01648600
_cell_length_b   10.01648600
_cell_length_c   10.01648600
_cell_angle_alpha   90.00000000
_cell_angle_beta   90.00000000
_cell_angle_gamma   90.00000000
_symmetry_Int_Tables_number   1
_chemical_formula_structural   RbSm2(PN2)6
_chemical_formula_sum   'Rb4 Sm8 P24 N48'
_cell_volume   1004.95395813
_cell_formula_units_Z   4
loop_
 _symmetry_equiv_pos_site_id
 _symmetry_equiv_pos_as_xyz
  1  'x, y, z'
loop_
 _atom_site_type_symbol
 _atom_site_label
 _atom_site_symmetry_multiplicity
 _atom_site_fract_x
 _atom_site_fract_y
 _atom_site_fract_z
 _atom_site_occupancy
  Rb  Rb0  1  0.000000  0.500000  0.500000  1
  Rb  Rb1  1  0.500000  0.500000  0.000000  1
  Rb  Rb2  1  0.500000  0.000000  0.500000  1
  Rb  Rb3  1  0.000000  0.000000  0.000000  1
  Sm  Sm4  1  0.375809  0.124191  0.875809  1
  Sm  Sm5  1  0.124191  0.875809  0.375809  1
  Sm  Sm6  1  0.875809  0.375809  0.124191  1
  Sm  Sm7  1  0.624191  0.624191  0.624191  1
  Sm  Sm8  1  0.624191  0.875809  0.124191  1
  Sm  Sm9  1  0.875809  0.124191  0.624191  1
  Sm  Sm10  1  0.124191  0.624191  0.875809  1
  Sm  Sm11  1  0.375809  0.375809  0.375809  1
  P  P12  1  0.689557  0.344406  0.384507  1
  P  P13  1  0.189557  0.155594  0.615493  1
  P  P14  1  0.310443  0.844406  0.115493  1
  P  P15  1  0.155594  0.615493  0.189557  1
  P  P16  1  0.115493  0.310443  0.844406  1
  P  P17  1  0.615493  0.189557  0.155594  1
  P  P18  1  0.344406  0.384507  0.689557  1
  P  P19  1  0.384507  0.689557  0.344406  1
  P  P20  1  0.844406  0.115493  0.310443  1
  P  P21  1  0.655594  0.884507  0.810443  1
  P  P22  1  0.884507  0.810443  0.655594  1
  P  P23  1  0.810443  0.655594  0.884507  1
  P  P24  1  0.310443  0.655594  0.615493  1
  P  P25  1  0.810443  0.844406  0.384507  1
  P  P26  1  0.689557  0.155594  0.884507  1
  P  P27  1  0.844406  0.384507  0.810443  1
  P  P28  1  0.884507  0.689557  0.155594  1
  P  P29  1  0.384507  0.810443  0.844406  1
  P  P30  1  0.655594  0.615493  0.310443  1
  P  P31  1  0.615493  0.310443  0.655594  1
  P  P32  1  0.155594  0.884507  0.689557  1
  P  P33  1  0.344406  0.115493  0.189557  1
  P  P34  1  0.115493  0.189557  0.344406  1
  P  P35  1  0.189557  0.344406  0.115493  1
  N  N36  1  0.714267  0.504635  0.414210  1
  N  N37  1  0.214267  0.995365  0.585790  1
  N  N38  1  0.285733  0.004635  0.085790  1
  N  N39  1  0.995365  0.585790  0.214267  1
  N  N40  1  0.085790  0.285733  0.004635  1
  N  N41  1  0.585790  0.214267  0.995365  1
  N  N42  1  0.504635  0.414210  0.714267  1
  N  N43  1  0.414210  0.714267  0.504635  1
  N  N44  1  0.004635  0.085790  0.285733  1
  N  N45  1  0.495365  0.914210  0.785733  1
  N  N46  1  0.914210  0.785733  0.495365  1
  N  N47  1  0.785733  0.495365  0.914210  1
  N  N48  1  0.285733  0.495365  0.585790  1
  N  N49  1  0.785733  0.004635  0.414210  1
  N  N50  1  0.714267  0.995365  0.914210  1
  N  N51  1  0.004635  0.414210  0.785733  1
  N  N52  1  0.914210  0.714267  0.995365  1
  N  N53  1  0.414210  0.785733  0.004635  1
  N  N54  1  0.495365  0.585790  0.285733  1
  N  N55  1  0.585790  0.285733  0.495365  1
  N  N56  1  0.167405  0.736180  0.618042  1
  N  N57  1  0.995365  0.914210  0.714267  1
  N  N58  1  0.085790  0.214267  0.504635  1
  N  N59  1  0.214267  0.504635  0.085790  1
  N  N60  1  0.832595  0.263820  0.381958  1
  N  N61  1  0.332595  0.236180  0.618042  1
  N  N62  1  0.167405  0.763820  0.118042  1
  N  N63  1  0.236180  0.618042  0.332595  1
  N  N64  1  0.118042  0.167405  0.763820  1
  N  N65  1  0.618042  0.332595  0.236180  1
  N  N66  1  0.263820  0.381958  0.832595  1
  N  N67  1  0.381958  0.832595  0.263820  1
  N  N68  1  0.763820  0.118042  0.167405  1
  N  N69  1  0.736180  0.881958  0.667405  1
  N  N70  1  0.881958  0.667405  0.736180  1
  N  N71  1  0.667405  0.736180  0.881958  1
  N  N72  1  0.332595  0.263820  0.118042  1
  N  N73  1  0.118042  0.332595  0.263820  1
  N  N74  1  0.263820  0.118042  0.332595  1
  N  N75  1  0.236180  0.881958  0.832595  1
  N  N76  1  0.618042  0.167405  0.736180  1
  N  N77  1  0.736180  0.618042  0.167405  1
  N  N78  1  0.381958  0.667405  0.763820  1
  N  N79  1  0.881958  0.832595  0.236180  1
  N  N80  1  0.763820  0.381958  0.667405  1
  N  N81  1  0.832595  0.236180  0.881958  1
  N  N82  1  0.667405  0.763820  0.381958  1
  N  N83  1  0.504635  0.085790  0.214267  1
