# generated using pymatgen
data_Er16CdHg3Rh4
_symmetry_space_group_name_H-M   'P 1'
_cell_length_a   9.49294566
_cell_length_b   9.49969708
_cell_length_c   9.49294500
_cell_angle_alpha   60.02350575
_cell_angle_beta   59.99999881
_cell_angle_gamma   60.02350816
_symmetry_Int_Tables_number   1
_chemical_formula_structural   Er16CdHg3Rh4
_chemical_formula_sum   'Er16 Cd1 Hg3 Rh4'
_cell_volume   605.55128724
_cell_formula_units_Z   1
loop_
 _symmetry_equiv_pos_site_id
 _symmetry_equiv_pos_as_xyz
  1  'x, y, z'
loop_
 _atom_site_type_symbol
 _atom_site_label
 _atom_site_symmetry_multiplicity
 _atom_site_fract_x
 _atom_site_fract_y
 _atom_site_fract_z
 _atom_site_occupancy
  Er  Er0  1  0.935889  0.936616  0.563747  1
  Er  Er1  1  0.563283  0.564463  0.936127  1
  Er  Er2  1  0.688648  0.688335  0.311509  1
  Er  Er3  1  0.146812  0.559564  0.146812  1
  Er  Er4  1  0.687482  0.312877  0.687482  1
  Er  Er5  1  0.149280  0.147868  0.149280  1
  Er  Er6  1  0.553572  0.147868  0.149280  1
  Er  Er7  1  0.687482  0.312877  0.312158  1
  Er  Er8  1  0.149280  0.147868  0.553572  1
  Er  Er9  1  0.311509  0.688335  0.311509  1
  Er  Er10  1  0.311509  0.688335  0.688648  1
  Er  Er11  1  0.936127  0.564463  0.563283  1
  Er  Er12  1  0.936127  0.564463  0.936127  1
  Er  Er13  1  0.563747  0.936616  0.563747  1
  Er  Er14  1  0.563747  0.936616  0.935889  1
  Er  Er15  1  0.312158  0.312877  0.687482  1
  Cd  Cd16  1  0.920860  0.237421  0.920860  1
  Hg  Hg17  1  0.914709  0.916390  0.254192  1
  Hg  Hg18  1  0.254192  0.916390  0.914709  1
  Hg  Hg19  1  0.914709  0.916390  0.914709  1
  Rh  Rh20  1  0.355591  0.358130  0.930686  1
  Rh  Rh21  1  0.357005  0.928983  0.357005  1
  Rh  Rh22  1  0.930686  0.358130  0.355591  1
  Rh  Rh23  1  0.355591  0.358130  0.355591  1
