# generated using pymatgen
data_Pr3Nd3(SiPd5)2
_symmetry_space_group_name_H-M   'P 1'
_cell_length_a   8.44591873
_cell_length_b   8.43943453
_cell_length_c   8.43943461
_cell_angle_alpha   127.24051420
_cell_angle_beta   126.21309867
_cell_angle_gamma   78.68192515
_symmetry_Int_Tables_number   1
_chemical_formula_structural   Pr3Nd3(SiPd5)2
_chemical_formula_sum   'Pr3 Nd3 Si2 Pd10'
_cell_volume   374.00975405
_cell_formula_units_Z   1
loop_
 _symmetry_equiv_pos_site_id
 _symmetry_equiv_pos_as_xyz
  1  'x, y, z'
loop_
 _atom_site_type_symbol
 _atom_site_label
 _atom_site_symmetry_multiplicity
 _atom_site_fract_x
 _atom_site_fract_y
 _atom_site_fract_z
 _atom_site_occupancy
  Pr  Pr0  1  0.387415  0.249935  0.137481  1
  Pr  Pr1  1  0.775724  0.549824  0.225899  1
  Pr  Pr2  1  0.611721  0.750017  0.861704  1
  Nd  Nd3  1  0.822355  0.049428  0.772927  1
  Nd  Nd4  1  0.222653  0.450204  0.772449  1
  Nd  Nd5  1  0.177053  0.950223  0.226830  1
  Si  Si6  1  0.212622  0.750132  0.462490  1
  Si  Si7  1  0.787164  0.249922  0.537242  1
  Pd  Pd8  1  0.832043  0.592731  0.639344  1
  Pd  Pd9  1  0.545300  0.306137  0.637013  1
  Pd  Pd10  1  0.453854  0.091979  0.760183  1
  Pd  Pd11  1  0.832043  0.192700  0.239313  1
  Pd  Pd12  1  0.168645  0.407461  0.361809  1
  Pd  Pd13  1  0.453854  0.693669  0.361874  1
  Pd  Pd14  1  0.545300  0.908287  0.239162  1
  Pd  Pd15  1  0.168645  0.806837  0.761184  1
  Pd  Pd16  1  0.001805  0.002324  0.503616  1
  Pd  Pd17  1  0.001805  0.498190  0.999481  1
