# generated using pymatgen
data_Ce2Si4RuRh5
_symmetry_space_group_name_H-M   'P 1'
_cell_length_a   6.67328546
_cell_length_b   6.64157233
_cell_length_c   6.67328494
_cell_angle_alpha   130.10820156
_cell_angle_beta   114.68775986
_cell_angle_gamma   86.61038330
_symmetry_Int_Tables_number   1
_chemical_formula_structural   Ce2Si4RuRh5
_chemical_formula_sum   'Ce2 Si4 Ru1 Rh5'
_cell_volume   195.93020230
_cell_formula_units_Z   1
loop_
 _symmetry_equiv_pos_site_id
 _symmetry_equiv_pos_as_xyz
  1  'x, y, z'
loop_
 _atom_site_type_symbol
 _atom_site_label
 _atom_site_symmetry_multiplicity
 _atom_site_fract_x
 _atom_site_fract_y
 _atom_site_fract_z
 _atom_site_occupancy
  Ce  Ce0  1  0.750211  0.038631  0.286916  1
  Ce  Ce1  1  0.248285  0.961369  0.711580  1
  Si  Si2  1  0.577811  0.384477  0.807989  1
  Si  Si3  1  0.077435  0.275696  0.196992  1
  Si  Si4  1  0.423511  0.615523  0.193334  1
  Si  Si5  1  0.921296  0.724304  0.801739  1
  Ru  Ru6  1  0.783711  0.500000  0.283711  1
  Rh  Rh7  1  0.003198  0.498130  0.999839  1
  Rh  Rh8  1  0.715059  0.000000  0.715059  1
  Rh  Rh9  1  0.213322  0.500000  0.713322  1
  Rh  Rh10  1  0.284452  0.000000  0.284452  1
  Rh  Rh11  1  0.501709  0.501870  0.505067  1
