# generated using pymatgen
data_Hf2MgPaPt12
_symmetry_space_group_name_H-M   'P 1'
_cell_length_a   5.73353500
_cell_length_b   5.73353615
_cell_length_c   9.37612600
_cell_angle_alpha   90.00000000
_cell_angle_beta   90.00000000
_cell_angle_gamma   119.99999915
_symmetry_Int_Tables_number   1
_chemical_formula_structural   Hf2MgPaPt12
_chemical_formula_sum   'Hf2 Mg1 Pa1 Pt12'
_cell_volume   266.93104904
_cell_formula_units_Z   1
loop_
 _symmetry_equiv_pos_site_id
 _symmetry_equiv_pos_as_xyz
  1  'x, y, z'
loop_
 _atom_site_type_symbol
 _atom_site_label
 _atom_site_symmetry_multiplicity
 _atom_site_fract_x
 _atom_site_fract_y
 _atom_site_fract_z
 _atom_site_occupancy
  Hf  Hf0  1  0.333333  0.666667  0.246697  1
  Hf  Hf1  1  0.000000  0.000000  0.997377  1
  Mg  Mg2  1  0.666667  0.333333  0.751369  1
  Pa  Pa3  1  0.000000  0.000000  0.503614  1
  Pt  Pt4  1  0.170026  0.340053  0.753636  1
  Pt  Pt5  1  0.001951  0.500976  0.001438  1
  Pt  Pt6  1  0.830621  0.661244  0.246729  1
  Pt  Pt7  1  0.338756  0.169379  0.246729  1
  Pt  Pt8  1  0.499024  0.500976  0.001438  1
  Pt  Pt9  1  0.830621  0.169379  0.246729  1
  Pt  Pt10  1  0.499244  0.500756  0.498511  1
  Pt  Pt11  1  0.499244  0.998489  0.498511  1
  Pt  Pt12  1  0.170026  0.829974  0.753636  1
  Pt  Pt13  1  0.659947  0.829974  0.753636  1
  Pt  Pt14  1  0.499024  0.998049  0.001438  1
  Pt  Pt15  1  0.001511  0.500756  0.498511  1
