# generated using pymatgen
data_Ho20Ru11Pt
_symmetry_space_group_name_H-M   'P 1'
_cell_length_a   10.80107793
_cell_length_b   10.80107767
_cell_length_c   6.35966409
_cell_angle_alpha   89.95460703
_cell_angle_beta   89.95460621
_cell_angle_gamma   89.80066825
_symmetry_Int_Tables_number   1
_chemical_formula_structural   Ho20Ru11Pt
_chemical_formula_sum   'Ho20 Ru11 Pt1'
_cell_volume   741.93432895
_cell_formula_units_Z   1
loop_
 _symmetry_equiv_pos_site_id
 _symmetry_equiv_pos_as_xyz
  1  'x, y, z'
loop_
 _atom_site_type_symbol
 _atom_site_label
 _atom_site_symmetry_multiplicity
 _atom_site_fract_x
 _atom_site_fract_y
 _atom_site_fract_z
 _atom_site_occupancy
  Ho  Ho0  1  0.292279  0.086493  0.376761  1
  Ho  Ho1  1  0.291677  0.918194  0.877323  1
  Ho  Ho2  1  0.708556  0.086646  0.876529  1
  Ho  Ho3  1  0.708591  0.914037  0.377225  1
  Ho  Ho4  1  0.589659  0.794119  0.877413  1
  Ho  Ho5  1  0.586594  0.206646  0.375791  1
  Ho  Ho6  1  0.415369  0.794915  0.372502  1
  Ho  Ho7  1  0.413807  0.209178  0.876701  1
  Ho  Ho8  1  0.205881  0.410341  0.622587  1
  Ho  Ho9  1  0.205085  0.584631  0.127498  1
  Ho  Ho10  1  0.793354  0.413406  0.124209  1
  Ho  Ho11  1  0.790822  0.586193  0.623299  1
  Ho  Ho12  1  0.913507  0.707721  0.123239  1
  Ho  Ho13  1  0.913354  0.291444  0.623471  1
  Ho  Ho14  1  0.081806  0.708323  0.622677  1
  Ho  Ho15  1  0.085963  0.291409  0.122775  1
  Ho  Ho16  1  0.000335  0.000197  0.499747  1
  Ho  Ho17  1  0.999803  0.999665  0.000253  1
  Ho  Ho18  1  0.503167  0.498332  0.002329  1
  Ho  Ho19  1  0.501668  0.496833  0.497671  1
  Ru  Ru20  1  0.846878  0.153122  0.250000  1
  Ru  Ru21  1  0.846994  0.846332  0.749297  1
  Ru  Ru22  1  0.153668  0.153006  0.750703  1
  Ru  Ru23  1  0.155101  0.844899  0.250000  1
  Ru  Ru24  1  0.652668  0.347332  0.750000  1
  Ru  Ru25  1  0.650421  0.653257  0.250586  1
  Ru  Ru26  1  0.346743  0.349579  0.249414  1
  Ru  Ru27  1  0.500176  0.999276  0.123767  1
  Ru  Ru28  1  0.499752  0.999997  0.625424  1
  Ru  Ru29  1  0.000003  0.500248  0.874576  1
  Ru  Ru30  1  0.000724  0.499824  0.376233  1
  Pt  Pt31  1  0.345595  0.654405  0.750000  1
