# generated using pymatgen
data_KYbO6
_symmetry_space_group_name_H-M   'P 1'
_cell_length_a   6.77382559
_cell_length_b   6.77372233
_cell_length_c   6.77382385
_cell_angle_alpha   103.55119403
_cell_angle_beta   103.54370705
_cell_angle_gamma   122.10756689
_symmetry_Int_Tables_number   1
_chemical_formula_structural   KYbO6
_chemical_formula_sum   'K2 Yb2 O12'
_cell_volume   230.38114436
_cell_formula_units_Z   2
loop_
 _symmetry_equiv_pos_site_id
 _symmetry_equiv_pos_as_xyz
  1  'x, y, z'
loop_
 _atom_site_type_symbol
 _atom_site_label
 _atom_site_symmetry_multiplicity
 _atom_site_fract_x
 _atom_site_fract_y
 _atom_site_fract_z
 _atom_site_occupancy
  K  K0  1  0.250007  0.250000  0.000007  1
  K  K1  1  0.749993  0.750000  0.999993  1
  Yb  Yb2  1  0.750000  0.250000  0.500000  1
  Yb  Yb3  1  0.250000  0.750000  0.500000  1
  O  O4  1  0.783866  0.522534  0.306393  1
  O  O5  1  0.477402  0.783881  0.261279  1
  O  O6  1  0.522598  0.216119  0.738721  1
  O  O7  1  0.216134  0.477466  0.693607  1
  O  O8  1  0.190880  0.309155  0.500046  1
  O  O9  1  0.309108  0.809155  0.118273  1
  O  O10  1  0.690892  0.190845  0.881727  1
  O  O11  1  0.809120  0.690845  0.499954  1
  O  O12  1  0.022601  0.283881  0.306479  1
  O  O13  1  0.283859  0.977466  0.261331  1
  O  O14  1  0.716141  0.022534  0.738669  1
  O  O15  1  0.977399  0.716119  0.693521  1
