# generated using pymatgen
data_Zn2Ag(AsO4)2
_symmetry_space_group_name_H-M   'P 1'
_cell_length_a   5.33041326
_cell_length_b   5.55030016
_cell_length_c   6.83667367
_cell_angle_alpha   108.66299362
_cell_angle_beta   86.16219141
_cell_angle_gamma   113.73170471
_symmetry_Int_Tables_number   1
_chemical_formula_structural   Zn2Ag(AsO4)2
_chemical_formula_sum   'Zn2 Ag1 As2 O8'
_cell_volume   174.97906575
_cell_formula_units_Z   1
loop_
 _symmetry_equiv_pos_site_id
 _symmetry_equiv_pos_as_xyz
  1  'x, y, z'
loop_
 _atom_site_type_symbol
 _atom_site_label
 _atom_site_symmetry_multiplicity
 _atom_site_fract_x
 _atom_site_fract_y
 _atom_site_fract_z
 _atom_site_occupancy
  Zn  Zn0  1  0.783278  0.259081  0.815019  1
  Zn  Zn1  1  0.216722  0.740919  0.184981  1
  Ag  Ag2  1  0.500000  0.500000  0.500000  1
  As  As3  1  0.145776  0.866480  0.728760  1
  As  As4  1  0.854224  0.133520  0.271240  1
  O  O5  1  0.745375  0.279459  0.508468  1
  O  O6  1  0.254625  0.720541  0.491532  1
  O  O7  1  0.610652  0.812411  0.148895  1
  O  O8  1  0.389348  0.187589  0.851105  1
  O  O9  1  0.913489  0.350454  0.123365  1
  O  O10  1  0.841963  0.895478  0.684615  1
  O  O11  1  0.158037  0.104522  0.315385  1
  O  O12  1  0.086511  0.649546  0.876635  1
