# generated using pymatgen
data_Mg3Mn2Zn(B2Rh5)2
_symmetry_space_group_name_H-M   'P 1'
_cell_length_a   9.43727822
_cell_length_b   9.43952702
_cell_length_c   2.93772600
_cell_angle_alpha   90.00000000
_cell_angle_beta   90.00000000
_cell_angle_gamma   90.27219672
_symmetry_Int_Tables_number   1
_chemical_formula_structural   Mg3Mn2Zn(B2Rh5)2
_chemical_formula_sum   'Mg3 Mn2 Zn1 B4 Rh10'
_cell_volume   261.69979281
_cell_formula_units_Z   1
loop_
 _symmetry_equiv_pos_site_id
 _symmetry_equiv_pos_as_xyz
  1  'x, y, z'
loop_
 _atom_site_type_symbol
 _atom_site_label
 _atom_site_symmetry_multiplicity
 _atom_site_fract_x
 _atom_site_fract_y
 _atom_site_fract_z
 _atom_site_occupancy
  Mg  Mg0  1  0.324500  0.822793  0.000000  1
  Mg  Mg1  1  0.178076  0.323872  0.000000  1
  Mg  Mg2  1  0.822315  0.675441  0.000000  1
  Mn  Mn3  1  0.676293  0.177699  0.000000  1
  Mn  Mn4  1  0.498689  0.502329  0.000000  1
  Zn  Zn5  1  0.002164  0.999639  0.000000  1
  B  B6  1  0.121626  0.626885  0.000000  1
  B  B7  1  0.873444  0.370237  0.000000  1
  B  B8  1  0.629518  0.876929  0.000000  1
  B  B9  1  0.372743  0.125174  0.000000  1
  Rh  Rh10  1  0.503015  0.002781  0.500000  1
  Rh  Rh11  1  0.998562  0.497866  0.500000  1
  Rh  Rh12  1  0.217879  0.070760  0.500000  1
  Rh  Rh13  1  0.783706  0.935025  0.500000  1
  Rh  Rh14  1  0.069645  0.782834  0.500000  1
  Rh  Rh15  1  0.714733  0.423520  0.500000  1
  Rh  Rh16  1  0.924925  0.213760  0.500000  1
  Rh  Rh17  1  0.281132  0.571501  0.500000  1
  Rh  Rh18  1  0.572286  0.719571  0.500000  1
  Rh  Rh19  1  0.434751  0.281384  0.500000  1
