# generated using pymatgen
data_Ba3HfPbS6
_symmetry_space_group_name_H-M   'P 1'
_cell_length_a   8.53827150
_cell_length_b   8.53827050
_cell_length_c   8.53827165
_cell_angle_alpha   90.53048434
_cell_angle_beta   90.53048975
_cell_angle_gamma   90.53050770
_symmetry_Int_Tables_number   1
_chemical_formula_structural   Ba3HfPbS6
_chemical_formula_sum   'Ba6 Hf2 Pb2 S12'
_cell_volume   622.37715384
_cell_formula_units_Z   2
loop_
 _symmetry_equiv_pos_site_id
 _symmetry_equiv_pos_as_xyz
  1  'x, y, z'
loop_
 _atom_site_type_symbol
 _atom_site_label
 _atom_site_symmetry_multiplicity
 _atom_site_fract_x
 _atom_site_fract_y
 _atom_site_fract_z
 _atom_site_occupancy
  Ba  Ba0  1  0.877972  0.622028  0.250000  1
  Ba  Ba1  1  0.250000  0.877972  0.622028  1
  Ba  Ba2  1  0.622028  0.250000  0.877972  1
  Ba  Ba3  1  0.750000  0.122028  0.377972  1
  Ba  Ba4  1  0.377972  0.750000  0.122028  1
  Ba  Ba5  1  0.122028  0.377972  0.750000  1
  Hf  Hf6  1  0.500000  0.500000  0.500000  1
  Hf  Hf7  1  0.000000  0.000000  0.000000  1
  Pb  Pb8  1  0.250000  0.250000  0.250000  1
  Pb  Pb9  1  0.750000  0.750000  0.750000  1
  S  S10  1  0.213069  0.553531  0.422273  1
  S  S11  1  0.422273  0.213069  0.553531  1
  S  S12  1  0.553531  0.422273  0.213069  1
  S  S13  1  0.922273  0.053531  0.713069  1
  S  S14  1  0.713069  0.922273  0.053531  1
  S  S15  1  0.053531  0.713069  0.922273  1
  S  S16  1  0.786931  0.446469  0.577727  1
  S  S17  1  0.577727  0.786931  0.446469  1
  S  S18  1  0.446469  0.577727  0.786931  1
  S  S19  1  0.077727  0.946469  0.286931  1
  S  S20  1  0.286931  0.077727  0.946469  1
  S  S21  1  0.946469  0.286931  0.077727  1
