# generated using pymatgen
data_Tb3Dy13(In3Co)2
_symmetry_space_group_name_H-M   'P 1'
_cell_length_a   10.39828700
_cell_length_b   10.39828665
_cell_length_c   7.02173100
_cell_angle_alpha   90.00000000
_cell_angle_beta   90.00000000
_cell_angle_gamma   120.00000431
_symmetry_Int_Tables_number   1
_chemical_formula_structural   Tb3Dy13(In3Co)2
_chemical_formula_sum   'Tb3 Dy13 In6 Co2'
_cell_volume   657.50397996
_cell_formula_units_Z   1
loop_
 _symmetry_equiv_pos_site_id
 _symmetry_equiv_pos_as_xyz
  1  'x, y, z'
loop_
 _atom_site_type_symbol
 _atom_site_label
 _atom_site_symmetry_multiplicity
 _atom_site_fract_x
 _atom_site_fract_y
 _atom_site_fract_z
 _atom_site_occupancy
  Tb  Tb0  1  0.534835  0.069669  0.511536  1
  Tb  Tb1  1  0.930331  0.465165  0.511536  1
  Tb  Tb2  1  0.534835  0.465165  0.511536  1
  Dy  Dy3  1  0.464767  0.929535  0.011649  1
  Dy  Dy4  1  0.070465  0.535233  0.011649  1
  Dy  Dy5  1  0.464767  0.535233  0.011649  1
  Dy  Dy6  1  0.177775  0.355551  0.721329  1
  Dy  Dy7  1  0.644449  0.822225  0.721329  1
  Dy  Dy8  1  0.177775  0.822225  0.721329  1
  Dy  Dy9  1  0.822346  0.644691  0.220660  1
  Dy  Dy10  1  0.355309  0.177654  0.220660  1
  Dy  Dy11  1  0.822346  0.177654  0.220660  1
  Dy  Dy12  1  0.666667  0.333333  0.903558  1
  Dy  Dy13  1  0.333333  0.666667  0.403409  1
  Dy  Dy14  1  0.000000  0.000000  0.501498  1
  Dy  Dy15  1  0.000000  0.000000  0.001627  1
  In  In16  1  0.836893  0.673786  0.760480  1
  In  In17  1  0.326214  0.163107  0.760480  1
  In  In18  1  0.836893  0.163107  0.760480  1
  In  In19  1  0.163286  0.326573  0.260016  1
  In  In20  1  0.673427  0.836714  0.260016  1
  In  In21  1  0.163286  0.836714  0.260016  1
  Co  Co22  1  0.666667  0.333333  0.288327  1
  Co  Co23  1  0.333333  0.666667  0.788775  1
