# generated using pymatgen
data_DyHo3Er4(ReC2)4
_symmetry_space_group_name_H-M   'P 1'
_cell_length_a   5.07690800
_cell_length_b   6.55871248
_cell_length_c   9.81205171
_cell_angle_alpha   90.04363493
_cell_angle_beta   90.00000000
_cell_angle_gamma   90.00000000
_symmetry_Int_Tables_number   1
_chemical_formula_structural   DyHo3Er4(ReC2)4
_chemical_formula_sum   'Dy1 Ho3 Er4 Re4 C8'
_cell_volume   326.72140529
_cell_formula_units_Z   1
loop_
 _symmetry_equiv_pos_site_id
 _symmetry_equiv_pos_as_xyz
  1  'x, y, z'
loop_
 _atom_site_type_symbol
 _atom_site_label
 _atom_site_symmetry_multiplicity
 _atom_site_fract_x
 _atom_site_fract_y
 _atom_site_fract_z
 _atom_site_occupancy
  Dy  Dy0  1  0.750000  0.032828  0.716124  1
  Ho  Ho1  1  0.250000  0.467051  0.216372  1
  Ho  Ho2  1  0.250000  0.967037  0.283686  1
  Ho  Ho3  1  0.750000  0.532920  0.783719  1
  Er  Er4  1  0.250000  0.821376  0.942960  1
  Er  Er5  1  0.250000  0.321529  0.557041  1
  Er  Er6  1  0.750000  0.178526  0.057180  1
  Er  Er7  1  0.750000  0.678588  0.442803  1
  Re  Re8  1  0.250000  0.278998  0.866998  1
  Re  Re9  1  0.250000  0.778698  0.633069  1
  Re  Re10  1  0.750000  0.721003  0.133165  1
  Re  Re11  1  0.750000  0.221191  0.366833  1
  C  C12  1  0.250000  0.046086  0.740886  1
  C  C13  1  0.250000  0.546048  0.759261  1
  C  C14  1  0.750000  0.953878  0.259258  1
  C  C15  1  0.750000  0.453899  0.240731  1
  C  C16  1  0.250000  0.674851  0.449387  1
  C  C17  1  0.250000  0.174914  0.050592  1
  C  C18  1  0.750000  0.325700  0.550341  1
  C  C19  1  0.750000  0.824877  0.949594  1
