# generated using pymatgen
data_SrLaSi6HgPd20
_symmetry_space_group_name_H-M   'P 1'
_cell_length_a   8.76196364
_cell_length_b   8.76196343
_cell_length_c   8.76196400
_cell_angle_alpha   59.99999785
_cell_angle_beta   59.99999866
_cell_angle_gamma   59.99999830
_symmetry_Int_Tables_number   1
_chemical_formula_structural   SrLaSi6HgPd20
_chemical_formula_sum   'Sr1 La1 Si6 Hg1 Pd20'
_cell_volume   475.65200605
_cell_formula_units_Z   1
loop_
 _symmetry_equiv_pos_site_id
 _symmetry_equiv_pos_as_xyz
  1  'x, y, z'
loop_
 _atom_site_type_symbol
 _atom_site_label
 _atom_site_symmetry_multiplicity
 _atom_site_fract_x
 _atom_site_fract_y
 _atom_site_fract_z
 _atom_site_occupancy
  Sr  Sr0  1  0.750000  0.750000  0.750000  1
  La  La1  1  0.250000  0.250000  0.250000  1
  Si  Si2  1  0.732169  0.732169  0.267831  1
  Si  Si3  1  0.267831  0.267831  0.732169  1
  Si  Si4  1  0.732169  0.267831  0.732169  1
  Si  Si5  1  0.267831  0.732169  0.267831  1
  Si  Si6  1  0.267831  0.732169  0.732169  1
  Si  Si7  1  0.732169  0.267831  0.267831  1
  Hg  Hg8  1  0.000000  0.000000  0.000000  1
  Pd  Pd9  1  0.613566  0.613566  0.613566  1
  Pd  Pd10  1  0.385332  0.385332  0.385332  1
  Pd  Pd11  1  0.159300  0.613566  0.613566  1
  Pd  Pd12  1  0.613566  0.159300  0.613566  1
  Pd  Pd13  1  0.844005  0.385332  0.385332  1
  Pd  Pd14  1  0.385332  0.844005  0.385332  1
  Pd  Pd15  1  0.613566  0.613566  0.159300  1
  Pd  Pd16  1  0.385332  0.385332  0.844005  1
  Pd  Pd17  1  0.000645  0.000645  0.655499  1
  Pd  Pd18  1  0.000645  0.000645  0.343211  1
  Pd  Pd19  1  0.343211  0.655499  0.000645  1
  Pd  Pd20  1  0.655499  0.343211  0.000645  1
  Pd  Pd21  1  0.000645  0.655499  0.000645  1
  Pd  Pd22  1  0.655499  0.000645  0.343211  1
  Pd  Pd23  1  0.000645  0.343211  0.000645  1
  Pd  Pd24  1  0.343211  0.000645  0.655499  1
  Pd  Pd25  1  0.655499  0.000645  0.000645  1
  Pd  Pd26  1  0.343211  0.000645  0.000645  1
  Pd  Pd27  1  0.000645  0.655499  0.343211  1
  Pd  Pd28  1  0.000645  0.343211  0.655499  1
