# generated using pymatgen
data_Y4ErBe3P9Ir19
_symmetry_space_group_name_H-M   'P 1'
_cell_length_a   12.63190100
_cell_length_b   12.63190111
_cell_length_c   3.95199200
_cell_angle_alpha   90.00000000
_cell_angle_beta   90.00000000
_cell_angle_gamma   120.00000234
_symmetry_Int_Tables_number   1
_chemical_formula_structural   Y4ErBe3P9Ir19
_chemical_formula_sum   'Y4 Er1 Be3 P9 Ir19'
_cell_volume   546.11500407
_cell_formula_units_Z   1
loop_
 _symmetry_equiv_pos_site_id
 _symmetry_equiv_pos_as_xyz
  1  'x, y, z'
loop_
 _atom_site_type_symbol
 _atom_site_label
 _atom_site_symmetry_multiplicity
 _atom_site_fract_x
 _atom_site_fract_y
 _atom_site_fract_z
 _atom_site_occupancy
  Y  Y0  1  0.666667  0.333333  0.000000  1
  Y  Y1  1  0.815419  0.809270  0.500000  1
  Y  Y2  1  0.190730  0.006149  0.500000  1
  Y  Y3  1  0.993851  0.184581  0.500000  1
  Er  Er4  1  0.333333  0.666667  0.000000  1
  Be  Be5  1  0.683283  0.162254  0.500000  1
  Be  Be6  1  0.837746  0.521029  0.500000  1
  Be  Be7  1  0.478971  0.316717  0.500000  1
  P  P8  1  0.178252  0.696625  0.500000  1
  P  P9  1  0.518373  0.821748  0.500000  1
  P  P10  1  0.303375  0.481627  0.500000  1
  P  P11  1  0.639530  0.626398  0.000000  1
  P  P12  1  0.373602  0.013132  0.000000  1
  P  P13  1  0.986868  0.360470  0.000000  1
  P  P14  1  0.178959  0.181717  0.000000  1
  P  P15  1  0.818283  0.997243  0.000000  1
  P  P16  1  0.002757  0.821041  0.000000  1
  Ir  Ir17  1  0.801393  0.175497  0.000000  1
  Ir  Ir18  1  0.824503  0.625896  0.000000  1
  Ir  Ir19  1  0.374104  0.198607  0.000000  1
  Ir  Ir20  1  0.190416  0.812277  0.000000  1
  Ir  Ir21  1  0.621861  0.809584  0.000000  1
  Ir  Ir22  1  0.187723  0.378139  0.000000  1
  Ir  Ir23  1  0.455135  0.446548  0.000000  1
  Ir  Ir24  1  0.553452  0.008588  0.000000  1
  Ir  Ir25  1  0.991412  0.544865  0.000000  1
  Ir  Ir26  1  0.281097  0.288278  0.500000  1
  Ir  Ir27  1  0.711722  0.992819  0.500000  1
  Ir  Ir28  1  0.007181  0.718903  0.500000  1
  Ir  Ir29  1  0.871434  0.354522  0.500000  1
  Ir  Ir30  1  0.645478  0.516913  0.500000  1
  Ir  Ir31  1  0.483087  0.128566  0.500000  1
  Ir  Ir32  1  0.369470  0.870323  0.500000  1
  Ir  Ir33  1  0.500855  0.630530  0.500000  1
  Ir  Ir34  1  0.129677  0.499145  0.500000  1
  Ir  Ir35  1  0.000000  0.000000  0.000000  1
