# generated using pymatgen
data_Lu3Zn2CuC
_symmetry_space_group_name_H-M   'P 1'
_cell_length_a   8.90358973
_cell_length_b   8.90422826
_cell_length_c   8.90339339
_cell_angle_alpha   60.00144379
_cell_angle_beta   59.99903733
_cell_angle_gamma   59.99961316
_symmetry_Int_Tables_number   1
_chemical_formula_structural   Lu3Zn2CuC
_chemical_formula_sum   'Lu12 Zn8 Cu4 C4'
_cell_volume   499.11692681
_cell_formula_units_Z   4
loop_
 _symmetry_equiv_pos_site_id
 _symmetry_equiv_pos_as_xyz
  1  'x, y, z'
loop_
 _atom_site_type_symbol
 _atom_site_label
 _atom_site_symmetry_multiplicity
 _atom_site_fract_x
 _atom_site_fract_y
 _atom_site_fract_z
 _atom_site_occupancy
  Lu  Lu0  1  0.447138  0.447084  0.052905  1
  Lu  Lu1  1  0.052867  0.447121  0.052848  1
  Lu  Lu2  1  0.447175  0.052859  0.052841  1
  Lu  Lu3  1  0.052894  0.052850  0.447108  1
  Lu  Lu4  1  0.447134  0.052881  0.447143  1
  Lu  Lu5  1  0.052872  0.447141  0.447131  1
  Lu  Lu6  1  0.802840  0.802867  0.197122  1
  Lu  Lu7  1  0.197137  0.802852  0.197163  1
  Lu  Lu8  1  0.802868  0.197133  0.197140  1
  Lu  Lu9  1  0.197150  0.197145  0.802868  1
  Lu  Lu10  1  0.802868  0.197138  0.802878  1
  Lu  Lu11  1  0.197109  0.802886  0.802873  1
  Zn  Zn12  1  0.826366  0.826390  0.520869  1
  Zn  Zn13  1  0.826359  0.520860  0.826362  1
  Zn  Zn14  1  0.520891  0.826386  0.826371  1
  Zn  Zn15  1  0.826350  0.826397  0.826409  1
  Zn  Zn16  1  0.423615  0.423604  0.729180  1
  Zn  Zn17  1  0.423634  0.729141  0.423653  1
  Zn  Zn18  1  0.729144  0.423620  0.423609  1
  Zn  Zn19  1  0.423625  0.423580  0.423634  1
  Cu  Cu20  1  0.624985  0.624992  0.124974  1
  Cu  Cu21  1  0.624995  0.125008  0.624952  1
  Cu  Cu22  1  0.125006  0.625028  0.624983  1
  Cu  Cu23  1  0.624991  0.625041  0.624936  1
  C  C24  1  0.125002  0.125001  0.625011  1
  C  C25  1  0.125001  0.624993  0.125016  1
  C  C26  1  0.624989  0.124999  0.125013  1
  C  C27  1  0.125001  0.125004  0.125009  1
