# generated using pymatgen
data_SmMg2PaRh2
_symmetry_space_group_name_H-M   'P 1'
_cell_length_a   3.87297600
_cell_length_b   7.37243283
_cell_length_c   9.04051305
_cell_angle_alpha   87.89839059
_cell_angle_beta   90.00000000
_cell_angle_gamma   90.00000000
_symmetry_Int_Tables_number   1
_chemical_formula_structural   SmMg2PaRh2
_chemical_formula_sum   'Sm2 Mg4 Pa2 Rh4'
_cell_volume   257.96244646
_cell_formula_units_Z   2
loop_
 _symmetry_equiv_pos_site_id
 _symmetry_equiv_pos_as_xyz
  1  'x, y, z'
loop_
 _atom_site_type_symbol
 _atom_site_label
 _atom_site_symmetry_multiplicity
 _atom_site_fract_x
 _atom_site_fract_y
 _atom_site_fract_z
 _atom_site_occupancy
  Sm  Sm0  1  0.250000  0.533009  0.181600  1
  Sm  Sm1  1  0.750000  0.466991  0.818400  1
  Mg  Mg2  1  0.250000  0.142116  0.949153  1
  Mg  Mg3  1  0.750000  0.857884  0.050847  1
  Mg  Mg4  1  0.250000  0.636975  0.554251  1
  Mg  Mg5  1  0.750000  0.363025  0.445749  1
  Pa  Pa6  1  0.250000  0.032795  0.313387  1
  Pa  Pa7  1  0.750000  0.967205  0.686613  1
  Rh  Rh8  1  0.750000  0.227799  0.164761  1
  Rh  Rh9  1  0.250000  0.772201  0.835239  1
  Rh  Rh10  1  0.750000  0.786040  0.368684  1
  Rh  Rh11  1  0.250000  0.213960  0.631316  1
