# generated using pymatgen
data_Pa2Al20Fe3Tc
_symmetry_space_group_name_H-M   'P 1'
_cell_length_a   6.76995530
_cell_length_b   6.77215618
_cell_length_c   9.00067469
_cell_angle_alpha   90.38022870
_cell_angle_beta   90.00427965
_cell_angle_gamma   97.74866923
_symmetry_Int_Tables_number   1
_chemical_formula_structural   Pa2Al20Fe3Tc
_chemical_formula_sum   'Pa2 Al20 Fe3 Tc1'
_cell_volume   408.87853763
_cell_formula_units_Z   1
loop_
 _symmetry_equiv_pos_site_id
 _symmetry_equiv_pos_as_xyz
  1  'x, y, z'
loop_
 _atom_site_type_symbol
 _atom_site_label
 _atom_site_symmetry_multiplicity
 _atom_site_fract_x
 _atom_site_fract_y
 _atom_site_fract_z
 _atom_site_occupancy
  Pa  Pa0  1  0.877469  0.128579  0.749126  1
  Pa  Pa1  1  0.122531  0.871421  0.250874  1
  Al  Al2  1  0.411238  0.134091  0.749268  1
  Al  Al3  1  0.135344  0.406547  0.254466  1
  Al  Al4  1  0.588762  0.865909  0.250732  1
  Al  Al5  1  0.864656  0.593453  0.745534  1
  Al  Al6  1  0.521625  0.780181  0.748462  1
  Al  Al7  1  0.776425  0.520211  0.252892  1
  Al  Al8  1  0.478375  0.219819  0.251538  1
  Al  Al9  1  0.223575  0.479789  0.747108  1
  Al  Al10  1  0.840710  0.158441  0.401262  1
  Al  Al11  1  0.159290  0.841559  0.598738  1
  Al  Al12  1  0.838188  0.153775  0.100706  1
  Al  Al13  1  0.161812  0.846225  0.899294  1
  Al  Al14  1  0.621169  0.373640  0.949160  1
  Al  Al15  1  0.378831  0.626360  0.050840  1
  Al  Al16  1  0.624069  0.374683  0.550040  1
  Al  Al17  1  0.375931  0.625317  0.449960  1
  Al  Al18  1  0.772679  0.780054  0.998289  1
  Al  Al19  1  0.775216  0.776289  0.498359  1
  Al  Al20  1  0.227321  0.219946  0.001711  1
  Al  Al21  1  0.224784  0.223711  0.501641  1
  Fe  Fe22  1  0.500000  0.000000  0.000000  1
  Fe  Fe23  1  0.500000  0.000000  0.500000  1
  Fe  Fe24  1  0.000000  0.500000  0.500000  1
  Tc  Tc25  1  0.000000  0.500000  0.000000  1
