# generated using pymatgen
data_Ho3BRh6Pb
_symmetry_space_group_name_H-M   'P 1'
_cell_length_a   5.81627600
_cell_length_b   5.81627670
_cell_length_c   13.99599100
_cell_angle_alpha   90.00000000
_cell_angle_beta   90.00000000
_cell_angle_gamma   120.00000741
_symmetry_Int_Tables_number   1
_chemical_formula_structural   Ho3BRh6Pb
_chemical_formula_sum   'Ho6 B2 Rh12 Pb2'
_cell_volume   410.03820137
_cell_formula_units_Z   2
loop_
 _symmetry_equiv_pos_site_id
 _symmetry_equiv_pos_as_xyz
  1  'x, y, z'
loop_
 _atom_site_type_symbol
 _atom_site_label
 _atom_site_symmetry_multiplicity
 _atom_site_fract_x
 _atom_site_fract_y
 _atom_site_fract_z
 _atom_site_occupancy
  Ho  Ho0  1  0.000000  0.000000  0.750000  1
  Ho  Ho1  1  0.000000  0.000000  0.250000  1
  Ho  Ho2  1  0.333333  0.666667  0.412587  1
  Ho  Ho3  1  0.666667  0.333333  0.912587  1
  Ho  Ho4  1  0.666667  0.333333  0.587413  1
  Ho  Ho5  1  0.333333  0.666667  0.087413  1
  B  B6  1  0.000000  0.000000  0.500000  1
  B  B7  1  0.000000  0.000000  0.000000  1
  Rh  Rh8  1  0.342188  0.171095  0.414496  1
  Rh  Rh9  1  0.828905  0.171095  0.414496  1
  Rh  Rh10  1  0.828905  0.657812  0.414496  1
  Rh  Rh11  1  0.171095  0.342188  0.914496  1
  Rh  Rh12  1  0.657812  0.828905  0.585504  1
  Rh  Rh13  1  0.657812  0.828905  0.914496  1
  Rh  Rh14  1  0.342188  0.171095  0.085504  1
  Rh  Rh15  1  0.171095  0.342188  0.585504  1
  Rh  Rh16  1  0.171095  0.828905  0.585504  1
  Rh  Rh17  1  0.828905  0.171095  0.085504  1
  Rh  Rh18  1  0.828905  0.657812  0.085504  1
  Rh  Rh19  1  0.171095  0.828905  0.914496  1
  Pb  Pb20  1  0.333333  0.666667  0.750000  1
  Pb  Pb21  1  0.666667  0.333333  0.250000  1
