# generated using pymatgen
data_Zr4V4ReOs3
_symmetry_space_group_name_H-M   'P 1'
_cell_length_a   5.19842744
_cell_length_b   5.16394686
_cell_length_c   8.66137000
_cell_angle_alpha   90.00000000
_cell_angle_beta   90.00000000
_cell_angle_gamma   119.78083297
_symmetry_Int_Tables_number   1
_chemical_formula_structural   Zr4V4ReOs3
_chemical_formula_sum   'Zr4 V4 Re1 Os3'
_cell_volume   201.80218801
_cell_formula_units_Z   1
loop_
 _symmetry_equiv_pos_site_id
 _symmetry_equiv_pos_as_xyz
  1  'x, y, z'
loop_
 _atom_site_type_symbol
 _atom_site_label
 _atom_site_symmetry_multiplicity
 _atom_site_fract_x
 _atom_site_fract_y
 _atom_site_fract_z
 _atom_site_occupancy
  Zr  Zr0  1  0.333849  0.666925  0.440383  1
  Zr  Zr1  1  0.668533  0.334266  0.560857  1
  Zr  Zr2  1  0.668533  0.334266  0.939143  1
  Zr  Zr3  1  0.333849  0.666925  0.059617  1
  V  V4  1  0.832446  0.168776  0.250000  1
  V  V5  1  0.832446  0.663670  0.250000  1
  V  V6  1  0.165554  0.831222  0.750000  1
  V  V7  1  0.165554  0.334332  0.750000  1
  Re  Re8  1  0.349541  0.174771  0.250000  1
  Os  Os9  1  0.002307  0.001153  0.500145  1
  Os  Os10  1  0.002307  0.001153  0.999855  1
  Os  Os11  1  0.645083  0.822541  0.750000  1
