# generated using pymatgen
data_Zr6Fe7Co16
_symmetry_space_group_name_H-M   'P 1'
_cell_length_a   8.12885703
_cell_length_b   8.11984122
_cell_length_c   8.14694600
_cell_angle_alpha   59.88950705
_cell_angle_beta   59.92635288
_cell_angle_gamma   60.32686292
_symmetry_Int_Tables_number   1
_chemical_formula_structural   Zr6Fe7Co16
_chemical_formula_sum   'Zr6 Fe7 Co16'
_cell_volume   380.63552713
_cell_formula_units_Z   1
loop_
 _symmetry_equiv_pos_site_id
 _symmetry_equiv_pos_as_xyz
  1  'x, y, z'
loop_
 _atom_site_type_symbol
 _atom_site_label
 _atom_site_symmetry_multiplicity
 _atom_site_fract_x
 _atom_site_fract_y
 _atom_site_fract_z
 _atom_site_occupancy
  Zr  Zr0  1  0.711630  0.293858  0.287457  1
  Zr  Zr1  1  0.286234  0.293978  0.709894  1
  Zr  Zr2  1  0.288370  0.706142  0.712543  1
  Zr  Zr3  1  0.713766  0.706022  0.290106  1
  Zr  Zr4  1  0.288370  0.706142  0.292945  1
  Zr  Zr5  1  0.711630  0.293858  0.707055  1
  Fe  Fe6  1  0.000000  0.500000  0.000000  1
  Fe  Fe7  1  0.000000  0.000000  0.500000  1
  Fe  Fe8  1  0.000000  0.000000  0.000000  1
  Fe  Fe9  1  0.500000  0.500000  0.000000  1
  Fe  Fe10  1  0.500000  0.000000  0.500000  1
  Fe  Fe11  1  0.500000  0.000000  0.000000  1
  Fe  Fe12  1  0.000000  0.500000  0.500000  1
  Co  Co13  1  0.123470  0.118833  0.636886  1
  Co  Co14  1  0.673575  0.977282  0.674571  1
  Co  Co15  1  0.361716  0.878203  0.880040  1
  Co  Co16  1  0.024399  0.322422  0.326590  1
  Co  Co17  1  0.975601  0.677578  0.673410  1
  Co  Co18  1  0.325645  0.326399  0.022905  1
  Co  Co19  1  0.674355  0.673601  0.977095  1
  Co  Co20  1  0.638284  0.121797  0.119960  1
  Co  Co21  1  0.674355  0.673601  0.674948  1
  Co  Co22  1  0.876530  0.881167  0.363114  1
  Co  Co23  1  0.123470  0.118833  0.120810  1
  Co  Co24  1  0.882803  0.360802  0.878197  1
  Co  Co25  1  0.876530  0.881167  0.879190  1
  Co  Co26  1  0.325645  0.326399  0.325052  1
  Co  Co27  1  0.117197  0.639198  0.121803  1
  Co  Co28  1  0.326425  0.022718  0.325429  1
