# generated using pymatgen
data_YTh3(HgRh2)2
_symmetry_space_group_name_H-M   'P 1'
_cell_length_a   7.75985258
_cell_length_b   7.75985258
_cell_length_c   3.77800800
_cell_angle_alpha   90.00000000
_cell_angle_beta   90.00000000
_cell_angle_gamma   91.58745459
_symmetry_Int_Tables_number   1
_chemical_formula_structural   YTh3(HgRh2)2
_chemical_formula_sum   'Y1 Th3 Hg2 Rh4'
_cell_volume   227.40661986
_cell_formula_units_Z   1
loop_
 _symmetry_equiv_pos_site_id
 _symmetry_equiv_pos_as_xyz
  1  'x, y, z'
loop_
 _atom_site_type_symbol
 _atom_site_label
 _atom_site_symmetry_multiplicity
 _atom_site_fract_x
 _atom_site_fract_y
 _atom_site_fract_z
 _atom_site_occupancy
  Y  Y0  1  0.328402  0.171599  0.500001  1
  Th  Th1  1  0.829976  0.327348  0.500001  1
  Th  Th2  1  0.172653  0.670025  0.500001  1
  Th  Th3  1  0.669973  0.830028  0.500001  1
  Hg  Hg4  1  0.009802  0.004499  0.000000  1
  Hg  Hg5  1  0.495501  0.490198  0.000000  1
  Rh  Rh6  1  0.639067  0.129516  0.000000  1
  Rh  Rh7  1  0.122424  0.377577  0.000000  1
  Rh  Rh8  1  0.861720  0.638279  0.000000  1
  Rh  Rh9  1  0.370485  0.860932  0.000000  1
