# generated using pymatgen
data_Ho6P13(Ir2Rh3)4
_symmetry_space_group_name_H-M   'P 1'
_cell_length_a   13.31619600
_cell_length_b   13.31619412
_cell_length_c   3.94823900
_cell_angle_alpha   90.00000000
_cell_angle_beta   90.00000000
_cell_angle_gamma   119.99999474
_symmetry_Int_Tables_number   1
_chemical_formula_structural   Ho6P13(Ir2Rh3)4
_chemical_formula_sum   'Ho6 P13 Ir8 Rh12'
_cell_volume   606.30951695
_cell_formula_units_Z   1
loop_
 _symmetry_equiv_pos_site_id
 _symmetry_equiv_pos_as_xyz
  1  'x, y, z'
loop_
 _atom_site_type_symbol
 _atom_site_label
 _atom_site_symmetry_multiplicity
 _atom_site_fract_x
 _atom_site_fract_y
 _atom_site_fract_z
 _atom_site_occupancy
  Ho  Ho0  1  0.528584  0.717183  0.248038  1
  Ho  Ho1  1  0.282817  0.811401  0.248038  1
  Ho  Ho2  1  0.188599  0.471416  0.248038  1
  Ho  Ho3  1  0.471047  0.282761  0.751537  1
  Ho  Ho4  1  0.717239  0.188286  0.751537  1
  Ho  Ho5  1  0.811714  0.528953  0.751537  1
  P  P6  1  0.525719  0.139409  0.250367  1
  P  P7  1  0.860591  0.386312  0.250367  1
  P  P8  1  0.613688  0.474281  0.250367  1
  P  P9  1  0.945332  0.713908  0.255656  1
  P  P10  1  0.286092  0.231425  0.255656  1
  P  P11  1  0.768575  0.054668  0.255656  1
  P  P12  1  0.386814  0.526246  0.749963  1
  P  P13  1  0.473754  0.860566  0.749963  1
  P  P14  1  0.139434  0.613186  0.749963  1
  P  P15  1  0.713808  0.769459  0.745340  1
  P  P16  1  0.230541  0.944349  0.745340  1
  P  P17  1  0.055651  0.286192  0.745340  1
  P  P18  1  0.000000  0.000000  0.000498  1
  Ir  Ir19  1  0.333333  0.666667  0.751662  1
  Ir  Ir20  1  0.919532  0.248905  0.253889  1
  Ir  Ir21  1  0.751095  0.670628  0.253889  1
  Ir  Ir22  1  0.329372  0.080468  0.253889  1
  Ir  Ir23  1  0.438068  0.022150  0.751633  1
  Ir  Ir24  1  0.977850  0.415919  0.751633  1
  Ir  Ir25  1  0.584081  0.561932  0.751633  1
  Ir  Ir26  1  0.666667  0.333333  0.247870  1
  Rh  Rh27  1  0.094623  0.185642  0.247520  1
  Rh  Rh28  1  0.814358  0.908982  0.247520  1
  Rh  Rh29  1  0.091018  0.905377  0.247520  1
  Rh  Rh30  1  0.022604  0.584528  0.248164  1
  Rh  Rh31  1  0.415472  0.438076  0.248164  1
  Rh  Rh32  1  0.561924  0.977396  0.248164  1
  Rh  Rh33  1  0.670604  0.920280  0.745264  1
  Rh  Rh34  1  0.079720  0.750324  0.745264  1
  Rh  Rh35  1  0.249676  0.329396  0.745264  1
  Rh  Rh36  1  0.904455  0.813063  0.752619  1
  Rh  Rh37  1  0.186937  0.091392  0.752619  1
  Rh  Rh38  1  0.908608  0.095545  0.752619  1
