# generated using pymatgen
data_Tb4DyLu3Al4
_symmetry_space_group_name_H-M   'P 1'
_cell_length_a   5.08124800
_cell_length_b   6.53380244
_cell_length_c   9.38871468
_cell_angle_alpha   90.24074100
_cell_angle_beta   90.00000000
_cell_angle_gamma   90.00000000
_symmetry_Int_Tables_number   1
_chemical_formula_structural   Tb4DyLu3Al4
_chemical_formula_sum   'Tb4 Dy1 Lu3 Al4'
_cell_volume   311.70136110
_cell_formula_units_Z   1
loop_
 _symmetry_equiv_pos_site_id
 _symmetry_equiv_pos_as_xyz
  1  'x, y, z'
loop_
 _atom_site_type_symbol
 _atom_site_label
 _atom_site_symmetry_multiplicity
 _atom_site_fract_x
 _atom_site_fract_y
 _atom_site_fract_z
 _atom_site_occupancy
  Tb  Tb0  1  0.250000  0.811184  0.928294  1
  Tb  Tb1  1  0.250000  0.308057  0.571761  1
  Tb  Tb2  1  0.750000  0.189498  0.074327  1
  Tb  Tb3  1  0.750000  0.691488  0.425547  1
  Dy  Dy4  1  0.750000  0.527538  0.787914  1
  Lu  Lu5  1  0.250000  0.972857  0.287888  1
  Lu  Lu6  1  0.250000  0.473502  0.210363  1
  Lu  Lu7  1  0.750000  0.027011  0.712196  1
  Al  Al8  1  0.250000  0.291665  0.897718  1
  Al  Al9  1  0.250000  0.793288  0.601927  1
  Al  Al10  1  0.750000  0.707203  0.103793  1
  Al  Al11  1  0.750000  0.206707  0.398271  1
