# generated using pymatgen
data_Rb(Cu2As)4
_symmetry_space_group_name_H-M   'P 1'
_cell_length_a   7.81825232
_cell_length_b   7.81825770
_cell_length_c   7.81905118
_cell_angle_alpha   93.49769022
_cell_angle_beta   93.53454051
_cell_angle_gamma   151.32172819
_symmetry_Int_Tables_number   1
_chemical_formula_structural   Rb(Cu2As)4
_chemical_formula_sum   'Rb1 Cu8 As4'
_cell_volume   222.21547874
_cell_formula_units_Z   1
loop_
 _symmetry_equiv_pos_site_id
 _symmetry_equiv_pos_as_xyz
  1  'x, y, z'
loop_
 _atom_site_type_symbol
 _atom_site_label
 _atom_site_symmetry_multiplicity
 _atom_site_fract_x
 _atom_site_fract_y
 _atom_site_fract_z
 _atom_site_occupancy
  Rb  Rb0  1  0.000000  0.000000  0.000000  1
  Cu  Cu1  1  0.780386  0.338955  0.119342  1
  Cu  Cu2  1  0.338974  0.219667  0.558641  1
  Cu  Cu3  1  0.012190  0.376334  0.388525  1
  Cu  Cu4  1  0.987810  0.623666  0.611475  1
  Cu  Cu5  1  0.623636  0.012158  0.635795  1
  Cu  Cu6  1  0.661026  0.780333  0.441359  1
  Cu  Cu7  1  0.376364  0.987842  0.364205  1
  Cu  Cu8  1  0.219614  0.661045  0.880658  1
  As  As9  1  0.578591  0.236703  0.815293  1
  As  As10  1  0.421409  0.763297  0.184707  1
  As  As11  1  0.763327  0.578578  0.341906  1
  As  As12  1  0.236673  0.421422  0.658094  1
