# generated using pymatgen
data_Nd3Al4(SiAu)3
_symmetry_space_group_name_H-M   'P 1'
_cell_length_a   14.35791200
_cell_length_b   14.35791163
_cell_length_c   4.38583200
_cell_angle_alpha   90.00000000
_cell_angle_beta   90.00000000
_cell_angle_gamma   162.53718656
_symmetry_Int_Tables_number   1
_chemical_formula_structural   Nd3Al4(SiAu)3
_chemical_formula_sum   'Nd3 Al4 Si3 Au3'
_cell_volume   271.31972699
_cell_formula_units_Z   1
loop_
 _symmetry_equiv_pos_site_id
 _symmetry_equiv_pos_as_xyz
  1  'x, y, z'
loop_
 _atom_site_type_symbol
 _atom_site_label
 _atom_site_symmetry_multiplicity
 _atom_site_fract_x
 _atom_site_fract_y
 _atom_site_fract_z
 _atom_site_occupancy
  Nd  Nd0  1  0.007093  0.992907  0.000000  1
  Nd  Nd1  1  0.689570  0.310430  0.500000  1
  Nd  Nd2  1  0.309161  0.690839  0.500000  1
  Al  Al3  1  0.592808  0.407192  0.000000  1
  Al  Al4  1  0.407814  0.592186  0.000000  1
  Al  Al5  1  0.905460  0.094540  0.500000  1
  Al  Al6  1  0.092643  0.907357  0.500000  1
  Si  Si7  1  0.766241  0.233759  0.000000  1
  Si  Si8  1  0.231462  0.768538  0.000000  1
  Si  Si9  1  0.544411  0.455589  0.500000  1
  Au  Au10  1  0.854898  0.145102  0.000000  1
  Au  Au11  1  0.142032  0.857968  0.000000  1
  Au  Au12  1  0.456407  0.543593  0.500000  1
