# generated using pymatgen
data_La16Cd4Fe2TcPd
_symmetry_space_group_name_H-M   'P 1'
_cell_length_a   10.14367783
_cell_length_b   10.14864740
_cell_length_c   10.14864767
_cell_angle_alpha   59.31738109
_cell_angle_beta   58.68197084
_cell_angle_gamma   58.68197164
_symmetry_Int_Tables_number   1
_chemical_formula_structural   La16Cd4Fe2TcPd
_chemical_formula_sum   'La16 Cd4 Fe2 Tc1 Pd1'
_cell_volume   720.03470760
_cell_formula_units_Z   1
loop_
 _symmetry_equiv_pos_site_id
 _symmetry_equiv_pos_as_xyz
  1  'x, y, z'
loop_
 _atom_site_type_symbol
 _atom_site_label
 _atom_site_symmetry_multiplicity
 _atom_site_fract_x
 _atom_site_fract_y
 _atom_site_fract_z
 _atom_site_occupancy
  La  La0  1  0.328458  0.351493  0.351493  1
  La  La1  1  0.338423  0.355421  0.959235  1
  La  La2  1  0.338423  0.959235  0.355421  1
  La  La3  1  0.956955  0.346886  0.346886  1
  La  La4  1  0.819294  0.189926  0.189926  1
  La  La5  1  0.192726  0.810327  0.810327  1
  La  La6  1  0.194364  0.809596  0.185982  1
  La  La7  1  0.839848  0.186830  0.790374  1
  La  La8  1  0.194364  0.185982  0.809596  1
  La  La9  1  0.839848  0.790374  0.186830  1
  La  La10  1  0.937839  0.561267  0.561267  1
  La  La11  1  0.558806  0.945981  0.945981  1
  La  La12  1  0.569433  0.932901  0.560695  1
  La  La13  1  0.942198  0.556517  0.944394  1
  La  La14  1  0.569433  0.560695  0.932901  1
  La  La15  1  0.942198  0.944394  0.556517  1
  Cd  Cd16  1  0.576850  0.578690  0.578690  1
  Cd  Cd17  1  0.576165  0.578932  0.262516  1
  Cd  Cd18  1  0.576165  0.262516  0.578932  1
  Cd  Cd19  1  0.262153  0.577477  0.577477  1
  Fe  Fe20  1  0.112778  0.141341  0.596999  1
  Fe  Fe21  1  0.112778  0.596999  0.141341  1
  Tc  Tc22  1  0.138226  0.136939  0.136939  1
  Pd  Pd23  1  0.582274  0.139282  0.139282  1
