# generated using pymatgen
data_Ho2Al9ReAu2
_symmetry_space_group_name_H-M   'P 1'
_cell_length_a   7.71146268
_cell_length_b   7.71146171
_cell_length_c   9.52576400
_cell_angle_alpha   90.00000000
_cell_angle_beta   90.00000000
_cell_angle_gamma   119.32865728
_symmetry_Int_Tables_number   1
_chemical_formula_structural   Ho2Al9ReAu2
_chemical_formula_sum   'Ho4 Al18 Re2 Au4'
_cell_volume   493.85823666
_cell_formula_units_Z   2
loop_
 _symmetry_equiv_pos_site_id
 _symmetry_equiv_pos_as_xyz
  1  'x, y, z'
loop_
 _atom_site_type_symbol
 _atom_site_label
 _atom_site_symmetry_multiplicity
 _atom_site_fract_x
 _atom_site_fract_y
 _atom_site_fract_z
 _atom_site_occupancy
  Ho  Ho0  1  0.992017  0.673689  0.250000  1
  Ho  Ho1  1  0.007983  0.326311  0.750000  1
  Ho  Ho2  1  0.673689  0.992017  0.250000  1
  Ho  Ho3  1  0.326311  0.007983  0.750000  1
  Al  Al4  1  0.126587  0.126587  0.250000  1
  Al  Al5  1  0.873413  0.873413  0.750000  1
  Al  Al6  1  0.001258  0.327209  0.080287  1
  Al  Al7  1  0.998742  0.672791  0.919713  1
  Al  Al8  1  0.998742  0.672791  0.580287  1
  Al  Al9  1  0.327209  0.001258  0.419713  1
  Al  Al10  1  0.001258  0.327209  0.419713  1
  Al  Al11  1  0.672791  0.998742  0.580287  1
  Al  Al12  1  0.672791  0.998742  0.919713  1
  Al  Al13  1  0.327209  0.001258  0.080287  1
  Al  Al14  1  0.323986  0.323986  0.554911  1
  Al  Al15  1  0.676014  0.676015  0.445089  1
  Al  Al16  1  0.676014  0.676015  0.054911  1
  Al  Al17  1  0.323986  0.323986  0.945089  1
  Al  Al18  1  0.346918  0.547638  0.250000  1
  Al  Al19  1  0.653082  0.452362  0.750000  1
  Al  Al20  1  0.547638  0.346918  0.250000  1
  Al  Al21  1  0.452362  0.653082  0.750000  1
  Re  Re22  1  0.000000  0.000000  0.000000  1
  Re  Re23  1  0.000000  0.000000  0.500000  1
  Au  Au24  1  0.673782  0.326218  0.000000  1
  Au  Au25  1  0.326218  0.673782  0.000000  1
  Au  Au26  1  0.326218  0.673782  0.500000  1
  Au  Au27  1  0.673782  0.326218  0.500000  1
