# generated using pymatgen
data_Y2GaRh3
_symmetry_space_group_name_H-M   'P 1'
_cell_length_a   5.13778648
_cell_length_b   5.62885765
_cell_length_c   5.62885800
_cell_angle_alpha   59.99999793
_cell_angle_beta   56.78445798
_cell_angle_gamma   56.78446504
_symmetry_Int_Tables_number   1
_chemical_formula_structural   Y2GaRh3
_chemical_formula_sum   'Y2 Ga1 Rh3'
_cell_volume   109.19107343
_cell_formula_units_Z   1
loop_
 _symmetry_equiv_pos_site_id
 _symmetry_equiv_pos_as_xyz
  1  'x, y, z'
loop_
 _atom_site_type_symbol
 _atom_site_label
 _atom_site_symmetry_multiplicity
 _atom_site_fract_x
 _atom_site_fract_y
 _atom_site_fract_z
 _atom_site_occupancy
  Y  Y0  1  0.014812  0.995063  0.995063  1
  Y  Y1  1  0.235188  0.254937  0.254937  1
  Ga  Ga2  1  0.125000  0.625000  0.625000  1
  Rh  Rh3  1  0.625000  0.625000  0.625000  1
  Rh  Rh4  1  0.625000  0.625000  0.125000  1
  Rh  Rh5  1  0.625000  0.125000  0.625000  1
