# generated using pymatgen
data_Ac4PtO7
_symmetry_space_group_name_H-M   'P 1'
_cell_length_a   4.15050930
_cell_length_b   7.27212014
_cell_length_c   7.52127363
_cell_angle_alpha   83.02536100
_cell_angle_beta   74.03726988
_cell_angle_gamma   73.41792315
_symmetry_Int_Tables_number   1
_chemical_formula_structural   Ac4PtO7
_chemical_formula_sum   'Ac4 Pt1 O7'
_cell_volume   208.95674614
_cell_formula_units_Z   1
loop_
 _symmetry_equiv_pos_site_id
 _symmetry_equiv_pos_as_xyz
  1  'x, y, z'
loop_
 _atom_site_type_symbol
 _atom_site_label
 _atom_site_symmetry_multiplicity
 _atom_site_fract_x
 _atom_site_fract_y
 _atom_site_fract_z
 _atom_site_occupancy
  Ac  Ac0  1  0.409724  0.783206  0.387217  1
  Ac  Ac1  1  0.581029  0.219888  0.611736  1
  Ac  Ac2  1  0.740215  0.660846  0.843772  1
  Ac  Ac3  1  0.245127  0.335769  0.159990  1
  Pt  Pt4  1  0.988533  0.995774  0.000090  1
  O  O5  1  0.787710  0.854519  0.560020  1
  O  O6  1  0.198317  0.148631  0.445718  1
  O  O7  1  0.363069  0.565055  0.693823  1
  O  O8  1  0.623111  0.430673  0.310421  1
  O  O9  1  0.475963  0.977657  0.043361  1
  O  O10  1  0.079850  0.711930  0.105206  1
  O  O11  1  0.897050  0.279351  0.895948  1
