# generated using pymatgen
data_Pr3Mg3RuAu2
_symmetry_space_group_name_H-M   'P 1'
_cell_length_a   7.64062100
_cell_length_b   7.64062085
_cell_length_c   4.26800900
_cell_angle_alpha   90.00000000
_cell_angle_beta   90.00000000
_cell_angle_gamma   119.99999633
_symmetry_Int_Tables_number   1
_chemical_formula_structural   Pr3Mg3RuAu2
_chemical_formula_sum   'Pr3 Mg3 Ru1 Au2'
_cell_volume   215.78103966
_cell_formula_units_Z   1
loop_
 _symmetry_equiv_pos_site_id
 _symmetry_equiv_pos_as_xyz
  1  'x, y, z'
loop_
 _atom_site_type_symbol
 _atom_site_label
 _atom_site_symmetry_multiplicity
 _atom_site_fract_x
 _atom_site_fract_y
 _atom_site_fract_z
 _atom_site_occupancy
  Pr  Pr0  1  0.574789  0.977746  0.000000  1
  Pr  Pr1  1  0.022254  0.597043  0.000000  1
  Pr  Pr2  1  0.402957  0.425211  0.000000  1
  Mg  Mg3  1  0.244959  0.999129  0.500000  1
  Mg  Mg4  1  0.000871  0.245830  0.500000  1
  Mg  Mg5  1  0.754170  0.755041  0.500000  1
  Ru  Ru6  1  0.333333  0.666667  0.500000  1
  Au  Au7  1  0.666667  0.333333  0.500000  1
  Au  Au8  1  0.000000  0.000000  0.000000  1
