# generated using pymatgen
data_Nd3Cd2W3O14
_symmetry_space_group_name_H-M   'P 1'
_cell_length_a   7.38083676
_cell_length_b   7.38081155
_cell_length_c   7.38082624
_cell_angle_alpha   117.16668469
_cell_angle_beta   62.83328864
_cell_angle_gamma   117.16663447
_symmetry_Int_Tables_number   1
_chemical_formula_structural   Nd3Cd2W3O14
_chemical_formula_sum   'Nd3 Cd2 W3 O14'
_cell_volume   302.22169617
_cell_formula_units_Z   1
loop_
 _symmetry_equiv_pos_site_id
 _symmetry_equiv_pos_as_xyz
  1  'x, y, z'
loop_
 _atom_site_type_symbol
 _atom_site_label
 _atom_site_symmetry_multiplicity
 _atom_site_fract_x
 _atom_site_fract_y
 _atom_site_fract_z
 _atom_site_occupancy
  Nd  Nd0  1  0.999999  0.500001  0.000001  1
  Nd  Nd1  1  0.499999  0.000001  0.999998  1
  Nd  Nd2  1  0.499998  0.500001  0.499999  1
  Cd  Cd3  1  0.500001  0.500003  0.000000  1
  Cd  Cd4  1  0.000001  0.999999  0.500001  1
  W  W5  1  0.500001  0.000000  0.500000  1
  W  W6  1  0.000000  0.499999  0.500000  1
  W  W7  1  0.000000  0.000000  0.000000  1
  O  O8  1  0.621970  0.378029  0.121970  1
  O  O9  1  0.378029  0.621972  0.878029  1
  O  O10  1  0.078909  0.315798  0.184202  1
  O  O11  1  0.684202  0.921088  0.184202  1
  O  O12  1  0.684205  0.315799  0.578909  1
  O  O13  1  0.921091  0.684201  0.815798  1
  O  O14  1  0.315799  0.078909  0.815799  1
  O  O15  1  0.315796  0.684199  0.421092  1
  O  O16  1  0.633634  0.901908  0.598090  1
  O  O17  1  0.098094  0.366367  0.598094  1
  O  O18  1  0.098091  0.901907  0.133634  1
  O  O19  1  0.366368  0.098091  0.401908  1
  O  O20  1  0.901906  0.633632  0.401906  1
  O  O21  1  0.901908  0.098092  0.866368  1
