# generated using pymatgen
data_Tb8Y4ZnCo4Bi
_symmetry_space_group_name_H-M   'P 1'
_cell_length_a   8.40410362
_cell_length_b   8.40410412
_cell_length_c   8.40410411
_cell_angle_alpha   111.62200638
_cell_angle_beta   109.37150873
_cell_angle_gamma   107.44718053
_symmetry_Int_Tables_number   1
_chemical_formula_structural   Tb8Y4ZnCo4Bi
_chemical_formula_sum   'Tb8 Y4 Zn1 Co4 Bi1'
_cell_volume   456.32408605
_cell_formula_units_Z   1
loop_
 _symmetry_equiv_pos_site_id
 _symmetry_equiv_pos_as_xyz
  1  'x, y, z'
loop_
 _atom_site_type_symbol
 _atom_site_label
 _atom_site_symmetry_multiplicity
 _atom_site_fract_x
 _atom_site_fract_y
 _atom_site_fract_z
 _atom_site_occupancy
  Tb  Tb0  1  0.685485  0.377479  0.691994  1
  Tb  Tb1  1  0.314515  0.622521  0.308006  1
  Tb  Tb2  1  0.685485  0.993490  0.308006  1
  Tb  Tb3  1  0.314515  0.006510  0.691994  1
  Tb  Tb4  1  0.576888  0.783105  0.793784  1
  Tb  Tb5  1  0.423112  0.216895  0.206216  1
  Tb  Tb6  1  0.989322  0.783105  0.206216  1
  Tb  Tb7  1  0.010678  0.216895  0.793784  1
  Y  Y8  1  0.817666  0.712341  0.530007  1
  Y  Y9  1  0.182334  0.287659  0.469993  1
  Y  Y10  1  0.182334  0.712341  0.894677  1
  Y  Y11  1  0.817666  0.287659  0.105323  1
  Zn  Zn12  1  0.000000  0.000000  0.000000  1
  Co  Co13  1  0.623768  0.000000  0.623768  1
  Co  Co14  1  0.376232  0.000000  0.376232  1
  Co  Co15  1  0.111914  0.611914  0.500000  1
  Co  Co16  1  0.888086  0.388086  0.500000  1
  Bi  Bi17  1  0.500000  0.500000  0.000000  1
