# generated using pymatgen
data_ZnFeTeBr2O3
_symmetry_space_group_name_H-M   'P 1'
_cell_length_a   8.02940500
_cell_length_b   10.78828000
_cell_length_c   16.50918700
_cell_angle_alpha   90.00000000
_cell_angle_beta   90.00000000
_cell_angle_gamma   90.00000000
_symmetry_Int_Tables_number   1
_chemical_formula_structural   ZnFeTeBr2O3
_chemical_formula_sum   'Zn8 Fe8 Te8 Br16 O24'
_cell_volume   1430.08305447
_cell_formula_units_Z   8
loop_
 _symmetry_equiv_pos_site_id
 _symmetry_equiv_pos_as_xyz
  1  'x, y, z'
loop_
 _atom_site_type_symbol
 _atom_site_label
 _atom_site_symmetry_multiplicity
 _atom_site_fract_x
 _atom_site_fract_y
 _atom_site_fract_z
 _atom_site_occupancy
  Zn  Zn0  1  0.346855  0.998046  0.603246  1
  Zn  Zn1  1  0.653145  0.498046  0.103246  1
  Zn  Zn2  1  0.153145  0.001954  0.103246  1
  Zn  Zn3  1  0.846855  0.501954  0.603246  1
  Zn  Zn4  1  0.846855  0.998046  0.896754  1
  Zn  Zn5  1  0.346855  0.501954  0.896754  1
  Zn  Zn6  1  0.153145  0.498046  0.396754  1
  Zn  Zn7  1  0.653145  0.001954  0.396754  1
  Fe  Fe8  1  0.603948  0.774438  0.963083  1
  Fe  Fe9  1  0.396052  0.274438  0.463083  1
  Fe  Fe10  1  0.896052  0.274438  0.036917  1
  Fe  Fe11  1  0.603948  0.725562  0.536917  1
  Fe  Fe12  1  0.103948  0.725562  0.963083  1
  Fe  Fe13  1  0.896052  0.225562  0.463083  1
  Fe  Fe14  1  0.103948  0.774438  0.536917  1
  Fe  Fe15  1  0.396052  0.225562  0.036917  1
  Te  Te16  1  0.779459  0.970842  0.595979  1
  Te  Te17  1  0.279459  0.529158  0.595979  1
  Te  Te18  1  0.279459  0.970842  0.904021  1
  Te  Te19  1  0.220541  0.029158  0.404021  1
  Te  Te20  1  0.779459  0.529158  0.904021  1
  Te  Te21  1  0.720541  0.470842  0.404021  1
  Te  Te22  1  0.220541  0.470842  0.095979  1
  Te  Te23  1  0.720541  0.029158  0.095979  1
  Br  Br24  1  0.658202  0.908130  0.800927  1
  Br  Br25  1  0.158202  0.908130  0.699073  1
  Br  Br26  1  0.438900  0.291587  0.880188  1
  Br  Br27  1  0.438900  0.208413  0.619812  1
  Br  Br28  1  0.158202  0.591870  0.800927  1
  Br  Br29  1  0.341798  0.408130  0.300927  1
  Br  Br30  1  0.061100  0.791587  0.119812  1
  Br  Br31  1  0.561100  0.708413  0.119812  1
  Br  Br32  1  0.841798  0.091870  0.300927  1
  Br  Br33  1  0.561100  0.791587  0.380188  1
  Br  Br34  1  0.938900  0.208413  0.880188  1
  Br  Br35  1  0.341798  0.091870  0.199073  1
  Br  Br36  1  0.061100  0.708413  0.380188  1
  Br  Br37  1  0.658202  0.591870  0.699073  1
  Br  Br38  1  0.841798  0.408130  0.199073  1
  Br  Br39  1  0.938900  0.291587  0.619812  1
  O  O40  1  0.208244  0.943639  0.506369  1
  O  O41  1  0.559426  0.593201  0.916207  1
  O  O42  1  0.853714  0.684469  0.943322  1
  O  O43  1  0.291756  0.443639  0.493631  1
  O  O44  1  0.146286  0.184469  0.443322  1
  O  O45  1  0.059426  0.593201  0.583793  1
  O  O46  1  0.440574  0.093201  0.416207  1
  O  O47  1  0.646286  0.315531  0.443322  1
  O  O48  1  0.708244  0.556361  0.506369  1
  O  O49  1  0.208244  0.556361  0.993631  1
  O  O50  1  0.059426  0.906799  0.916207  1
  O  O51  1  0.940574  0.406799  0.416207  1
  O  O52  1  0.291756  0.056361  0.006369  1
  O  O53  1  0.940574  0.093201  0.083793  1
  O  O54  1  0.559426  0.906799  0.583793  1
  O  O55  1  0.646286  0.184469  0.056678  1
  O  O56  1  0.708244  0.943639  0.993631  1
  O  O57  1  0.791756  0.443639  0.006369  1
  O  O58  1  0.353714  0.815531  0.943322  1
  O  O59  1  0.853714  0.815531  0.556678  1
  O  O60  1  0.353714  0.684469  0.556678  1
  O  O61  1  0.791756  0.056361  0.493631  1
  O  O62  1  0.146286  0.315531  0.056678  1
  O  O63  1  0.440574  0.406799  0.083793  1
