# generated using pymatgen
data_Cs2Mg5Sb4
_symmetry_space_group_name_H-M   'P 1'
_cell_length_a   7.74493270
_cell_length_b   7.74493261
_cell_length_c   13.48508300
_cell_angle_alpha   90.00000000
_cell_angle_beta   90.00000000
_cell_angle_gamma   118.33953928
_symmetry_Int_Tables_number   1
_chemical_formula_structural   Cs2Mg5Sb4
_chemical_formula_sum   'Cs4 Mg10 Sb8'
_cell_volume   711.94361338
_cell_formula_units_Z   2
loop_
 _symmetry_equiv_pos_site_id
 _symmetry_equiv_pos_as_xyz
  1  'x, y, z'
loop_
 _atom_site_type_symbol
 _atom_site_label
 _atom_site_symmetry_multiplicity
 _atom_site_fract_x
 _atom_site_fract_y
 _atom_site_fract_z
 _atom_site_occupancy
  Cs  Cs0  1  0.221269  0.778731  0.500000  1
  Cs  Cs1  1  0.221269  0.778731  0.000000  1
  Cs  Cs2  1  0.778731  0.221269  0.500000  1
  Cs  Cs3  1  0.778731  0.221269  0.000000  1
  Mg  Mg4  1  0.527169  0.249518  0.250000  1
  Mg  Mg5  1  0.750482  0.472831  0.750000  1
  Mg  Mg6  1  0.472831  0.750482  0.750000  1
  Mg  Mg7  1  0.249518  0.527169  0.250000  1
  Mg  Mg8  1  0.650967  0.650967  0.388051  1
  Mg  Mg9  1  0.349033  0.349033  0.611949  1
  Mg  Mg10  1  0.650967  0.650967  0.111949  1
  Mg  Mg11  1  0.349033  0.349033  0.888051  1
  Mg  Mg12  1  0.013034  0.013034  0.250000  1
  Mg  Mg13  1  0.986966  0.986966  0.750000  1
  Sb  Sb14  1  0.598386  0.917628  0.250000  1
  Sb  Sb15  1  0.082372  0.401614  0.750000  1
  Sb  Sb16  1  0.401614  0.082372  0.750000  1
  Sb  Sb17  1  0.917628  0.598386  0.250000  1
  Sb  Sb18  1  0.276962  0.276962  0.404436  1
  Sb  Sb19  1  0.723038  0.723038  0.595564  1
  Sb  Sb20  1  0.276962  0.276962  0.095564  1
  Sb  Sb21  1  0.723038  0.723038  0.904436  1
