# generated using pymatgen
data_Gd8Ti3Si16Mo9
_symmetry_space_group_name_H-M   'P 1'
_cell_length_a   6.67698694
_cell_length_b   6.89197427
_cell_length_c   12.99005100
_cell_angle_alpha   90.06451204
_cell_angle_beta   89.93778714
_cell_angle_gamma   90.04268455
_symmetry_Int_Tables_number   1
_chemical_formula_structural   Gd8Ti3Si16Mo9
_chemical_formula_sum   'Gd8 Ti3 Si16 Mo9'
_cell_volume   597.77036261
_cell_formula_units_Z   1
loop_
 _symmetry_equiv_pos_site_id
 _symmetry_equiv_pos_as_xyz
  1  'x, y, z'
loop_
 _atom_site_type_symbol
 _atom_site_label
 _atom_site_symmetry_multiplicity
 _atom_site_fract_x
 _atom_site_fract_y
 _atom_site_fract_z
 _atom_site_occupancy
  Gd  Gd0  1  0.501038  0.330311  0.094508  1
  Gd  Gd1  1  0.999264  0.168240  0.407158  1
  Gd  Gd2  1  0.499252  0.669581  0.593601  1
  Gd  Gd3  1  0.998408  0.830099  0.905592  1
  Gd  Gd4  1  0.499263  0.667069  0.905825  1
  Gd  Gd5  1  0.000671  0.831994  0.594366  1
  Gd  Gd6  1  0.500455  0.333186  0.406778  1
  Gd  Gd7  1  0.999777  0.165862  0.093873  1
  Ti  Ti8  1  0.835212  0.331371  0.625279  1
  Ti  Ti9  1  0.334390  0.168516  0.873664  1
  Ti  Ti10  1  0.164229  0.670046  0.127259  1
  Si  Si11  1  0.660052  0.043516  0.543954  1
  Si  Si12  1  0.157131  0.458348  0.955908  1
  Si  Si13  1  0.343254  0.958017  0.044646  1
  Si  Si14  1  0.841260  0.544101  0.454813  1
  Si  Si15  1  0.341016  0.956719  0.456238  1
  Si  Si16  1  0.838182  0.542201  0.042919  1
  Si  Si17  1  0.661031  0.043787  0.957023  1
  Si  Si18  1  0.161837  0.456772  0.543373  1
  Si  Si19  1  0.535583  0.370441  0.748025  1
  Si  Si20  1  0.036329  0.128856  0.750243  1
  Si  Si21  1  0.465612  0.629875  0.249474  1
  Si  Si22  1  0.963140  0.870573  0.251715  1
  Si  Si23  1  0.798579  0.627231  0.749123  1
  Si  Si24  1  0.300039  0.872618  0.751184  1
  Si  Si25  1  0.200262  0.372203  0.250113  1
  Si  Si26  1  0.697858  0.127780  0.250275  1
  Mo  Mo27  1  0.665421  0.833708  0.373144  1
  Mo  Mo28  1  0.168012  0.668400  0.375492  1
  Mo  Mo29  1  0.672010  0.832187  0.125567  1
  Mo  Mo30  1  0.831141  0.331304  0.874358  1
  Mo  Mo31  1  0.331132  0.166717  0.623536  1
  Mo  Mo32  1  0.662468  0.007033  0.750778  1
  Mo  Mo33  1  0.162582  0.492684  0.750086  1
  Mo  Mo34  1  0.335626  0.992526  0.250332  1
  Mo  Mo35  1  0.838485  0.506125  0.249774  1
