# generated using pymatgen
data_Sc2Os3W
_symmetry_space_group_name_H-M   'P 1'
_cell_length_a   5.35315700
_cell_length_b   5.35315556
_cell_length_c   8.36667900
_cell_angle_alpha   90.00000000
_cell_angle_beta   90.00000000
_cell_angle_gamma   120.00001508
_symmetry_Int_Tables_number   1
_chemical_formula_structural   Sc2Os3W
_chemical_formula_sum   'Sc4 Os6 W2'
_cell_volume   207.63641282
_cell_formula_units_Z   2
loop_
 _symmetry_equiv_pos_site_id
 _symmetry_equiv_pos_as_xyz
  1  'x, y, z'
loop_
 _atom_site_type_symbol
 _atom_site_label
 _atom_site_symmetry_multiplicity
 _atom_site_fract_x
 _atom_site_fract_y
 _atom_site_fract_z
 _atom_site_occupancy
  Sc  Sc0  1  0.333333  0.666667  0.434445  1
  Sc  Sc1  1  0.666667  0.333333  0.565555  1
  Sc  Sc2  1  0.666667  0.333333  0.934445  1
  Sc  Sc3  1  0.333333  0.666667  0.065555  1
  Os  Os4  1  0.173907  0.347813  0.750000  1
  Os  Os5  1  0.173907  0.826093  0.750000  1
  Os  Os6  1  0.347813  0.173907  0.250000  1
  Os  Os7  1  0.826093  0.652187  0.250000  1
  Os  Os8  1  0.652187  0.826093  0.750000  1
  Os  Os9  1  0.826093  0.173907  0.250000  1
  W  W10  1  0.000000  0.000000  0.000000  1
  W  W11  1  0.000000  0.000000  0.500000  1
