# generated using pymatgen
data_Y10Al2CoHg
_symmetry_space_group_name_H-M   'P 1'
_cell_length_a   9.58431619
_cell_length_b   9.58431578
_cell_length_c   9.65278500
_cell_angle_alpha   90.00000000
_cell_angle_beta   90.00000000
_cell_angle_gamma   120.19012111
_symmetry_Int_Tables_number   1
_chemical_formula_structural   Y10Al2CoHg
_chemical_formula_sum   'Y20 Al4 Co2 Hg2'
_cell_volume   766.42613282
_cell_formula_units_Z   2
loop_
 _symmetry_equiv_pos_site_id
 _symmetry_equiv_pos_as_xyz
  1  'x, y, z'
loop_
 _atom_site_type_symbol
 _atom_site_label
 _atom_site_symmetry_multiplicity
 _atom_site_fract_x
 _atom_site_fract_y
 _atom_site_fract_z
 _atom_site_occupancy
  Y  Y0  1  0.998578  0.001422  0.506013  1
  Y  Y1  1  0.998578  0.001422  0.993987  1
  Y  Y2  1  0.543250  0.456750  0.250000  1
  Y  Y3  1  0.540457  0.082949  0.250000  1
  Y  Y4  1  0.917051  0.459543  0.250000  1
  Y  Y5  1  0.458855  0.541145  0.750000  1
  Y  Y6  1  0.460197  0.914258  0.750000  1
  Y  Y7  1  0.085742  0.539803  0.750000  1
  Y  Y8  1  0.208228  0.791772  0.439146  1
  Y  Y9  1  0.209972  0.418971  0.433501  1
  Y  Y10  1  0.581029  0.790028  0.433501  1
  Y  Y11  1  0.789720  0.210280  0.561048  1
  Y  Y12  1  0.792694  0.581936  0.564269  1
  Y  Y13  1  0.418064  0.207306  0.564269  1
  Y  Y14  1  0.789720  0.210280  0.938952  1
  Y  Y15  1  0.792694  0.581936  0.935731  1
  Y  Y16  1  0.418064  0.207306  0.935731  1
  Y  Y17  1  0.208228  0.791772  0.060854  1
  Y  Y18  1  0.209972  0.418971  0.066499  1
  Y  Y19  1  0.581029  0.790028  0.066499  1
  Al  Al20  1  0.890126  0.109874  0.250000  1
  Al  Al21  1  0.889473  0.781976  0.250000  1
  Al  Al22  1  0.218024  0.110527  0.250000  1
  Al  Al23  1  0.117562  0.882438  0.750000  1
  Co  Co24  1  0.331235  0.668765  0.250000  1
  Co  Co25  1  0.666617  0.333383  0.750000  1
  Hg  Hg26  1  0.120643  0.235799  0.750000  1
  Hg  Hg27  1  0.764201  0.879357  0.750000  1
