# generated using pymatgen
data_YbTmCoIr3
_symmetry_space_group_name_H-M   'P 1'
_cell_length_a   5.35892925
_cell_length_b   5.35892974
_cell_length_c   5.14606033
_cell_angle_alpha   58.62192575
_cell_angle_beta   58.62192607
_cell_angle_gamma   59.99998338
_symmetry_Int_Tables_number   1
_chemical_formula_structural   YbTmCoIr3
_chemical_formula_sum   'Yb1 Tm1 Co1 Ir3'
_cell_volume   102.27004701
_cell_formula_units_Z   1
loop_
 _symmetry_equiv_pos_site_id
 _symmetry_equiv_pos_as_xyz
  1  'x, y, z'
loop_
 _atom_site_type_symbol
 _atom_site_label
 _atom_site_symmetry_multiplicity
 _atom_site_fract_x
 _atom_site_fract_y
 _atom_site_fract_z
 _atom_site_occupancy
  Yb  Yb0  1  0.750405  0.750405  0.748785  1
  Tm  Tm1  1  0.499862  0.499862  0.500415  1
  Co  Co2  1  0.125056  0.125056  0.624833  1
  Ir  Ir3  1  0.124593  0.625493  0.125322  1
  Ir  Ir4  1  0.625493  0.124593  0.125322  1
  Ir  Ir5  1  0.124593  0.124593  0.125322  1
