# generated using pymatgen
data_Na5ZrTi2(Cu4As3)4
_symmetry_space_group_name_H-M   'P 1'
_cell_length_a   13.11918502
_cell_length_b   13.11804866
_cell_length_c   3.94951500
_cell_angle_alpha   90.00000000
_cell_angle_beta   90.00000000
_cell_angle_gamma   119.99713841
_symmetry_Int_Tables_number   1
_chemical_formula_structural   Na5ZrTi2(Cu4As3)4
_chemical_formula_sum   'Na5 Zr1 Ti2 Cu16 As12'
_cell_volume   588.65795303
_cell_formula_units_Z   1
loop_
 _symmetry_equiv_pos_site_id
 _symmetry_equiv_pos_as_xyz
  1  'x, y, z'
loop_
 _atom_site_type_symbol
 _atom_site_label
 _atom_site_symmetry_multiplicity
 _atom_site_fract_x
 _atom_site_fract_y
 _atom_site_fract_z
 _atom_site_occupancy
  Na  Na0  1  0.186308  0.185871  0.500000  1
  Na  Na1  1  0.813692  0.999563  0.500000  1
  Na  Na2  1  0.000000  0.815834  0.500000  1
  Na  Na3  1  0.334979  0.668120  0.000000  1
  Na  Na4  1  0.665021  0.333140  0.000000  1
  Zr  Zr5  1  0.000000  0.433999  0.000000  1
  Ti  Ti6  1  0.567309  0.567235  0.000000  1
  Ti  Ti7  1  0.432691  0.999926  0.000000  1
  Cu  Cu8  1  0.720164  0.720257  0.500000  1
  Cu  Cu9  1  0.279836  0.000093  0.500000  1
  Cu  Cu10  1  0.000000  0.276907  0.500000  1
  Cu  Cu11  1  0.184401  0.372125  0.000000  1
  Cu  Cu12  1  0.626218  0.807949  0.000000  1
  Cu  Cu13  1  0.193300  0.820291  0.000000  1
  Cu  Cu14  1  0.806700  0.626991  0.000000  1
  Cu  Cu15  1  0.815599  0.187725  0.000000  1
  Cu  Cu16  1  0.373782  0.181731  0.000000  1
  Cu  Cu17  1  0.360175  0.480333  0.500000  1
  Cu  Cu18  1  0.519371  0.876530  0.500000  1
  Cu  Cu19  1  0.123498  0.643806  0.500000  1
  Cu  Cu20  1  0.876502  0.520307  0.500000  1
  Cu  Cu21  1  0.639825  0.120157  0.500000  1
  Cu  Cu22  1  0.480629  0.357158  0.500000  1
  Cu  Cu23  1  0.000000  0.999554  0.000000  1
  As  As24  1  0.822381  0.823541  0.000000  1
  As  As25  1  0.177619  0.001160  0.000000  1
  As  As26  1  0.000000  0.176557  0.000000  1
  As  As27  1  0.171869  0.486041  0.500000  1
  As  As28  1  0.515931  0.681622  0.500000  1
  As  As29  1  0.318734  0.834224  0.500000  1
  As  As30  1  0.681266  0.515491  0.500000  1
  As  As31  1  0.828131  0.314173  0.500000  1
  As  As32  1  0.484069  0.165693  0.500000  1
  As  As33  1  0.369296  0.367616  0.000000  1
  As  As34  1  0.630704  0.998320  0.000000  1
  As  As35  1  0.000000  0.639960  0.000000  1
