# generated using pymatgen
data_YHoMgB2Rh5
_symmetry_space_group_name_H-M   'P 1'
_cell_length_a   9.64443713
_cell_length_b   9.64443713
_cell_length_c   3.18696500
_cell_angle_alpha   90.00000000
_cell_angle_beta   90.00000000
_cell_angle_gamma   89.81092766
_symmetry_Int_Tables_number   1
_chemical_formula_structural   YHoMgB2Rh5
_chemical_formula_sum   'Y2 Ho2 Mg2 B4 Rh10'
_cell_volume   296.43446931
_cell_formula_units_Z   2
loop_
 _symmetry_equiv_pos_site_id
 _symmetry_equiv_pos_as_xyz
  1  'x, y, z'
loop_
 _atom_site_type_symbol
 _atom_site_label
 _atom_site_symmetry_multiplicity
 _atom_site_fract_x
 _atom_site_fract_y
 _atom_site_fract_z
 _atom_site_occupancy
  Y  Y0  1  0.675804  0.175804  0.000000  1
  Y  Y1  1  0.324196  0.824196  0.000000  1
  Ho  Ho2  1  0.175572  0.324428  0.000000  1
  Ho  Ho3  1  0.824428  0.675572  0.000000  1
  Mg  Mg4  1  0.000000  0.000000  0.000000  1
  Mg  Mg5  1  0.500000  0.500000  0.000000  1
  B  B6  1  0.122409  0.622409  0.000000  1
  B  B7  1  0.877591  0.377591  0.000000  1
  B  B8  1  0.622610  0.877390  0.000000  1
  B  B9  1  0.377390  0.122610  0.000000  1
  Rh  Rh10  1  0.500000  0.000000  0.500000  1
  Rh  Rh11  1  0.000000  0.500000  0.500000  1
  Rh  Rh12  1  0.223853  0.071389  0.500000  1
  Rh  Rh13  1  0.776147  0.928611  0.500000  1
  Rh  Rh14  1  0.069447  0.775363  0.500000  1
  Rh  Rh15  1  0.724637  0.430553  0.500000  1
  Rh  Rh16  1  0.930553  0.224637  0.500000  1
  Rh  Rh17  1  0.275363  0.569447  0.500000  1
  Rh  Rh18  1  0.571389  0.723853  0.500000  1
  Rh  Rh19  1  0.428611  0.276147  0.500000  1
