# generated using pymatgen
data_Er2Ta3B4SbRu10
_symmetry_space_group_name_H-M   'P 1'
_cell_length_a   9.52038593
_cell_length_b   9.57290659
_cell_length_c   3.09287900
_cell_angle_alpha   90.00000000
_cell_angle_beta   90.00000000
_cell_angle_gamma   90.82796821
_symmetry_Int_Tables_number   1
_chemical_formula_structural   Er2Ta3B4SbRu10
_chemical_formula_sum   'Er2 Ta3 B4 Sb1 Ru10'
_cell_volume   281.84864910
_cell_formula_units_Z   1
loop_
 _symmetry_equiv_pos_site_id
 _symmetry_equiv_pos_as_xyz
  1  'x, y, z'
loop_
 _atom_site_type_symbol
 _atom_site_label
 _atom_site_symmetry_multiplicity
 _atom_site_fract_x
 _atom_site_fract_y
 _atom_site_fract_z
 _atom_site_occupancy
  Er  Er0  1  0.822532  0.674859  0.000000  1
  Er  Er1  1  0.177468  0.325141  0.000000  1
  Ta  Ta2  1  0.321176  0.827583  0.000000  1
  Ta  Ta3  1  0.678824  0.172417  0.000000  1
  Ta  Ta4  1  0.000000  0.000000  0.000000  1
  B  B5  1  0.619862  0.879188  0.000000  1
  B  B6  1  0.380138  0.120812  0.000000  1
  B  B7  1  0.120817  0.621671  0.000000  1
  B  B8  1  0.879183  0.378329  0.000000  1
  Sb  Sb9  1  0.500000  0.500000  0.000000  1
  Ru  Ru10  1  0.557242  0.726331  0.500000  1
  Ru  Ru11  1  0.442758  0.273669  0.500000  1
  Ru  Ru12  1  0.078615  0.785779  0.500000  1
  Ru  Ru13  1  0.921385  0.214221  0.500000  1
  Ru  Ru14  1  0.284190  0.587139  0.500000  1
  Ru  Ru15  1  0.715810  0.412861  0.500000  1
  Ru  Ru16  1  0.222842  0.060551  0.500000  1
  Ru  Ru17  1  0.777158  0.939449  0.500000  1
  Ru  Ru18  1  0.500000  0.000000  0.500000  1
  Ru  Ru19  1  0.000000  0.500000  0.500000  1
