# generated using pymatgen
data_PrNd2Mg3Ir2Pd
_symmetry_space_group_name_H-M   'P 1'
_cell_length_a   7.54906300
_cell_length_b   7.55246583
_cell_length_c   4.09968800
_cell_angle_alpha   90.00000000
_cell_angle_beta   90.00000000
_cell_angle_gamma   119.98510113
_symmetry_Int_Tables_number   1
_chemical_formula_structural   PrNd2Mg3Ir2Pd
_chemical_formula_sum   'Pr1 Nd2 Mg3 Ir2 Pd1'
_cell_volume   202.45496819
_cell_formula_units_Z   1
loop_
 _symmetry_equiv_pos_site_id
 _symmetry_equiv_pos_as_xyz
  1  'x, y, z'
loop_
 _atom_site_type_symbol
 _atom_site_label
 _atom_site_symmetry_multiplicity
 _atom_site_fract_x
 _atom_site_fract_y
 _atom_site_fract_z
 _atom_site_occupancy
  Pr  Pr0  1  0.582041  0.000000  0.000000  1
  Nd  Nd1  1  0.000024  0.582490  0.000000  1
  Nd  Nd2  1  0.417535  0.417510  0.000000  1
  Mg  Mg3  1  0.245008  0.000000  0.500000  1
  Mg  Mg4  1  0.000418  0.245719  0.500000  1
  Mg  Mg5  1  0.754699  0.754281  0.500000  1
  Ir  Ir6  1  0.332801  0.665754  0.500000  1
  Ir  Ir7  1  0.667047  0.334246  0.500000  1
  Pd  Pd8  1  0.000427  0.000000  0.000000  1
