# generated using pymatgen
data_Tb12Th4Mg3HgRu4
_symmetry_space_group_name_H-M   'P 1'
_cell_length_a   9.75315493
_cell_length_b   9.75315566
_cell_length_c   9.75315453
_cell_angle_alpha   60.14383693
_cell_angle_beta   60.14383735
_cell_angle_gamma   60.14383478
_symmetry_Int_Tables_number   1
_chemical_formula_structural   Tb12Th4Mg3HgRu4
_chemical_formula_sum   'Tb12 Th4 Mg3 Hg1 Ru4'
_cell_volume   658.16242883
_cell_formula_units_Z   1
loop_
 _symmetry_equiv_pos_site_id
 _symmetry_equiv_pos_as_xyz
  1  'x, y, z'
loop_
 _atom_site_type_symbol
 _atom_site_label
 _atom_site_symmetry_multiplicity
 _atom_site_fract_x
 _atom_site_fract_y
 _atom_site_fract_z
 _atom_site_occupancy
  Tb  Tb0  1  0.061994  0.437341  0.437341  1
  Tb  Tb1  1  0.437238  0.061803  0.061803  1
  Tb  Tb2  1  0.437341  0.061994  0.437341  1
  Tb  Tb3  1  0.061803  0.437238  0.061803  1
  Tb  Tb4  1  0.437341  0.437341  0.061994  1
  Tb  Tb5  1  0.061803  0.061803  0.437238  1
  Tb  Tb6  1  0.183380  0.813539  0.813539  1
  Tb  Tb7  1  0.812107  0.186359  0.186359  1
  Tb  Tb8  1  0.813539  0.183380  0.813539  1
  Tb  Tb9  1  0.186359  0.812107  0.186359  1
  Tb  Tb10  1  0.813539  0.813539  0.183380  1
  Tb  Tb11  1  0.186359  0.186359  0.812107  1
  Th  Th12  1  0.595503  0.595503  0.595503  1
  Th  Th13  1  0.596952  0.596952  0.209893  1
  Th  Th14  1  0.596952  0.209893  0.596952  1
  Th  Th15  1  0.209893  0.596952  0.596952  1
  Mg  Mg16  1  0.829594  0.829594  0.513926  1
  Mg  Mg17  1  0.829594  0.513926  0.829594  1
  Mg  Mg18  1  0.513926  0.829594  0.829594  1
  Hg  Hg19  1  0.833475  0.833475  0.833475  1
  Ru  Ru20  1  0.393087  0.393087  0.393087  1
  Ru  Ru21  1  0.395018  0.395018  0.818190  1
  Ru  Ru22  1  0.395018  0.818190  0.395018  1
  Ru  Ru23  1  0.818190  0.395018  0.395018  1
