# generated using pymatgen
data_Tb10Bi3Pb3S2
_symmetry_space_group_name_H-M   'P 1'
_cell_length_a   9.22119200
_cell_length_b   9.22119068
_cell_length_c   6.63172500
_cell_angle_alpha   90.00000000
_cell_angle_beta   90.00000000
_cell_angle_gamma   120.00000474
_symmetry_Int_Tables_number   1
_chemical_formula_structural   Tb10Bi3Pb3S2
_chemical_formula_sum   'Tb10 Bi3 Pb3 S2'
_cell_volume   488.34999463
_cell_formula_units_Z   1
loop_
 _symmetry_equiv_pos_site_id
 _symmetry_equiv_pos_as_xyz
  1  'x, y, z'
loop_
 _atom_site_type_symbol
 _atom_site_label
 _atom_site_symmetry_multiplicity
 _atom_site_fract_x
 _atom_site_fract_y
 _atom_site_fract_z
 _atom_site_occupancy
  Tb  Tb0  1  0.756793  0.756793  0.750000  1
  Tb  Tb1  1  0.243207  0.000000  0.750000  1
  Tb  Tb2  1  0.000000  0.243207  0.750000  1
  Tb  Tb3  1  0.243878  0.243878  0.250000  1
  Tb  Tb4  1  0.756122  0.000000  0.250000  1
  Tb  Tb5  1  0.000000  0.756122  0.250000  1
  Tb  Tb6  1  0.666667  0.333333  0.002108  1
  Tb  Tb7  1  0.333333  0.666667  0.002108  1
  Tb  Tb8  1  0.333333  0.666667  0.497892  1
  Tb  Tb9  1  0.666667  0.333333  0.497892  1
  Bi  Bi10  1  0.397090  0.397090  0.750000  1
  Bi  Bi11  1  0.602910  0.000000  0.750000  1
  Bi  Bi12  1  0.000000  0.602910  0.750000  1
  Pb  Pb13  1  0.604266  0.604266  0.250000  1
  Pb  Pb14  1  0.395734  0.000000  0.250000  1
  Pb  Pb15  1  0.000000  0.395734  0.250000  1
  S  S16  1  0.000000  0.000000  0.999589  1
  S  S17  1  0.000000  0.000000  0.500411  1
