# generated using pymatgen
data_DyHg4Se2Br5
_symmetry_space_group_name_H-M   'P 1'
_cell_length_a   8.64715342
_cell_length_b   11.03997900
_cell_length_c   9.40802590
_cell_angle_alpha   90.00000000
_cell_angle_beta   113.57040624
_cell_angle_gamma   90.00000000
_symmetry_Int_Tables_number   1
_chemical_formula_structural   DyHg4Se2Br5
_chemical_formula_sum   'Dy2 Hg8 Se4 Br10'
_cell_volume   823.19981793
_cell_formula_units_Z   2
loop_
 _symmetry_equiv_pos_site_id
 _symmetry_equiv_pos_as_xyz
  1  'x, y, z'
loop_
 _atom_site_type_symbol
 _atom_site_label
 _atom_site_symmetry_multiplicity
 _atom_site_fract_x
 _atom_site_fract_y
 _atom_site_fract_z
 _atom_site_occupancy
  Dy  Dy0  1  0.503148  0.432111  0.508730  1
  Dy  Dy1  1  0.496852  0.932111  0.491270  1
  Hg  Hg2  1  0.926523  0.185716  0.333047  1
  Hg  Hg3  1  0.073477  0.685716  0.666953  1
  Hg  Hg4  1  0.952018  0.664551  0.361709  1
  Hg  Hg5  1  0.047982  0.164551  0.638291  1
  Hg  Hg6  1  0.497248  0.181927  0.987454  1
  Hg  Hg7  1  0.502752  0.681927  0.012546  1
  Hg  Hg8  1  0.801048  0.432408  0.015510  1
  Hg  Hg9  1  0.198952  0.932408  0.984490  1
  Se  Se10  1  0.804762  0.199532  0.027579  1
  Se  Se11  1  0.195238  0.699532  0.972421  1
  Se  Se12  1  0.189079  0.163149  0.943395  1
  Se  Se13  1  0.810921  0.663149  0.056605  1
  Br  Br14  1  0.838462  0.924624  0.683909  1
  Br  Br15  1  0.161538  0.424624  0.316091  1
  Br  Br16  1  0.848033  0.438669  0.709336  1
  Br  Br17  1  0.151967  0.938669  0.290664  1
  Br  Br18  1  0.407564  0.458101  0.761584  1
  Br  Br19  1  0.592436  0.958101  0.238416  1
  Br  Br20  1  0.592866  0.392308  0.261277  1
  Br  Br21  1  0.407134  0.892308  0.738723  1
  Br  Br22  1  0.496478  0.180505  0.563609  1
  Br  Br23  1  0.503522  0.680505  0.436391  1
