# generated using pymatgen
data_Tb5Co19(SiP3)3
_symmetry_space_group_name_H-M   'P 1'
_cell_length_a   12.06124400
_cell_length_b   12.06124339
_cell_length_c   3.69504800
_cell_angle_alpha   90.00000000
_cell_angle_beta   90.00000000
_cell_angle_gamma   120.00000168
_symmetry_Int_Tables_number   1
_chemical_formula_structural   Tb5Co19(SiP3)3
_chemical_formula_sum   'Tb5 Co19 Si3 P9'
_cell_volume   465.51630124
_cell_formula_units_Z   1
loop_
 _symmetry_equiv_pos_site_id
 _symmetry_equiv_pos_as_xyz
  1  'x, y, z'
loop_
 _atom_site_type_symbol
 _atom_site_label
 _atom_site_symmetry_multiplicity
 _atom_site_fract_x
 _atom_site_fract_y
 _atom_site_fract_z
 _atom_site_occupancy
  Tb  Tb0  1  0.333333  0.666667  0.000000  1
  Tb  Tb1  1  0.666667  0.333333  0.000000  1
  Tb  Tb2  1  0.185063  0.000000  0.500000  1
  Tb  Tb3  1  0.000000  0.185063  0.500000  1
  Tb  Tb4  1  0.814937  0.814937  0.500000  1
  Co  Co5  1  0.202895  0.378043  0.000000  1
  Co  Co6  1  0.621957  0.824852  0.000000  1
  Co  Co7  1  0.175148  0.797105  0.000000  1
  Co  Co8  1  0.824852  0.621957  0.000000  1
  Co  Co9  1  0.797105  0.175148  0.000000  1
  Co  Co10  1  0.378043  0.202895  0.000000  1
  Co  Co11  1  0.556766  0.000000  0.000000  1
  Co  Co12  1  0.000000  0.556766  0.000000  1
  Co  Co13  1  0.443234  0.443234  0.000000  1
  Co  Co14  1  0.126740  0.485179  0.500000  1
  Co  Co15  1  0.514821  0.641561  0.500000  1
  Co  Co16  1  0.358439  0.873260  0.500000  1
  Co  Co17  1  0.641561  0.514821  0.500000  1
  Co  Co18  1  0.873260  0.358439  0.500000  1
  Co  Co19  1  0.485179  0.126740  0.500000  1
  Co  Co20  1  0.715327  0.000000  0.500000  1
  Co  Co21  1  0.000000  0.715327  0.500000  1
  Co  Co22  1  0.284673  0.284673  0.500000  1
  Co  Co23  1  0.000000  0.000000  0.000000  1
  Si  Si24  1  0.369629  0.000000  0.000000  1
  Si  Si25  1  0.000000  0.369629  0.000000  1
  Si  Si26  1  0.630371  0.630371  0.000000  1
  P  P27  1  0.313724  0.479301  0.500000  1
  P  P28  1  0.520699  0.834424  0.500000  1
  P  P29  1  0.165576  0.686276  0.500000  1
  P  P30  1  0.834424  0.520699  0.500000  1
  P  P31  1  0.686276  0.165576  0.500000  1
  P  P32  1  0.479301  0.313724  0.500000  1
  P  P33  1  0.817534  0.000000  0.000000  1
  P  P34  1  0.000000  0.817534  0.000000  1
  P  P35  1  0.182466  0.182466  0.000000  1
