# generated using pymatgen
data_DyTiF7
_symmetry_space_group_name_H-M   'P 1'
_cell_length_a   5.54778800
_cell_length_b   8.82422644
_cell_length_c   11.86189611
_cell_angle_alpha   62.53059160
_cell_angle_beta   90.00000000
_cell_angle_gamma   90.00000000
_symmetry_Int_Tables_number   1
_chemical_formula_structural   DyTiF7
_chemical_formula_sum   'Dy4 Ti4 F28'
_cell_volume   515.22884797
_cell_formula_units_Z   4
loop_
 _symmetry_equiv_pos_site_id
 _symmetry_equiv_pos_as_xyz
  1  'x, y, z'
loop_
 _atom_site_type_symbol
 _atom_site_label
 _atom_site_symmetry_multiplicity
 _atom_site_fract_x
 _atom_site_fract_y
 _atom_site_fract_z
 _atom_site_occupancy
  Dy  Dy0  1  0.758645  0.811283  0.265776  1
  Dy  Dy1  1  0.258645  0.188717  0.234224  1
  Dy  Dy2  1  0.241355  0.188717  0.734224  1
  Dy  Dy3  1  0.741355  0.811283  0.765776  1
  Ti  Ti4  1  0.243435  0.725957  0.544181  1
  Ti  Ti5  1  0.743435  0.274043  0.955819  1
  Ti  Ti6  1  0.756565  0.274043  0.455819  1
  Ti  Ti7  1  0.256565  0.725957  0.044181  1
  F  F8  1  0.959635  0.718704  0.456215  1
  F  F9  1  0.459635  0.281296  0.043785  1
  F  F10  1  0.040365  0.281296  0.543785  1
  F  F11  1  0.540365  0.718704  0.956215  1
  F  F12  1  0.054196  0.708876  0.923768  1
  F  F13  1  0.554196  0.291124  0.576232  1
  F  F14  1  0.945804  0.291124  0.076232  1
  F  F15  1  0.445804  0.708876  0.423768  1
  F  F16  1  0.730407  0.514853  0.861555  1
  F  F17  1  0.230407  0.485147  0.638445  1
  F  F18  1  0.269593  0.485147  0.138445  1
  F  F19  1  0.769593  0.514853  0.361555  1
  F  F20  1  0.741357  0.035364  0.050739  1
  F  F21  1  0.241357  0.964636  0.449261  1
  F  F22  1  0.258643  0.964636  0.949261  1
  F  F23  1  0.758643  0.035364  0.550739  1
  F  F24  1  0.045501  0.744626  0.669239  1
  F  F25  1  0.545501  0.255374  0.830761  1
  F  F26  1  0.954499  0.255374  0.330761  1
  F  F27  1  0.454499  0.744626  0.169239  1
  F  F28  1  0.014183  0.269285  0.860641  1
  F  F29  1  0.514183  0.730715  0.639359  1
  F  F30  1  0.985817  0.730715  0.139359  1
  F  F31  1  0.485817  0.269285  0.360641  1
  F  F32  1  0.082390  0.970753  0.231197  1
  F  F33  1  0.582390  0.029247  0.268803  1
  F  F34  1  0.917610  0.029247  0.768803  1
  F  F35  1  0.417610  0.970753  0.731197  1
