# generated using pymatgen
data_LaEu15(InRh)4
_symmetry_space_group_name_H-M   'P 1'
_cell_length_a   10.16496919
_cell_length_b   10.15381291
_cell_length_c   10.15381300
_cell_angle_alpha   60.00000298
_cell_angle_beta   60.03630208
_cell_angle_gamma   60.03629775
_symmetry_Int_Tables_number   1
_chemical_formula_structural   LaEu15(InRh)4
_chemical_formula_sum   'La1 Eu15 In4 Rh4'
_cell_volume   741.45955245
_cell_formula_units_Z   1
loop_
 _symmetry_equiv_pos_site_id
 _symmetry_equiv_pos_as_xyz
  1  'x, y, z'
loop_
 _atom_site_type_symbol
 _atom_site_label
 _atom_site_symmetry_multiplicity
 _atom_site_fract_x
 _atom_site_fract_y
 _atom_site_fract_z
 _atom_site_occupancy
  La  La0  1  0.533315  0.155562  0.155562  1
  Eu  Eu1  1  0.696445  0.305611  0.305611  1
  Eu  Eu2  1  0.696445  0.692334  0.305611  1
  Eu  Eu3  1  0.305451  0.693604  0.307340  1
  Eu  Eu4  1  0.940336  0.943706  0.557979  1
  Eu  Eu5  1  0.151131  0.154159  0.540550  1
  Eu  Eu6  1  0.554368  0.944047  0.557539  1
  Eu  Eu7  1  0.151131  0.154159  0.154159  1
  Eu  Eu8  1  0.305451  0.307340  0.693604  1
  Eu  Eu9  1  0.940336  0.557979  0.557979  1
  Eu  Eu10  1  0.554368  0.557539  0.944047  1
  Eu  Eu11  1  0.554368  0.944047  0.944047  1
  Eu  Eu12  1  0.940336  0.557979  0.943706  1
  Eu  Eu13  1  0.151131  0.540550  0.154159  1
  Eu  Eu14  1  0.305451  0.693604  0.693604  1
  Eu  Eu15  1  0.696445  0.305611  0.692334  1
  In  In16  1  0.919021  0.921065  0.238851  1
  In  In17  1  0.233430  0.922190  0.922190  1
  In  In18  1  0.919021  0.238851  0.921065  1
  In  In19  1  0.919021  0.921065  0.921065  1
  Rh  Rh20  1  0.372293  0.353017  0.353017  1
  Rh  Rh21  1  0.916118  0.361294  0.361294  1
  Rh  Rh22  1  0.372293  0.353017  0.921674  1
  Rh  Rh23  1  0.372293  0.921674  0.353017  1
