# generated using pymatgen
data_Rb5La(MoH9)3
_symmetry_space_group_name_H-M   'P 1'
_cell_length_a   9.97379118
_cell_length_b   9.71388336
_cell_length_c   5.57087200
_cell_angle_alpha   90.00000000
_cell_angle_beta   90.00000000
_cell_angle_gamma   119.14166537
_symmetry_Int_Tables_number   1
_chemical_formula_structural   Rb5La(MoH9)3
_chemical_formula_sum   'Rb5 La1 Mo3 H27'
_cell_volume   471.40983345
_cell_formula_units_Z   1
loop_
 _symmetry_equiv_pos_site_id
 _symmetry_equiv_pos_as_xyz
  1  'x, y, z'
loop_
 _atom_site_type_symbol
 _atom_site_label
 _atom_site_symmetry_multiplicity
 _atom_site_fract_x
 _atom_site_fract_y
 _atom_site_fract_z
 _atom_site_occupancy
  Rb  Rb0  1  0.737216  0.740252  0.500000  1
  Rb  Rb1  1  0.262784  0.003036  0.500000  1
  Rb  Rb2  1  0.000000  0.601186  0.000000  1
  Rb  Rb3  1  0.416474  0.401569  0.000000  1
  Rb  Rb4  1  0.583526  0.985095  0.000000  1
  La  La5  1  0.000000  0.264008  0.500000  1
  Mo  Mo6  1  0.690458  0.321634  0.500000  1
  Mo  Mo7  1  0.309542  0.631177  0.500000  1
  Mo  Mo8  1  0.000000  0.041191  0.000000  1
  H  H9  1  0.807176  0.293792  0.719946  1
  H  H10  1  0.709131  0.464199  0.710596  1
  H  H11  1  0.543490  0.215068  0.709032  1
  H  H12  1  0.192824  0.486617  0.280054  1
  H  H13  1  0.543490  0.215068  0.290968  1
  H  H14  1  0.807176  0.293792  0.280054  1
  H  H15  1  0.709131  0.464199  0.289404  1
  H  H16  1  0.290869  0.755069  0.710596  1
  H  H17  1  0.456510  0.671580  0.709032  1
  H  H18  1  0.170107  0.036552  0.000000  1
  H  H19  1  0.829893  0.866445  0.000000  1
  H  H20  1  0.000000  0.226562  0.000000  1
  H  H21  1  0.875493  0.034419  0.235343  1
  H  H22  1  0.124507  0.158926  0.764657  1
  H  H23  1  0.000000  0.904593  0.796679  1
  H  H24  1  0.000000  0.904593  0.203321  1
  H  H25  1  0.124507  0.158926  0.235343  1
  H  H26  1  0.875493  0.034419  0.764657  1
  H  H27  1  0.126970  0.618120  0.500000  1
  H  H28  1  0.451494  0.827386  0.500000  1
  H  H29  1  0.355394  0.477805  0.500000  1
  H  H30  1  0.548506  0.375892  0.500000  1
  H  H31  1  0.873030  0.491150  0.500000  1
  H  H32  1  0.644606  0.122411  0.500000  1
  H  H33  1  0.192824  0.486617  0.719946  1
  H  H34  1  0.290869  0.755069  0.289404  1
  H  H35  1  0.456510  0.671580  0.290968  1
