# generated using pymatgen
data_Dy8MgSc11Sn16
_symmetry_space_group_name_H-M   'P 1'
_cell_length_a   7.65675096
_cell_length_b   7.95856318
_cell_length_c   14.86934200
_cell_angle_alpha   90.00000000
_cell_angle_beta   90.00000000
_cell_angle_gamma   89.84573369
_symmetry_Int_Tables_number   1
_chemical_formula_structural   Dy8MgSc11Sn16
_chemical_formula_sum   'Dy8 Mg1 Sc11 Sn16'
_cell_volume   906.08588873
_cell_formula_units_Z   1
loop_
 _symmetry_equiv_pos_site_id
 _symmetry_equiv_pos_as_xyz
  1  'x, y, z'
loop_
 _atom_site_type_symbol
 _atom_site_label
 _atom_site_symmetry_multiplicity
 _atom_site_fract_x
 _atom_site_fract_y
 _atom_site_fract_z
 _atom_site_occupancy
  Dy  Dy0  1  0.995315  0.176117  0.094292  1
  Dy  Dy1  1  0.005803  0.821461  0.906127  1
  Dy  Dy2  1  0.502844  0.676842  0.906420  1
  Dy  Dy3  1  0.005803  0.821461  0.593873  1
  Dy  Dy4  1  0.494995  0.322354  0.094525  1
  Dy  Dy5  1  0.995315  0.176117  0.405708  1
  Dy  Dy6  1  0.494995  0.322354  0.405475  1
  Dy  Dy7  1  0.502844  0.676842  0.593580  1
  Mg  Mg8  1  0.163518  0.497511  0.750000  1
  Sc  Sc9  1  0.835233  0.504086  0.250000  1
  Sc  Sc10  1  0.334728  0.997116  0.250000  1
  Sc  Sc11  1  0.664962  0.003308  0.750000  1
  Sc  Sc12  1  0.335356  0.163440  0.626624  1
  Sc  Sc13  1  0.665010  0.839177  0.372866  1
  Sc  Sc14  1  0.163689  0.662622  0.372274  1
  Sc  Sc15  1  0.665010  0.839177  0.127134  1
  Sc  Sc16  1  0.837667  0.338248  0.626607  1
  Sc  Sc17  1  0.335356  0.163440  0.873376  1
  Sc  Sc18  1  0.837667  0.338248  0.873393  1
  Sc  Sc19  1  0.163689  0.662622  0.127726  1
  Sn  Sn20  1  0.028350  0.117348  0.750000  1
  Sn  Sn21  1  0.972645  0.875876  0.250000  1
  Sn  Sn22  1  0.473304  0.624855  0.250000  1
  Sn  Sn23  1  0.530208  0.375760  0.750000  1
  Sn  Sn24  1  0.308449  0.856312  0.750000  1
  Sn  Sn25  1  0.692470  0.150023  0.250000  1
  Sn  Sn26  1  0.192725  0.350508  0.250000  1
  Sn  Sn27  1  0.799485  0.649790  0.750000  1
  Sn  Sn28  1  0.180634  0.456454  0.540047  1
  Sn  Sn29  1  0.820594  0.542470  0.458113  1
  Sn  Sn30  1  0.319633  0.957687  0.457342  1
  Sn  Sn31  1  0.820594  0.542470  0.041887  1
  Sn  Sn32  1  0.680423  0.041883  0.543130  1
  Sn  Sn33  1  0.180634  0.456454  0.959953  1
  Sn  Sn34  1  0.680423  0.041883  0.956870  1
  Sn  Sn35  1  0.319633  0.957687  0.042658  1
