# generated using pymatgen
data_Tb6U2Re3TcB24
_symmetry_space_group_name_H-M   'P 1'
_cell_length_a   3.69368900
_cell_length_b   9.22447422
_cell_length_c   11.48012506
_cell_angle_alpha   89.46040732
_cell_angle_beta   90.00000000
_cell_angle_gamma   90.00000000
_symmetry_Int_Tables_number   1
_chemical_formula_structural   Tb6U2Re3TcB24
_chemical_formula_sum   'Tb6 U2 Re3 Tc1 B24'
_cell_volume   391.13736608
_cell_formula_units_Z   1
loop_
 _symmetry_equiv_pos_site_id
 _symmetry_equiv_pos_as_xyz
  1  'x, y, z'
loop_
 _atom_site_type_symbol
 _atom_site_label
 _atom_site_symmetry_multiplicity
 _atom_site_fract_x
 _atom_site_fract_y
 _atom_site_fract_z
 _atom_site_occupancy
  Tb  Tb0  1  0.000000  0.325886  0.411788  1
  Tb  Tb1  1  0.000000  0.674351  0.588056  1
  Tb  Tb2  1  0.000000  0.834640  0.089393  1
  Tb  Tb3  1  0.000000  0.165875  0.910548  1
  Tb  Tb4  1  0.000000  0.944418  0.371505  1
  Tb  Tb5  1  0.000000  0.054780  0.628279  1
  U  U6  1  0.000000  0.454506  0.105929  1
  U  U7  1  0.000000  0.545745  0.894568  1
  Re  Re8  1  0.000000  0.363904  0.686006  1
  Re  Re9  1  0.000000  0.149329  0.176326  1
  Re  Re10  1  0.000000  0.850555  0.823732  1
  Tc  Tc11  1  0.000000  0.636234  0.313758  1
  B  B12  1  0.500000  0.553946  0.431430  1
  B  B13  1  0.500000  0.446243  0.568258  1
  B  B14  1  0.500000  0.052824  0.067604  1
  B  B15  1  0.500000  0.947365  0.932401  1
  B  B16  1  0.500000  0.747299  0.418400  1
  B  B17  1  0.500000  0.252390  0.581425  1
  B  B18  1  0.500000  0.245856  0.079465  1
  B  B19  1  0.500000  0.754429  0.920689  1
  B  B20  1  0.500000  0.795548  0.267927  1
  B  B21  1  0.500000  0.204187  0.731982  1
  B  B22  1  0.500000  0.297756  0.229561  1
  B  B23  1  0.500000  0.702270  0.770661  1
  B  B24  1  0.500000  0.637166  0.186617  1
  B  B25  1  0.500000  0.362834  0.813414  1
  B  B26  1  0.500000  0.136223  0.313338  1
  B  B27  1  0.500000  0.863591  0.686701  1
  B  B28  1  0.500000  0.988027  0.213385  1
  B  B29  1  0.500000  0.011920  0.786531  1
  B  B30  1  0.500000  0.484464  0.281984  1
  B  B31  1  0.500000  0.515524  0.718098  1
  B  B32  1  0.500000  0.631997  0.035999  1
  B  B33  1  0.500000  0.368409  0.964271  1
  B  B34  1  0.500000  0.109815  0.469890  1
  B  B35  1  0.500000  0.889692  0.530082  1
