# generated using pymatgen
data_PrNd5Zn4Pd12Rh
_symmetry_space_group_name_H-M   'P 1'
_cell_length_a   8.37615303
_cell_length_b   8.37615339
_cell_length_c   8.37615404
_cell_angle_alpha   109.46579716
_cell_angle_beta   109.46579868
_cell_angle_gamma   109.48206360
_symmetry_Int_Tables_number   1
_chemical_formula_structural   PrNd5Zn4Pd12Rh
_chemical_formula_sum   'Pr1 Nd5 Zn4 Pd12 Rh1'
_cell_volume   452.38895591
_cell_formula_units_Z   1
loop_
 _symmetry_equiv_pos_site_id
 _symmetry_equiv_pos_as_xyz
  1  'x, y, z'
loop_
 _atom_site_type_symbol
 _atom_site_label
 _atom_site_symmetry_multiplicity
 _atom_site_fract_x
 _atom_site_fract_y
 _atom_site_fract_z
 _atom_site_occupancy
  Pr  Pr0  1  0.702514  0.702514  0.000000  1
  Nd  Nd1  1  0.298090  0.000077  0.298013  1
  Nd  Nd2  1  0.000077  0.298090  0.298013  1
  Nd  Nd3  1  0.297716  0.297716  0.000000  1
  Nd  Nd4  1  0.702064  0.000077  0.701987  1
  Nd  Nd5  1  0.000077  0.702064  0.701987  1
  Zn  Zn6  1  0.000080  0.000080  0.500187  1
  Zn  Zn7  1  0.000080  0.499892  0.000000  1
  Zn  Zn8  1  0.499892  0.000080  0.000000  1
  Zn  Zn9  1  0.499892  0.499892  0.499813  1
  Pd  Pd10  1  0.331383  0.331383  0.663158  1
  Pd  Pd11  1  0.668167  0.000187  0.332021  1
  Pd  Pd12  1  0.000187  0.668167  0.332021  1
  Pd  Pd13  1  0.668224  0.331383  0.000000  1
  Pd  Pd14  1  0.331775  0.663566  0.331792  1
  Pd  Pd15  1  0.999984  0.331775  0.668208  1
  Pd  Pd16  1  0.331383  0.668224  0.000000  1
  Pd  Pd17  1  0.331775  0.999984  0.668208  1
  Pd  Pd18  1  0.663566  0.331775  0.331792  1
  Pd  Pd19  1  0.668224  0.668224  0.336842  1
  Pd  Pd20  1  0.668167  0.336147  0.667979  1
  Pd  Pd21  1  0.336147  0.668167  0.667979  1
  Rh  Rh22  1  0.000534  0.000534  0.000000  1
