# generated using pymatgen
data_Yb5Lu(Si3Os)8
_symmetry_space_group_name_H-M   'P 1'
_cell_length_a   10.15533236
_cell_length_b   10.15533225
_cell_length_c   8.16343689
_cell_angle_alpha   89.96123274
_cell_angle_beta   89.96123131
_cell_angle_gamma   132.59403139
_symmetry_Int_Tables_number   1
_chemical_formula_structural   Yb5Lu(Si3Os)8
_chemical_formula_sum   'Yb5 Lu1 Si24 Os8'
_cell_volume   619.77977394
_cell_formula_units_Z   1
loop_
 _symmetry_equiv_pos_site_id
 _symmetry_equiv_pos_as_xyz
  1  'x, y, z'
loop_
 _atom_site_type_symbol
 _atom_site_label
 _atom_site_symmetry_multiplicity
 _atom_site_fract_x
 _atom_site_fract_y
 _atom_site_fract_z
 _atom_site_occupancy
  Yb  Yb0  1  0.500475  0.000392  0.749959  1
  Yb  Yb1  1  0.999608  0.499525  0.250041  1
  Yb  Yb2  1  0.499525  0.999608  0.250041  1
  Yb  Yb3  1  0.000392  0.500475  0.749959  1
  Yb  Yb4  1  0.500000  0.500000  0.500000  1
  Lu  Lu5  1  0.000000  0.000000  0.000000  1
  Si  Si6  1  0.794185  0.205815  0.500000  1
  Si  Si7  1  0.706196  0.293804  0.000000  1
  Si  Si8  1  0.205815  0.794185  0.500000  1
  Si  Si9  1  0.293804  0.706196  0.000000  1
  Si  Si10  1  0.664668  0.664668  0.169371  1
  Si  Si11  1  0.167423  0.167423  0.333530  1
  Si  Si12  1  0.832577  0.832577  0.666470  1
  Si  Si13  1  0.335332  0.335332  0.830629  1
  Si  Si14  1  0.845866  0.610331  0.993008  1
  Si  Si15  1  0.113098  0.347445  0.507780  1
  Si  Si16  1  0.652555  0.886902  0.492220  1
  Si  Si17  1  0.389669  0.154134  0.006992  1
  Si  Si18  1  0.154134  0.389669  0.006992  1
  Si  Si19  1  0.886902  0.652555  0.492220  1
  Si  Si20  1  0.124970  0.890298  0.728909  1
  Si  Si21  1  0.390470  0.624574  0.770154  1
  Si  Si22  1  0.375426  0.609530  0.229846  1
  Si  Si23  1  0.109702  0.875030  0.271091  1
  Si  Si24  1  0.875030  0.109702  0.271091  1
  Si  Si25  1  0.609530  0.375426  0.229846  1
  Si  Si26  1  0.624574  0.390470  0.770154  1
  Si  Si27  1  0.890298  0.124970  0.728909  1
  Si  Si28  1  0.610331  0.845866  0.993008  1
  Si  Si29  1  0.347445  0.113098  0.507780  1
  Os  Os30  1  0.630460  0.630460  0.876599  1
  Os  Os31  1  0.125259  0.125259  0.628064  1
  Os  Os32  1  0.369540  0.369540  0.123401  1
  Os  Os33  1  0.874741  0.874741  0.371936  1
  Os  Os34  1  0.168209  0.831791  0.000000  1
  Os  Os35  1  0.330328  0.669672  0.500000  1
  Os  Os36  1  0.831791  0.168209  0.000000  1
  Os  Os37  1  0.669672  0.330328  0.500000  1
