# generated using pymatgen
data_Ca3NdRe13Si8Os3
_symmetry_space_group_name_H-M   'P 1'
_cell_length_a   4.12348900
_cell_length_b   7.39495077
_cell_length_c   15.30856002
_cell_angle_alpha   90.26285039
_cell_angle_beta   90.00000000
_cell_angle_gamma   90.00000000
_symmetry_Int_Tables_number   1
_chemical_formula_structural   Ca3NdRe13Si8Os3
_chemical_formula_sum   'Ca3 Nd1 Re13 Si8 Os3'
_cell_volume   466.79898048
_cell_formula_units_Z   1
loop_
 _symmetry_equiv_pos_site_id
 _symmetry_equiv_pos_as_xyz
  1  'x, y, z'
loop_
 _atom_site_type_symbol
 _atom_site_label
 _atom_site_symmetry_multiplicity
 _atom_site_fract_x
 _atom_site_fract_y
 _atom_site_fract_z
 _atom_site_occupancy
  Ca  Ca0  1  0.000000  0.573511  0.119011  1
  Ca  Ca1  1  0.000000  0.424747  0.881742  1
  Ca  Ca2  1  0.500000  0.074253  0.379531  1
  Nd  Nd3  1  0.500000  0.927022  0.617148  1
  Re  Re4  1  0.000000  0.137155  0.054035  1
  Re  Re5  1  0.000000  0.863315  0.948938  1
  Re  Re6  1  0.000000  0.729760  0.321896  1
  Re  Re7  1  0.000000  0.271177  0.678003  1
  Re  Re8  1  0.500000  0.767930  0.821241  1
  Re  Re9  1  0.000000  0.432525  0.416430  1
  Re  Re10  1  0.000000  0.569280  0.580736  1
  Re  Re11  1  0.500000  0.931695  0.083294  1
  Re  Re12  1  0.500000  0.067503  0.918368  1
  Re  Re13  1  0.000000  0.980290  0.207402  1
  Re  Re14  1  0.000000  0.014513  0.792989  1
  Re  Re15  1  0.500000  0.486460  0.295032  1
  Re  Re16  1  0.500000  0.513689  0.705293  1
  Si  Si17  1  0.000000  0.832724  0.475392  1
  Si  Si18  1  0.000000  0.172113  0.522122  1
  Si  Si19  1  0.500000  0.330357  0.024335  1
  Si  Si20  1  0.500000  0.668621  0.977596  1
  Si  Si21  1  0.000000  0.279297  0.272978  1
  Si  Si22  1  0.000000  0.713214  0.726568  1
  Si  Si23  1  0.500000  0.781957  0.225616  1
  Si  Si24  1  0.500000  0.217413  0.775796  1
  Os  Os25  1  0.500000  0.645029  0.450583  1
  Os  Os26  1  0.500000  0.357315  0.548769  1
  Os  Os27  1  0.500000  0.237133  0.179154  1
