# generated using pymatgen
data_Nd4Tm12Cd4OsPt3
_symmetry_space_group_name_H-M   'P 1'
_cell_length_a   9.69035300
_cell_length_b   9.66852129
_cell_length_c   9.66852251
_cell_angle_alpha   59.81146296
_cell_angle_beta   59.57594463
_cell_angle_gamma   59.57594018
_symmetry_Int_Tables_number   1
_chemical_formula_structural   Nd4Tm12Cd4OsPt3
_chemical_formula_sum   'Nd4 Tm12 Cd4 Os1 Pt3'
_cell_volume   635.50147864
_cell_formula_units_Z   1
loop_
 _symmetry_equiv_pos_site_id
 _symmetry_equiv_pos_as_xyz
  1  'x, y, z'
loop_
 _atom_site_type_symbol
 _atom_site_label
 _atom_site_symmetry_multiplicity
 _atom_site_fract_x
 _atom_site_fract_y
 _atom_site_fract_z
 _atom_site_occupancy
  Nd  Nd0  1  0.566248  0.933924  0.566128  1
  Nd  Nd1  1  0.937723  0.559524  0.935942  1
  Nd  Nd2  1  0.566248  0.566128  0.933924  1
  Nd  Nd3  1  0.937723  0.935942  0.559524  1
  Tm  Tm4  1  0.352196  0.351091  0.351091  1
  Tm  Tm5  1  0.347191  0.349947  0.954271  1
  Tm  Tm6  1  0.347191  0.954271  0.349947  1
  Tm  Tm7  1  0.950952  0.348223  0.348223  1
  Tm  Tm8  1  0.817899  0.185563  0.185563  1
  Tm  Tm9  1  0.187131  0.811411  0.811411  1
  Tm  Tm10  1  0.188228  0.815961  0.186992  1
  Tm  Tm11  1  0.811341  0.184335  0.811026  1
  Tm  Tm12  1  0.188228  0.186992  0.815961  1
  Tm  Tm13  1  0.811341  0.811026  0.184335  1
  Tm  Tm14  1  0.942521  0.556328  0.556328  1
  Tm  Tm15  1  0.548970  0.945953  0.945953  1
  Cd  Cd16  1  0.583005  0.577431  0.577431  1
  Cd  Cd17  1  0.577709  0.583514  0.258800  1
  Cd  Cd18  1  0.577709  0.258800  0.583514  1
  Cd  Cd19  1  0.257959  0.579062  0.579062  1
  Os  Os20  1  0.146384  0.141014  0.141014  1
  Pt  Pt21  1  0.141180  0.147352  0.574042  1
  Pt  Pt22  1  0.141180  0.574042  0.147352  1
  Pt  Pt23  1  0.573746  0.142169  0.142169  1
