# generated using pymatgen
data_Ca12Sc7Ti12CrO48
_symmetry_space_group_name_H-M   'P 1'
_cell_length_a   11.05524167
_cell_length_b   11.06197462
_cell_length_c   11.06197526
_cell_angle_alpha   109.48354926
_cell_angle_beta   109.45888513
_cell_angle_gamma   109.45889144
_symmetry_Int_Tables_number   1
_chemical_formula_structural   Ca12Sc7Ti12CrO48
_chemical_formula_sum   'Ca12 Sc7 Ti12 Cr1 O48'
_cell_volume   1041.54435928
_cell_formula_units_Z   1
loop_
 _symmetry_equiv_pos_site_id
 _symmetry_equiv_pos_as_xyz
  1  'x, y, z'
loop_
 _atom_site_type_symbol
 _atom_site_label
 _atom_site_symmetry_multiplicity
 _atom_site_fract_x
 _atom_site_fract_y
 _atom_site_fract_z
 _atom_site_occupancy
  Ca  Ca0  1  0.247651  0.375209  0.123327  1
  Ca  Ca1  1  0.752349  0.624791  0.876673  1
  Ca  Ca2  1  0.749417  0.125072  0.374803  1
  Ca  Ca3  1  0.124345  0.249732  0.374928  1
  Ca  Ca4  1  0.372442  0.748118  0.124791  1
  Ca  Ca5  1  0.250583  0.874928  0.625197  1
  Ca  Ca6  1  0.875655  0.750268  0.625072  1
  Ca  Ca7  1  0.627558  0.251882  0.875209  1
  Ca  Ca8  1  0.374613  0.125197  0.250268  1
  Ca  Ca9  1  0.625387  0.874803  0.749732  1
  Ca  Ca10  1  0.124325  0.376673  0.751882  1
  Ca  Ca11  1  0.875675  0.623327  0.248118  1
  Sc  Sc12  1  0.000000  0.000000  0.000000  1
  Sc  Sc13  1  0.500000  0.000000  0.500000  1
  Sc  Sc14  1  0.000000  0.500000  0.500000  1
  Sc  Sc15  1  0.500000  0.000000  0.000000  1
  Sc  Sc16  1  0.500000  0.500000  0.000000  1
  Sc  Sc17  1  0.500000  0.500000  0.500000  1
  Sc  Sc18  1  0.000000  0.000000  0.500000  1
  Ti  Ti19  1  0.246896  0.624102  0.371512  1
  Ti  Ti20  1  0.753104  0.375898  0.628488  1
  Ti  Ti21  1  0.750196  0.875152  0.125149  1
  Ti  Ti22  1  0.375044  0.249997  0.624848  1
  Ti  Ti23  1  0.624956  0.750003  0.375152  1
  Ti  Ti24  1  0.249804  0.124848  0.874851  1
  Ti  Ti25  1  0.122794  0.747411  0.875898  1
  Ti  Ti26  1  0.877206  0.252589  0.124102  1
  Ti  Ti27  1  0.625048  0.374851  0.250003  1
  Ti  Ti28  1  0.374952  0.625149  0.749997  1
  Ti  Ti29  1  0.875383  0.128488  0.752589  1
  Ti  Ti30  1  0.124617  0.871512  0.247411  1
  Cr  Cr31  1  0.000000  0.500000  0.000000  1
  O  O32  1  0.480026  0.379412  0.293599  1
  O  O33  1  0.519974  0.620588  0.706401  1
  O  O34  1  0.585155  0.185830  0.206931  1
  O  O35  1  0.915587  0.122329  0.603125  1
  O  O36  1  0.293258  0.480796  0.377671  1
  O  O37  1  0.314432  0.914509  0.293425  1
  O  O38  1  0.414845  0.814170  0.793069  1
  O  O39  1  0.084413  0.877671  0.396875  1
  O  O40  1  0.706742  0.519204  0.622329  1
  O  O41  1  0.685568  0.085491  0.706575  1
  O  O42  1  0.018184  0.319442  0.901891  1
  O  O43  1  0.198742  0.582450  0.180558  1
  O  O44  1  0.119650  0.017373  0.204985  1
  O  O45  1  0.981816  0.680558  0.098109  1
  O  O46  1  0.801258  0.417550  0.819442  1
  O  O47  1  0.880350  0.982627  0.795015  1
  O  O48  1  0.600614  0.914187  0.120588  1
  O  O49  1  0.186300  0.479445  0.600647  1
  O  O50  1  0.399386  0.085813  0.879412  1
  O  O51  1  0.813700  0.520555  0.399353  1
  O  O52  1  0.899325  0.021101  0.314170  1
  O  O53  1  0.378499  0.586008  0.899730  1
  O  O54  1  0.100675  0.978899  0.685830  1
  O  O55  1  0.621501  0.413992  0.100270  1
  O  O56  1  0.378223  0.293069  0.478899  1
  O  O57  1  0.585653  0.899353  0.378797  1
  O  O58  1  0.621777  0.706931  0.521101  1
  O  O59  1  0.414347  0.100647  0.621203  1
  O  O60  1  0.116292  0.598109  0.917550  1
  O  O61  1  0.021007  0.206575  0.121084  1
  O  O62  1  0.883708  0.401891  0.082450  1
  O  O63  1  0.978993  0.793425  0.878916  1
  O  O64  1  0.312462  0.896875  0.019204  1
  O  O65  1  0.914665  0.295015  0.312388  1
  O  O66  1  0.687538  0.103125  0.980796  1
  O  O67  1  0.085335  0.704985  0.687612  1
  O  O68  1  0.186427  0.206401  0.585813  1
  O  O69  1  0.478769  0.600270  0.186279  1
  O  O70  1  0.813573  0.793599  0.414187  1
  O  O71  1  0.521231  0.399730  0.813721  1
  O  O72  1  0.292490  0.313721  0.913992  1
  O  O73  1  0.707510  0.686279  0.086008  1
  O  O74  1  0.206856  0.121203  0.020555  1
  O  O75  1  0.793144  0.878797  0.979445  1
  O  O76  1  0.899923  0.378916  0.585491  1
  O  O77  1  0.100077  0.621084  0.414509  1
  O  O78  1  0.602277  0.187612  0.482627  1
  O  O79  1  0.397723  0.812388  0.517373  1
