# generated using pymatgen
data_Ho5Er5(Zn2Bi)2
_symmetry_space_group_name_H-M   'P 1'
_cell_length_a   8.58006349
_cell_length_b   8.58006358
_cell_length_c   8.58275171
_cell_angle_alpha   123.53443840
_cell_angle_beta   123.53444105
_cell_angle_gamma   83.96755137
_symmetry_Int_Tables_number   1
_chemical_formula_structural   Ho5Er5(Zn2Bi)2
_chemical_formula_sum   'Ho5 Er5 Zn4 Bi2'
_cell_volume   420.41167932
_cell_formula_units_Z   1
loop_
 _symmetry_equiv_pos_site_id
 _symmetry_equiv_pos_as_xyz
  1  'x, y, z'
loop_
 _atom_site_type_symbol
 _atom_site_label
 _atom_site_symmetry_multiplicity
 _atom_site_fract_x
 _atom_site_fract_y
 _atom_site_fract_z
 _atom_site_occupancy
  Ho  Ho0  1  0.510101  0.010101  0.804574  1
  Ho  Ho1  1  0.205339  0.705339  0.195226  1
  Ho  Ho2  1  0.010144  0.205472  0.500032  1
  Ho  Ho3  1  0.705472  0.510144  0.500032  1
  Ho  Ho4  1  0.489916  0.989916  0.195741  1
  Er  Er5  1  0.500116  0.500008  0.999927  1
  Er  Er6  1  0.000008  0.000116  0.999927  1
  Er  Er7  1  0.794089  0.294089  0.804394  1
  Er  Er8  1  0.989831  0.793990  0.500024  1
  Er  Er9  1  0.293990  0.489831  0.500024  1
  Zn  Zn10  1  0.139380  0.639380  0.778331  1
  Zn  Zn11  1  0.860995  0.360995  0.221494  1
  Zn  Zn12  1  0.639587  0.860962  0.500143  1
  Zn  Zn13  1  0.360962  0.139587  0.500143  1
  Bi  Bi14  1  0.249975  0.250095  0.999995  1
  Bi  Bi15  1  0.750095  0.749975  0.999995  1
