# generated using pymatgen
data_Sr3Li(CrN3)2
_symmetry_space_group_name_H-M   'P 1'
_cell_length_a   6.04863857
_cell_length_b   6.04863852
_cell_length_c   12.33205509
_cell_angle_alpha   90.13889508
_cell_angle_beta   90.13888202
_cell_angle_gamma   124.52492591
_symmetry_Int_Tables_number   1
_chemical_formula_structural   Sr3Li(CrN3)2
_chemical_formula_sum   'Sr6 Li2 Cr4 N12'
_cell_volume   371.71375679
_cell_formula_units_Z   2
loop_
 _symmetry_equiv_pos_site_id
 _symmetry_equiv_pos_as_xyz
  1  'x, y, z'
loop_
 _atom_site_type_symbol
 _atom_site_label
 _atom_site_symmetry_multiplicity
 _atom_site_fract_x
 _atom_site_fract_y
 _atom_site_fract_z
 _atom_site_occupancy
  Sr  Sr0  1  0.445204  0.050163  0.152913  1
  Sr  Sr1  1  0.050163  0.445204  0.652913  1
  Sr  Sr2  1  0.651583  0.858809  0.411410  1
  Sr  Sr3  1  0.138486  0.351065  0.074342  1
  Sr  Sr4  1  0.351065  0.138486  0.574342  1
  Sr  Sr5  1  0.858809  0.651583  0.911410  1
  Li  Li6  1  0.485559  0.892528  0.911815  1
  Li  Li7  1  0.892528  0.485559  0.411815  1
  Cr  Cr8  1  0.741228  0.759651  0.658493  1
  Cr  Cr9  1  0.261722  0.261475  0.331937  1
  Cr  Cr10  1  0.261475  0.261722  0.831937  1
  Cr  Cr11  1  0.759651  0.741228  0.158493  1
  N  N12  1  0.666665  0.850000  0.046043  1
  N  N13  1  0.144067  0.344608  0.442779  1
  N  N14  1  0.344608  0.144067  0.942779  1
  N  N15  1  0.850000  0.666665  0.546043  1
  N  N16  1  0.991237  0.023223  0.242562  1
  N  N17  1  0.023223  0.991237  0.742562  1
  N  N18  1  0.466988  0.542448  0.240867  1
  N  N19  1  0.147434  0.452752  0.868880  1
  N  N20  1  0.452752  0.147434  0.368880  1
  N  N21  1  0.897505  0.575599  0.117960  1
  N  N22  1  0.575599  0.897505  0.617960  1
  N  N23  1  0.542448  0.466988  0.740867  1
