# generated using pymatgen
data_Ac8AgPb3Au8
_symmetry_space_group_name_H-M   'P 1'
_cell_length_a   8.64431400
_cell_length_b   8.64431400
_cell_length_c   7.76251900
_cell_angle_alpha   90.00000000
_cell_angle_beta   90.00000000
_cell_angle_gamma   90.00000000
_symmetry_Int_Tables_number   1
_chemical_formula_structural   Ac8AgPb3Au8
_chemical_formula_sum   'Ac8 Ag1 Pb3 Au8'
_cell_volume   580.04774693
_cell_formula_units_Z   1
loop_
 _symmetry_equiv_pos_site_id
 _symmetry_equiv_pos_as_xyz
  1  'x, y, z'
loop_
 _atom_site_type_symbol
 _atom_site_label
 _atom_site_symmetry_multiplicity
 _atom_site_fract_x
 _atom_site_fract_y
 _atom_site_fract_z
 _atom_site_occupancy
  Ac  Ac0  1  0.677900  0.329070  0.497057  1
  Ac  Ac1  1  0.322100  0.670930  0.497057  1
  Ac  Ac2  1  0.170930  0.177900  0.002943  1
  Ac  Ac3  1  0.829070  0.822100  0.002943  1
  Ac  Ac4  1  0.827942  0.821774  0.497237  1
  Ac  Ac5  1  0.172058  0.178226  0.497237  1
  Ac  Ac6  1  0.321774  0.672058  0.002763  1
  Ac  Ac7  1  0.678226  0.327942  0.002763  1
  Ag  Ag8  1  0.000000  0.500000  0.250000  1
  Pb  Pb9  1  0.500000  0.000000  0.250000  1
  Pb  Pb10  1  0.000000  0.500000  0.750000  1
  Pb  Pb11  1  0.500000  0.000000  0.750000  1
  Au  Au12  1  0.881438  0.127924  0.251041  1
  Au  Au13  1  0.118562  0.872076  0.251041  1
  Au  Au14  1  0.379062  0.376566  0.750677  1
  Au  Au15  1  0.620938  0.623434  0.750677  1
  Au  Au16  1  0.123434  0.879062  0.749323  1
  Au  Au17  1  0.876566  0.120938  0.749323  1
  Au  Au18  1  0.627924  0.618562  0.248959  1
  Au  Au19  1  0.372076  0.381438  0.248959  1
