# generated using pymatgen
data_Ti4Co9Si2TcB4
_symmetry_space_group_name_H-M   'P 1'
_cell_length_a   8.40031510
_cell_length_b   8.48888940
_cell_length_c   3.00987600
_cell_angle_alpha   90.00000000
_cell_angle_beta   90.00000000
_cell_angle_gamma   89.66521893
_symmetry_Int_Tables_number   1
_chemical_formula_structural   Ti4Co9Si2TcB4
_chemical_formula_sum   'Ti4 Co9 Si2 Tc1 B4'
_cell_volume   214.62862458
_cell_formula_units_Z   1
loop_
 _symmetry_equiv_pos_site_id
 _symmetry_equiv_pos_as_xyz
  1  'x, y, z'
loop_
 _atom_site_type_symbol
 _atom_site_label
 _atom_site_symmetry_multiplicity
 _atom_site_fract_x
 _atom_site_fract_y
 _atom_site_fract_z
 _atom_site_occupancy
  Ti  Ti0  1  0.825667  0.323923  0.000000  1
  Ti  Ti1  1  0.324539  0.176678  0.000000  1
  Ti  Ti2  1  0.673967  0.824666  0.000000  1
  Ti  Ti3  1  0.177103  0.676858  0.000000  1
  Co  Co4  1  0.496607  0.000067  0.500000  1
  Co  Co5  1  0.002251  0.509581  0.500000  1
  Co  Co6  1  0.216028  0.920416  0.500000  1
  Co  Co7  1  0.777181  0.062935  0.500000  1
  Co  Co8  1  0.925694  0.783835  0.500000  1
  Co  Co9  1  0.435097  0.716782  0.500000  1
  Co  Co10  1  0.570017  0.283163  0.500000  1
  Co  Co11  1  0.716255  0.569406  0.500000  1
  Co  Co12  1  0.290395  0.439764  0.500000  1
  Si  Si13  1  0.994605  0.988056  0.000000  1
  Si  Si14  1  0.502786  0.500875  0.000000  1
  Tc  Tc15  1  0.067590  0.213743  0.500000  1
  B  B16  1  0.620417  0.120053  0.000000  1
  B  B17  1  0.126969  0.390638  0.000000  1
  B  B18  1  0.878382  0.620730  0.000000  1
  B  B19  1  0.378448  0.877832  0.000000  1
