# generated using pymatgen
data_Y4Er6BiPb7
_symmetry_space_group_name_H-M   'P 1'
_cell_length_a   8.23630300
_cell_length_b   8.28196955
_cell_length_c   15.54460100
_cell_angle_alpha   90.26643908
_cell_angle_beta   90.00000000
_cell_angle_gamma   90.00000000
_symmetry_Int_Tables_number   1
_chemical_formula_structural   Y4Er6BiPb7
_chemical_formula_sum   'Y8 Er12 Bi2 Pb14'
_cell_volume   1060.32945956
_cell_formula_units_Z   2
loop_
 _symmetry_equiv_pos_site_id
 _symmetry_equiv_pos_as_xyz
  1  'x, y, z'
loop_
 _atom_site_type_symbol
 _atom_site_label
 _atom_site_symmetry_multiplicity
 _atom_site_fract_x
 _atom_site_fract_y
 _atom_site_fract_z
 _atom_site_occupancy
  Y  Y0  1  0.544484  0.330452  0.896598  1
  Y  Y1  1  0.044484  0.169548  0.603402  1
  Y  Y2  1  0.454827  0.675534  0.397175  1
  Y  Y3  1  0.954827  0.824466  0.102825  1
  Y  Y4  1  0.459082  0.669798  0.101850  1
  Y  Y5  1  0.959082  0.830202  0.398150  1
  Y  Y6  1  0.537403  0.323151  0.602539  1
  Y  Y7  1  0.037403  0.176849  0.897461  1
  Er  Er8  1  0.379542  0.839827  0.878009  1
  Er  Er9  1  0.879542  0.660173  0.621991  1
  Er  Er10  1  0.621381  0.155308  0.377923  1
  Er  Er11  1  0.121381  0.344692  0.122077  1
  Er  Er12  1  0.625920  0.158621  0.121551  1
  Er  Er13  1  0.125920  0.341379  0.378449  1
  Er  Er14  1  0.377057  0.842242  0.621662  1
  Er  Er15  1  0.877057  0.657758  0.878338  1
  Er  Er16  1  0.209267  0.502557  0.749587  1
  Er  Er17  1  0.709267  0.997443  0.750413  1
  Er  Er18  1  0.790454  0.497676  0.248300  1
  Er  Er19  1  0.290454  0.002324  0.251700  1
  Bi  Bi20  1  0.278857  0.029771  0.044912  1
  Bi  Bi21  1  0.778857  0.470229  0.455088  1
  Pb  Pb22  1  0.719853  0.969207  0.543749  1
  Pb  Pb23  1  0.219853  0.530793  0.956251  1
  Pb  Pb24  1  0.720102  0.968503  0.956448  1
  Pb  Pb25  1  0.220102  0.531497  0.543552  1
  Pb  Pb26  1  0.282002  0.032374  0.456705  1
  Pb  Pb27  1  0.782002  0.467626  0.043295  1
  Pb  Pb28  1  0.572437  0.629161  0.748344  1
  Pb  Pb29  1  0.072437  0.870839  0.751656  1
  Pb  Pb30  1  0.428828  0.369912  0.249855  1
  Pb  Pb31  1  0.928828  0.130088  0.250145  1
  Pb  Pb32  1  0.351878  0.152360  0.751386  1
  Pb  Pb33  1  0.851878  0.347640  0.748614  1
  Pb  Pb34  1  0.646623  0.846662  0.249588  1
  Pb  Pb35  1  0.146623  0.653338  0.250412  1
