# generated using pymatgen
data_SmDy3(Lu4Bi3)4
_symmetry_space_group_name_H-M   'P 1'
_cell_length_a   8.18215560
_cell_length_b   9.39306700
_cell_length_c   11.87420286
_cell_angle_alpha   90.00000000
_cell_angle_beta   89.95628028
_cell_angle_gamma   90.00000000
_symmetry_Int_Tables_number   1
_chemical_formula_structural   SmDy3(Lu4Bi3)4
_chemical_formula_sum   'Sm1 Dy3 Lu16 Bi12'
_cell_volume   912.59795661
_cell_formula_units_Z   1
loop_
 _symmetry_equiv_pos_site_id
 _symmetry_equiv_pos_as_xyz
  1  'x, y, z'
loop_
 _atom_site_type_symbol
 _atom_site_label
 _atom_site_symmetry_multiplicity
 _atom_site_fract_x
 _atom_site_fract_y
 _atom_site_fract_z
 _atom_site_occupancy
  Sm  Sm0  1  0.313365  0.250000  0.218097  1
  Dy  Dy1  1  0.813295  0.250000  0.282161  1
  Dy  Dy2  1  0.687056  0.750000  0.782551  1
  Dy  Dy3  1  0.187100  0.750000  0.717600  1
  Lu  Lu4  1  0.352229  0.750000  0.218190  1
  Lu  Lu5  1  0.852275  0.750000  0.281913  1
  Lu  Lu6  1  0.647826  0.250000  0.781524  1
  Lu  Lu7  1  0.147545  0.250000  0.718243  1
  Lu  Lu8  1  0.692485  0.567342  0.060040  1
  Lu  Lu9  1  0.192761  0.932571  0.440019  1
  Lu  Lu10  1  0.307487  0.067279  0.939823  1
  Lu  Lu11  1  0.807071  0.432665  0.560160  1
  Lu  Lu12  1  0.307487  0.432721  0.939823  1
  Lu  Lu13  1  0.807071  0.067335  0.560160  1
  Lu  Lu14  1  0.692485  0.932658  0.060040  1
  Lu  Lu15  1  0.192761  0.567429  0.440019  1
  Lu  Lu16  1  0.476678  0.250000  0.489446  1
  Lu  Lu17  1  0.976866  0.250000  0.010461  1
  Lu  Lu18  1  0.523309  0.750000  0.510765  1
  Lu  Lu19  1  0.023103  0.750000  0.989190  1
  Bi  Bi20  1  0.403024  0.750000  0.959351  1
  Bi  Bi21  1  0.903320  0.750000  0.540797  1
  Bi  Bi22  1  0.598757  0.250000  0.039202  1
  Bi  Bi23  1  0.095586  0.250000  0.460125  1
  Bi  Bi24  1  0.566961  0.993291  0.326644  1
  Bi  Bi25  1  0.063569  0.506914  0.173877  1
  Bi  Bi26  1  0.434367  0.494254  0.673894  1
  Bi  Bi27  1  0.934631  0.005461  0.825738  1
  Bi  Bi28  1  0.434367  0.005746  0.673894  1
  Bi  Bi29  1  0.934631  0.494539  0.825738  1
  Bi  Bi30  1  0.566961  0.506709  0.326644  1
  Bi  Bi31  1  0.063569  0.993086  0.173877  1
