# generated using pymatgen
data_Dy2HoZn3RuAu2
_symmetry_space_group_name_H-M   'P 1'
_cell_length_a   7.43297704
_cell_length_b   7.43137933
_cell_length_c   3.84485500
_cell_angle_alpha   90.00000000
_cell_angle_beta   90.00000000
_cell_angle_gamma   120.01828880
_symmetry_Int_Tables_number   1
_chemical_formula_structural   Dy2HoZn3RuAu2
_chemical_formula_sum   'Dy2 Ho1 Zn3 Ru1 Au2'
_cell_volume   183.89196482
_cell_formula_units_Z   1
loop_
 _symmetry_equiv_pos_site_id
 _symmetry_equiv_pos_as_xyz
  1  'x, y, z'
loop_
 _atom_site_type_symbol
 _atom_site_label
 _atom_site_symmetry_multiplicity
 _atom_site_fract_x
 _atom_site_fract_y
 _atom_site_fract_z
 _atom_site_occupancy
  Dy  Dy0  1  0.022739  0.604081  0.000000  1
  Dy  Dy1  1  0.395991  0.418713  0.000000  1
  Ho  Ho2  1  0.581547  0.977138  0.000000  1
  Zn  Zn3  1  0.258141  0.987183  0.500000  1
  Zn  Zn4  1  0.012630  0.270544  0.500000  1
  Zn  Zn5  1  0.729222  0.742324  0.500000  1
  Ru  Ru6  1  0.333728  0.667223  0.500000  1
  Au  Au7  1  0.666497  0.332776  0.500000  1
  Au  Au8  1  0.999504  0.000016  0.000000  1
