# generated using pymatgen
data_CuGeIrS4
_symmetry_space_group_name_H-M   'P 1'
_cell_length_a   7.05866770
_cell_length_b   7.05866860
_cell_length_c   7.18046700
_cell_angle_alpha   59.42753886
_cell_angle_beta   59.42753454
_cell_angle_gamma   59.61430425
_symmetry_Int_Tables_number   1
_chemical_formula_structural   CuGeIrS4
_chemical_formula_sum   'Cu2 Ge2 Ir2 S8'
_cell_volume   250.04085974
_cell_formula_units_Z   2
loop_
 _symmetry_equiv_pos_site_id
 _symmetry_equiv_pos_as_xyz
  1  'x, y, z'
loop_
 _atom_site_type_symbol
 _atom_site_label
 _atom_site_symmetry_multiplicity
 _atom_site_fract_x
 _atom_site_fract_y
 _atom_site_fract_z
 _atom_site_occupancy
  Cu  Cu0  1  0.000816  0.000816  0.999184  1
  Cu  Cu1  1  0.249184  0.249184  0.250816  1
  Ge  Ge2  1  0.125000  0.625000  0.625000  1
  Ge  Ge3  1  0.625000  0.125000  0.625000  1
  Ir  Ir4  1  0.625000  0.625000  0.625000  1
  Ir  Ir5  1  0.625000  0.625000  0.125000  1
  S  S6  1  0.386265  0.386265  0.853587  1
  S  S7  1  0.386265  0.386265  0.373883  1
  S  S8  1  0.863735  0.863735  0.876117  1
  S  S9  1  0.863735  0.863735  0.396413  1
  S  S10  1  0.393691  0.841357  0.382477  1
  S  S11  1  0.841357  0.393691  0.382477  1
  S  S12  1  0.408643  0.856309  0.867523  1
  S  S13  1  0.856309  0.408643  0.867523  1
