# generated using pymatgen
data_Tb3Dy5Hf7Si16Mo5
_symmetry_space_group_name_H-M   'P 1'
_cell_length_a   7.13653682
_cell_length_b   7.13266132
_cell_length_c   13.07927875
_cell_angle_alpha   89.75939173
_cell_angle_beta   89.96627809
_cell_angle_gamma   90.11538809
_symmetry_Int_Tables_number   1
_chemical_formula_structural   Tb3Dy5Hf7Si16Mo5
_chemical_formula_sum   'Tb3 Dy5 Hf7 Si16 Mo5'
_cell_volume   665.76064900
_cell_formula_units_Z   1
loop_
 _symmetry_equiv_pos_site_id
 _symmetry_equiv_pos_as_xyz
  1  'x, y, z'
loop_
 _atom_site_type_symbol
 _atom_site_label
 _atom_site_symmetry_multiplicity
 _atom_site_fract_x
 _atom_site_fract_y
 _atom_site_fract_z
 _atom_site_occupancy
  Tb  Tb0  1  0.499302  0.154830  0.532123  1
  Tb  Tb1  1  0.345162  0.999304  0.784178  1
  Tb  Tb2  1  0.655754  0.001135  0.284197  1
  Dy  Dy3  1  0.999102  0.344946  0.218673  1
  Dy  Dy4  1  0.001497  0.656845  0.713909  1
  Dy  Dy5  1  0.154739  0.500323  0.465616  1
  Dy  Dy6  1  0.499332  0.845255  0.036120  1
  Dy  Dy7  1  0.844433  0.501670  0.965633  1
  Hf  Hf8  1  0.852842  0.006277  0.874509  1
  Hf  Hf9  1  0.504603  0.648446  0.620966  1
  Hf  Hf10  1  0.353215  0.493048  0.876050  1
  Hf  Hf11  1  0.491660  0.349414  0.125795  1
  Hf  Hf12  1  0.647498  0.510392  0.377031  1
  Hf  Hf13  1  0.994193  0.147440  0.625903  1
  Hf  Hf14  1  0.003973  0.852023  0.124409  1
  Si  Si15  1  0.360915  0.289371  0.320673  1
  Si  Si16  1  0.639239  0.701887  0.815389  1
  Si  Si17  1  0.199307  0.863536  0.560972  1
  Si  Si18  1  0.139422  0.796413  0.932853  1
  Si  Si19  1  0.797815  0.140600  0.067088  1
  Si  Si20  1  0.870736  0.197240  0.430360  1
  Si  Si21  1  0.299367  0.360490  0.682733  1
  Si  Si22  1  0.702867  0.638290  0.183507  1
  Si  Si23  1  0.293510  0.046113  0.189330  1
  Si  Si24  1  0.705489  0.948778  0.683594  1
  Si  Si25  1  0.438690  0.797374  0.430623  1
  Si  Si26  1  0.204014  0.550091  0.066519  1
  Si  Si27  1  0.550758  0.203896  0.934640  1
  Si  Si28  1  0.794978  0.446538  0.566493  1
  Si  Si29  1  0.050472  0.296600  0.816485  1
  Si  Si30  1  0.956580  0.714413  0.317786  1
  Mo  Mo31  1  0.173833  0.174143  0.002104  1
  Mo  Mo32  1  0.827378  0.827047  0.499165  1
  Mo  Mo33  1  0.322996  0.674471  0.250140  1
  Mo  Mo34  1  0.676691  0.325318  0.750127  1
  Mo  Mo35  1  0.147636  0.996041  0.374306  1
