# generated using pymatgen
data_Ho5(CoB3)2
_symmetry_space_group_name_H-M   'P 1'
_cell_length_a   5.39308297
_cell_length_b   5.39308247
_cell_length_c   8.27884354
_cell_angle_alpha   70.99111321
_cell_angle_beta   70.99111451
_cell_angle_gamma   59.99999286
_symmetry_Int_Tables_number   1
_chemical_formula_structural   Ho5(CoB3)2
_chemical_formula_sum   'Ho5 Co2 B6'
_cell_volume   193.22190164
_cell_formula_units_Z   1
loop_
 _symmetry_equiv_pos_site_id
 _symmetry_equiv_pos_as_xyz
  1  'x, y, z'
loop_
 _atom_site_type_symbol
 _atom_site_label
 _atom_site_symmetry_multiplicity
 _atom_site_fract_x
 _atom_site_fract_y
 _atom_site_fract_z
 _atom_site_occupancy
  Ho  Ho0  1  0.000000  0.000000  0.000000  1
  Ho  Ho1  1  0.251843  0.251843  0.244472  1
  Ho  Ho2  1  0.748157  0.748157  0.755528  1
  Ho  Ho3  1  0.415788  0.415788  0.752634  1
  Ho  Ho4  1  0.584212  0.584212  0.247366  1
  Co  Co5  1  0.119551  0.119551  0.641348  1
  Co  Co6  1  0.880449  0.880449  0.358652  1
  B  B7  1  0.168711  0.831289  0.500000  1
  B  B8  1  0.831289  0.500000  0.500000  1
  B  B9  1  0.500000  0.168711  0.500000  1
  B  B10  1  0.168711  0.500000  0.500000  1
  B  B11  1  0.500000  0.831289  0.500000  1
  B  B12  1  0.831289  0.168711  0.500000  1
