# generated using pymatgen
data_Hf5Ir3O
_symmetry_space_group_name_H-M   'P 1'
_cell_length_a   8.01201200
_cell_length_b   8.01201206
_cell_length_c   5.45961400
_cell_angle_alpha   90.00000000
_cell_angle_beta   90.00000000
_cell_angle_gamma   119.99999974
_symmetry_Int_Tables_number   1
_chemical_formula_structural   Hf5Ir3O
_chemical_formula_sum   'Hf10 Ir6 O2'
_cell_volume   303.51192358
_cell_formula_units_Z   2
loop_
 _symmetry_equiv_pos_site_id
 _symmetry_equiv_pos_as_xyz
  1  'x, y, z'
loop_
 _atom_site_type_symbol
 _atom_site_label
 _atom_site_symmetry_multiplicity
 _atom_site_fract_x
 _atom_site_fract_y
 _atom_site_fract_z
 _atom_site_occupancy
  Hf  Hf0  1  0.240027  0.000000  0.750000  1
  Hf  Hf1  1  0.759973  0.000000  0.250000  1
  Hf  Hf2  1  0.000000  0.240027  0.750000  1
  Hf  Hf3  1  0.000000  0.759973  0.250000  1
  Hf  Hf4  1  0.759973  0.759973  0.750000  1
  Hf  Hf5  1  0.240027  0.240027  0.250000  1
  Hf  Hf6  1  0.333333  0.666667  0.500000  1
  Hf  Hf7  1  0.666667  0.333333  0.500000  1
  Hf  Hf8  1  0.666667  0.333333  0.000000  1
  Hf  Hf9  1  0.333333  0.666667  0.000000  1
  Ir  Ir10  1  0.595734  0.000000  0.750000  1
  Ir  Ir11  1  0.404266  0.000000  0.250000  1
  Ir  Ir12  1  0.000000  0.595734  0.750000  1
  Ir  Ir13  1  0.000000  0.404266  0.250000  1
  Ir  Ir14  1  0.404266  0.404266  0.750000  1
  Ir  Ir15  1  0.595734  0.595734  0.250000  1
  O  O16  1  0.000000  0.000000  0.500000  1
  O  O17  1  0.000000  0.000000  0.000000  1
