# generated using pymatgen
data_Y4Cd4In7Hg
_symmetry_space_group_name_H-M   'P 1'
_cell_length_a   6.54113106
_cell_length_b   6.55583299
_cell_length_c   9.18717707
_cell_angle_alpha   90.01223262
_cell_angle_beta   89.99282027
_cell_angle_gamma   89.30916882
_symmetry_Int_Tables_number   1
_chemical_formula_structural   Y4Cd4In7Hg
_chemical_formula_sum   'Y4 Cd4 In7 Hg1'
_cell_volume   393.94104880
_cell_formula_units_Z   1
loop_
 _symmetry_equiv_pos_site_id
 _symmetry_equiv_pos_as_xyz
  1  'x, y, z'
loop_
 _atom_site_type_symbol
 _atom_site_label
 _atom_site_symmetry_multiplicity
 _atom_site_fract_x
 _atom_site_fract_y
 _atom_site_fract_z
 _atom_site_occupancy
  Y  Y0  1  0.752661  0.251319  0.999280  1
  Y  Y1  1  0.247311  0.748609  0.999315  1
  Y  Y2  1  0.249819  0.748644  0.500767  1
  Y  Y3  1  0.750124  0.251450  0.500779  1
  Cd  Cd4  1  0.748864  0.750563  0.998738  1
  Cd  Cd5  1  0.249914  0.249480  0.501211  1
  Cd  Cd6  1  0.750031  0.750552  0.501230  1
  Cd  Cd7  1  0.251073  0.249442  0.998667  1
  In  In8  1  0.500024  0.000015  0.249054  1
  In  In9  1  0.499993  0.499960  0.249047  1
  In  In10  1  0.000042  0.500134  0.250824  1
  In  In11  1  0.999946  0.999942  0.250807  1
  In  In12  1  0.000028  0.000058  0.749244  1
  In  In13  1  0.999883  0.499996  0.749326  1
  In  In14  1  0.499998  0.500014  0.750883  1
  Hg  Hg15  1  0.500281  0.999823  0.750823  1
