# generated using pymatgen
data_PrTh5(SnRu)6
_symmetry_space_group_name_H-M   'P 1'
_cell_length_a   7.57774700
_cell_length_b   7.60168004
_cell_length_c   8.32275100
_cell_angle_alpha   90.00000000
_cell_angle_beta   90.00000000
_cell_angle_gamma   119.92077945
_symmetry_Int_Tables_number   1
_chemical_formula_structural   PrTh5(SnRu)6
_chemical_formula_sum   'Pr1 Th5 Sn6 Ru6'
_cell_volume   415.52136162
_cell_formula_units_Z   1
loop_
 _symmetry_equiv_pos_site_id
 _symmetry_equiv_pos_as_xyz
  1  'x, y, z'
loop_
 _atom_site_type_symbol
 _atom_site_label
 _atom_site_symmetry_multiplicity
 _atom_site_fract_x
 _atom_site_fract_y
 _atom_site_fract_z
 _atom_site_occupancy
  Pr  Pr0  1  0.413040  0.000099  0.750000  1
  Th  Th1  1  0.414206  0.999848  0.250000  1
  Th  Th2  1  0.587272  0.587323  0.750000  1
  Th  Th3  1  0.586578  0.584029  0.250000  1
  Th  Th4  1  0.002206  0.415870  0.250000  1
  Th  Th5  1  0.999761  0.412637  0.750000  1
  Sn  Sn6  1  0.248271  0.243825  0.501051  1
  Sn  Sn7  1  0.248271  0.243825  0.998949  1
  Sn  Sn8  1  0.746859  0.999772  0.000702  1
  Sn  Sn9  1  0.004843  0.756328  0.501140  1
  Sn  Sn10  1  0.746859  0.999772  0.499298  1
  Sn  Sn11  1  0.004843  0.756328  0.998860  1
  Ru  Ru12  1  0.677020  0.346073  0.492920  1
  Ru  Ru13  1  0.677020  0.346073  0.007080  1
  Ru  Ru14  1  0.330780  0.654159  0.007511  1
  Ru  Ru15  1  0.330780  0.654159  0.492489  1
  Ru  Ru16  1  0.985027  0.999997  0.750000  1
  Ru  Ru17  1  0.996361  0.999880  0.250000  1
