# generated using pymatgen
data_CaYb5Er2(Si3Pd)4
_symmetry_space_group_name_H-M   'P 1'
_cell_length_a   8.23635376
_cell_length_b   8.23635395
_cell_length_c   8.09999800
_cell_angle_alpha   90.00000000
_cell_angle_beta   90.00000000
_cell_angle_gamma   120.00544210
_symmetry_Int_Tables_number   1
_chemical_formula_structural   CaYb5Er2(Si3Pd)4
_chemical_formula_sum   'Ca1 Yb5 Er2 Si12 Pd4'
_cell_volume   475.84084552
_cell_formula_units_Z   1
loop_
 _symmetry_equiv_pos_site_id
 _symmetry_equiv_pos_as_xyz
  1  'x, y, z'
loop_
 _atom_site_type_symbol
 _atom_site_label
 _atom_site_symmetry_multiplicity
 _atom_site_fract_x
 _atom_site_fract_y
 _atom_site_fract_z
 _atom_site_occupancy
  Ca  Ca0  1  0.497365  0.502635  0.750000  1
  Yb  Yb1  1  0.502635  0.004852  0.250000  1
  Yb  Yb2  1  0.497413  0.995136  0.750000  1
  Yb  Yb3  1  0.995148  0.497365  0.250000  1
  Yb  Yb4  1  0.004864  0.502587  0.750000  1
  Yb  Yb5  1  0.502446  0.497554  0.250000  1
  Er  Er6  1  0.999947  0.000053  0.250000  1
  Er  Er7  1  0.000081  0.999919  0.750000  1
  Si  Si8  1  0.164460  0.328045  0.002438  1
  Si  Si9  1  0.835528  0.671912  0.999855  1
  Si  Si10  1  0.671955  0.835540  0.002438  1
  Si  Si11  1  0.835528  0.671912  0.500145  1
  Si  Si12  1  0.328088  0.164472  0.999855  1
  Si  Si13  1  0.164460  0.328045  0.497562  1
  Si  Si14  1  0.163208  0.836792  0.001867  1
  Si  Si15  1  0.328088  0.164472  0.500145  1
  Si  Si16  1  0.836807  0.163193  0.997739  1
  Si  Si17  1  0.671955  0.835540  0.497562  1
  Si  Si18  1  0.836807  0.163193  0.502261  1
  Si  Si19  1  0.163208  0.836792  0.498133  1
  Pd  Pd20  1  0.332363  0.667637  0.008316  1
  Pd  Pd21  1  0.667642  0.332358  0.997386  1
  Pd  Pd22  1  0.667642  0.332358  0.502614  1
  Pd  Pd23  1  0.332363  0.667637  0.491684  1
