# generated using pymatgen
data_Er3Lu5Tl3Rh
_symmetry_space_group_name_H-M   'P 1'
_cell_length_a   10.28004900
_cell_length_b   10.28004824
_cell_length_c   6.93672700
_cell_angle_alpha   90.00000000
_cell_angle_beta   90.00000000
_cell_angle_gamma   119.99999922
_symmetry_Int_Tables_number   1
_chemical_formula_structural   Er3Lu5Tl3Rh
_chemical_formula_sum   'Er6 Lu10 Tl6 Rh2'
_cell_volume   634.85650722
_cell_formula_units_Z   2
loop_
 _symmetry_equiv_pos_site_id
 _symmetry_equiv_pos_as_xyz
  1  'x, y, z'
loop_
 _atom_site_type_symbol
 _atom_site_label
 _atom_site_symmetry_multiplicity
 _atom_site_fract_x
 _atom_site_fract_y
 _atom_site_fract_z
 _atom_site_occupancy
  Er  Er0  1  0.532399  0.064798  0.525023  1
  Er  Er1  1  0.935202  0.467601  0.525023  1
  Er  Er2  1  0.532399  0.467601  0.525023  1
  Er  Er3  1  0.467601  0.935202  0.025023  1
  Er  Er4  1  0.064798  0.532399  0.025023  1
  Er  Er5  1  0.467601  0.532399  0.025023  1
  Lu  Lu6  1  0.176701  0.353400  0.728439  1
  Lu  Lu7  1  0.646600  0.823299  0.728439  1
  Lu  Lu8  1  0.176701  0.823299  0.728439  1
  Lu  Lu9  1  0.823299  0.646600  0.228439  1
  Lu  Lu10  1  0.353400  0.176701  0.228439  1
  Lu  Lu11  1  0.823299  0.176701  0.228439  1
  Lu  Lu12  1  0.666667  0.333333  0.904756  1
  Lu  Lu13  1  0.333333  0.666667  0.404756  1
  Lu  Lu14  1  0.000000  0.000000  0.507356  1
  Lu  Lu15  1  0.000000  0.000000  0.007356  1
  Tl  Tl16  1  0.837495  0.674991  0.769886  1
  Tl  Tl17  1  0.325009  0.162505  0.769886  1
  Tl  Tl18  1  0.837495  0.162505  0.769886  1
  Tl  Tl19  1  0.162505  0.325009  0.269886  1
  Tl  Tl20  1  0.674991  0.837495  0.269886  1
  Tl  Tl21  1  0.162505  0.837495  0.269886  1
  Rh  Rh22  1  0.666667  0.333333  0.295683  1
  Rh  Rh23  1  0.333333  0.666667  0.795683  1
