# generated using pymatgen
data_NdTh3(Ga8Pd3)3
_symmetry_space_group_name_H-M   'P 1'
_cell_length_a   7.68210268
_cell_length_b   7.68127492
_cell_length_c   13.43918889
_cell_angle_alpha   84.72165998
_cell_angle_beta   79.18371944
_cell_angle_gamma   59.96275496
_symmetry_Int_Tables_number   1
_chemical_formula_structural   NdTh3(Ga8Pd3)3
_chemical_formula_sum   'Nd1 Th3 Ga24 Pd9'
_cell_volume   674.32274329
_cell_formula_units_Z   1
loop_
 _symmetry_equiv_pos_site_id
 _symmetry_equiv_pos_as_xyz
  1  'x, y, z'
loop_
 _atom_site_type_symbol
 _atom_site_label
 _atom_site_symmetry_multiplicity
 _atom_site_fract_x
 _atom_site_fract_y
 _atom_site_fract_z
 _atom_site_occupancy
  Nd  Nd0  1  0.267132  0.501548  0.191580  1
  Th  Th1  1  0.396150  0.167578  0.807482  1
  Th  Th2  1  0.603301  0.832563  0.192912  1
  Th  Th3  1  0.733425  0.498544  0.807251  1
  Ga  Ga4  1  0.688852  0.833818  0.942541  1
  Ga  Ga5  1  0.311055  0.167948  0.058616  1
  Ga  Ga6  1  0.144679  0.836183  0.559072  1
  Ga  Ga7  1  0.855341  0.163715  0.439610  1
  Ga  Ga8  1  0.480659  0.167268  0.556535  1
  Ga  Ga9  1  0.519239  0.833475  0.443274  1
  Ga  Ga10  1  0.215475  0.168031  0.330801  1
  Ga  Ga11  1  0.785244  0.833907  0.668031  1
  Ga  Ga12  1  0.435926  0.507547  0.669008  1
  Ga  Ga13  1  0.562172  0.492288  0.330252  1
  Ga  Ga14  1  0.110084  0.157819  0.666721  1
  Ga  Ga15  1  0.892137  0.839586  0.332304  1
  Ga  Ga16  1  0.350353  0.502822  0.942915  1
  Ga  Ga17  1  0.647975  0.497333  0.058443  1
  Ga  Ga18  1  0.017724  0.165241  0.949444  1
  Ga  Ga19  1  0.982349  0.833690  0.052820  1
  Ga  Ga20  1  0.186845  0.500825  0.441955  1
  Ga  Ga21  1  0.813797  0.498674  0.556880  1
  Ga  Ga22  1  0.735892  0.163499  0.183944  1
  Ga  Ga23  1  0.263029  0.836482  0.816803  1
  Ga  Ga24  1  0.062492  0.633814  0.815722  1
  Ga  Ga25  1  0.937803  0.366628  0.184634  1
  Ga  Ga26  1  0.861740  0.036986  0.816121  1
  Ga  Ga27  1  0.138977  0.961929  0.184093  1
  Pd  Pd28  1  0.120621  0.495239  0.638069  1
  Pd  Pd29  1  0.878447  0.504571  0.362367  1
  Pd  Pd30  1  0.659359  0.170398  0.998707  1
  Pd  Pd31  1  0.341642  0.830040  0.000559  1
  Pd  Pd32  1  0.540183  0.166396  0.362087  1
  Pd  Pd33  1  0.460308  0.832724  0.638516  1
  Pd  Pd34  1  0.780103  0.172698  0.638222  1
  Pd  Pd35  1  0.219975  0.827980  0.362010  1
  Pd  Pd36  1  0.999516  0.500211  0.999699  1
