# generated using pymatgen
data_La4UAgRu4
_symmetry_space_group_name_H-M   'P 1'
_cell_length_a   6.08523218
_cell_length_b   6.08523303
_cell_length_c   7.43233500
_cell_angle_alpha   86.16709623
_cell_angle_beta   93.83290430
_cell_angle_gamma   121.00372843
_symmetry_Int_Tables_number   1
_chemical_formula_structural   La4UAgRu4
_chemical_formula_sum   'La4 U1 Ag1 Ru4'
_cell_volume   235.20339546
_cell_formula_units_Z   1
loop_
 _symmetry_equiv_pos_site_id
 _symmetry_equiv_pos_as_xyz
  1  'x, y, z'
loop_
 _atom_site_type_symbol
 _atom_site_label
 _atom_site_symmetry_multiplicity
 _atom_site_fract_x
 _atom_site_fract_y
 _atom_site_fract_z
 _atom_site_occupancy
  La  La0  1  0.340633  0.659367  0.105216  1
  La  La1  1  0.659367  0.340633  0.894784  1
  La  La2  1  0.163835  0.836165  0.581480  1
  La  La3  1  0.836165  0.163835  0.418520  1
  U  U4  1  0.000000  0.000000  0.000000  1
  Ag  Ag5  1  0.500000  0.500000  0.500000  1
  Ru  Ru6  1  0.853712  0.659498  0.230620  1
  Ru  Ru7  1  0.659498  0.853712  0.769380  1
  Ru  Ru8  1  0.146288  0.340502  0.769380  1
  Ru  Ru9  1  0.340502  0.146288  0.230620  1
