# generated using pymatgen
data_Sm2Eu2Si10RuPt5
_symmetry_space_group_name_H-M   'P 1'
_cell_length_a   8.25548003
_cell_length_b   8.26010441
_cell_length_c   8.26010412
_cell_angle_alpha   138.04376182
_cell_angle_beta   104.59634296
_cell_angle_gamma   90.25670126
_symmetry_Int_Tables_number   1
_chemical_formula_structural   Sm2Eu2Si10RuPt5
_chemical_formula_sum   'Sm2 Eu2 Si10 Ru1 Pt5'
_cell_volume   348.02765450
_cell_formula_units_Z   1
loop_
 _symmetry_equiv_pos_site_id
 _symmetry_equiv_pos_as_xyz
  1  'x, y, z'
loop_
 _atom_site_type_symbol
 _atom_site_label
 _atom_site_symmetry_multiplicity
 _atom_site_fract_x
 _atom_site_fract_y
 _atom_site_fract_z
 _atom_site_occupancy
  Sm  Sm0  1  0.102887  0.870018  0.231119  1
  Sm  Sm1  1  0.897113  0.128232  0.767131  1
  Eu  Eu2  1  0.637099  0.369622  0.267621  1
  Eu  Eu3  1  0.362901  0.630522  0.732523  1
  Si  Si4  1  0.000000  0.745396  0.745396  1
  Si  Si5  1  0.000000  0.255041  0.255041  1
  Si  Si6  1  0.274071  0.021895  0.750083  1
  Si  Si7  1  0.725929  0.476012  0.747825  1
  Si  Si8  1  0.722562  0.974099  0.250073  1
  Si  Si9  1  0.277438  0.527510  0.251537  1
  Si  Si10  1  0.757826  0.613895  0.156751  1
  Si  Si11  1  0.242174  0.398926  0.856069  1
  Si  Si12  1  0.454475  0.101162  0.340952  1
  Si  Si13  1  0.545525  0.886476  0.646688  1
  Ru  Ru14  1  0.500000  0.752028  0.252028  1
  Pt  Pt15  1  0.500000  0.248978  0.748978  1
  Pt  Pt16  1  0.024981  0.637240  0.383948  1
  Pt  Pt17  1  0.975019  0.358968  0.612259  1
  Pt  Pt18  1  0.246051  0.138026  0.112006  1
  Pt  Pt19  1  0.753949  0.865953  0.891974  1
