# generated using pymatgen
data_BaGaPt4
_symmetry_space_group_name_H-M   'P 1'
_cell_length_a   5.73170400
_cell_length_b   5.73170340
_cell_length_c   4.21033700
_cell_angle_alpha   90.00000000
_cell_angle_beta   90.00000000
_cell_angle_gamma   120.00001501
_symmetry_Int_Tables_number   1
_chemical_formula_structural   BaGaPt4
_chemical_formula_sum   'Ba1 Ga1 Pt4'
_cell_volume   119.78843404
_cell_formula_units_Z   1
loop_
 _symmetry_equiv_pos_site_id
 _symmetry_equiv_pos_as_xyz
  1  'x, y, z'
loop_
 _atom_site_type_symbol
 _atom_site_label
 _atom_site_symmetry_multiplicity
 _atom_site_fract_x
 _atom_site_fract_y
 _atom_site_fract_z
 _atom_site_occupancy
  Ba  Ba0  1  0.000000  0.000000  0.000000  1
  Ga  Ga1  1  0.333333  0.666667  0.000000  1
  Pt  Pt2  1  0.666667  0.333333  0.000000  1
  Pt  Pt3  1  0.497917  0.995834  0.500000  1
  Pt  Pt4  1  0.497917  0.502083  0.500000  1
  Pt  Pt5  1  0.004166  0.502083  0.500000  1
