# generated using pymatgen
data_Gd3In(OsO4)4
_symmetry_space_group_name_H-M   'P 1'
_cell_length_a   5.34210514
_cell_length_b   7.43160334
_cell_length_c   7.66302200
_cell_angle_alpha   79.71990396
_cell_angle_beta   86.41373994
_cell_angle_gamma   89.90498573
_symmetry_Int_Tables_number   1
_chemical_formula_structural   Gd3In(OsO4)4
_chemical_formula_sum   'Gd3 In1 Os4 O16'
_cell_volume   298.74121397
_cell_formula_units_Z   1
loop_
 _symmetry_equiv_pos_site_id
 _symmetry_equiv_pos_as_xyz
  1  'x, y, z'
loop_
 _atom_site_type_symbol
 _atom_site_label
 _atom_site_symmetry_multiplicity
 _atom_site_fract_x
 _atom_site_fract_y
 _atom_site_fract_z
 _atom_site_occupancy
  Gd  Gd0  1  0.303986  0.103520  0.673386  1
  Gd  Gd1  1  0.760618  0.387159  0.375863  1
  Gd  Gd2  1  0.239571  0.610985  0.620720  1
  In  In3  1  0.704633  0.884153  0.329264  1
  Os  Os4  1  0.783972  0.299453  0.839079  1
  Os  Os5  1  0.216389  0.700283  0.162405  1
  Os  Os6  1  0.250647  0.202026  0.166475  1
  Os  Os7  1  0.746249  0.795869  0.833526  1
  O  O8  1  0.908362  0.800150  0.057826  1
  O  O9  1  0.092391  0.198393  0.942950  1
  O  O10  1  0.361386  0.944447  0.185021  1
  O  O11  1  0.662003  0.053926  0.827036  1
  O  O12  1  0.115425  0.447392  0.168917  1
  O  O13  1  0.882558  0.551968  0.829549  1
  O  O14  1  0.559080  0.292431  0.041137  1
  O  O15  1  0.436671  0.709513  0.958271  1
  O  O16  1  0.005290  0.323818  0.611766  1
  O  O17  1  0.993597  0.681652  0.386641  1
  O  O18  1  0.427222  0.190129  0.387165  1
  O  O19  1  0.558380  0.829716  0.607555  1
  O  O20  1  0.479938  0.620545  0.330531  1
  O  O21  1  0.525609  0.383898  0.668774  1
  O  O22  1  0.935564  0.119369  0.299829  1
  O  O23  1  0.050458  0.869207  0.696315  1
