# generated using pymatgen
data_Li2Dy3ErP4
_symmetry_space_group_name_H-M   'P 1'
_cell_length_a   4.04332600
_cell_length_b   4.04332511
_cell_length_c   13.78209900
_cell_angle_alpha   90.00000000
_cell_angle_beta   90.00000000
_cell_angle_gamma   120.00000731
_symmetry_Int_Tables_number   1
_chemical_formula_structural   Li2Dy3ErP4
_chemical_formula_sum   'Li2 Dy3 Er1 P4'
_cell_volume   195.12970407
_cell_formula_units_Z   1
loop_
 _symmetry_equiv_pos_site_id
 _symmetry_equiv_pos_as_xyz
  1  'x, y, z'
loop_
 _atom_site_type_symbol
 _atom_site_label
 _atom_site_symmetry_multiplicity
 _atom_site_fract_x
 _atom_site_fract_y
 _atom_site_fract_z
 _atom_site_occupancy
  Li  Li0  1  0.000000  0.000000  0.249620  1
  Li  Li1  1  0.000000  0.000000  0.749898  1
  Dy  Dy2  1  0.333333  0.666667  0.389955  1
  Dy  Dy3  1  0.666667  0.333333  0.609804  1
  Dy  Dy4  1  0.666667  0.333333  0.890277  1
  Er  Er5  1  0.333333  0.666667  0.109711  1
  P  P6  1  0.000000  0.000000  0.499969  1
  P  P7  1  0.000000  0.000000  0.001547  1
  P  P8  1  0.333333  0.666667  0.750213  1
  P  P9  1  0.666667  0.333333  0.249006  1
