# generated using pymatgen
data_Y4AlGaSi2
_symmetry_space_group_name_H-M   'P 1'
_cell_length_a   3.97151100
_cell_length_b   5.81294835
_cell_length_c   8.02999511
_cell_angle_alpha   90.05185111
_cell_angle_beta   90.00000000
_cell_angle_gamma   90.00000000
_symmetry_Int_Tables_number   1
_chemical_formula_structural   Y4AlGaSi2
_chemical_formula_sum   'Y4 Al1 Ga1 Si2'
_cell_volume   185.38190343
_cell_formula_units_Z   1
loop_
 _symmetry_equiv_pos_site_id
 _symmetry_equiv_pos_as_xyz
  1  'x, y, z'
loop_
 _atom_site_type_symbol
 _atom_site_label
 _atom_site_symmetry_multiplicity
 _atom_site_fract_x
 _atom_site_fract_y
 _atom_site_fract_z
 _atom_site_occupancy
  Y  Y0  1  0.250000  0.380035  0.678516  1
  Y  Y1  1  0.250000  0.120626  0.179582  1
  Y  Y2  1  0.750000  0.611563  0.324053  1
  Y  Y3  1  0.750000  0.891130  0.819188  1
  Al  Al4  1  0.250000  0.627150  0.036200  1
  Ga  Ga5  1  0.250000  0.868885  0.537900  1
  Si  Si6  1  0.750000  0.126987  0.462870  1
  Si  Si7  1  0.750000  0.373623  0.961687  1
