# generated using pymatgen
data_Lu3Ag3Pb2Au
_symmetry_space_group_name_H-M   'P 1'
_cell_length_a   8.11475800
_cell_length_b   8.11475897
_cell_length_c   3.67137700
_cell_angle_alpha   90.00000000
_cell_angle_beta   90.00000000
_cell_angle_gamma   119.99999169
_symmetry_Int_Tables_number   1
_chemical_formula_structural   Lu3Ag3Pb2Au
_chemical_formula_sum   'Lu3 Ag3 Pb2 Au1'
_cell_volume   209.36826213
_cell_formula_units_Z   1
loop_
 _symmetry_equiv_pos_site_id
 _symmetry_equiv_pos_as_xyz
  1  'x, y, z'
loop_
 _atom_site_type_symbol
 _atom_site_label
 _atom_site_symmetry_multiplicity
 _atom_site_fract_x
 _atom_site_fract_y
 _atom_site_fract_z
 _atom_site_occupancy
  Lu  Lu0  1  0.584830  0.964905  0.500000  1
  Lu  Lu1  1  0.380075  0.415170  0.500000  1
  Lu  Lu2  1  0.035095  0.619925  0.500000  1
  Ag  Ag3  1  0.708329  0.715561  0.000000  1
  Ag  Ag4  1  0.007232  0.291671  0.000000  1
  Ag  Ag5  1  0.284439  0.992768  0.000000  1
  Pb  Pb6  1  0.000000  0.000000  0.500000  1
  Pb  Pb7  1  0.666667  0.333333  0.000000  1
  Au  Au8  1  0.333333  0.666667  0.000000  1
