# generated using pymatgen
data_Cs6LaTlCl12
_symmetry_space_group_name_H-M   'P 1'
_cell_length_a   14.48316581
_cell_length_b   14.48316509
_cell_length_c   13.75087200
_cell_angle_alpha   80.51595442
_cell_angle_beta   80.51595489
_cell_angle_gamma   33.72230227
_symmetry_Int_Tables_number   1
_chemical_formula_structural   Cs6LaTlCl12
_chemical_formula_sum   'Cs12 La2 Tl2 Cl24'
_cell_volume   1577.42000503
_cell_formula_units_Z   2
loop_
 _symmetry_equiv_pos_site_id
 _symmetry_equiv_pos_as_xyz
  1  'x, y, z'
loop_
 _atom_site_type_symbol
 _atom_site_label
 _atom_site_symmetry_multiplicity
 _atom_site_fract_x
 _atom_site_fract_y
 _atom_site_fract_z
 _atom_site_occupancy
  Cs  Cs0  1  0.650055  0.026371  0.802543  1
  Cs  Cs1  1  0.532459  0.163483  0.145257  1
  Cs  Cs2  1  0.467541  0.836517  0.854743  1
  Cs  Cs3  1  0.973629  0.349945  0.697457  1
  Cs  Cs4  1  0.306034  0.789400  0.570166  1
  Cs  Cs5  1  0.349945  0.973629  0.197457  1
  Cs  Cs6  1  0.836517  0.467541  0.354743  1
  Cs  Cs7  1  0.026371  0.650055  0.302543  1
  Cs  Cs8  1  0.693966  0.210600  0.429834  1
  Cs  Cs9  1  0.210600  0.693966  0.929834  1
  Cs  Cs10  1  0.789400  0.306034  0.070166  1
  Cs  Cs11  1  0.163483  0.532459  0.645257  1
  La  La12  1  0.500000  0.000000  0.500000  1
  La  La13  1  0.000000  0.500000  0.000000  1
  Tl  Tl14  1  0.207327  0.792673  0.250000  1
  Tl  Tl15  1  0.792673  0.207327  0.750000  1
  Cl  Cl16  1  0.273119  0.387471  0.921115  1
  Cl  Cl17  1  0.387471  0.273119  0.421115  1
  Cl  Cl18  1  0.027900  0.087769  0.296974  1
  Cl  Cl19  1  0.861403  0.635687  0.813638  1
  Cl  Cl20  1  0.612529  0.726881  0.578885  1
  Cl  Cl21  1  0.087769  0.027900  0.796974  1
  Cl  Cl22  1  0.154300  0.206148  0.969227  1
  Cl  Cl23  1  0.845700  0.793852  0.030773  1
  Cl  Cl24  1  0.736805  0.154538  0.925139  1
  Cl  Cl25  1  0.635687  0.861403  0.313638  1
  Cl  Cl26  1  0.845462  0.263195  0.574861  1
  Cl  Cl27  1  0.623802  0.484925  0.820784  1
  Cl  Cl28  1  0.376198  0.515075  0.179216  1
  Cl  Cl29  1  0.972100  0.912231  0.703026  1
  Cl  Cl30  1  0.793852  0.845700  0.530773  1
  Cl  Cl31  1  0.912231  0.972100  0.203026  1
  Cl  Cl32  1  0.484925  0.623802  0.320784  1
  Cl  Cl33  1  0.263195  0.845462  0.074861  1
  Cl  Cl34  1  0.726881  0.612529  0.078885  1
  Cl  Cl35  1  0.154538  0.736805  0.425139  1
  Cl  Cl36  1  0.515075  0.376198  0.679216  1
  Cl  Cl37  1  0.138597  0.364313  0.186362  1
  Cl  Cl38  1  0.364313  0.138597  0.686362  1
  Cl  Cl39  1  0.206148  0.154300  0.469227  1
