# generated using pymatgen
data_Y8Ho11MgPb16
_symmetry_space_group_name_H-M   'P 1'
_cell_length_a   8.15612300
_cell_length_b   8.25175151
_cell_length_c   15.65667000
_cell_angle_alpha   90.00000000
_cell_angle_beta   90.00000000
_cell_angle_gamma   89.75165912
_symmetry_Int_Tables_number   1
_chemical_formula_structural   Y8Ho11MgPb16
_chemical_formula_sum   'Y8 Ho11 Mg1 Pb16'
_cell_volume   1053.72000789
_cell_formula_units_Z   1
loop_
 _symmetry_equiv_pos_site_id
 _symmetry_equiv_pos_as_xyz
  1  'x, y, z'
loop_
 _atom_site_type_symbol
 _atom_site_label
 _atom_site_symmetry_multiplicity
 _atom_site_fract_x
 _atom_site_fract_y
 _atom_site_fract_z
 _atom_site_occupancy
  Y  Y0  1  0.529409  0.324918  0.902535  1
  Y  Y1  1  0.033514  0.183454  0.597580  1
  Y  Y2  1  0.467187  0.675981  0.400886  1
  Y  Y3  1  0.966728  0.822035  0.098923  1
  Y  Y4  1  0.467187  0.675981  0.099114  1
  Y  Y5  1  0.966728  0.822035  0.401077  1
  Y  Y6  1  0.529409  0.324918  0.597465  1
  Y  Y7  1  0.033514  0.183454  0.902420  1
  Ho  Ho8  1  0.373200  0.838913  0.878912  1
  Ho  Ho9  1  0.881468  0.657443  0.621927  1
  Ho  Ho10  1  0.625700  0.156786  0.378958  1
  Ho  Ho11  1  0.126421  0.339983  0.121856  1
  Ho  Ho12  1  0.625700  0.156786  0.121042  1
  Ho  Ho13  1  0.126421  0.339983  0.378144  1
  Ho  Ho14  1  0.373200  0.838913  0.621088  1
  Ho  Ho15  1  0.881468  0.657443  0.878073  1
  Ho  Ho16  1  0.704033  0.993732  0.750000  1
  Ho  Ho17  1  0.793664  0.494845  0.250000  1
  Ho  Ho18  1  0.293491  0.004384  0.250000  1
  Mg  Mg19  1  0.206029  0.503200  0.750000  1
  Pb  Pb20  1  0.284144  0.034260  0.042804  1
  Pb  Pb21  1  0.785270  0.463878  0.457558  1
  Pb  Pb22  1  0.716590  0.965840  0.544244  1
  Pb  Pb23  1  0.215693  0.538248  0.959201  1
  Pb  Pb24  1  0.716590  0.965840  0.955756  1
  Pb  Pb25  1  0.215693  0.538248  0.540799  1
  Pb  Pb26  1  0.284144  0.034260  0.457196  1
  Pb  Pb27  1  0.785270  0.463878  0.042442  1
  Pb  Pb28  1  0.566466  0.621012  0.750000  1
  Pb  Pb29  1  0.071245  0.880495  0.750000  1
  Pb  Pb30  1  0.431074  0.374497  0.250000  1
  Pb  Pb31  1  0.930614  0.125834  0.250000  1
  Pb  Pb32  1  0.344335  0.154196  0.750000  1
  Pb  Pb33  1  0.838330  0.346187  0.750000  1
  Pb  Pb34  1  0.655049  0.845521  0.250000  1
  Pb  Pb35  1  0.155022  0.652619  0.250000  1
