# generated using pymatgen
data_Er3Zr(Ga3Rh)6
_symmetry_space_group_name_H-M   'P 1'
_cell_length_a   7.54226236
_cell_length_b   7.52740745
_cell_length_c   9.44584200
_cell_angle_alpha   90.00000000
_cell_angle_beta   90.00000000
_cell_angle_gamma   119.86469446
_symmetry_Int_Tables_number   1
_chemical_formula_structural   Er3Zr(Ga3Rh)6
_chemical_formula_sum   'Er3 Zr1 Ga18 Rh6'
_cell_volume   465.05989033
_cell_formula_units_Z   1
loop_
 _symmetry_equiv_pos_site_id
 _symmetry_equiv_pos_as_xyz
  1  'x, y, z'
loop_
 _atom_site_type_symbol
 _atom_site_label
 _atom_site_symmetry_multiplicity
 _atom_site_fract_x
 _atom_site_fract_y
 _atom_site_fract_z
 _atom_site_occupancy
  Er  Er0  1  0.003948  0.331311  0.750000  1
  Er  Er1  1  0.669000  0.997236  0.250000  1
  Er  Er2  1  0.331680  0.003680  0.750000  1
  Zr  Zr3  1  0.996638  0.667797  0.250000  1
  Ga  Ga4  1  0.123578  0.122343  0.250000  1
  Ga  Ga5  1  0.874343  0.874402  0.750000  1
  Ga  Ga6  1  0.999312  0.336392  0.081384  1
  Ga  Ga7  1  0.000746  0.665777  0.921874  1
  Ga  Ga8  1  0.000746  0.665777  0.578126  1
  Ga  Ga9  1  0.331841  0.997496  0.418606  1
  Ga  Ga10  1  0.999312  0.336392  0.418616  1
  Ga  Ga11  1  0.665877  0.000293  0.579561  1
  Ga  Ga12  1  0.665877  0.000293  0.920439  1
  Ga  Ga13  1  0.331841  0.997496  0.081394  1
  Ga  Ga14  1  0.332761  0.332719  0.564865  1
  Ga  Ga15  1  0.669107  0.667483  0.433393  1
  Ga  Ga16  1  0.669107  0.667483  0.066607  1
  Ga  Ga17  1  0.332761  0.332719  0.935135  1
  Ga  Ga18  1  0.337040  0.548617  0.250000  1
  Ga  Ga19  1  0.661535  0.452786  0.750000  1
  Ga  Ga20  1  0.550979  0.340313  0.250000  1
  Ga  Ga21  1  0.452106  0.661012  0.750000  1
  Rh  Rh22  1  0.672517  0.328846  0.000588  1
  Rh  Rh23  1  0.327505  0.671996  0.001063  1
  Rh  Rh24  1  0.327505  0.671996  0.498937  1
  Rh  Rh25  1  0.672517  0.328846  0.499412  1
  Rh  Rh26  1  0.999911  0.999248  0.000628  1
  Rh  Rh27  1  0.999911  0.999248  0.499372  1
