# generated using pymatgen
data_SrLi2TbSi4
_symmetry_space_group_name_H-M   'P 1'
_cell_length_a   3.84412200
_cell_length_b   7.92429597
_cell_length_c   10.67459006
_cell_angle_alpha   89.38218993
_cell_angle_beta   90.00000000
_cell_angle_gamma   90.00000000
_symmetry_Int_Tables_number   1
_chemical_formula_structural   SrLi2TbSi4
_chemical_formula_sum   'Sr2 Li4 Tb2 Si8'
_cell_volume   325.15003704
_cell_formula_units_Z   2
loop_
 _symmetry_equiv_pos_site_id
 _symmetry_equiv_pos_as_xyz
  1  'x, y, z'
loop_
 _atom_site_type_symbol
 _atom_site_label
 _atom_site_symmetry_multiplicity
 _atom_site_fract_x
 _atom_site_fract_y
 _atom_site_fract_z
 _atom_site_occupancy
  Sr  Sr0  1  0.250000  0.639722  0.634860  1
  Sr  Sr1  1  0.750000  0.360278  0.365140  1
  Li  Li2  1  0.250000  0.001493  0.388032  1
  Li  Li3  1  0.750000  0.998507  0.611968  1
  Li  Li4  1  0.250000  0.491423  0.107637  1
  Li  Li5  1  0.750000  0.508577  0.892363  1
  Tb  Tb6  1  0.250000  0.126952  0.867280  1
  Tb  Tb7  1  0.750000  0.873048  0.132720  1
  Si  Si8  1  0.750000  0.259511  0.060208  1
  Si  Si9  1  0.250000  0.740489  0.939792  1
  Si  Si10  1  0.750000  0.781395  0.418584  1
  Si  Si11  1  0.250000  0.218605  0.581416  1
  Si  Si12  1  0.750000  0.844329  0.832386  1
  Si  Si13  1  0.250000  0.155671  0.167614  1
  Si  Si14  1  0.750000  0.322015  0.688677  1
  Si  Si15  1  0.250000  0.677985  0.311323  1
