# generated using pymatgen
data_SrCaNi12P5
_symmetry_space_group_name_H-M   'P 1'
_cell_length_a   3.67045100
_cell_length_b   10.90302133
_cell_length_c   13.35748300
_cell_angle_alpha   71.65315924
_cell_angle_beta   90.00000000
_cell_angle_gamma   90.00000000
_symmetry_Int_Tables_number   1
_chemical_formula_structural   SrCaNi12P5
_chemical_formula_sum   'Sr2 Ca2 Ni24 P10'
_cell_volume   507.38102627
_cell_formula_units_Z   2
loop_
 _symmetry_equiv_pos_site_id
 _symmetry_equiv_pos_as_xyz
  1  'x, y, z'
loop_
 _atom_site_type_symbol
 _atom_site_label
 _atom_site_symmetry_multiplicity
 _atom_site_fract_x
 _atom_site_fract_y
 _atom_site_fract_z
 _atom_site_occupancy
  Sr  Sr0  1  0.250000  0.746335  0.188466  1
  Sr  Sr1  1  0.750000  0.253665  0.811534  1
  Ca  Ca2  1  0.250000  0.782006  0.681319  1
  Ca  Ca3  1  0.750000  0.217994  0.318681  1
  Ni  Ni4  1  0.250000  0.571078  0.014155  1
  Ni  Ni5  1  0.250000  0.566238  0.448208  1
  Ni  Ni6  1  0.750000  0.503156  0.342318  1
  Ni  Ni7  1  0.250000  0.496844  0.657682  1
  Ni  Ni8  1  0.750000  0.506517  0.152519  1
  Ni  Ni9  1  0.250000  0.493483  0.847481  1
  Ni  Ni10  1  0.750000  0.433762  0.551792  1
  Ni  Ni11  1  0.250000  0.343360  0.136961  1
  Ni  Ni12  1  0.750000  0.658066  0.561601  1
  Ni  Ni13  1  0.250000  0.341934  0.438399  1
  Ni  Ni14  1  0.750000  0.906885  0.305491  1
  Ni  Ni15  1  0.250000  0.093115  0.694509  1
  Ni  Ni16  1  0.750000  0.918046  0.990338  1
  Ni  Ni17  1  0.250000  0.081954  0.009662  1
  Ni  Ni18  1  0.750000  0.923556  0.490295  1
  Ni  Ni19  1  0.250000  0.076444  0.509705  1
  Ni  Ni20  1  0.750000  0.935398  0.795387  1
  Ni  Ni21  1  0.250000  0.064602  0.204613  1
  Ni  Ni22  1  0.250000  0.788123  0.440589  1
  Ni  Ni23  1  0.750000  0.211877  0.559411  1
  Ni  Ni24  1  0.250000  0.797522  0.915737  1
  Ni  Ni25  1  0.750000  0.202478  0.084263  1
  Ni  Ni26  1  0.750000  0.656640  0.863039  1
  Ni  Ni27  1  0.750000  0.428922  0.985845  1
  P  P28  1  0.250000  0.007033  0.871340  1
  P  P29  1  0.750000  0.992967  0.128660  1
  P  P30  1  0.250000  0.302013  0.985841  1
  P  P31  1  0.750000  0.697987  0.014159  1
  P  P32  1  0.250000  0.443666  0.262383  1
  P  P33  1  0.750000  0.556334  0.737617  1
  P  P34  1  0.250000  0.995367  0.377725  1
  P  P35  1  0.750000  0.004633  0.622275  1
  P  P36  1  0.250000  0.311478  0.610030  1
  P  P37  1  0.750000  0.688522  0.389970  1
