# generated using pymatgen
data_PaNb2(Co3B2)3
_symmetry_space_group_name_H-M   'P 1'
_cell_length_a   5.70104446
_cell_length_b   5.70104450
_cell_length_c   5.70104445
_cell_angle_alpha   94.88170170
_cell_angle_beta   94.88170762
_cell_angle_gamma   94.88171442
_symmetry_Int_Tables_number   1
_chemical_formula_structural   PaNb2(Co3B2)3
_chemical_formula_sum   'Pa1 Nb2 Co9 B6'
_cell_volume   183.15547661
_cell_formula_units_Z   1
loop_
 _symmetry_equiv_pos_site_id
 _symmetry_equiv_pos_as_xyz
  1  'x, y, z'
loop_
 _atom_site_type_symbol
 _atom_site_label
 _atom_site_symmetry_multiplicity
 _atom_site_fract_x
 _atom_site_fract_y
 _atom_site_fract_z
 _atom_site_occupancy
  Pa  Pa0  1  0.000000  0.000000  0.000000  1
  Nb  Nb1  1  0.659393  0.659393  0.659393  1
  Nb  Nb2  1  0.340607  0.340607  0.340607  1
  Co  Co3  1  0.000000  0.000000  0.500000  1
  Co  Co4  1  0.500000  0.000000  0.000000  1
  Co  Co5  1  0.000000  0.500000  0.000000  1
  Co  Co6  1  0.693035  0.201975  0.693035  1
  Co  Co7  1  0.693035  0.693035  0.201975  1
  Co  Co8  1  0.201975  0.693035  0.693035  1
  Co  Co9  1  0.306965  0.798025  0.306965  1
  Co  Co10  1  0.306965  0.306965  0.798025  1
  Co  Co11  1  0.798025  0.306965  0.306965  1
  B  B12  1  0.619621  0.380379  0.000000  1
  B  B13  1  0.000000  0.619621  0.380379  1
  B  B14  1  0.380379  0.000000  0.619621  1
  B  B15  1  0.000000  0.380379  0.619621  1
  B  B16  1  0.619621  0.000000  0.380379  1
  B  B17  1  0.380379  0.619621  0.000000  1
