# generated using pymatgen
data_GdLuB6Os
_symmetry_space_group_name_H-M   'P 1'
_cell_length_a   3.62929100
_cell_length_b   9.09846300
_cell_length_c   11.49636900
_cell_angle_alpha   90.00000000
_cell_angle_beta   90.00000000
_cell_angle_gamma   90.00000000
_symmetry_Int_Tables_number   1
_chemical_formula_structural   GdLuB6Os
_chemical_formula_sum   'Gd4 Lu4 B24 Os4'
_cell_volume   379.62125448
_cell_formula_units_Z   4
loop_
 _symmetry_equiv_pos_site_id
 _symmetry_equiv_pos_as_xyz
  1  'x, y, z'
loop_
 _atom_site_type_symbol
 _atom_site_label
 _atom_site_symmetry_multiplicity
 _atom_site_fract_x
 _atom_site_fract_y
 _atom_site_fract_z
 _atom_site_occupancy
  Gd  Gd0  1  0.000000  0.321601  0.414134  1
  Gd  Gd1  1  0.000000  0.678399  0.585866  1
  Gd  Gd2  1  0.000000  0.821601  0.085866  1
  Gd  Gd3  1  0.000000  0.178399  0.914134  1
  Lu  Lu4  1  0.000000  0.944357  0.373116  1
  Lu  Lu5  1  0.000000  0.055643  0.626884  1
  Lu  Lu6  1  0.000000  0.444357  0.126884  1
  Lu  Lu7  1  0.000000  0.555643  0.873116  1
  B  B8  1  0.500000  0.554875  0.432272  1
  B  B9  1  0.500000  0.445125  0.567728  1
  B  B10  1  0.500000  0.054875  0.067728  1
  B  B11  1  0.500000  0.945125  0.932272  1
  B  B12  1  0.500000  0.750116  0.418938  1
  B  B13  1  0.500000  0.249884  0.581062  1
  B  B14  1  0.500000  0.250116  0.081062  1
  B  B15  1  0.500000  0.749884  0.918938  1
  B  B16  1  0.500000  0.792140  0.266098  1
  B  B17  1  0.500000  0.207860  0.733902  1
  B  B18  1  0.500000  0.292140  0.233902  1
  B  B19  1  0.500000  0.707860  0.766098  1
  B  B20  1  0.500000  0.630673  0.184285  1
  B  B21  1  0.500000  0.369327  0.815715  1
  B  B22  1  0.500000  0.130673  0.315715  1
  B  B23  1  0.500000  0.869327  0.684285  1
  B  B24  1  0.500000  0.983137  0.213952  1
  B  B25  1  0.500000  0.016863  0.786048  1
  B  B26  1  0.500000  0.483137  0.286048  1
  B  B27  1  0.500000  0.516863  0.713952  1
  B  B28  1  0.500000  0.603274  0.028261  1
  B  B29  1  0.500000  0.396726  0.971739  1
  B  B30  1  0.500000  0.103274  0.471739  1
  B  B31  1  0.500000  0.896726  0.528261  1
  Os  Os32  1  0.000000  0.638871  0.319760  1
  Os  Os33  1  0.000000  0.361129  0.680240  1
  Os  Os34  1  0.000000  0.138871  0.180240  1
  Os  Os35  1  0.000000  0.861129  0.819760  1
