# generated using pymatgen
data_Tm8ZnInNi2
_symmetry_space_group_name_H-M   'P 1'
_cell_length_a   9.35300547
_cell_length_b   9.35300522
_cell_length_c   9.34867800
_cell_angle_alpha   60.01530333
_cell_angle_beta   60.01530423
_cell_angle_gamma   60.15672164
_symmetry_Int_Tables_number   1
_chemical_formula_structural   Tm8ZnInNi2
_chemical_formula_sum   'Tm16 Zn2 In2 Ni4'
_cell_volume   579.09521670
_cell_formula_units_Z   2
loop_
 _symmetry_equiv_pos_site_id
 _symmetry_equiv_pos_as_xyz
  1  'x, y, z'
loop_
 _atom_site_type_symbol
 _atom_site_label
 _atom_site_symmetry_multiplicity
 _atom_site_fract_x
 _atom_site_fract_y
 _atom_site_fract_z
 _atom_site_occupancy
  Tm  Tm0  1  0.349649  0.349649  0.351761  1
  Tm  Tm1  1  0.349649  0.349649  0.948942  1
  Tm  Tm2  1  0.350030  0.950151  0.349909  1
  Tm  Tm3  1  0.950151  0.350030  0.349909  1
  Tm  Tm4  1  0.811137  0.188647  0.189603  1
  Tm  Tm5  1  0.188647  0.811137  0.810612  1
  Tm  Tm6  1  0.188647  0.811137  0.189603  1
  Tm  Tm7  1  0.811137  0.188647  0.810612  1
  Tm  Tm8  1  0.189290  0.189290  0.810710  1
  Tm  Tm9  1  0.810496  0.810496  0.189504  1
  Tm  Tm10  1  0.941594  0.565273  0.562684  1
  Tm  Tm11  1  0.565273  0.941594  0.930449  1
  Tm  Tm12  1  0.565273  0.941594  0.562684  1
  Tm  Tm13  1  0.941594  0.565273  0.930449  1
  Tm  Tm14  1  0.564049  0.564049  0.935951  1
  Tm  Tm15  1  0.937301  0.937301  0.562699  1
  Zn  Zn16  1  0.579399  0.250814  0.584894  1
  Zn  Zn17  1  0.250814  0.579399  0.584894  1
  In  In18  1  0.577809  0.577809  0.584372  1
  In  In19  1  0.577809  0.577809  0.260010  1
  Ni  Ni20  1  0.142166  0.142166  0.145852  1
  Ni  Ni21  1  0.142166  0.142166  0.569818  1
  Ni  Ni22  1  0.143534  0.572388  0.142040  1
  Ni  Ni23  1  0.572388  0.143534  0.142040  1
