# generated using pymatgen
data_Ho4VSi8Tc5
_symmetry_space_group_name_H-M   'P 1'
_cell_length_a   6.80550239
_cell_length_b   6.68549761
_cell_length_c   6.79769108
_cell_angle_alpha   70.41173334
_cell_angle_beta   89.97636856
_cell_angle_gamma   90.16949770
_symmetry_Int_Tables_number   1
_chemical_formula_structural   Ho4VSi8Tc5
_chemical_formula_sum   'Ho4 V1 Si8 Tc5'
_cell_volume   291.38152943
_cell_formula_units_Z   1
loop_
 _symmetry_equiv_pos_site_id
 _symmetry_equiv_pos_as_xyz
  1  'x, y, z'
loop_
 _atom_site_type_symbol
 _atom_site_label
 _atom_site_symmetry_multiplicity
 _atom_site_fract_x
 _atom_site_fract_y
 _atom_site_fract_z
 _atom_site_occupancy
  Ho  Ho0  1  0.668658  0.440191  0.192778  1
  Ho  Ho1  1  0.169131  0.058085  0.809822  1
  Ho  Ho2  1  0.332630  0.558697  0.810297  1
  Ho  Ho3  1  0.831444  0.940504  0.192978  1
  V  V4  1  0.342794  0.744114  0.243942  1
  Si  Si5  1  0.450400  0.121282  0.099311  1
  Si  Si6  1  0.950027  0.380071  0.897022  1
  Si  Si7  1  0.548336  0.874333  0.902846  1
  Si  Si8  1  0.048869  0.625084  0.099001  1
  Si  Si9  1  0.861246  0.132478  0.511202  1
  Si  Si10  1  0.360316  0.369001  0.487364  1
  Si  Si11  1  0.137668  0.870084  0.490294  1
  Si  Si12  1  0.637191  0.629243  0.510157  1
  Tc  Tc13  1  0.500270  0.995891  0.497184  1
  Tc  Tc14  1  0.002500  0.502484  0.499306  1
  Tc  Tc15  1  0.156292  0.246527  0.234862  1
  Tc  Tc16  1  0.656309  0.253880  0.762506  1
  Tc  Tc17  1  0.845917  0.758048  0.759129  1
