# generated using pymatgen
data_Ca9LuPb6F2
_symmetry_space_group_name_H-M   'P 1'
_cell_length_a   9.56756587
_cell_length_b   9.56421546
_cell_length_c   9.56277076
_cell_angle_alpha   128.95237487
_cell_angle_beta   128.96507728
_cell_angle_gamma   75.05224208
_symmetry_Int_Tables_number   1
_chemical_formula_structural   Ca9LuPb6F2
_chemical_formula_sum   'Ca9 Lu1 Pb6 F2'
_cell_volume   515.26825963
_cell_formula_units_Z   1
loop_
 _symmetry_equiv_pos_site_id
 _symmetry_equiv_pos_as_xyz
  1  'x, y, z'
loop_
 _atom_site_type_symbol
 _atom_site_label
 _atom_site_symmetry_multiplicity
 _atom_site_fract_x
 _atom_site_fract_y
 _atom_site_fract_z
 _atom_site_occupancy
  Ca  Ca0  1  0.000000  0.000000  0.000000  1
  Ca  Ca1  1  0.505400  0.006568  0.816338  1
  Ca  Ca2  1  0.190366  0.689232  0.183777  1
  Ca  Ca3  1  0.006660  0.190075  0.501092  1
  Ca  Ca4  1  0.689016  0.505521  0.498810  1
  Ca  Ca5  1  0.494600  0.993432  0.183662  1
  Ca  Ca6  1  0.809634  0.310768  0.816223  1
  Ca  Ca7  1  0.993340  0.809925  0.498908  1
  Ca  Ca8  1  0.310984  0.494479  0.501190  1
  Lu  Lu9  1  0.500000  0.500000  0.000000  1
  Pb  Pb10  1  0.252457  0.252336  0.999913  1
  Pb  Pb11  1  0.747543  0.747664  0.000087  1
  Pb  Pb12  1  0.859702  0.368339  0.228044  1
  Pb  Pb13  1  0.140298  0.631661  0.771957  1
  Pb  Pb14  1  0.368201  0.140341  0.508581  1
  Pb  Pb15  1  0.631799  0.859659  0.491419  1
  F  F16  1  0.250017  0.749991  0.500041  1
  F  F17  1  0.749983  0.250009  0.499959  1
