# generated using pymatgen
data_Tm3Lu(Ga10Ru3)2
_symmetry_space_group_name_H-M   'P 1'
_cell_length_a   8.90231888
_cell_length_b   8.90231888
_cell_length_c   6.35677200
_cell_angle_alpha   90.00000000
_cell_angle_beta   90.00000000
_cell_angle_gamma   90.05094778
_symmetry_Int_Tables_number   1
_chemical_formula_structural   Tm3Lu(Ga10Ru3)2
_chemical_formula_sum   'Tm3 Lu1 Ga20 Ru6'
_cell_volume   503.78212765
_cell_formula_units_Z   1
loop_
 _symmetry_equiv_pos_site_id
 _symmetry_equiv_pos_as_xyz
  1  'x, y, z'
loop_
 _atom_site_type_symbol
 _atom_site_label
 _atom_site_symmetry_multiplicity
 _atom_site_fract_x
 _atom_site_fract_y
 _atom_site_fract_z
 _atom_site_occupancy
  Tm  Tm0  1  0.183306  0.683301  0.000000  1
  Tm  Tm1  1  0.816699  0.316694  0.000000  1
  Tm  Tm2  1  0.683370  0.816630  0.000000  1
  Lu  Lu3  1  0.316581  0.183419  0.000000  1
  Ga  Ga4  1  0.061575  0.207082  0.708243  1
  Ga  Ga5  1  0.938887  0.793084  0.707723  1
  Ga  Ga6  1  0.560958  0.292925  0.708076  1
  Ga  Ga7  1  0.438814  0.706941  0.707719  1
  Ga  Ga8  1  0.793059  0.061186  0.707719  1
  Ga  Ga9  1  0.207075  0.939042  0.708076  1
  Ga  Ga10  1  0.706916  0.561113  0.707723  1
  Ga  Ga11  1  0.292918  0.438425  0.708243  1
  Ga  Ga12  1  0.938887  0.793084  0.292277  1
  Ga  Ga13  1  0.061575  0.207082  0.291757  1
  Ga  Ga14  1  0.438814  0.706941  0.292281  1
  Ga  Ga15  1  0.560958  0.292925  0.291924  1
  Ga  Ga16  1  0.207075  0.939042  0.291924  1
  Ga  Ga17  1  0.793059  0.061186  0.292281  1
  Ga  Ga18  1  0.292918  0.438425  0.291757  1
  Ga  Ga19  1  0.706916  0.561113  0.292277  1
  Ga  Ga20  1  0.000028  0.499972  0.715442  1
  Ga  Ga21  1  0.499730  0.000270  0.716331  1
  Ga  Ga22  1  0.000028  0.499972  0.284558  1
  Ga  Ga23  1  0.499730  0.000270  0.283669  1
  Ru  Ru24  1  0.178159  0.678111  0.500000  1
  Ru  Ru25  1  0.821889  0.321841  0.500000  1
  Ru  Ru26  1  0.677928  0.822072  0.500000  1
  Ru  Ru27  1  0.321924  0.178076  0.500000  1
  Ru  Ru28  1  0.000490  0.000266  0.000000  1
  Ru  Ru29  1  0.499734  0.499510  0.000000  1
