# generated using pymatgen
data_Tm12Fe4BiIr
_symmetry_space_group_name_H-M   'P 1'
_cell_length_a   8.20861815
_cell_length_b   8.20861802
_cell_length_c   8.20861843
_cell_angle_alpha   111.09030249
_cell_angle_beta   111.36624763
_cell_angle_gamma   106.01164999
_symmetry_Int_Tables_number   1
_chemical_formula_structural   Tm12Fe4BiIr
_chemical_formula_sum   'Tm12 Fe4 Bi1 Ir1'
_cell_volume   424.62512603
_cell_formula_units_Z   1
loop_
 _symmetry_equiv_pos_site_id
 _symmetry_equiv_pos_as_xyz
  1  'x, y, z'
loop_
 _atom_site_type_symbol
 _atom_site_label
 _atom_site_symmetry_multiplicity
 _atom_site_fract_x
 _atom_site_fract_y
 _atom_site_fract_z
 _atom_site_occupancy
  Tm  Tm0  1  0.279572  0.183345  0.462915  1
  Tm  Tm1  1  0.720428  0.816655  0.537085  1
  Tm  Tm2  1  0.279572  0.816655  0.096226  1
  Tm  Tm3  1  0.720428  0.183345  0.903774  1
  Tm  Tm4  1  0.617476  0.310986  0.306489  1
  Tm  Tm5  1  0.382524  0.689014  0.693511  1
  Tm  Tm6  1  0.004498  0.310986  0.693511  1
  Tm  Tm7  1  0.995502  0.689014  0.306489  1
  Tm  Tm8  1  0.215010  0.414535  0.199526  1
  Tm  Tm9  1  0.784990  0.585465  0.800474  1
  Tm  Tm10  1  0.215010  0.015484  0.800474  1
  Tm  Tm11  1  0.784990  0.984516  0.199526  1
  Fe  Fe12  1  0.000000  0.382819  0.382819  1
  Fe  Fe13  1  0.000000  0.617181  0.617181  1
  Fe  Fe14  1  0.392941  0.892941  0.500000  1
  Fe  Fe15  1  0.607059  0.107059  0.500000  1
  Bi  Bi16  1  0.500000  0.500000  0.000000  1
  Ir  Ir17  1  0.000000  0.000000  0.000000  1
