# generated using pymatgen
data_Dy9Y(GeBi2)2
_symmetry_space_group_name_H-M   'P 1'
_cell_length_a   8.07885000
_cell_length_b   9.22159600
_cell_length_c   12.06786000
_cell_angle_alpha   90.00000000
_cell_angle_beta   90.00000000
_cell_angle_gamma   90.00000000
_symmetry_Int_Tables_number   1
_chemical_formula_structural   Dy9Y(GeBi2)2
_chemical_formula_sum   'Dy18 Y2 Ge4 Bi8'
_cell_volume   899.05425273
_cell_formula_units_Z   2
loop_
 _symmetry_equiv_pos_site_id
 _symmetry_equiv_pos_as_xyz
  1  'x, y, z'
loop_
 _atom_site_type_symbol
 _atom_site_label
 _atom_site_symmetry_multiplicity
 _atom_site_fract_x
 _atom_site_fract_y
 _atom_site_fract_z
 _atom_site_occupancy
  Dy  Dy0  1  0.819658  0.554290  0.063030  1
  Dy  Dy1  1  0.680342  0.945710  0.563030  1
  Dy  Dy2  1  0.180302  0.054261  0.936958  1
  Dy  Dy3  1  0.319698  0.445739  0.436958  1
  Dy  Dy4  1  0.180302  0.445739  0.936958  1
  Dy  Dy5  1  0.319698  0.054261  0.436958  1
  Dy  Dy6  1  0.819658  0.945710  0.063030  1
  Dy  Dy7  1  0.680342  0.554290  0.563030  1
  Dy  Dy8  1  0.833060  0.250000  0.786538  1
  Dy  Dy9  1  0.666940  0.250000  0.286538  1
  Dy  Dy10  1  0.463240  0.750000  0.001696  1
  Dy  Dy11  1  0.036760  0.750000  0.501696  1
  Dy  Dy12  1  0.536866  0.250000  0.998318  1
  Dy  Dy13  1  0.963134  0.250000  0.498318  1
  Dy  Dy14  1  0.640370  0.750000  0.293892  1
  Dy  Dy15  1  0.859630  0.750000  0.793892  1
  Dy  Dy16  1  0.359832  0.250000  0.706121  1
  Dy  Dy17  1  0.140168  0.250000  0.206121  1
  Y  Y18  1  0.166863  0.750000  0.213682  1
  Y  Y19  1  0.333137  0.750000  0.713682  1
  Ge  Ge20  1  0.409867  0.750000  0.476762  1
  Ge  Ge21  1  0.090133  0.750000  0.976762  1
  Ge  Ge22  1  0.590334  0.250000  0.522919  1
  Ge  Ge23  1  0.909666  0.250000  0.022919  1
  Bi  Bi24  1  0.933310  0.510271  0.325612  1
  Bi  Bi25  1  0.566690  0.989729  0.825612  1
  Bi  Bi26  1  0.066351  0.010452  0.674437  1
  Bi  Bi27  1  0.433649  0.489548  0.174437  1
  Bi  Bi28  1  0.066351  0.489548  0.674437  1
  Bi  Bi29  1  0.433649  0.010452  0.174437  1
  Bi  Bi30  1  0.933310  0.989729  0.325612  1
  Bi  Bi31  1  0.566690  0.510271  0.825612  1
