# generated using pymatgen
data_YbBi6(AsO5)4
_symmetry_space_group_name_H-M   'P 1'
_cell_length_a   7.12264595
_cell_length_b   7.93247968
_cell_length_c   9.45582287
_cell_angle_alpha   106.18542784
_cell_angle_beta   94.70965084
_cell_angle_gamma   112.39205845
_symmetry_Int_Tables_number   1
_chemical_formula_structural   YbBi6(AsO5)4
_chemical_formula_sum   'Yb1 Bi6 As4 O20'
_cell_volume   463.60537494
_cell_formula_units_Z   1
loop_
 _symmetry_equiv_pos_site_id
 _symmetry_equiv_pos_as_xyz
  1  'x, y, z'
loop_
 _atom_site_type_symbol
 _atom_site_label
 _atom_site_symmetry_multiplicity
 _atom_site_fract_x
 _atom_site_fract_y
 _atom_site_fract_z
 _atom_site_occupancy
  Yb  Yb0  1  0.000000  0.000000  0.000000  1
  Bi  Bi1  1  0.343036  0.130806  0.515790  1
  Bi  Bi2  1  0.656964  0.869194  0.484210  1
  Bi  Bi3  1  0.434996  0.798746  0.084051  1
  Bi  Bi4  1  0.565004  0.201254  0.915949  1
  Bi  Bi5  1  0.807939  0.289088  0.324325  1
  Bi  Bi6  1  0.192061  0.710912  0.675675  1
  As  As7  1  0.050887  0.269045  0.761287  1
  As  As8  1  0.949113  0.730955  0.238713  1
  As  As9  1  0.340638  0.386776  0.250311  1
  As  As10  1  0.659362  0.613224  0.749689  1
  O  O11  1  0.103436  0.226650  0.265170  1
  O  O12  1  0.896564  0.773350  0.734830  1
  O  O13  1  0.155689  0.518299  0.834197  1
  O  O14  1  0.844311  0.481701  0.165803  1
  O  O15  1  0.677284  0.089550  0.099155  1
  O  O16  1  0.322716  0.910450  0.900845  1
  O  O17  1  0.546186  0.024280  0.361422  1
  O  O18  1  0.453814  0.975720  0.638578  1
  O  O19  1  0.357094  0.618811  0.301278  1
  O  O20  1  0.642906  0.381189  0.698722  1
  O  O21  1  0.238660  0.179527  0.753346  1
  O  O22  1  0.761340  0.820473  0.246654  1
  O  O23  1  0.538374  0.382807  0.365721  1
  O  O24  1  0.461626  0.617193  0.634279  1
  O  O25  1  0.069181  0.808930  0.426794  1
  O  O26  1  0.930819  0.191070  0.573206  1
  O  O27  1  0.114821  0.834343  0.134104  1
  O  O28  1  0.885179  0.165657  0.865896  1
  O  O29  1  0.334392  0.289974  0.061957  1
  O  O30  1  0.665608  0.710026  0.938043  1
