# generated using pymatgen
data_DyTm7B24Ir3Ru
_symmetry_space_group_name_H-M   'P 1'
_cell_length_a   3.61566000
_cell_length_b   9.12672835
_cell_length_c   11.45011001
_cell_angle_alpha   90.01299646
_cell_angle_beta   90.00000000
_cell_angle_gamma   90.00000000
_symmetry_Int_Tables_number   1
_chemical_formula_structural   DyTm7B24Ir3Ru
_chemical_formula_sum   'Dy1 Tm7 B24 Ir3 Ru1'
_cell_volume   377.84384936
_cell_formula_units_Z   1
loop_
 _symmetry_equiv_pos_site_id
 _symmetry_equiv_pos_as_xyz
  1  'x, y, z'
loop_
 _atom_site_type_symbol
 _atom_site_label
 _atom_site_symmetry_multiplicity
 _atom_site_fract_x
 _atom_site_fract_y
 _atom_site_fract_z
 _atom_site_occupancy
  Dy  Dy0  1  0.000000  0.320426  0.413238  1
  Tm  Tm1  1  0.000000  0.681221  0.588080  1
  Tm  Tm2  1  0.000000  0.820253  0.084682  1
  Tm  Tm3  1  0.000000  0.177820  0.912985  1
  Tm  Tm4  1  0.000000  0.943793  0.373992  1
  Tm  Tm5  1  0.000000  0.054193  0.627257  1
  Tm  Tm6  1  0.000000  0.444034  0.125528  1
  Tm  Tm7  1  0.000000  0.557790  0.874364  1
  B  B8  1  0.500000  0.554571  0.435095  1
  B  B9  1  0.500000  0.446787  0.565904  1
  B  B10  1  0.500000  0.053215  0.065022  1
  B  B11  1  0.500000  0.945946  0.933845  1
  B  B12  1  0.500000  0.750272  0.421492  1
  B  B13  1  0.500000  0.249615  0.579677  1
  B  B14  1  0.500000  0.249538  0.078467  1
  B  B15  1  0.500000  0.751435  0.920230  1
  B  B16  1  0.500000  0.793446  0.264548  1
  B  B17  1  0.500000  0.206638  0.735035  1
  B  B18  1  0.500000  0.293464  0.234720  1
  B  B19  1  0.500000  0.707604  0.765616  1
  B  B20  1  0.500000  0.631866  0.183360  1
  B  B21  1  0.500000  0.368317  0.816460  1
  B  B22  1  0.500000  0.131656  0.315933  1
  B  B23  1  0.500000  0.868303  0.684908  1
  B  B24  1  0.500000  0.980863  0.212995  1
  B  B25  1  0.500000  0.017221  0.786723  1
  B  B26  1  0.500000  0.482146  0.285800  1
  B  B27  1  0.500000  0.518882  0.714145  1
  B  B28  1  0.500000  0.609406  0.030145  1
  B  B29  1  0.500000  0.390269  0.970011  1
  B  B30  1  0.500000  0.107733  0.470405  1
  B  B31  1  0.500000  0.891275  0.529677  1
  Ir  Ir32  1  0.000000  0.638999  0.321321  1
  Ir  Ir33  1  0.000000  0.362152  0.679413  1
  Ir  Ir34  1  0.000000  0.136823  0.177652  1
  Ru  Ru35  1  0.000000  0.862027  0.821279  1
