# generated using pymatgen
data_Ho5Sc3(Si3Ir4)4
_symmetry_space_group_name_H-M   'P 1'
_cell_length_a   13.02196900
_cell_length_b   13.02196928
_cell_length_c   4.01542400
_cell_angle_alpha   90.00000000
_cell_angle_beta   90.00000000
_cell_angle_gamma   120.00000182
_symmetry_Int_Tables_number   1
_chemical_formula_structural   Ho5Sc3(Si3Ir4)4
_chemical_formula_sum   'Ho5 Sc3 Si12 Ir16'
_cell_volume   589.67858747
_cell_formula_units_Z   1
loop_
 _symmetry_equiv_pos_site_id
 _symmetry_equiv_pos_as_xyz
  1  'x, y, z'
loop_
 _atom_site_type_symbol
 _atom_site_label
 _atom_site_symmetry_multiplicity
 _atom_site_fract_x
 _atom_site_fract_y
 _atom_site_fract_z
 _atom_site_occupancy
  Ho  Ho0  1  0.333333  0.666667  0.500000  1
  Ho  Ho1  1  0.666667  0.333333  0.500000  1
  Ho  Ho2  1  0.000000  0.814764  0.000000  1
  Ho  Ho3  1  0.185236  0.185236  0.000000  1
  Ho  Ho4  1  0.814764  0.000000  0.000000  1
  Sc  Sc5  1  0.000000  0.437240  0.500000  1
  Sc  Sc6  1  0.562760  0.562760  0.500000  1
  Sc  Sc7  1  0.437240  0.000000  0.500000  1
  Si  Si8  1  0.000000  0.638620  0.500000  1
  Si  Si9  1  0.361380  0.361380  0.500000  1
  Si  Si10  1  0.638620  0.000000  0.500000  1
  Si  Si11  1  0.518297  0.694620  0.000000  1
  Si  Si12  1  0.305380  0.823676  0.000000  1
  Si  Si13  1  0.176324  0.481703  0.000000  1
  Si  Si14  1  0.481703  0.176324  0.000000  1
  Si  Si15  1  0.694620  0.518297  0.000000  1
  Si  Si16  1  0.823676  0.305380  0.000000  1
  Si  Si17  1  0.000000  0.181673  0.500000  1
  Si  Si18  1  0.818327  0.818327  0.500000  1
  Si  Si19  1  0.181673  0.000000  0.500000  1
  Ir  Ir20  1  0.510353  0.875149  0.000000  1
  Ir  Ir21  1  0.124851  0.635205  0.000000  1
  Ir  Ir22  1  0.364795  0.489647  0.000000  1
  Ir  Ir23  1  0.489647  0.364795  0.000000  1
  Ir  Ir24  1  0.875149  0.510353  0.000000  1
  Ir  Ir25  1  0.635205  0.124851  0.000000  1
  Ir  Ir26  1  0.000000  0.277976  0.000000  1
  Ir  Ir27  1  0.722024  0.722024  0.000000  1
  Ir  Ir28  1  0.277976  0.000000  0.000000  1
  Ir  Ir29  1  0.626834  0.807973  0.500000  1
  Ir  Ir30  1  0.192027  0.818861  0.500000  1
  Ir  Ir31  1  0.181139  0.373166  0.500000  1
  Ir  Ir32  1  0.373166  0.181139  0.500000  1
  Ir  Ir33  1  0.807973  0.626834  0.500000  1
  Ir  Ir34  1  0.818861  0.192027  0.500000  1
  Ir  Ir35  1  0.000000  0.000000  0.500000  1
