# generated using pymatgen
data_Nb(Zn2Ga)2
_symmetry_space_group_name_H-M   'P 1'
_cell_length_a   5.46020727
_cell_length_b   5.59353438
_cell_length_c   5.59353440
_cell_angle_alpha   58.42920329
_cell_angle_beta   60.78539697
_cell_angle_gamma   60.78539234
_symmetry_Int_Tables_number   1
_chemical_formula_structural   Nb(Zn2Ga)2
_chemical_formula_sum   'Nb1 Zn4 Ga2'
_cell_volume   120.66585830
_cell_formula_units_Z   1
loop_
 _symmetry_equiv_pos_site_id
 _symmetry_equiv_pos_as_xyz
  1  'x, y, z'
loop_
 _atom_site_type_symbol
 _atom_site_label
 _atom_site_symmetry_multiplicity
 _atom_site_fract_x
 _atom_site_fract_y
 _atom_site_fract_z
 _atom_site_occupancy
  Nb  Nb0  1  0.000000  0.000000  0.000000  1
  Zn  Zn1  1  0.000000  0.500000  0.000000  1
  Zn  Zn2  1  0.500000  0.500000  0.000000  1
  Zn  Zn3  1  0.000000  0.000000  0.500000  1
  Zn  Zn4  1  0.500000  0.000000  0.500000  1
  Ga  Ga5  1  0.500000  0.000000  0.000000  1
  Ga  Ga6  1  0.000000  0.500000  0.500000  1
