# generated using pymatgen
data_Mn7Nb8Si14Pt
_symmetry_space_group_name_H-M   'P 1'
_cell_length_a   9.40925295
_cell_length_b   9.42605653
_cell_length_c   9.39047754
_cell_angle_alpha   94.22116304
_cell_angle_beta   94.12581519
_cell_angle_gamma   148.74501309
_symmetry_Int_Tables_number   1
_chemical_formula_structural   Mn7Nb8Si14Pt
_chemical_formula_sum   'Mn7 Nb8 Si14 Pt1'
_cell_volume   416.05943980
_cell_formula_units_Z   1
loop_
 _symmetry_equiv_pos_site_id
 _symmetry_equiv_pos_as_xyz
  1  'x, y, z'
loop_
 _atom_site_type_symbol
 _atom_site_label
 _atom_site_symmetry_multiplicity
 _atom_site_fract_x
 _atom_site_fract_y
 _atom_site_fract_z
 _atom_site_occupancy
  Mn  Mn0  1  0.102948  0.602948  0.205896  1
  Mn  Mn1  1  0.897973  0.094080  0.496729  1
  Mn  Mn2  1  0.598756  0.402648  0.496729  1
  Mn  Mn3  1  0.599370  0.099370  0.198740  1
  Mn  Mn4  1  0.901373  0.401373  0.802744  1
  Mn  Mn5  1  0.104003  0.901478  0.502070  1
  Mn  Mn6  1  0.398067  0.600592  0.502070  1
  Nb  Nb7  1  0.310577  0.500997  0.808960  1
  Nb  Nb8  1  0.693236  0.502406  0.191685  1
  Nb  Nb9  1  0.498449  0.689279  0.191685  1
  Nb  Nb10  1  0.498383  0.307964  0.808960  1
  Nb  Nb11  1  0.134794  0.134794  0.269585  1
  Nb  Nb12  1  0.864724  0.864724  0.729450  1
  Nb  Nb13  1  0.136557  0.867841  0.001998  1
  Nb  Nb14  1  0.865441  0.134157  0.001998  1
  Si  Si15  1  0.293692  0.293692  0.587384  1
  Si  Si16  1  0.705912  0.705912  0.411823  1
  Si  Si17  1  0.283053  0.693766  0.003358  1
  Si  Si18  1  0.720305  0.309592  0.003358  1
  Si  Si19  1  0.054083  0.457175  0.587568  1
  Si  Si20  1  0.908245  0.503337  0.408789  1
  Si  Si21  1  0.500545  0.905453  0.408789  1
  Si  Si22  1  0.533486  0.130392  0.587568  1
  Si  Si23  1  0.248597  0.248908  0.999983  1
  Si  Si24  1  0.751386  0.751074  0.999983  1
  Si  Si25  1  0.295669  0.003954  0.292980  1
  Si  Si26  1  0.728509  0.016368  0.707032  1
  Si  Si27  1  0.978523  0.690664  0.707032  1
  Si  Si28  1  0.997312  0.289026  0.292980  1
  Pt  Pt29  1  0.396037  0.896037  0.792072  1
