# generated using pymatgen
data_Tb13Pr7(TlBi)8
_symmetry_space_group_name_H-M   'P 1'
_cell_length_a   8.30431040
_cell_length_b   8.34343071
_cell_length_c   15.75626200
_cell_angle_alpha   90.00078286
_cell_angle_beta   90.21116727
_cell_angle_gamma   89.94593909
_symmetry_Int_Tables_number   1
_chemical_formula_structural   Tb13Pr7(TlBi)8
_chemical_formula_sum   'Tb13 Pr7 Tl8 Bi8'
_cell_volume   1091.68737689
_cell_formula_units_Z   1
loop_
 _symmetry_equiv_pos_site_id
 _symmetry_equiv_pos_as_xyz
  1  'x, y, z'
loop_
 _atom_site_type_symbol
 _atom_site_label
 _atom_site_symmetry_multiplicity
 _atom_site_fract_x
 _atom_site_fract_y
 _atom_site_fract_z
 _atom_site_occupancy
  Tb  Tb0  1  0.367600  0.838258  0.876272  1
  Tb  Tb1  1  0.866256  0.660788  0.624833  1
  Tb  Tb2  1  0.632684  0.161114  0.375909  1
  Tb  Tb3  1  0.130504  0.338817  0.123868  1
  Tb  Tb4  1  0.630544  0.161236  0.123638  1
  Tb  Tb5  1  0.133318  0.339064  0.375970  1
  Tb  Tb6  1  0.367762  0.839476  0.625251  1
  Tb  Tb7  1  0.869026  0.661802  0.876253  1
  Tb  Tb8  1  0.527772  0.322352  0.897845  1
  Tb  Tb9  1  0.201998  0.498176  0.749967  1
  Tb  Tb10  1  0.701853  0.002136  0.750236  1
  Tb  Tb11  1  0.797959  0.501059  0.249736  1
  Tb  Tb12  1  0.297489  0.998434  0.250155  1
  Pr  Pr13  1  0.023264  0.181133  0.599183  1
  Pr  Pr14  1  0.477176  0.680736  0.402048  1
  Pr  Pr15  1  0.975094  0.819856  0.098080  1
  Pr  Pr16  1  0.476279  0.679673  0.098542  1
  Pr  Pr17  1  0.977222  0.819531  0.402096  1
  Pr  Pr18  1  0.522220  0.319705  0.597583  1
  Pr  Pr19  1  0.023545  0.180281  0.901820  1
  Tl  Tl20  1  0.566434  0.620296  0.751177  1
  Tl  Tl21  1  0.067372  0.879690  0.750351  1
  Tl  Tl22  1  0.432799  0.378589  0.249681  1
  Tl  Tl23  1  0.932460  0.121542  0.249860  1
  Tl  Tl24  1  0.329324  0.141979  0.751860  1
  Tl  Tl25  1  0.825054  0.359506  0.750864  1
  Tl  Tl26  1  0.673602  0.859512  0.249881  1
  Tl  Tl27  1  0.173231  0.640196  0.249882  1
  Bi  Bi28  1  0.290234  0.036319  0.043733  1
  Bi  Bi29  1  0.791608  0.462529  0.456649  1
  Bi  Bi30  1  0.708799  0.962767  0.543689  1
  Bi  Bi31  1  0.215124  0.530879  0.955651  1
  Bi  Bi32  1  0.707078  0.966021  0.955817  1
  Bi  Bi33  1  0.207928  0.538685  0.543568  1
  Bi  Bi34  1  0.291531  0.037447  0.457120  1
  Bi  Bi35  1  0.787853  0.460419  0.040925  1
