# generated using pymatgen
data_KRbNb2(CuSe2)4
_symmetry_space_group_name_H-M   'P 1'
_cell_length_a   10.13658723
_cell_length_b   10.14288071
_cell_length_c   7.82720500
_cell_angle_alpha   90.00000000
_cell_angle_beta   90.00000000
_cell_angle_gamma   147.06837237
_symmetry_Int_Tables_number   1
_chemical_formula_structural   KRbNb2(CuSe2)4
_chemical_formula_sum   'K1 Rb1 Nb2 Cu4 Se8'
_cell_volume   437.49134761
_cell_formula_units_Z   1
loop_
 _symmetry_equiv_pos_site_id
 _symmetry_equiv_pos_as_xyz
  1  'x, y, z'
loop_
 _atom_site_type_symbol
 _atom_site_label
 _atom_site_symmetry_multiplicity
 _atom_site_fract_x
 _atom_site_fract_y
 _atom_site_fract_z
 _atom_site_occupancy
  K  K0  1  0.170539  0.802399  0.750000  1
  Rb  Rb1  1  0.807870  0.175879  0.250000  1
  Nb  Nb2  1  0.641551  0.857267  0.750000  1
  Nb  Nb3  1  0.857198  0.641843  0.250000  1
  Cu  Cu4  1  0.735020  0.734769  0.500044  1
  Cu  Cu5  1  0.735020  0.734769  0.999956  1
  Cu  Cu6  1  0.355552  0.144683  0.250000  1
  Cu  Cu7  1  0.143633  0.354693  0.750000  1
  Se  Se8  1  0.606891  0.395722  0.995521  1
  Se  Se9  1  0.395304  0.605984  0.496154  1
  Se  Se10  1  0.992683  0.998687  0.750000  1
  Se  Se11  1  0.395304  0.605984  0.003846  1
  Se  Se12  1  0.209704  0.793752  0.250000  1
  Se  Se13  1  0.791627  0.208821  0.750000  1
  Se  Se14  1  0.998570  0.992386  0.250000  1
  Se  Se15  1  0.606891  0.395722  0.504479  1
