# generated using pymatgen
data_Pr9Dy10MgPb16
_symmetry_space_group_name_H-M   'P 1'
_cell_length_a   8.34274590
_cell_length_b   8.42521233
_cell_length_c   15.96886000
_cell_angle_alpha   90.08828432
_cell_angle_beta   90.33181654
_cell_angle_gamma   90.46853797
_symmetry_Int_Tables_number   1
_chemical_formula_structural   Pr9Dy10MgPb16
_chemical_formula_sum   'Pr9 Dy10 Mg1 Pb16'
_cell_volume   1122.38391082
_cell_formula_units_Z   1
loop_
 _symmetry_equiv_pos_site_id
 _symmetry_equiv_pos_as_xyz
  1  'x, y, z'
loop_
 _atom_site_type_symbol
 _atom_site_label
 _atom_site_symmetry_multiplicity
 _atom_site_fract_x
 _atom_site_fract_y
 _atom_site_fract_z
 _atom_site_occupancy
  Pr  Pr0  1  0.133848  0.341813  0.618827  1
  Pr  Pr1  1  0.476333  0.679723  0.597713  1
  Pr  Pr2  1  0.981301  0.823474  0.904235  1
  Pr  Pr3  1  0.521249  0.315121  0.096989  1
  Pr  Pr4  1  0.016281  0.172252  0.400904  1
  Pr  Pr5  1  0.521728  0.315217  0.401384  1
  Pr  Pr6  1  0.014206  0.174330  0.096372  1
  Pr  Pr7  1  0.479626  0.678777  0.903996  1
  Pr  Pr8  1  0.979155  0.823522  0.598419  1
  Dy  Dy9  1  0.636734  0.161907  0.623563  1
  Dy  Dy10  1  0.137394  0.342600  0.878962  1
  Dy  Dy11  1  0.371355  0.841313  0.123804  1
  Dy  Dy12  1  0.864041  0.661623  0.378237  1
  Dy  Dy13  1  0.375352  0.841911  0.373995  1
  Dy  Dy14  1  0.862409  0.663182  0.122531  1
  Dy  Dy15  1  0.637718  0.161465  0.878737  1
  Dy  Dy16  1  0.800259  0.495653  0.750929  1
  Dy  Dy17  1  0.303210  0.005152  0.750483  1
  Dy  Dy18  1  0.195146  0.508038  0.248970  1
  Mg  Mg19  1  0.700087  0.995337  0.249724  1
  Pb  Pb20  1  0.704914  0.955729  0.460278  1
  Pb  Pb21  1  0.203616  0.539543  0.044991  1
  Pb  Pb22  1  0.297643  0.042986  0.958808  1
  Pb  Pb23  1  0.785896  0.464177  0.542659  1
  Pb  Pb24  1  0.299582  0.036064  0.540276  1
  Pb  Pb25  1  0.797578  0.461239  0.957478  1
  Pb  Pb26  1  0.702479  0.954434  0.040728  1
  Pb  Pb27  1  0.206749  0.542019  0.451055  1
  Pb  Pb28  1  0.440478  0.369647  0.752206  1
  Pb  Pb29  1  0.938394  0.125189  0.752032  1
  Pb  Pb30  1  0.562940  0.620692  0.249200  1
  Pb  Pb31  1  0.060129  0.875099  0.250006  1
  Pb  Pb32  1  0.667800  0.852060  0.751207  1
  Pb  Pb33  1  0.166778  0.652041  0.752251  1
  Pb  Pb34  1  0.321282  0.151980  0.248796  1
  Pb  Pb35  1  0.836310  0.354693  0.249255  1
