# generated using pymatgen
data_Tm3Ta(Ni4As3)2
_symmetry_space_group_name_H-M   'P 1'
_cell_length_a   3.86766000
_cell_length_b   11.08452500
_cell_length_c   12.69492800
_cell_angle_alpha   90.00000000
_cell_angle_beta   90.00000000
_cell_angle_gamma   90.00000000
_symmetry_Int_Tables_number   1
_chemical_formula_structural   Tm3Ta(Ni4As3)2
_chemical_formula_sum   'Tm6 Ta2 Ni16 As12'
_cell_volume   544.24646672
_cell_formula_units_Z   2
loop_
 _symmetry_equiv_pos_site_id
 _symmetry_equiv_pos_as_xyz
  1  'x, y, z'
loop_
 _atom_site_type_symbol
 _atom_site_label
 _atom_site_symmetry_multiplicity
 _atom_site_fract_x
 _atom_site_fract_y
 _atom_site_fract_z
 _atom_site_occupancy
  Tm  Tm0  1  0.000000  0.500000  0.527308  1
  Tm  Tm1  1  0.500000  0.000000  0.472692  1
  Tm  Tm2  1  0.500000  0.821594  0.207103  1
  Tm  Tm3  1  0.500000  0.178406  0.207103  1
  Tm  Tm4  1  0.000000  0.678406  0.792897  1
  Tm  Tm5  1  0.000000  0.321594  0.792897  1
  Ta  Ta6  1  0.500000  0.500000  0.150655  1
  Ta  Ta7  1  0.000000  0.000000  0.849345  1
  Ni  Ni8  1  0.500000  0.500000  0.697464  1
  Ni  Ni9  1  0.000000  0.000000  0.302536  1
  Ni  Ni10  1  0.000000  0.500000  0.983851  1
  Ni  Ni11  1  0.500000  0.000000  0.016149  1
  Ni  Ni12  1  0.500000  0.336224  0.991037  1
  Ni  Ni13  1  0.500000  0.663776  0.991037  1
  Ni  Ni14  1  0.000000  0.163776  0.008963  1
  Ni  Ni15  1  0.000000  0.836224  0.008963  1
  Ni  Ni16  1  0.500000  0.302967  0.427189  1
  Ni  Ni17  1  0.500000  0.697033  0.427189  1
  Ni  Ni18  1  0.000000  0.197033  0.572811  1
  Ni  Ni19  1  0.000000  0.802967  0.572811  1
  Ni  Ni20  1  0.500000  0.878697  0.707279  1
  Ni  Ni21  1  0.500000  0.121303  0.707279  1
  Ni  Ni22  1  0.000000  0.621303  0.292721  1
  Ni  Ni23  1  0.000000  0.378697  0.292721  1
  As  As24  1  0.500000  0.500000  0.875905  1
  As  As25  1  0.000000  0.000000  0.124095  1
  As  As26  1  0.500000  0.500000  0.354315  1
  As  As27  1  0.000000  0.000000  0.645685  1
  As  As28  1  0.500000  0.314606  0.614274  1
  As  As29  1  0.500000  0.685394  0.614274  1
  As  As30  1  0.000000  0.185394  0.385726  1
  As  As31  1  0.000000  0.814606  0.385726  1
  As  As32  1  0.500000  0.838773  0.890038  1
  As  As33  1  0.500000  0.161227  0.890038  1
  As  As34  1  0.000000  0.661227  0.109962  1
  As  As35  1  0.000000  0.338773  0.109962  1
