# generated using pymatgen
data_Ho15Er5(Bi2Rh)4
_symmetry_space_group_name_H-M   'P 1'
_cell_length_a   7.96741305
_cell_length_b   8.97444701
_cell_length_c   12.45548108
_cell_angle_alpha   89.99652842
_cell_angle_beta   90.01221477
_cell_angle_gamma   89.99608417
_symmetry_Int_Tables_number   1
_chemical_formula_structural   Ho15Er5(Bi2Rh)4
_chemical_formula_sum   'Ho15 Er5 Bi8 Rh4'
_cell_volume   890.60581157
_cell_formula_units_Z   1
loop_
 _symmetry_equiv_pos_site_id
 _symmetry_equiv_pos_as_xyz
  1  'x, y, z'
loop_
 _atom_site_type_symbol
 _atom_site_label
 _atom_site_symmetry_multiplicity
 _atom_site_fract_x
 _atom_site_fract_y
 _atom_site_fract_z
 _atom_site_occupancy
  Ho  Ho0  1  0.839337  0.750219  0.793442  1
  Ho  Ho1  1  0.160690  0.249839  0.206663  1
  Ho  Ho2  1  0.339411  0.249808  0.706539  1
  Ho  Ho3  1  0.660445  0.750148  0.293424  1
  Ho  Ho4  1  0.374967  0.750100  0.691021  1
  Ho  Ho5  1  0.624595  0.249796  0.308972  1
  Ho  Ho6  1  0.875182  0.249716  0.808861  1
  Ho  Ho7  1  0.124788  0.750339  0.191138  1
  Ho  Ho8  1  0.951903  0.750238  0.501446  1
  Ho  Ho9  1  0.048695  0.249783  0.498460  1
  Ho  Ho10  1  0.451686  0.249560  0.998600  1
  Ho  Ho11  1  0.548277  0.750462  0.001442  1
  Ho  Ho12  1  0.676727  0.457643  0.566120  1
  Ho  Ho13  1  0.823146  0.457608  0.066223  1
  Ho  Ho14  1  0.176933  0.542335  0.933810  1
  Er  Er15  1  0.675932  0.042439  0.566075  1
  Er  Er16  1  0.324207  0.957102  0.433911  1
  Er  Er17  1  0.175775  0.957314  0.933866  1
  Er  Er18  1  0.324058  0.542665  0.433889  1
  Er  Er19  1  0.824243  0.042698  0.066202  1
  Bi  Bi20  1  0.567483  0.491755  0.826480  1
  Bi  Bi21  1  0.432401  0.508297  0.173636  1
  Bi  Bi22  1  0.067249  0.508249  0.673621  1
  Bi  Bi23  1  0.432900  0.991719  0.173624  1
  Bi  Bi24  1  0.932946  0.491827  0.326519  1
  Bi  Bi25  1  0.566995  0.008248  0.826321  1
  Bi  Bi26  1  0.932997  0.008272  0.326368  1
  Bi  Bi27  1  0.066957  0.991747  0.673610  1
  Rh  Rh28  1  0.571863  0.750568  0.509002  1
  Rh  Rh29  1  0.427139  0.249467  0.490762  1
  Rh  Rh30  1  0.072667  0.249176  0.990745  1
  Rh  Rh31  1  0.927403  0.750861  0.009211  1
