# generated using pymatgen
data_Dy7Sn23(Ir2Os)2
_symmetry_space_group_name_H-M   'P 1'
_cell_length_a   9.87990290
_cell_length_b   9.87990262
_cell_length_c   10.10898765
_cell_angle_alpha   90.26696564
_cell_angle_beta   89.73303495
_cell_angle_gamma   119.98110395
_symmetry_Int_Tables_number   1
_chemical_formula_structural   Dy7Sn23(Ir2Os)2
_chemical_formula_sum   'Dy7 Sn23 Ir4 Os2'
_cell_volume   854.71241692
_cell_formula_units_Z   1
loop_
 _symmetry_equiv_pos_site_id
 _symmetry_equiv_pos_as_xyz
  1  'x, y, z'
loop_
 _atom_site_type_symbol
 _atom_site_label
 _atom_site_symmetry_multiplicity
 _atom_site_fract_x
 _atom_site_fract_y
 _atom_site_fract_z
 _atom_site_occupancy
  Dy  Dy0  1  0.000000  0.000000  0.000000  1
  Dy  Dy1  1  0.481070  0.518930  0.306632  1
  Dy  Dy2  1  0.518930  0.481070  0.693368  1
  Dy  Dy3  1  0.481709  0.961899  0.305830  1
  Dy  Dy4  1  0.518291  0.038101  0.694170  1
  Dy  Dy5  1  0.038101  0.518291  0.305830  1
  Dy  Dy6  1  0.961899  0.481709  0.694170  1
  Sn  Sn7  1  0.350320  0.998793  0.999483  1
  Sn  Sn8  1  0.649680  0.001207  0.000517  1
  Sn  Sn9  1  0.998793  0.350320  0.000517  1
  Sn  Sn10  1  0.001207  0.649680  0.999483  1
  Sn  Sn11  1  0.647813  0.647813  0.000000  1
  Sn  Sn12  1  0.352187  0.352187  0.000000  1
  Sn  Sn13  1  0.332214  0.667786  0.825202  1
  Sn  Sn14  1  0.667786  0.332214  0.174798  1
  Sn  Sn15  1  0.000000  0.000000  0.500000  1
  Sn  Sn16  1  0.778204  0.221796  0.456320  1
  Sn  Sn17  1  0.221796  0.778204  0.543680  1
  Sn  Sn18  1  0.777741  0.555888  0.456609  1
  Sn  Sn19  1  0.222259  0.444112  0.543391  1
  Sn  Sn20  1  0.444112  0.222259  0.456609  1
  Sn  Sn21  1  0.555888  0.777741  0.543391  1
  Sn  Sn22  1  0.333549  0.666451  0.121358  1
  Sn  Sn23  1  0.666451  0.333549  0.878642  1
  Sn  Sn24  1  0.118553  0.881447  0.283547  1
  Sn  Sn25  1  0.881447  0.118553  0.716453  1
  Sn  Sn26  1  0.116728  0.235006  0.282949  1
  Sn  Sn27  1  0.883272  0.764994  0.717051  1
  Sn  Sn28  1  0.764994  0.883272  0.282949  1
  Sn  Sn29  1  0.235006  0.116728  0.717051  1
  Ir  Ir30  1  0.830418  0.662089  0.198924  1
  Ir  Ir31  1  0.169582  0.337911  0.801076  1
  Ir  Ir32  1  0.337911  0.169582  0.198924  1
  Ir  Ir33  1  0.662089  0.830418  0.801076  1
  Os  Os34  1  0.831317  0.168683  0.199522  1
  Os  Os35  1  0.168683  0.831317  0.800478  1
