# generated using pymatgen
data_Nd12Ir3PtCl12
_symmetry_space_group_name_H-M   'P 1'
_cell_length_a   10.21196717
_cell_length_b   10.27899085
_cell_length_c   10.27899129
_cell_angle_alpha   109.60292829
_cell_angle_beta   109.33918727
_cell_angle_gamma   109.33918443
_symmetry_Int_Tables_number   1
_chemical_formula_structural   Nd12Ir3PtCl12
_chemical_formula_sum   'Nd12 Ir3 Pt1 Cl12'
_cell_volume   831.94305501
_cell_formula_units_Z   1
loop_
 _symmetry_equiv_pos_site_id
 _symmetry_equiv_pos_as_xyz
  1  'x, y, z'
loop_
 _atom_site_type_symbol
 _atom_site_label
 _atom_site_symmetry_multiplicity
 _atom_site_fract_x
 _atom_site_fract_y
 _atom_site_fract_z
 _atom_site_occupancy
  Nd  Nd0  1  0.478499  0.485942  0.241422  1
  Nd  Nd1  1  0.750000  0.239235  0.260765  1
  Nd  Nd2  1  0.750000  0.011411  0.488589  1
  Nd  Nd3  1  0.238589  0.477178  0.488589  1
  Nd  Nd4  1  0.262922  0.755480  0.241422  1
  Nd  Nd5  1  0.021501  0.258578  0.014058  1
  Nd  Nd6  1  0.010765  0.021532  0.260765  1
  Nd  Nd7  1  0.492558  0.755480  0.014058  1
  Nd  Nd8  1  0.489235  0.239235  0.478468  1
  Nd  Nd9  1  0.007442  0.485942  0.744520  1
  Nd  Nd10  1  0.261411  0.011411  0.022822  1
  Nd  Nd11  1  0.237078  0.258578  0.744520  1
  Ir  Ir12  1  0.250000  0.249687  0.250313  1
  Ir  Ir13  1  0.500313  0.000625  0.250313  1
  Ir  Ir14  1  0.999687  0.249687  0.499375  1
  Pt  Pt15  1  0.250000  0.500000  0.000000  1
  Cl  Cl16  1  0.250000  0.748954  0.751046  1
  Cl  Cl17  1  0.499501  0.500024  0.750578  1
  Cl  Cl18  1  0.000499  0.749422  0.999976  1
  Cl  Cl19  1  0.751076  0.250554  0.750578  1
  Cl  Cl20  1  0.001046  0.002093  0.751046  1
  Cl  Cl21  1  0.250000  0.999136  0.500864  1
  Cl  Cl22  1  0.750864  0.501726  0.500864  1
  Cl  Cl23  1  0.499478  0.250554  0.999976  1
  Cl  Cl24  1  0.748924  0.749422  0.249446  1
  Cl  Cl25  1  0.749136  0.999136  0.998274  1
  Cl  Cl26  1  0.000522  0.500024  0.249446  1
  Cl  Cl27  1  0.498954  0.748954  0.497907  1
