# generated using pymatgen
data_Yb20(MgAg3)3
_symmetry_space_group_name_H-M   'P 1'
_cell_length_a   8.10966500
_cell_length_b   8.10966500
_cell_length_c   14.73211700
_cell_angle_alpha   90.00000000
_cell_angle_beta   90.00000000
_cell_angle_gamma   90.00000000
_symmetry_Int_Tables_number   1
_chemical_formula_structural   Yb20(MgAg3)3
_chemical_formula_sum   'Yb20 Mg3 Ag9'
_cell_volume   968.88222428
_cell_formula_units_Z   1
loop_
 _symmetry_equiv_pos_site_id
 _symmetry_equiv_pos_as_xyz
  1  'x, y, z'
loop_
 _atom_site_type_symbol
 _atom_site_label
 _atom_site_symmetry_multiplicity
 _atom_site_fract_x
 _atom_site_fract_y
 _atom_site_fract_z
 _atom_site_occupancy
  Yb  Yb0  1  0.000000  0.000000  0.754257  1
  Yb  Yb1  1  0.500000  0.500000  0.249355  1
  Yb  Yb2  1  0.000000  0.000000  0.245743  1
  Yb  Yb3  1  0.500000  0.500000  0.750645  1
  Yb  Yb4  1  0.172484  0.658482  0.107743  1
  Yb  Yb5  1  0.665051  0.164409  0.612019  1
  Yb  Yb6  1  0.827516  0.341518  0.107743  1
  Yb  Yb7  1  0.334949  0.835591  0.612019  1
  Yb  Yb8  1  0.341518  0.172484  0.107743  1
  Yb  Yb9  1  0.835591  0.665051  0.612019  1
  Yb  Yb10  1  0.658482  0.827516  0.107743  1
  Yb  Yb11  1  0.164409  0.334949  0.612019  1
  Yb  Yb12  1  0.341518  0.827516  0.892257  1
  Yb  Yb13  1  0.835591  0.334949  0.387981  1
  Yb  Yb14  1  0.658482  0.172484  0.892257  1
  Yb  Yb15  1  0.164409  0.665051  0.387981  1
  Yb  Yb16  1  0.172484  0.341518  0.892257  1
  Yb  Yb17  1  0.665051  0.835591  0.387981  1
  Yb  Yb18  1  0.827516  0.658482  0.892257  1
  Yb  Yb19  1  0.334949  0.164409  0.387981  1
  Mg  Mg20  1  0.000000  0.000000  0.500000  1
  Mg  Mg21  1  0.000000  0.000000  0.000000  1
  Mg  Mg22  1  0.500000  0.500000  0.500000  1
  Ag  Ag23  1  0.628848  0.127648  0.248501  1
  Ag  Ag24  1  0.127648  0.628848  0.751499  1
  Ag  Ag25  1  0.872352  0.371152  0.751499  1
  Ag  Ag26  1  0.371152  0.872352  0.248501  1
  Ag  Ag27  1  0.371152  0.127648  0.751499  1
  Ag  Ag28  1  0.872352  0.628848  0.248501  1
  Ag  Ag29  1  0.127648  0.371152  0.248501  1
  Ag  Ag30  1  0.628848  0.872352  0.751499  1
  Ag  Ag31  1  0.500000  0.500000  0.000000  1
