# generated using pymatgen
data_Dy8ErLu(BiAu2)2
_symmetry_space_group_name_H-M   'P 1'
_cell_length_a   8.71461769
_cell_length_b   8.71461692
_cell_length_c   8.71461704
_cell_angle_alpha   124.29908767
_cell_angle_beta   124.29908615
_cell_angle_gamma   82.70224311
_symmetry_Int_Tables_number   1
_chemical_formula_structural   Dy8ErLu(BiAu2)2
_chemical_formula_sum   'Dy8 Er1 Lu1 Bi2 Au4'
_cell_volume   433.70886442
_cell_formula_units_Z   1
loop_
 _symmetry_equiv_pos_site_id
 _symmetry_equiv_pos_as_xyz
  1  'x, y, z'
loop_
 _atom_site_type_symbol
 _atom_site_label
 _atom_site_symmetry_multiplicity
 _atom_site_fract_x
 _atom_site_fract_y
 _atom_site_fract_z
 _atom_site_occupancy
  Dy  Dy0  1  0.516107  0.015877  0.811737  1
  Dy  Dy1  1  0.204140  0.704369  0.188263  1
  Dy  Dy2  1  0.015877  0.204140  0.499770  1
  Dy  Dy3  1  0.704369  0.516107  0.500230  1
  Dy  Dy4  1  0.483893  0.984123  0.188263  1
  Dy  Dy5  1  0.795860  0.295631  0.811737  1
  Dy  Dy6  1  0.984123  0.795860  0.500230  1
  Dy  Dy7  1  0.295631  0.483893  0.499770  1
  Er  Er8  1  0.500000  0.500000  0.000000  1
  Lu  Lu9  1  0.000000  0.000000  0.000000  1
  Bi  Bi10  1  0.249899  0.249899  0.000000  1
  Bi  Bi11  1  0.750101  0.750101  0.000000  1
  Au  Au12  1  0.137630  0.637832  0.775461  1
  Au  Au13  1  0.862370  0.362168  0.224539  1
  Au  Au14  1  0.637832  0.862370  0.500202  1
  Au  Au15  1  0.362168  0.137630  0.499798  1
