# generated using pymatgen
data_Ti3Si3MoIr2
_symmetry_space_group_name_H-M   'P 1'
_cell_length_a   7.44495664
_cell_length_b   7.44495719
_cell_length_c   7.44495626
_cell_angle_alpha   126.62326350
_cell_angle_beta   124.12114059
_cell_angle_gamma   80.93845752
_symmetry_Int_Tables_number   1
_chemical_formula_structural   Ti3Si3MoIr2
_chemical_formula_sum   'Ti6 Si6 Mo2 Ir4'
_cell_volume   264.25017887
_cell_formula_units_Z   2
loop_
 _symmetry_equiv_pos_site_id
 _symmetry_equiv_pos_as_xyz
  1  'x, y, z'
loop_
 _atom_site_type_symbol
 _atom_site_label
 _atom_site_symmetry_multiplicity
 _atom_site_fract_x
 _atom_site_fract_y
 _atom_site_fract_z
 _atom_site_occupancy
  Ti  Ti0  1  0.965153  0.731863  0.266709  1
  Ti  Ti1  1  0.034847  0.301557  0.766709  1
  Ti  Ti2  1  0.246783  0.166404  0.419621  1
  Ti  Ti3  1  0.753217  0.172840  0.919621  1
  Ti  Ti4  1  0.561069  0.347424  0.286353  1
  Ti  Ti5  1  0.438931  0.725284  0.786353  1
  Si  Si6  1  0.783351  0.801486  0.518135  1
  Si  Si7  1  0.216649  0.734784  0.018135  1
  Si  Si8  1  0.337389  0.071139  0.746962  1
  Si  Si9  1  0.662611  0.409573  0.733750  1
  Si  Si10  1  0.175823  0.409573  0.246962  1
  Si  Si11  1  0.824177  0.071139  0.233750  1
  Mo  Mo12  1  0.500000  0.496917  0.996917  1
  Mo  Mo13  1  0.000000  0.496917  0.496917  1
  Ir  Ir14  1  0.166187  0.004093  0.913847  1
  Ir  Ir15  1  0.833813  0.747660  0.837906  1
  Ir  Ir16  1  0.409754  0.747660  0.413847  1
  Ir  Ir17  1  0.590246  0.004093  0.337906  1
