# generated using pymatgen
data_La2B2Pd7Au
_symmetry_space_group_name_H-M   'P 1'
_cell_length_a   5.55484700
_cell_length_b   5.55484758
_cell_length_c   7.71053900
_cell_angle_alpha   90.00000000
_cell_angle_beta   90.00000000
_cell_angle_gamma   120.00000249
_symmetry_Int_Tables_number   1
_chemical_formula_structural   La2B2Pd7Au
_chemical_formula_sum   'La2 B2 Pd7 Au1'
_cell_volume   206.04382684
_cell_formula_units_Z   1
loop_
 _symmetry_equiv_pos_site_id
 _symmetry_equiv_pos_as_xyz
  1  'x, y, z'
loop_
 _atom_site_type_symbol
 _atom_site_label
 _atom_site_symmetry_multiplicity
 _atom_site_fract_x
 _atom_site_fract_y
 _atom_site_fract_z
 _atom_site_occupancy
  La  La0  1  0.000000  0.000000  0.500000  1
  La  La1  1  0.000000  0.000000  0.000000  1
  B  B2  1  0.333333  0.666667  0.000000  1
  B  B3  1  0.666667  0.333333  0.000000  1
  Pd  Pd4  1  0.666667  0.333333  0.500000  1
  Pd  Pd5  1  0.500312  0.000624  0.195278  1
  Pd  Pd6  1  0.500312  0.000624  0.804722  1
  Pd  Pd7  1  0.999376  0.499688  0.195278  1
  Pd  Pd8  1  0.999376  0.499688  0.804722  1
  Pd  Pd9  1  0.500312  0.499688  0.195278  1
  Pd  Pd10  1  0.500312  0.499688  0.804722  1
  Au  Au11  1  0.333333  0.666667  0.500000  1
