# generated using pymatgen
data_Co3Ni2RhSe8
_symmetry_space_group_name_H-M   'P 1'
_cell_length_a   7.05644971
_cell_length_b   7.05644953
_cell_length_c   7.09930297
_cell_angle_alpha   60.19947637
_cell_angle_beta   60.19947972
_cell_angle_gamma   60.00000029
_symmetry_Int_Tables_number   1
_chemical_formula_structural   Co3Ni2RhSe8
_chemical_formula_sum   'Co3 Ni2 Rh1 Se8'
_cell_volume   250.71255950
_cell_formula_units_Z   1
loop_
 _symmetry_equiv_pos_site_id
 _symmetry_equiv_pos_as_xyz
  1  'x, y, z'
loop_
 _atom_site_type_symbol
 _atom_site_label
 _atom_site_symmetry_multiplicity
 _atom_site_fract_x
 _atom_site_fract_y
 _atom_site_fract_z
 _atom_site_occupancy
  Co  Co0  1  0.125000  0.125000  0.125000  1
  Co  Co1  1  0.125000  0.625000  0.125000  1
  Co  Co2  1  0.625000  0.125000  0.125000  1
  Ni  Ni3  1  0.499338  0.499338  0.501986  1
  Ni  Ni4  1  0.750662  0.750662  0.748014  1
  Rh  Rh5  1  0.125000  0.125000  0.625000  1
  Se  Se6  1  0.350519  0.877626  0.894228  1
  Se  Se7  1  0.372374  0.372374  0.355772  1
  Se  Se8  1  0.899481  0.372374  0.355772  1
  Se  Se9  1  0.884117  0.884117  0.347649  1
  Se  Se10  1  0.877626  0.877626  0.894228  1
  Se  Se11  1  0.372374  0.899481  0.355772  1
  Se  Se12  1  0.365883  0.365883  0.902351  1
  Se  Se13  1  0.877626  0.350519  0.894228  1
