# generated using pymatgen
data_LiCa2AlSn2
_symmetry_space_group_name_H-M   'P 1'
_cell_length_a   4.67360300
_cell_length_b   7.40536700
_cell_length_c   17.41019200
_cell_angle_alpha   90.00000000
_cell_angle_beta   90.00000000
_cell_angle_gamma   90.00000000
_symmetry_Int_Tables_number   1
_chemical_formula_structural   LiCa2AlSn2
_chemical_formula_sum   'Li4 Ca8 Al4 Sn8'
_cell_volume   602.56231296
_cell_formula_units_Z   4
loop_
 _symmetry_equiv_pos_site_id
 _symmetry_equiv_pos_as_xyz
  1  'x, y, z'
loop_
 _atom_site_type_symbol
 _atom_site_label
 _atom_site_symmetry_multiplicity
 _atom_site_fract_x
 _atom_site_fract_y
 _atom_site_fract_z
 _atom_site_occupancy
  Li  Li0  1  0.250000  0.985814  0.069633  1
  Li  Li1  1  0.750000  0.514186  0.569633  1
  Li  Li2  1  0.750000  0.014186  0.930367  1
  Li  Li3  1  0.250000  0.485814  0.430367  1
  Ca  Ca4  1  0.250000  0.337924  0.939779  1
  Ca  Ca5  1  0.250000  0.837924  0.560221  1
  Ca  Ca6  1  0.750000  0.162076  0.439779  1
  Ca  Ca7  1  0.750000  0.492940  0.273359  1
  Ca  Ca8  1  0.750000  0.992940  0.226641  1
  Ca  Ca9  1  0.750000  0.662076  0.060221  1
  Ca  Ca10  1  0.250000  0.507060  0.726641  1
  Ca  Ca11  1  0.250000  0.007060  0.773359  1
  Al  Al12  1  0.750000  0.169515  0.656166  1
  Al  Al13  1  0.250000  0.830485  0.343834  1
  Al  Al14  1  0.750000  0.669515  0.843834  1
  Al  Al15  1  0.250000  0.330485  0.156166  1
  Sn  Sn16  1  0.750000  0.226909  0.070477  1
  Sn  Sn17  1  0.750000  0.789853  0.687296  1
  Sn  Sn18  1  0.250000  0.210147  0.312704  1
  Sn  Sn19  1  0.250000  0.710147  0.187296  1
  Sn  Sn20  1  0.250000  0.273091  0.570477  1
  Sn  Sn21  1  0.750000  0.289853  0.812704  1
  Sn  Sn22  1  0.250000  0.773091  0.929523  1
  Sn  Sn23  1  0.750000  0.726909  0.429523  1
