# generated using pymatgen
data_DyHo2Al3CuAu2
_symmetry_space_group_name_H-M   'P 1'
_cell_length_a   7.19810415
_cell_length_b   7.19810378
_cell_length_c   4.07647100
_cell_angle_alpha   90.00000000
_cell_angle_beta   90.00000000
_cell_angle_gamma   119.97671911
_symmetry_Int_Tables_number   1
_chemical_formula_structural   DyHo2Al3CuAu2
_chemical_formula_sum   'Dy1 Ho2 Al3 Cu1 Au2'
_cell_volume   182.95869494
_cell_formula_units_Z   1
loop_
 _symmetry_equiv_pos_site_id
 _symmetry_equiv_pos_as_xyz
  1  'x, y, z'
loop_
 _atom_site_type_symbol
 _atom_site_label
 _atom_site_symmetry_multiplicity
 _atom_site_fract_x
 _atom_site_fract_y
 _atom_site_fract_z
 _atom_site_occupancy
  Dy  Dy0  1  0.407109  0.407109  0.500000  1
  Ho  Ho1  1  0.593607  0.999979  0.500000  1
  Ho  Ho2  1  0.999979  0.593607  0.500000  1
  Al  Al3  1  0.770689  0.770689  0.000000  1
  Al  Al4  1  0.229013  0.999779  0.000000  1
  Al  Al5  1  0.999779  0.229013  0.000000  1
  Cu  Cu6  1  0.999033  0.999033  0.500000  1
  Au  Au7  1  0.668042  0.332749  0.000000  1
  Au  Au8  1  0.332749  0.668042  0.000000  1
