# generated using pymatgen
data_Y5InPd4
_symmetry_space_group_name_H-M   'P 1'
_cell_length_a   7.87983000
_cell_length_b   7.87983000
_cell_length_c   3.75898200
_cell_angle_alpha   90.00000000
_cell_angle_beta   90.00000000
_cell_angle_gamma   90.00000000
_symmetry_Int_Tables_number   1
_chemical_formula_structural   Y5InPd4
_chemical_formula_sum   'Y5 In1 Pd4'
_cell_volume   233.40166094
_cell_formula_units_Z   1
loop_
 _symmetry_equiv_pos_site_id
 _symmetry_equiv_pos_as_xyz
  1  'x, y, z'
loop_
 _atom_site_type_symbol
 _atom_site_label
 _atom_site_symmetry_multiplicity
 _atom_site_fract_x
 _atom_site_fract_y
 _atom_site_fract_z
 _atom_site_occupancy
  Y  Y0  1  0.682974  0.143348  0.500000  1
  Y  Y1  1  0.317026  0.856652  0.500000  1
  Y  Y2  1  0.143348  0.317026  0.500000  1
  Y  Y3  1  0.856652  0.682974  0.500000  1
  Y  Y4  1  0.500000  0.500000  0.000000  1
  In  In5  1  0.000000  0.000000  0.000000  1
  Pd  Pd6  1  0.142490  0.621208  0.000000  1
  Pd  Pd7  1  0.857510  0.378792  0.000000  1
  Pd  Pd8  1  0.621208  0.857510  0.000000  1
  Pd  Pd9  1  0.378792  0.142490  0.000000  1
