# generated using pymatgen
data_EuSnSe2F
_symmetry_space_group_name_H-M   'P 1'
_cell_length_a   4.12282900
_cell_length_b   4.12282900
_cell_length_c   14.54382200
_cell_angle_alpha   90.00000000
_cell_angle_beta   90.00000000
_cell_angle_gamma   90.00000000
_symmetry_Int_Tables_number   1
_chemical_formula_structural   EuSnSe2F
_chemical_formula_sum   'Eu2 Sn2 Se4 F2'
_cell_volume   247.21179901
_cell_formula_units_Z   2
loop_
 _symmetry_equiv_pos_site_id
 _symmetry_equiv_pos_as_xyz
  1  'x, y, z'
loop_
 _atom_site_type_symbol
 _atom_site_label
 _atom_site_symmetry_multiplicity
 _atom_site_fract_x
 _atom_site_fract_y
 _atom_site_fract_z
 _atom_site_occupancy
  Eu  Eu0  1  0.000000  0.500001  0.396435  1
  Eu  Eu1  1  0.500001  0.000000  0.603565  1
  Sn  Sn2  1  0.500001  0.000000  0.126737  1
  Sn  Sn3  1  0.000000  0.500001  0.873263  1
  Se  Se4  1  0.000000  0.500001  0.107908  1
  Se  Se5  1  0.500001  0.000000  0.313317  1
  Se  Se6  1  0.000000  0.500001  0.686683  1
  Se  Se7  1  0.500001  0.000000  0.892092  1
  F  F8  1  0.000000  0.000000  0.500000  1
  F  F9  1  0.500001  0.500001  0.500000  1
