# generated using pymatgen
data_Cs14PaNbAs8
_symmetry_space_group_name_H-M   'P 1'
_cell_length_a   9.16863013
_cell_length_b   10.25923755
_cell_length_c   11.36310800
_cell_angle_alpha   90.00000000
_cell_angle_beta   90.00000000
_cell_angle_gamma   90.10834209
_symmetry_Int_Tables_number   1
_chemical_formula_structural   Cs14PaNbAs8
_chemical_formula_sum   'Cs14 Pa1 Nb1 As8'
_cell_volume   1068.84787261
_cell_formula_units_Z   1
loop_
 _symmetry_equiv_pos_site_id
 _symmetry_equiv_pos_as_xyz
  1  'x, y, z'
loop_
 _atom_site_type_symbol
 _atom_site_label
 _atom_site_symmetry_multiplicity
 _atom_site_fract_x
 _atom_site_fract_y
 _atom_site_fract_z
 _atom_site_occupancy
  Cs  Cs0  1  0.883639  0.026464  0.000000  1
  Cs  Cs1  1  0.703506  0.831850  0.710598  1
  Cs  Cs2  1  0.391655  0.893918  0.000000  1
  Cs  Cs3  1  0.377642  0.977723  0.500000  1
  Cs  Cs4  1  0.870838  0.464311  0.292890  1
  Cs  Cs5  1  0.892546  0.114056  0.500000  1
  Cs  Cs6  1  0.658509  0.337641  0.000000  1
  Cs  Cs7  1  0.167253  0.657473  0.500000  1
  Cs  Cs8  1  0.210543  0.168162  0.219291  1
  Cs  Cs9  1  0.379153  0.530340  0.213975  1
  Cs  Cs10  1  0.379153  0.530340  0.786025  1
  Cs  Cs11  1  0.870838  0.464311  0.707110  1
  Cs  Cs12  1  0.703506  0.831850  0.289402  1
  Cs  Cs13  1  0.210543  0.168162  0.780709  1
  Pa  Pa14  1  0.002769  0.669030  0.000000  1
  Nb  Nb15  1  0.497636  0.328629  0.500000  1
  As  As16  1  0.702514  0.682045  0.000000  1
  As  As17  1  0.221815  0.318292  0.500000  1
  As  As18  1  0.071401  0.407757  0.000000  1
  As  As19  1  0.572703  0.567320  0.500000  1
  As  As20  1  0.090564  0.806390  0.199980  1
  As  As21  1  0.586458  0.208773  0.315608  1
  As  As22  1  0.586458  0.208773  0.684392  1
  As  As23  1  0.090564  0.806390  0.800020  1
