# generated using pymatgen
data_Tb5Bi2Rh
_symmetry_space_group_name_H-M   'P 1'
_cell_length_a   8.08044400
_cell_length_b   9.03670700
_cell_length_c   12.51379800
_cell_angle_alpha   90.00000000
_cell_angle_beta   90.00000000
_cell_angle_gamma   90.00000000
_symmetry_Int_Tables_number   1
_chemical_formula_structural   Tb5Bi2Rh
_chemical_formula_sum   'Tb20 Bi8 Rh4'
_cell_volume   913.76509903
_cell_formula_units_Z   4
loop_
 _symmetry_equiv_pos_site_id
 _symmetry_equiv_pos_as_xyz
  1  'x, y, z'
loop_
 _atom_site_type_symbol
 _atom_site_label
 _atom_site_symmetry_multiplicity
 _atom_site_fract_x
 _atom_site_fract_y
 _atom_site_fract_z
 _atom_site_occupancy
  Tb  Tb0  1  0.842442  0.750000  0.794400  1
  Tb  Tb1  1  0.157558  0.250000  0.205600  1
  Tb  Tb2  1  0.342442  0.250000  0.705600  1
  Tb  Tb3  1  0.657558  0.750000  0.294400  1
  Tb  Tb4  1  0.375249  0.750000  0.694802  1
  Tb  Tb5  1  0.624751  0.250000  0.305198  1
  Tb  Tb6  1  0.875249  0.250000  0.805198  1
  Tb  Tb7  1  0.124751  0.750000  0.194802  1
  Tb  Tb8  1  0.955536  0.750000  0.501187  1
  Tb  Tb9  1  0.044464  0.250000  0.498813  1
  Tb  Tb10  1  0.455536  0.250000  0.998813  1
  Tb  Tb11  1  0.544464  0.750000  0.001187  1
  Tb  Tb12  1  0.678589  0.039245  0.565651  1
  Tb  Tb13  1  0.321411  0.960755  0.434349  1
  Tb  Tb14  1  0.178589  0.960755  0.934349  1
  Tb  Tb15  1  0.321411  0.539245  0.434349  1
  Tb  Tb16  1  0.821411  0.039245  0.065651  1
  Tb  Tb17  1  0.678589  0.460755  0.565651  1
  Tb  Tb18  1  0.821411  0.460755  0.065651  1
  Tb  Tb19  1  0.178589  0.539245  0.934349  1
  Bi  Bi20  1  0.570662  0.491796  0.826328  1
  Bi  Bi21  1  0.429338  0.508204  0.173672  1
  Bi  Bi22  1  0.070662  0.508204  0.673672  1
  Bi  Bi23  1  0.429338  0.991796  0.173672  1
  Bi  Bi24  1  0.929338  0.491796  0.326328  1
  Bi  Bi25  1  0.570662  0.008204  0.826328  1
  Bi  Bi26  1  0.929338  0.008204  0.326328  1
  Bi  Bi27  1  0.070662  0.991796  0.673672  1
  Rh  Rh28  1  0.568710  0.750000  0.510404  1
  Rh  Rh29  1  0.431290  0.250000  0.489596  1
  Rh  Rh30  1  0.068710  0.250000  0.989596  1
  Rh  Rh31  1  0.931290  0.750000  0.010404  1
