# generated using pymatgen
data_Pu5MoO20
_symmetry_space_group_name_H-M   'P 1'
_cell_length_a   8.14782089
_cell_length_b   8.16223494
_cell_length_c   8.01597595
_cell_angle_alpha   88.92271800
_cell_angle_beta   90.96321504
_cell_angle_gamma   119.41529998
_symmetry_Int_Tables_number   1
_chemical_formula_structural   Pu5MoO20
_chemical_formula_sum   'Pu5 Mo1 O20'
_cell_volume   464.27270284
_cell_formula_units_Z   1
loop_
 _symmetry_equiv_pos_site_id
 _symmetry_equiv_pos_as_xyz
  1  'x, y, z'
loop_
 _atom_site_type_symbol
 _atom_site_label
 _atom_site_symmetry_multiplicity
 _atom_site_fract_x
 _atom_site_fract_y
 _atom_site_fract_z
 _atom_site_occupancy
  Pu  Pu0  1  0.012137  0.990020  0.490457  1
  Pu  Pu1  1  0.519681  0.480904  0.999225  1
  Pu  Pu2  1  0.266575  0.738778  0.746193  1
  Pu  Pu3  1  0.255930  0.724889  0.246263  1
  Pu  Pu4  1  0.773947  0.233523  0.755755  1
  Mo  Mo5  1  0.733985  0.217633  0.250338  1
  O  O6  1  0.133216  0.857807  0.292395  1
  O  O7  1  0.133491  0.873117  0.671373  1
  O  O8  1  0.629266  0.363423  0.197095  1
  O  O9  1  0.642369  0.363874  0.804684  1
  O  O10  1  0.904553  0.104588  0.703690  1
  O  O11  1  0.906916  0.091192  0.324072  1
  O  O12  1  0.396891  0.606874  0.817075  1
  O  O13  1  0.390067  0.603682  0.197092  1
  O  O14  1  0.006032  0.470331  0.751740  1
  O  O15  1  0.513115  0.980008  0.250979  1
  O  O16  1  0.537817  0.999934  0.754406  1
  O  O17  1  0.022954  0.491282  0.250474  1
  O  O18  1  0.303886  0.698647  0.521376  1
  O  O19  1  0.808726  0.204059  0.036119  1
  O  O20  1  0.748214  0.259365  0.478597  1
  O  O21  1  0.225543  0.775233  0.971142  1
  O  O22  1  0.232386  0.200391  0.490855  1
  O  O23  1  0.799320  0.772240  0.499369  1
  O  O24  1  0.731925  0.697468  0.007535  1
  O  O25  1  0.307058  0.264737  0.991698  1
