# generated using pymatgen
data_Pr5Pd2Ru
_symmetry_space_group_name_H-M   'P 1'
_cell_length_a   11.50766500
_cell_length_b   11.50766500
_cell_length_c   6.65273200
_cell_angle_alpha   90.00000000
_cell_angle_beta   90.00000000
_cell_angle_gamma   90.00000000
_symmetry_Int_Tables_number   1
_chemical_formula_structural   Pr5Pd2Ru
_chemical_formula_sum   'Pr20 Pd8 Ru4'
_cell_volume   880.99704125
_cell_formula_units_Z   4
loop_
 _symmetry_equiv_pos_site_id
 _symmetry_equiv_pos_as_xyz
  1  'x, y, z'
loop_
 _atom_site_type_symbol
 _atom_site_label
 _atom_site_symmetry_multiplicity
 _atom_site_fract_x
 _atom_site_fract_y
 _atom_site_fract_z
 _atom_site_occupancy
  Pr  Pr0  1  0.297178  0.087564  0.373660  1
  Pr  Pr1  1  0.297178  0.912436  0.873660  1
  Pr  Pr2  1  0.702822  0.087564  0.873660  1
  Pr  Pr3  1  0.702822  0.912436  0.373660  1
  Pr  Pr4  1  0.587564  0.797178  0.873660  1
  Pr  Pr5  1  0.587564  0.202822  0.373660  1
  Pr  Pr6  1  0.412436  0.797178  0.373660  1
  Pr  Pr7  1  0.412436  0.202822  0.873660  1
  Pr  Pr8  1  0.202822  0.412436  0.626340  1
  Pr  Pr9  1  0.202822  0.587564  0.126340  1
  Pr  Pr10  1  0.797178  0.412436  0.126340  1
  Pr  Pr11  1  0.797178  0.587564  0.626340  1
  Pr  Pr12  1  0.912436  0.702822  0.126340  1
  Pr  Pr13  1  0.912436  0.297178  0.626340  1
  Pr  Pr14  1  0.087564  0.702822  0.626340  1
  Pr  Pr15  1  0.087564  0.297178  0.126340  1
  Pr  Pr16  1  0.000000  0.000000  0.500000  1
  Pr  Pr17  1  0.000000  0.000000  0.000000  1
  Pr  Pr18  1  0.500000  0.500000  0.000000  1
  Pr  Pr19  1  0.500000  0.500000  0.500000  1
  Pd  Pd20  1  0.846134  0.153866  0.250000  1
  Pd  Pd21  1  0.846134  0.846134  0.750000  1
  Pd  Pd22  1  0.153866  0.153866  0.750000  1
  Pd  Pd23  1  0.153866  0.846134  0.250000  1
  Pd  Pd24  1  0.653866  0.346134  0.750000  1
  Pd  Pd25  1  0.653866  0.653866  0.250000  1
  Pd  Pd26  1  0.346134  0.346134  0.250000  1
  Pd  Pd27  1  0.346134  0.653866  0.750000  1
  Ru  Ru28  1  0.500000  0.000000  0.120043  1
  Ru  Ru29  1  0.500000  0.000000  0.620043  1
  Ru  Ru30  1  0.000000  0.500000  0.879957  1
  Ru  Ru31  1  0.000000  0.500000  0.379957  1
