# generated using pymatgen
data_Dy16Ho4Si15Ag
_symmetry_space_group_name_H-M   'P 1'
_cell_length_a   7.44564814
_cell_length_b   7.68424660
_cell_length_c   14.62980107
_cell_angle_alpha   89.85167951
_cell_angle_beta   89.47622642
_cell_angle_gamma   90.16842632
_symmetry_Int_Tables_number   1
_chemical_formula_structural   Dy16Ho4Si15Ag
_chemical_formula_sum   'Dy16 Ho4 Si15 Ag1'
_cell_volume   836.99085817
_cell_formula_units_Z   1
loop_
 _symmetry_equiv_pos_site_id
 _symmetry_equiv_pos_as_xyz
  1  'x, y, z'
loop_
 _atom_site_type_symbol
 _atom_site_label
 _atom_site_symmetry_multiplicity
 _atom_site_fract_x
 _atom_site_fract_y
 _atom_site_fract_z
 _atom_site_occupancy
  Dy  Dy0  1  0.975413  0.822517  0.101203  1
  Dy  Dy1  1  0.471544  0.683824  0.401175  1
  Dy  Dy2  1  0.521021  0.315145  0.898924  1
  Dy  Dy3  1  0.029835  0.182486  0.598564  1
  Dy  Dy4  1  0.030239  0.176515  0.899936  1
  Dy  Dy5  1  0.529398  0.316365  0.598404  1
  Dy  Dy6  1  0.473143  0.682790  0.100649  1
  Dy  Dy7  1  0.969641  0.816789  0.400198  1
  Dy  Dy8  1  0.675909  0.825464  0.876128  1
  Dy  Dy9  1  0.181522  0.680206  0.621899  1
  Dy  Dy10  1  0.820360  0.323622  0.124113  1
  Dy  Dy11  1  0.318087  0.178427  0.377165  1
  Dy  Dy12  1  0.322560  0.178610  0.123590  1
  Dy  Dy13  1  0.819334  0.320388  0.377198  1
  Dy  Dy14  1  0.182278  0.676279  0.877784  1
  Dy  Dy15  1  0.681640  0.820953  0.622446  1
  Ho  Ho16  1  0.648221  0.990592  0.249948  1
  Ho  Ho17  1  0.150008  0.511492  0.248186  1
  Ho  Ho18  1  0.848486  0.488579  0.749606  1
  Ho  Ho19  1  0.349790  0.012079  0.750065  1
  Si  Si20  1  0.766050  0.628611  0.251473  1
  Si  Si21  1  0.266757  0.872812  0.251126  1
  Si  Si22  1  0.733883  0.126193  0.748873  1
  Si  Si23  1  0.231320  0.373338  0.747739  1
  Si  Si24  1  0.021760  0.104510  0.250347  1
  Si  Si25  1  0.523305  0.396241  0.252012  1
  Si  Si26  1  0.475842  0.604002  0.748243  1
  Si  Si27  1  0.977369  0.893173  0.748637  1
  Si  Si28  1  0.354351  0.971432  0.540149  1
  Si  Si29  1  0.649628  0.028360  0.041506  1
  Si  Si30  1  0.146581  0.470419  0.459991  1
  Si  Si31  1  0.158165  0.471077  0.042478  1
  Si  Si32  1  0.645716  0.028660  0.459326  1
  Si  Si33  1  0.351734  0.969546  0.961004  1
  Si  Si34  1  0.855128  0.529608  0.539080  1
  Ag  Ag35  1  0.843982  0.528890  0.960834  1
