# generated using pymatgen
data_Na4SmAs12Rh19
_symmetry_space_group_name_H-M   'P 1'
_cell_length_a   13.16838496
_cell_length_b   13.13285830
_cell_length_c   3.97710300
_cell_angle_alpha   90.00000000
_cell_angle_beta   90.00000000
_cell_angle_gamma   119.91079479
_symmetry_Int_Tables_number   1
_chemical_formula_structural   Na4SmAs12Rh19
_chemical_formula_sum   'Na4 Sm1 As12 Rh19'
_cell_volume   596.18208933
_cell_formula_units_Z   1
loop_
 _symmetry_equiv_pos_site_id
 _symmetry_equiv_pos_as_xyz
  1  'x, y, z'
loop_
 _atom_site_type_symbol
 _atom_site_label
 _atom_site_symmetry_multiplicity
 _atom_site_fract_x
 _atom_site_fract_y
 _atom_site_fract_z
 _atom_site_occupancy
  Na  Na0  1  0.817006  0.816250  0.500000  1
  Na  Na1  1  0.182994  0.999244  0.500000  1
  Na  Na2  1  0.666970  0.333684  0.000000  1
  Na  Na3  1  0.333030  0.666715  0.000000  1
  Sm  Sm4  1  0.000000  0.179370  0.500000  1
  As  As5  1  0.486132  0.318403  0.500000  1
  As  As6  1  0.816826  0.995809  0.000000  1
  As  As7  1  0.183174  0.178983  0.000000  1
  As  As8  1  0.000000  0.820436  0.000000  1
  As  As9  1  0.363354  0.999852  0.000000  1
  As  As10  1  0.681210  0.167538  0.500000  1
  As  As11  1  0.832833  0.515160  0.500000  1
  As  As12  1  0.513868  0.832271  0.500000  1
  As  As13  1  0.167167  0.682326  0.500000  1
  As  As14  1  0.318790  0.486328  0.500000  1
  As  As15  1  0.000000  0.364653  0.000000  1
  As  As16  1  0.636646  0.636497  0.000000  1
  Rh  Rh17  1  0.803714  0.178210  0.000000  1
  Rh  Rh18  1  0.378181  0.197567  0.000000  1
  Rh  Rh19  1  0.644378  0.518071  0.500000  1
  Rh  Rh20  1  0.873044  0.354946  0.500000  1
  Rh  Rh21  1  0.355622  0.873693  0.500000  1
  Rh  Rh22  1  0.517543  0.644410  0.500000  1
  Rh  Rh23  1  0.126956  0.481902  0.500000  1
  Rh  Rh24  1  0.820236  0.623413  0.000000  1
  Rh  Rh25  1  0.621819  0.819385  0.000000  1
  Rh  Rh26  1  0.179764  0.803176  0.000000  1
  Rh  Rh27  1  0.196286  0.374495  0.000000  1
  Rh  Rh28  1  0.000000  0.714410  0.500000  1
  Rh  Rh29  1  0.285937  0.286384  0.500000  1
  Rh  Rh30  1  0.714063  0.000447  0.500000  1
  Rh  Rh31  1  0.000000  0.548586  0.000000  1
  Rh  Rh32  1  0.450930  0.453823  0.000000  1
  Rh  Rh33  1  0.549070  0.002893  0.000000  1
  Rh  Rh34  1  0.000000  0.003803  0.000000  1
  Rh  Rh35  1  0.482457  0.126867  0.500000  1
