# generated using pymatgen
data_Ho2(LuSb)3
_symmetry_space_group_name_H-M   'P 1'
_cell_length_a   8.05748900
_cell_length_b   9.12976500
_cell_length_c   11.72373600
_cell_angle_alpha   90.00000000
_cell_angle_beta   90.00000000
_cell_angle_gamma   90.00000000
_symmetry_Int_Tables_number   1
_chemical_formula_structural   Ho2(LuSb)3
_chemical_formula_sum   'Ho8 Lu12 Sb12'
_cell_volume   862.43296932
_cell_formula_units_Z   4
loop_
 _symmetry_equiv_pos_site_id
 _symmetry_equiv_pos_as_xyz
  1  'x, y, z'
loop_
 _atom_site_type_symbol
 _atom_site_label
 _atom_site_symmetry_multiplicity
 _atom_site_fract_x
 _atom_site_fract_y
 _atom_site_fract_z
 _atom_site_occupancy
  Ho  Ho0  1  0.175540  0.750000  0.229032  1
  Ho  Ho1  1  0.675540  0.250000  0.270968  1
  Ho  Ho2  1  0.824460  0.250000  0.770968  1
  Ho  Ho3  1  0.324460  0.750000  0.729032  1
  Ho  Ho4  1  0.658022  0.750000  0.290813  1
  Ho  Ho5  1  0.158022  0.250000  0.209187  1
  Ho  Ho6  1  0.341978  0.250000  0.709187  1
  Ho  Ho7  1  0.841978  0.750000  0.790813  1
  Lu  Lu8  1  0.808931  0.939480  0.066018  1
  Lu  Lu9  1  0.308931  0.060520  0.433982  1
  Lu  Lu10  1  0.191069  0.439480  0.933982  1
  Lu  Lu11  1  0.691069  0.560520  0.566018  1
  Lu  Lu12  1  0.191069  0.060520  0.933982  1
  Lu  Lu13  1  0.691069  0.939480  0.566018  1
  Lu  Lu14  1  0.808931  0.560520  0.066018  1
  Lu  Lu15  1  0.308931  0.439480  0.433982  1
  Lu  Lu16  1  0.524760  0.250000  0.995259  1
  Lu  Lu17  1  0.024760  0.750000  0.504741  1
  Lu  Lu18  1  0.475240  0.750000  0.004741  1
  Lu  Lu19  1  0.975240  0.250000  0.495259  1
  Sb  Sb20  1  0.936648  0.990918  0.326227  1
  Sb  Sb21  1  0.436648  0.009082  0.173773  1
  Sb  Sb22  1  0.063352  0.490918  0.673773  1
  Sb  Sb23  1  0.563352  0.509082  0.826227  1
  Sb  Sb24  1  0.063352  0.009082  0.673773  1
  Sb  Sb25  1  0.563352  0.990918  0.826227  1
  Sb  Sb26  1  0.936648  0.509082  0.326227  1
  Sb  Sb27  1  0.436648  0.490918  0.173773  1
  Sb  Sb28  1  0.902801  0.250000  0.024176  1
  Sb  Sb29  1  0.402801  0.750000  0.475824  1
  Sb  Sb30  1  0.097199  0.750000  0.975824  1
  Sb  Sb31  1  0.597199  0.250000  0.524176  1
