# generated using pymatgen
data_Sr6Ni2RhO12
_symmetry_space_group_name_H-M   'P 1'
_cell_length_a   8.78864831
_cell_length_b   8.78864867
_cell_length_c   6.85849790
_cell_angle_alpha   67.43275857
_cell_angle_beta   67.43275926
_cell_angle_gamma   36.70427607
_symmetry_Int_Tables_number   1
_chemical_formula_structural   Sr6Ni2RhO12
_chemical_formula_sum   'Sr6 Ni2 Rh1 O12'
_cell_volume   289.58934267
_cell_formula_units_Z   1
loop_
 _symmetry_equiv_pos_site_id
 _symmetry_equiv_pos_as_xyz
  1  'x, y, z'
loop_
 _atom_site_type_symbol
 _atom_site_label
 _atom_site_symmetry_multiplicity
 _atom_site_fract_x
 _atom_site_fract_y
 _atom_site_fract_z
 _atom_site_occupancy
  Sr  Sr0  1  0.875024  0.875024  0.718526  1
  Sr  Sr1  1  0.219275  0.219275  0.715224  1
  Sr  Sr2  1  0.547998  0.547998  0.709617  1
  Sr  Sr3  1  0.452002  0.452002  0.290383  1
  Sr  Sr4  1  0.780725  0.780725  0.284776  1
  Sr  Sr5  1  0.124976  0.124976  0.281474  1
  Ni  Ni6  1  0.668309  0.668309  0.999549  1
  Ni  Ni7  1  0.331691  0.331691  0.000451  1
  Rh  Rh8  1  0.000000  0.000000  0.000000  1
  O  O9  1  0.946240  0.946240  0.321833  1
  O  O10  1  0.280958  0.280958  0.318972  1
  O  O11  1  0.612903  0.612903  0.319058  1
  O  O12  1  0.387097  0.387097  0.680942  1
  O  O13  1  0.719042  0.719042  0.681028  1
  O  O14  1  0.053760  0.053760  0.678167  1
  O  O15  1  0.500000  0.000000  0.000000  1
  O  O16  1  0.834553  0.328987  0.999994  1
  O  O17  1  0.165447  0.671013  0.000006  1
  O  O18  1  0.000000  0.500000  0.000000  1
  O  O19  1  0.328987  0.834553  0.999994  1
  O  O20  1  0.671013  0.165447  0.000006  1
