# generated using pymatgen
data_YbZr(BiPt)2
_symmetry_space_group_name_H-M   'P 1'
_cell_length_a   8.15929450
_cell_length_b   8.15929506
_cell_length_c   6.64549200
_cell_angle_alpha   114.03123267
_cell_angle_beta   114.03123442
_cell_angle_gamma   109.67230586
_symmetry_Int_Tables_number   1
_chemical_formula_structural   YbZr(BiPt)2
_chemical_formula_sum   'Yb2 Zr2 Bi4 Pt4'
_cell_volume   294.57722957
_cell_formula_units_Z   2
loop_
 _symmetry_equiv_pos_site_id
 _symmetry_equiv_pos_as_xyz
  1  'x, y, z'
loop_
 _atom_site_type_symbol
 _atom_site_label
 _atom_site_symmetry_multiplicity
 _atom_site_fract_x
 _atom_site_fract_y
 _atom_site_fract_z
 _atom_site_occupancy
  Yb  Yb0  1  0.000000  0.000000  0.000000  1
  Yb  Yb1  1  0.250000  0.750000  0.500000  1
  Zr  Zr2  1  0.500001  0.499999  0.000000  1
  Zr  Zr3  1  0.750000  0.249999  0.500000  1
  Bi  Bi4  1  0.755668  0.244332  0.000000  1
  Bi  Bi5  1  0.244332  0.755668  0.000000  1
  Bi  Bi6  1  0.494332  0.505668  0.500000  1
  Bi  Bi7  1  0.005668  0.994331  0.500000  1
  Pt  Pt8  1  0.625001  0.875001  0.026760  1
  Pt  Pt9  1  0.848242  0.598242  0.473242  1
  Pt  Pt10  1  0.401759  0.151759  0.526758  1
  Pt  Pt11  1  0.125000  0.375000  0.973242  1
