# generated using pymatgen
data_LaFe8P5
_symmetry_space_group_name_H-M   'P 1'
_cell_length_a   3.60129700
_cell_length_b   9.14198600
_cell_length_c   10.58619300
_cell_angle_alpha   90.00000000
_cell_angle_beta   90.00000000
_cell_angle_gamma   90.00000000
_symmetry_Int_Tables_number   1
_chemical_formula_structural   LaFe8P5
_chemical_formula_sum   'La2 Fe16 P10'
_cell_volume   348.52930366
_cell_formula_units_Z   2
loop_
 _symmetry_equiv_pos_site_id
 _symmetry_equiv_pos_as_xyz
  1  'x, y, z'
loop_
 _atom_site_type_symbol
 _atom_site_label
 _atom_site_symmetry_multiplicity
 _atom_site_fract_x
 _atom_site_fract_y
 _atom_site_fract_z
 _atom_site_occupancy
  La  La0  1  0.500000  0.180377  0.500000  1
  La  La1  1  0.000000  0.819623  0.000000  1
  Fe  Fe2  1  0.000000  0.517942  0.170805  1
  Fe  Fe3  1  0.000000  0.456657  0.500000  1
  Fe  Fe4  1  0.500000  0.890732  0.259122  1
  Fe  Fe5  1  0.500000  0.482058  0.329195  1
  Fe  Fe6  1  0.500000  0.845884  0.500000  1
  Fe  Fe7  1  0.500000  0.307547  0.144862  1
  Fe  Fe8  1  0.500000  0.543343  0.000000  1
  Fe  Fe9  1  0.000000  0.692453  0.644862  1
  Fe  Fe10  1  0.000000  0.154116  0.000000  1
  Fe  Fe11  1  0.000000  0.692453  0.355138  1
  Fe  Fe12  1  0.500000  0.482058  0.670805  1
  Fe  Fe13  1  0.500000  0.307547  0.855138  1
  Fe  Fe14  1  0.000000  0.109268  0.240878  1
  Fe  Fe15  1  0.500000  0.890732  0.740878  1
  Fe  Fe16  1  0.000000  0.517942  0.829195  1
  Fe  Fe17  1  0.000000  0.109268  0.759122  1
  P  P18  1  0.000000  0.338704  0.689112  1
  P  P19  1  0.000000  0.932740  0.379792  1
  P  P20  1  0.000000  0.391119  0.000000  1
  P  P21  1  0.500000  0.661296  0.189112  1
  P  P22  1  0.500000  0.067260  0.120208  1
  P  P23  1  0.500000  0.661296  0.810888  1
  P  P24  1  0.000000  0.932740  0.620208  1
  P  P25  1  0.000000  0.338704  0.310888  1
  P  P26  1  0.500000  0.608881  0.500000  1
  P  P27  1  0.500000  0.067260  0.879792  1
