# generated using pymatgen
data_CeZr7(Si4W3)4
_symmetry_space_group_name_H-M   'P 1'
_cell_length_a   6.66201837
_cell_length_b   6.80842061
_cell_length_c   12.74360640
_cell_angle_alpha   89.97545169
_cell_angle_beta   90.09952034
_cell_angle_gamma   90.04826429
_symmetry_Int_Tables_number   1
_chemical_formula_structural   CeZr7(Si4W3)4
_chemical_formula_sum   'Ce1 Zr7 Si16 W12'
_cell_volume   578.02111645
_cell_formula_units_Z   1
loop_
 _symmetry_equiv_pos_site_id
 _symmetry_equiv_pos_as_xyz
  1  'x, y, z'
loop_
 _atom_site_type_symbol
 _atom_site_label
 _atom_site_symmetry_multiplicity
 _atom_site_fract_x
 _atom_site_fract_y
 _atom_site_fract_z
 _atom_site_occupancy
  Ce  Ce0  1  0.995240  0.830914  0.593264  1
  Zr  Zr1  1  0.495301  0.670310  0.591293  1
  Zr  Zr2  1  0.993774  0.828580  0.907654  1
  Zr  Zr3  1  0.506223  0.327706  0.092704  1
  Zr  Zr4  1  0.007798  0.173196  0.404736  1
  Zr  Zr5  1  0.506304  0.328844  0.405472  1
  Zr  Zr6  1  0.006436  0.171816  0.092301  1
  Zr  Zr7  1  0.494221  0.671834  0.910172  1
  Si  Si8  1  0.664498  0.960508  0.454457  1
  Si  Si9  1  0.167068  0.541289  0.043449  1
  Si  Si10  1  0.331495  0.041355  0.958045  1
  Si  Si11  1  0.831995  0.453601  0.542288  1
  Si  Si12  1  0.338612  0.044713  0.541248  1
  Si  Si13  1  0.833140  0.458875  0.957894  1
  Si  Si14  1  0.666991  0.958604  0.043346  1
  Si  Si15  1  0.168760  0.538254  0.455030  1
  Si  Si16  1  0.465970  0.380335  0.750262  1
  Si  Si17  1  0.963717  0.125387  0.752341  1
  Si  Si18  1  0.533548  0.619116  0.248770  1
  Si  Si19  1  0.034059  0.878872  0.250077  1
  Si  Si20  1  0.694142  0.859117  0.752488  1
  Si  Si21  1  0.202985  0.638273  0.752674  1
  Si  Si22  1  0.301215  0.139610  0.249206  1
  Si  Si23  1  0.799744  0.359045  0.249100  1
  W  W24  1  0.666090  0.164312  0.626012  1
  W  W25  1  0.168982  0.337250  0.877029  1
  W  W26  1  0.330545  0.836046  0.124102  1
  W  W27  1  0.831458  0.662725  0.374487  1
  W  W28  1  0.334766  0.835487  0.374223  1
  W  W29  1  0.832402  0.664039  0.124256  1
  W  W30  1  0.664075  0.165546  0.877556  1
  W  W31  1  0.170451  0.336969  0.624407  1
  W  W32  1  0.834391  0.505005  0.751145  1
  W  W33  1  0.332158  0.995693  0.750881  1
  W  W34  1  0.165266  0.489708  0.249251  1
  W  W35  1  0.666182  0.007067  0.248377  1
