# generated using pymatgen
data_Cd3Sn11Ir6
_symmetry_space_group_name_H-M   'P 1'
_cell_length_a   8.23483513
_cell_length_b   8.23486038
_cell_length_c   8.23483521
_cell_angle_alpha   109.41906274
_cell_angle_beta   107.79985936
_cell_angle_gamma   111.21262739
_symmetry_Int_Tables_number   1
_chemical_formula_structural   Cd3Sn11Ir6
_chemical_formula_sum   'Cd3 Sn11 Ir6'
_cell_volume   429.49569144
_cell_formula_units_Z   1
loop_
 _symmetry_equiv_pos_site_id
 _symmetry_equiv_pos_as_xyz
  1  'x, y, z'
loop_
 _atom_site_type_symbol
 _atom_site_label
 _atom_site_symmetry_multiplicity
 _atom_site_fract_x
 _atom_site_fract_y
 _atom_site_fract_z
 _atom_site_occupancy
  Cd  Cd0  1  0.251220  0.502683  0.753903  1
  Cd  Cd1  1  0.500000  0.747564  0.247563  1
  Cd  Cd2  1  0.748780  0.502683  0.251462  1
  Sn  Sn3  1  0.500000  0.252926  0.752926  1
  Sn  Sn4  1  0.751909  0.249776  0.497866  1
  Sn  Sn5  1  0.248091  0.745957  0.497866  1
  Sn  Sn6  1  0.000032  0.673429  0.999373  1
  Sn  Sn7  1  0.673446  0.996468  0.002988  1
  Sn  Sn8  1  0.999970  0.999344  0.673405  1
  Sn  Sn9  1  0.326554  0.329542  0.323022  1
  Sn  Sn10  1  0.325940  0.999344  0.999375  1
  Sn  Sn11  1  0.006520  0.329542  0.002988  1
  Sn  Sn12  1  0.993480  0.996468  0.323022  1
  Sn  Sn13  1  0.674056  0.673429  0.673397  1
  Ir  Ir14  1  0.661544  0.654875  0.993331  1
  Ir  Ir15  1  0.657641  0.008040  0.665681  1
  Ir  Ir16  1  0.338457  0.331787  0.993331  1
  Ir  Ir17  1  0.342359  0.008040  0.350399  1
  Ir  Ir18  1  0.000000  0.658756  0.658755  1
  Ir  Ir19  1  0.000000  0.339347  0.339347  1
