# generated using pymatgen
data_Y9Ho2In9Rh4
_symmetry_space_group_name_H-M   'P 1'
_cell_length_a   13.14645459
_cell_length_b   13.15894734
_cell_length_c   3.69060100
_cell_angle_alpha   90.00000000
_cell_angle_beta   90.00000000
_cell_angle_gamma   111.50872915
_symmetry_Int_Tables_number   1
_chemical_formula_structural   Y9Ho2In9Rh4
_chemical_formula_sum   'Y9 Ho2 In9 Rh4'
_cell_volume   593.98943775
_cell_formula_units_Z   1
loop_
 _symmetry_equiv_pos_site_id
 _symmetry_equiv_pos_as_xyz
  1  'x, y, z'
loop_
 _atom_site_type_symbol
 _atom_site_label
 _atom_site_symmetry_multiplicity
 _atom_site_fract_x
 _atom_site_fract_y
 _atom_site_fract_z
 _atom_site_occupancy
  Y  Y0  1  0.417012  0.078500  0.000000  1
  Y  Y1  1  0.582988  0.921500  0.000000  1
  Y  Y2  1  0.624769  0.375299  0.000000  1
  Y  Y3  1  0.375231  0.624701  0.000000  1
  Y  Y4  1  0.838985  0.161294  0.000000  1
  Y  Y5  1  0.161015  0.838706  0.000000  1
  Y  Y6  1  0.000000  0.000000  0.000000  1
  Y  Y7  1  0.312127  0.312251  0.000000  1
  Y  Y8  1  0.687873  0.687749  0.000000  1
  Ho  Ho9  1  0.079380  0.417344  0.000000  1
  Ho  Ho10  1  0.920620  0.582656  0.000000  1
  In  In11  1  0.841214  0.369565  0.500000  1
  In  In12  1  0.158786  0.630435  0.500000  1
  In  In13  1  0.369185  0.840770  0.500000  1
  In  In14  1  0.630815  0.159230  0.500000  1
  In  In15  1  0.076341  0.218880  0.500000  1
  In  In16  1  0.923659  0.781120  0.500000  1
  In  In17  1  0.218514  0.076449  0.500000  1
  In  In18  1  0.781486  0.923551  0.500000  1
  In  In19  1  0.500000  0.500000  0.500000  1
  Rh  Rh20  1  0.244813  0.448604  0.500000  1
  Rh  Rh21  1  0.755187  0.551396  0.500000  1
  Rh  Rh22  1  0.448785  0.245882  0.500000  1
  Rh  Rh23  1  0.551215  0.754118  0.500000  1
