# generated using pymatgen
data_Mn3V9Si3P
_symmetry_space_group_name_H-M   'P 1'
_cell_length_a   4.62276465
_cell_length_b   4.59941000
_cell_length_c   9.21433519
_cell_angle_alpha   90.00000000
_cell_angle_beta   89.83775237
_cell_angle_gamma   90.00000000
_symmetry_Int_Tables_number   1
_chemical_formula_structural   Mn3V9Si3P
_chemical_formula_sum   'Mn3 V9 Si3 P1'
_cell_volume   195.91431707
_cell_formula_units_Z   1
loop_
 _symmetry_equiv_pos_site_id
 _symmetry_equiv_pos_as_xyz
  1  'x, y, z'
loop_
 _atom_site_type_symbol
 _atom_site_label
 _atom_site_symmetry_multiplicity
 _atom_site_fract_x
 _atom_site_fract_y
 _atom_site_fract_z
 _atom_site_occupancy
  Mn  Mn0  1  0.000743  0.500000  0.126342  1
  Mn  Mn1  1  0.000509  0.500000  0.624681  1
  Mn  Mn2  1  0.746329  0.000000  0.499973  1
  V  V3  1  0.501173  0.250324  0.750558  1
  V  V4  1  0.498675  0.251090  0.248663  1
  V  V5  1  0.751249  0.000000  0.000063  1
  V  V6  1  0.001422  0.500000  0.875819  1
  V  V7  1  0.000457  0.500000  0.377262  1
  V  V8  1  0.501173  0.749676  0.750558  1
  V  V9  1  0.498675  0.748910  0.248663  1
  V  V10  1  0.251168  0.000000  0.999880  1
  V  V11  1  0.246552  0.000000  0.499562  1
  Si  Si12  1  0.503376  0.500000  0.500287  1
  Si  Si13  1  0.000072  0.000000  0.748223  1
  Si  Si14  1  0.998932  0.000000  0.251264  1
  P  P15  1  0.499495  0.500000  0.998201  1
