# generated using pymatgen
data_Hf2Ta3Fe
_symmetry_space_group_name_H-M   'P 1'
_cell_length_a   5.22673610
_cell_length_b   5.22673569
_cell_length_c   5.22673534
_cell_angle_alpha   64.68012926
_cell_angle_beta   64.68013313
_cell_angle_gamma   64.68012664
_symmetry_Int_Tables_number   1
_chemical_formula_structural   Hf2Ta3Fe
_chemical_formula_sum   'Hf2 Ta3 Fe1'
_cell_volume   111.31383989
_cell_formula_units_Z   1
loop_
 _symmetry_equiv_pos_site_id
 _symmetry_equiv_pos_as_xyz
  1  'x, y, z'
loop_
 _atom_site_type_symbol
 _atom_site_label
 _atom_site_symmetry_multiplicity
 _atom_site_fract_x
 _atom_site_fract_y
 _atom_site_fract_z
 _atom_site_occupancy
  Hf  Hf0  1  0.001060  0.001060  0.001060  1
  Hf  Hf1  1  0.248940  0.248940  0.248940  1
  Ta  Ta2  1  0.625000  0.625000  0.125000  1
  Ta  Ta3  1  0.625000  0.125000  0.625000  1
  Ta  Ta4  1  0.125000  0.625000  0.625000  1
  Fe  Fe5  1  0.625000  0.625000  0.625000  1
