# generated using pymatgen
data_Dy10Lu6ZnCo4Ag3
_symmetry_space_group_name_H-M   'P 1'
_cell_length_a   9.29099467
_cell_length_b   9.33748863
_cell_length_c   9.33749000
_cell_angle_alpha   60.00000224
_cell_angle_beta   59.83432625
_cell_angle_gamma   59.83432436
_symmetry_Int_Tables_number   1
_chemical_formula_structural   Dy10Lu6ZnCo4Ag3
_chemical_formula_sum   'Dy10 Lu6 Zn1 Co4 Ag3'
_cell_volume   571.36726752
_cell_formula_units_Z   1
loop_
 _symmetry_equiv_pos_site_id
 _symmetry_equiv_pos_as_xyz
  1  'x, y, z'
loop_
 _atom_site_type_symbol
 _atom_site_label
 _atom_site_symmetry_multiplicity
 _atom_site_fract_x
 _atom_site_fract_y
 _atom_site_fract_z
 _atom_site_occupancy
  Dy  Dy0  1  0.939462  0.562402  0.562402  1
  Dy  Dy1  1  0.561370  0.938473  0.938473  1
  Dy  Dy2  1  0.561370  0.938473  0.561684  1
  Dy  Dy3  1  0.939462  0.562402  0.935732  1
  Dy  Dy4  1  0.561370  0.561684  0.938473  1
  Dy  Dy5  1  0.939462  0.935732  0.562402  1
  Dy  Dy6  1  0.348795  0.349523  0.349523  1
  Dy  Dy7  1  0.348795  0.349523  0.952159  1
  Dy  Dy8  1  0.348795  0.952159  0.349523  1
  Dy  Dy9  1  0.951448  0.349518  0.349518  1
  Lu  Lu10  1  0.814439  0.186082  0.186082  1
  Lu  Lu11  1  0.186654  0.813314  0.813314  1
  Lu  Lu12  1  0.186654  0.813314  0.186719  1
  Lu  Lu13  1  0.814439  0.186082  0.813398  1
  Lu  Lu14  1  0.186654  0.186719  0.813314  1
  Lu  Lu15  1  0.814439  0.813398  0.186082  1
  Zn  Zn16  1  0.262980  0.579007  0.579007  1
  Co  Co17  1  0.141264  0.140116  0.140116  1
  Co  Co18  1  0.141264  0.140116  0.578502  1
  Co  Co19  1  0.141264  0.578502  0.140116  1
  Co  Co20  1  0.579075  0.140308  0.140308  1
  Ag  Ag21  1  0.576844  0.582114  0.582114  1
  Ag  Ag22  1  0.576844  0.582114  0.258926  1
  Ag  Ag23  1  0.576844  0.258926  0.582114  1
