# generated using pymatgen
data_Rb5In3P4
_symmetry_space_group_name_H-M   'P 1'
_cell_length_a   11.92389500
_cell_length_b   16.48495406
_cell_length_c   17.63975400
_cell_angle_alpha   62.77409753
_cell_angle_beta   90.00000000
_cell_angle_gamma   90.00000000
_symmetry_Int_Tables_number   1
_chemical_formula_structural   Rb5In3P4
_chemical_formula_sum   'Rb40 In24 P32'
_cell_volume   3083.20618739
_cell_formula_units_Z   8
loop_
 _symmetry_equiv_pos_site_id
 _symmetry_equiv_pos_as_xyz
  1  'x, y, z'
loop_
 _atom_site_type_symbol
 _atom_site_label
 _atom_site_symmetry_multiplicity
 _atom_site_fract_x
 _atom_site_fract_y
 _atom_site_fract_z
 _atom_site_occupancy
  Rb  Rb0  1  0.366234  0.782559  0.405214  1
  Rb  Rb1  1  0.635211  0.442014  0.136305  1
  Rb  Rb2  1  0.135211  0.557986  0.363695  1
  Rb  Rb3  1  0.414117  0.250076  0.310790  1
  Rb  Rb4  1  0.381108  0.209741  0.106573  1
  Rb  Rb5  1  0.854021  0.648127  0.037128  1
  Rb  Rb6  1  0.875693  0.763005  0.786781  1
  Rb  Rb7  1  0.618892  0.790259  0.893427  1
  Rb  Rb8  1  0.881108  0.790259  0.393427  1
  Rb  Rb9  1  0.337725  0.751258  0.187464  1
  Rb  Rb10  1  0.864789  0.442014  0.636305  1
  Rb  Rb11  1  0.128181  0.099751  0.460652  1
  Rb  Rb12  1  0.628181  0.900249  0.039348  1
  Rb  Rb13  1  0.375693  0.236995  0.713219  1
  Rb  Rb14  1  0.145979  0.351873  0.962872  1
  Rb  Rb15  1  0.624007  0.078233  0.467156  1
  Rb  Rb16  1  0.398459  0.641116  0.035671  1
  Rb  Rb17  1  0.118892  0.209741  0.606573  1
  Rb  Rb18  1  0.124007  0.921767  0.032844  1
  Rb  Rb19  1  0.837725  0.248742  0.312536  1
  Rb  Rb20  1  0.585883  0.749924  0.689210  1
  Rb  Rb21  1  0.662275  0.248742  0.812536  1
  Rb  Rb22  1  0.645979  0.648127  0.537128  1
  Rb  Rb23  1  0.601541  0.358884  0.964329  1
  Rb  Rb24  1  0.162275  0.751258  0.687464  1
  Rb  Rb25  1  0.875993  0.078233  0.967156  1
  Rb  Rb26  1  0.914117  0.749924  0.189210  1
  Rb  Rb27  1  0.124307  0.236995  0.213219  1
  Rb  Rb28  1  0.375993  0.921767  0.532844  1
  Rb  Rb29  1  0.371819  0.099751  0.960652  1
  Rb  Rb30  1  0.101541  0.641116  0.535671  1
  Rb  Rb31  1  0.133766  0.782559  0.905214  1
  Rb  Rb32  1  0.633766  0.217441  0.594786  1
  Rb  Rb33  1  0.898459  0.358884  0.464329  1
  Rb  Rb34  1  0.364789  0.557986  0.863695  1
  Rb  Rb35  1  0.871819  0.900249  0.539348  1
  Rb  Rb36  1  0.354021  0.351873  0.462872  1
  Rb  Rb37  1  0.866234  0.217441  0.094786  1
  Rb  Rb38  1  0.624307  0.763005  0.286781  1
  Rb  Rb39  1  0.085883  0.250076  0.810790  1
  In  In40  1  0.992847  0.996560  0.199637  1
  In  In41  1  0.507153  0.996560  0.699637  1
  In  In42  1  0.007153  0.003440  0.800363  1
  In  In43  1  0.492847  0.003440  0.300363  1
  In  In44  1  0.125384  0.913787  0.398318  1
  In  In45  1  0.625384  0.086213  0.101682  1
  In  In46  1  0.875275  0.494412  0.949843  1
  In  In47  1  0.765674  0.532944  0.277792  1
  In  In48  1  0.021535  0.524316  0.775057  1
  In  In49  1  0.374616  0.913787  0.898318  1
  In  In50  1  0.978465  0.475684  0.224943  1
  In  In51  1  0.234326  0.467056  0.722208  1
  In  In52  1  0.734326  0.532944  0.777792  1
  In  In53  1  0.745296  0.006364  0.801357  1
  In  In54  1  0.254704  0.993636  0.198643  1
  In  In55  1  0.265674  0.467056  0.222208  1
  In  In56  1  0.375275  0.505588  0.550157  1
  In  In57  1  0.624725  0.494412  0.449843  1
  In  In58  1  0.245296  0.993636  0.698643  1
  In  In59  1  0.874616  0.086213  0.601682  1
  In  In60  1  0.124725  0.505588  0.050157  1
  In  In61  1  0.521535  0.475684  0.724943  1
  In  In62  1  0.478465  0.524316  0.275057  1
  In  In63  1  0.754704  0.006364  0.301357  1
  P  P64  1  0.127070  0.612202  0.130401  1
  P  P65  1  0.815822  0.580395  0.400650  1
  P  P66  1  0.881175  0.642648  0.661842  1
  P  P67  1  0.436315  0.592786  0.388656  1
  P  P68  1  0.623215  0.153217  0.228128  1
  P  P69  1  0.459110  0.954522  0.176084  1
  P  P70  1  0.936315  0.407214  0.111344  1
  P  P71  1  0.315822  0.419605  0.099350  1
  P  P72  1  0.372930  0.612202  0.630401  1
  P  P73  1  0.563685  0.407214  0.611344  1
  P  P74  1  0.627070  0.387798  0.369599  1
  P  P75  1  0.376785  0.846783  0.771872  1
  P  P76  1  0.118825  0.357352  0.338158  1
  P  P77  1  0.123215  0.846783  0.271872  1
  P  P78  1  0.184178  0.419605  0.599350  1
  P  P79  1  0.876785  0.153217  0.728128  1
  P  P80  1  0.040890  0.954522  0.676084  1
  P  P81  1  0.377461  0.108836  0.574957  1
  P  P82  1  0.789289  0.953403  0.179510  1
  P  P83  1  0.959110  0.045478  0.323916  1
  P  P84  1  0.877461  0.891164  0.925043  1
  P  P85  1  0.872930  0.387798  0.869599  1
  P  P86  1  0.618825  0.642648  0.161842  1
  P  P87  1  0.063685  0.592786  0.888656  1
  P  P88  1  0.122539  0.108836  0.074957  1
  P  P89  1  0.710711  0.953403  0.679510  1
  P  P90  1  0.210711  0.046597  0.820490  1
  P  P91  1  0.289289  0.046597  0.320490  1
  P  P92  1  0.381175  0.357352  0.838158  1
  P  P93  1  0.622539  0.891164  0.425043  1
  P  P94  1  0.540890  0.045478  0.823916  1
  P  P95  1  0.684178  0.580395  0.900650  1
