# generated using pymatgen
data_Gd2TmTaO7
_symmetry_space_group_name_H-M   'P 1'
_cell_length_a   6.50116663
_cell_length_b   6.50116653
_cell_length_c   7.53010560
_cell_angle_alpha   90.09419129
_cell_angle_beta   90.09419283
_cell_angle_gamma   108.92827298
_symmetry_Int_Tables_number   1
_chemical_formula_structural   Gd2TmTaO7
_chemical_formula_sum   'Gd4 Tm2 Ta2 O14'
_cell_volume   301.05012199
_cell_formula_units_Z   2
loop_
 _symmetry_equiv_pos_site_id
 _symmetry_equiv_pos_as_xyz
  1  'x, y, z'
loop_
 _atom_site_type_symbol
 _atom_site_label
 _atom_site_symmetry_multiplicity
 _atom_site_fract_x
 _atom_site_fract_y
 _atom_site_fract_z
 _atom_site_occupancy
  Gd  Gd0  1  0.467158  0.000146  0.255196  1
  Gd  Gd1  1  0.999854  0.532842  0.244804  1
  Gd  Gd2  1  0.472842  0.474718  0.996679  1
  Gd  Gd3  1  0.525282  0.527158  0.503321  1
  Tm  Tm4  1  0.535351  0.000925  0.755728  1
  Tm  Tm5  1  0.999075  0.464649  0.744272  1
  Ta  Ta6  1  0.003482  0.001694  0.503312  1
  Ta  Ta7  1  0.998306  0.996518  0.996688  1
  O  O8  1  0.929518  0.070482  0.750000  1
  O  O9  1  0.643902  0.356098  0.750000  1
  O  O10  1  0.310623  0.053021  0.546261  1
  O  O11  1  0.946979  0.689377  0.953739  1
  O  O12  1  0.629147  0.370853  0.250000  1
  O  O13  1  0.924125  0.675770  0.533261  1
  O  O14  1  0.324230  0.075875  0.966739  1
  O  O15  1  0.080688  0.326872  0.021530  1
  O  O16  1  0.673128  0.919312  0.478470  1
  O  O17  1  0.366329  0.633671  0.750000  1
  O  O18  1  0.685837  0.940149  0.033314  1
  O  O19  1  0.059851  0.314163  0.466686  1
  O  O20  1  0.362744  0.637256  0.250000  1
  O  O21  1  0.061550  0.938450  0.250000  1
