# generated using pymatgen
data_Er2Al7CdNi2
_symmetry_space_group_name_H-M   'P 1'
_cell_length_a   7.99614547
_cell_length_b   7.99614505
_cell_length_c   6.68737036
_cell_angle_alpha   89.16183261
_cell_angle_beta   90.83816641
_cell_angle_gamma   150.63392005
_symmetry_Int_Tables_number   1
_chemical_formula_structural   Er2Al7CdNi2
_chemical_formula_sum   'Er2 Al7 Cd1 Ni2'
_cell_volume   209.65576295
_cell_formula_units_Z   1
loop_
 _symmetry_equiv_pos_site_id
 _symmetry_equiv_pos_as_xyz
  1  'x, y, z'
loop_
 _atom_site_type_symbol
 _atom_site_label
 _atom_site_symmetry_multiplicity
 _atom_site_fract_x
 _atom_site_fract_y
 _atom_site_fract_z
 _atom_site_occupancy
  Er  Er0  1  0.120914  0.879086  0.737266  1
  Er  Er1  1  0.879086  0.120914  0.262734  1
  Al  Al2  1  0.923469  0.076531  0.745422  1
  Al  Al3  1  0.688371  0.311629  0.443604  1
  Al  Al4  1  0.076531  0.923469  0.254578  1
  Al  Al5  1  0.309891  0.690109  0.949629  1
  Al  Al6  1  0.690109  0.309891  0.050371  1
  Al  Al7  1  0.500000  0.500000  0.500000  1
  Al  Al8  1  0.311629  0.688371  0.556396  1
  Cd  Cd9  1  0.500000  0.500000  0.000000  1
  Ni  Ni10  1  0.227044  0.772956  0.251709  1
  Ni  Ni11  1  0.772956  0.227044  0.748291  1
