# generated using pymatgen
data_Tb5Pr3ZnPd24
_symmetry_space_group_name_H-M   'P 1'
_cell_length_a   8.46103245
_cell_length_b   8.46103241
_cell_length_c   8.43090700
_cell_angle_alpha   90.07074422
_cell_angle_beta   89.92925578
_cell_angle_gamma   89.74943814
_symmetry_Int_Tables_number   1
_chemical_formula_structural   Tb5Pr3ZnPd24
_chemical_formula_sum   'Tb5 Pr3 Zn1 Pd24'
_cell_volume   603.55409412
_cell_formula_units_Z   1
loop_
 _symmetry_equiv_pos_site_id
 _symmetry_equiv_pos_as_xyz
  1  'x, y, z'
loop_
 _atom_site_type_symbol
 _atom_site_label
 _atom_site_symmetry_multiplicity
 _atom_site_fract_x
 _atom_site_fract_y
 _atom_site_fract_z
 _atom_site_occupancy
  Tb  Tb0  1  0.251224  0.250652  0.249637  1
  Tb  Tb1  1  0.749004  0.750116  0.750795  1
  Tb  Tb2  1  0.749348  0.748776  0.249637  1
  Tb  Tb3  1  0.749830  0.250170  0.748588  1
  Tb  Tb4  1  0.249884  0.250996  0.750795  1
  Pr  Pr5  1  0.249789  0.750211  0.251285  1
  Pr  Pr6  1  0.251059  0.748941  0.748440  1
  Pr  Pr7  1  0.749126  0.250874  0.251098  1
  Zn  Zn8  1  0.000419  0.999581  0.999837  1
  Pd  Pd9  1  0.261342  0.495984  0.000502  1
  Pd  Pd10  1  0.738671  0.501382  0.995751  1
  Pd  Pd11  1  0.004658  0.261841  0.502523  1
  Pd  Pd12  1  0.498618  0.261329  0.995751  1
  Pd  Pd13  1  0.991903  0.738388  0.500462  1
  Pd  Pd14  1  0.504016  0.738658  0.000502  1
  Pd  Pd15  1  0.500339  0.999445  0.261226  1
  Pd  Pd16  1  0.261612  0.008097  0.500462  1
  Pd  Pd17  1  0.502310  0.004090  0.738490  1
  Pd  Pd18  1  0.738159  0.995342  0.502523  1
  Pd  Pd19  1  0.000555  0.499661  0.261226  1
  Pd  Pd20  1  0.995910  0.497690  0.738490  1
  Pd  Pd21  1  0.253525  0.493607  0.499766  1
  Pd  Pd22  1  0.746393  0.503239  0.503588  1
  Pd  Pd23  1  0.496761  0.253607  0.503588  1
  Pd  Pd24  1  0.506393  0.746475  0.499766  1
  Pd  Pd25  1  0.499549  0.500451  0.253442  1
  Pd  Pd26  1  0.503508  0.496492  0.746481  1
  Pd  Pd27  1  0.295992  0.005877  0.000224  1
  Pd  Pd28  1  0.705450  0.996713  0.996967  1
  Pd  Pd29  1  0.003287  0.294550  0.996967  1
  Pd  Pd30  1  0.994123  0.704008  0.000224  1
  Pd  Pd31  1  0.000210  0.999790  0.296818  1
  Pd  Pd32  1  0.997031  0.002969  0.704151  1
