# generated using pymatgen
data_NpSc4Tc7
_symmetry_space_group_name_H-M   'P 1'
_cell_length_a   5.21458825
_cell_length_b   5.21458930
_cell_length_c   8.67640200
_cell_angle_alpha   90.00000000
_cell_angle_beta   90.00000000
_cell_angle_gamma   117.02077758
_symmetry_Int_Tables_number   1
_chemical_formula_structural   NpSc4Tc7
_chemical_formula_sum   'Np1 Sc4 Tc7'
_cell_volume   210.17468193
_cell_formula_units_Z   1
loop_
 _symmetry_equiv_pos_site_id
 _symmetry_equiv_pos_as_xyz
  1  'x, y, z'
loop_
 _atom_site_type_symbol
 _atom_site_label
 _atom_site_symmetry_multiplicity
 _atom_site_fract_x
 _atom_site_fract_y
 _atom_site_fract_z
 _atom_site_occupancy
  Np  Np0  1  0.846109  0.153891  0.250000  1
  Sc  Sc1  1  0.328326  0.671674  0.448377  1
  Sc  Sc2  1  0.662406  0.337594  0.572060  1
  Sc  Sc3  1  0.662406  0.337594  0.927940  1
  Sc  Sc4  1  0.328326  0.671674  0.051623  1
  Tc  Tc5  1  0.988051  0.011949  0.492686  1
  Tc  Tc6  1  0.988051  0.011949  0.007314  1
  Tc  Tc7  1  0.842742  0.625593  0.250000  1
  Tc  Tc8  1  0.374407  0.157258  0.250000  1
  Tc  Tc9  1  0.163690  0.836310  0.750000  1
  Tc  Tc10  1  0.165105  0.349617  0.750000  1
  Tc  Tc11  1  0.650383  0.834895  0.750000  1
