# generated using pymatgen
data_Tb4Ho(Hg2Pd)2
_symmetry_space_group_name_H-M   'P 1'
_cell_length_a   3.66640200
_cell_length_b   7.98778210
_cell_length_c   18.16651508
_cell_angle_alpha   90.01852262
_cell_angle_beta   90.00000000
_cell_angle_gamma   90.00000000
_symmetry_Int_Tables_number   1
_chemical_formula_structural   Tb4Ho(Hg2Pd)2
_chemical_formula_sum   'Tb8 Ho2 Hg8 Pd4'
_cell_volume   532.03216736
_cell_formula_units_Z   2
loop_
 _symmetry_equiv_pos_site_id
 _symmetry_equiv_pos_as_xyz
  1  'x, y, z'
loop_
 _atom_site_type_symbol
 _atom_site_label
 _atom_site_symmetry_multiplicity
 _atom_site_fract_x
 _atom_site_fract_y
 _atom_site_fract_z
 _atom_site_occupancy
  Tb  Tb0  1  0.000000  0.500000  0.500000  1
  Tb  Tb1  1  0.000000  0.000000  0.000000  1
  Tb  Tb2  1  0.000000  0.735227  0.285888  1
  Tb  Tb3  1  0.000000  0.264773  0.714112  1
  Tb  Tb4  1  0.000000  0.764434  0.784520  1
  Tb  Tb5  1  0.000000  0.235566  0.215480  1
  Tb  Tb6  1  0.000000  0.614468  0.084120  1
  Tb  Tb7  1  0.000000  0.385532  0.915880  1
  Ho  Ho8  1  0.000000  0.886755  0.584083  1
  Ho  Ho9  1  0.000000  0.113245  0.415917  1
  Hg  Hg10  1  0.500000  0.712588  0.934405  1
  Hg  Hg11  1  0.500000  0.287412  0.065595  1
  Hg  Hg12  1  0.500000  0.789220  0.435853  1
  Hg  Hg13  1  0.500000  0.210780  0.564147  1
  Hg  Hg14  1  0.500000  0.583927  0.648242  1
  Hg  Hg15  1  0.500000  0.416073  0.351758  1
  Hg  Hg16  1  0.500000  0.917296  0.149275  1
  Hg  Hg17  1  0.500000  0.082704  0.850725  1
  Pd  Pd18  1  0.500000  0.527355  0.196044  1
  Pd  Pd19  1  0.500000  0.472645  0.803956  1
  Pd  Pd20  1  0.500000  0.972493  0.694889  1
  Pd  Pd21  1  0.500000  0.027507  0.305111  1
