# generated using pymatgen
data_Lu16MgCd3Rh4
_symmetry_space_group_name_H-M   'P 1'
_cell_length_a   9.48903389
_cell_length_b   9.42445507
_cell_length_c   9.42445500
_cell_angle_alpha   59.99999674
_cell_angle_beta   60.22487089
_cell_angle_gamma   60.22487332
_symmetry_Int_Tables_number   1
_chemical_formula_structural   Lu16MgCd3Rh4
_chemical_formula_sum   'Lu16 Mg1 Cd3 Rh4'
_cell_volume   597.98087168
_cell_formula_units_Z   1
loop_
 _symmetry_equiv_pos_site_id
 _symmetry_equiv_pos_as_xyz
  1  'x, y, z'
loop_
 _atom_site_type_symbol
 _atom_site_label
 _atom_site_symmetry_multiplicity
 _atom_site_fract_x
 _atom_site_fract_y
 _atom_site_fract_z
 _atom_site_occupancy
  Lu  Lu0  1  0.348828  0.347997  0.347997  1
  Lu  Lu1  1  0.348828  0.347997  0.955180  1
  Lu  Lu2  1  0.348828  0.955180  0.347997  1
  Lu  Lu3  1  0.947741  0.350753  0.350753  1
  Lu  Lu4  1  0.810561  0.189806  0.189806  1
  Lu  Lu5  1  0.188827  0.811670  0.811670  1
  Lu  Lu6  1  0.188827  0.811670  0.187832  1
  Lu  Lu7  1  0.810561  0.189806  0.809827  1
  Lu  Lu8  1  0.188827  0.187832  0.811670  1
  Lu  Lu9  1  0.810561  0.809827  0.189806  1
  Lu  Lu10  1  0.934666  0.564039  0.564039  1
  Lu  Lu11  1  0.563508  0.935902  0.935902  1
  Lu  Lu12  1  0.563508  0.935902  0.564688  1
  Lu  Lu13  1  0.934666  0.564039  0.937256  1
  Lu  Lu14  1  0.563508  0.564688  0.935902  1
  Lu  Lu15  1  0.934666  0.937256  0.564039  1
  Mg  Mg16  1  0.271581  0.576139  0.576139  1
  Cd  Cd17  1  0.581712  0.581840  0.581840  1
  Cd  Cd18  1  0.581712  0.581840  0.254606  1
  Cd  Cd19  1  0.581712  0.254606  0.581840  1
  Rh  Rh20  1  0.140314  0.143196  0.143196  1
  Rh  Rh21  1  0.140314  0.143196  0.573294  1
  Rh  Rh22  1  0.140314  0.573294  0.143196  1
  Rh  Rh23  1  0.575434  0.141522  0.141522  1
