# generated using pymatgen
data_Sn16IrPd3
_symmetry_space_group_name_H-M   'P 1'
_cell_length_a   12.71074123
_cell_length_b   12.71074115
_cell_length_c   12.71607805
_cell_angle_alpha   150.69432979
_cell_angle_beta   150.69433152
_cell_angle_gamma   41.86030187
_symmetry_Int_Tables_number   1
_chemical_formula_structural   Sn16IrPd3
_chemical_formula_sum   'Sn16 Ir1 Pd3'
_cell_volume   491.15292850
_cell_formula_units_Z   1
loop_
 _symmetry_equiv_pos_site_id
 _symmetry_equiv_pos_as_xyz
  1  'x, y, z'
loop_
 _atom_site_type_symbol
 _atom_site_label
 _atom_site_symmetry_multiplicity
 _atom_site_fract_x
 _atom_site_fract_y
 _atom_site_fract_z
 _atom_site_occupancy
  Sn  Sn0  1  0.986273  0.486175  0.844322  1
  Sn  Sn1  1  0.358049  0.858147  0.844322  1
  Sn  Sn2  1  0.013825  0.513727  0.155678  1
  Sn  Sn3  1  0.262403  0.606223  0.994698  1
  Sn  Sn4  1  0.105917  0.111631  0.343446  1
  Sn  Sn5  1  0.858422  0.013213  0.499845  1
  Sn  Sn6  1  0.513368  0.358577  0.500155  1
  Sn  Sn7  1  0.141423  0.986632  0.499845  1
  Sn  Sn8  1  0.486787  0.641578  0.500155  1
  Sn  Sn9  1  0.737529  0.731815  0.343446  1
  Sn  Sn10  1  0.388369  0.394083  0.656554  1
  Sn  Sn11  1  0.768185  0.762471  0.656554  1
  Sn  Sn12  1  0.641853  0.141951  0.155678  1
  Sn  Sn13  1  0.893777  0.237597  0.005302  1
  Sn  Sn14  1  0.232294  0.888475  0.994698  1
  Sn  Sn15  1  0.611525  0.267706  0.005302  1
  Ir  Ir16  1  0.000000  0.500000  0.500000  1
  Pd  Pd17  1  0.500000  0.000000  0.500000  1
  Pd  Pd18  1  0.750000  0.750000  0.000000  1
  Pd  Pd19  1  0.250000  0.250000  0.000000  1
