# generated using pymatgen
data_Hf3Al2AuC
_symmetry_space_group_name_H-M   'P 1'
_cell_length_a   8.67038863
_cell_length_b   8.67038775
_cell_length_c   8.67039000
_cell_angle_alpha   59.99999904
_cell_angle_beta   60.00000242
_cell_angle_gamma   60.00000264
_symmetry_Int_Tables_number   1
_chemical_formula_structural   Hf3Al2AuC
_chemical_formula_sum   'Hf12 Al8 Au4 C4'
_cell_volume   460.89365864
_cell_formula_units_Z   4
loop_
 _symmetry_equiv_pos_site_id
 _symmetry_equiv_pos_as_xyz
  1  'x, y, z'
loop_
 _atom_site_type_symbol
 _atom_site_label
 _atom_site_symmetry_multiplicity
 _atom_site_fract_x
 _atom_site_fract_y
 _atom_site_fract_z
 _atom_site_occupancy
  Hf  Hf0  1  0.435637  0.435637  0.064363  1
  Hf  Hf1  1  0.064363  0.435637  0.064363  1
  Hf  Hf2  1  0.435637  0.064363  0.064363  1
  Hf  Hf3  1  0.064363  0.064363  0.435637  1
  Hf  Hf4  1  0.435637  0.064363  0.435637  1
  Hf  Hf5  1  0.064363  0.435637  0.435637  1
  Hf  Hf6  1  0.814363  0.814363  0.185637  1
  Hf  Hf7  1  0.185637  0.814363  0.185637  1
  Hf  Hf8  1  0.814363  0.185637  0.185637  1
  Hf  Hf9  1  0.185637  0.185637  0.814363  1
  Hf  Hf10  1  0.814363  0.185637  0.814363  1
  Hf  Hf11  1  0.185637  0.814363  0.814363  1
  Al  Al12  1  0.833423  0.833423  0.499730  1
  Al  Al13  1  0.833423  0.499730  0.833423  1
  Al  Al14  1  0.499730  0.833423  0.833423  1
  Al  Al15  1  0.833423  0.833423  0.833423  1
  Al  Al16  1  0.416577  0.416577  0.750270  1
  Al  Al17  1  0.416577  0.750270  0.416577  1
  Al  Al18  1  0.750270  0.416577  0.416577  1
  Al  Al19  1  0.416577  0.416577  0.416577  1
  Au  Au20  1  0.625000  0.625000  0.125000  1
  Au  Au21  1  0.625000  0.125000  0.625000  1
  Au  Au22  1  0.125000  0.625000  0.625000  1
  Au  Au23  1  0.625000  0.625000  0.625000  1
  C  C24  1  0.125000  0.125000  0.625000  1
  C  C25  1  0.125000  0.625000  0.125000  1
  C  C26  1  0.625000  0.125000  0.125000  1
  C  C27  1  0.125000  0.125000  0.125000  1
