# generated using pymatgen
data_HfZrNb4(AlC2)2
_symmetry_space_group_name_H-M   'P 1'
_cell_length_a   3.19228600
_cell_length_b   3.19228620
_cell_length_c   19.24840100
_cell_angle_alpha   90.00000000
_cell_angle_beta   90.00000000
_cell_angle_gamma   119.99999796
_symmetry_Int_Tables_number   1
_chemical_formula_structural   HfZrNb4(AlC2)2
_chemical_formula_sum   'Hf1 Zr1 Nb4 Al2 C4'
_cell_volume   169.87478175
_cell_formula_units_Z   1
loop_
 _symmetry_equiv_pos_site_id
 _symmetry_equiv_pos_as_xyz
  1  'x, y, z'
loop_
 _atom_site_type_symbol
 _atom_site_label
 _atom_site_symmetry_multiplicity
 _atom_site_fract_x
 _atom_site_fract_y
 _atom_site_fract_z
 _atom_site_occupancy
  Hf  Hf0  1  0.000000  0.000000  0.000000  1
  Zr  Zr1  1  0.000000  0.000000  0.500000  1
  Nb  Nb2  1  0.666667  0.333333  0.363578  1
  Nb  Nb3  1  0.333333  0.666667  0.865061  1
  Nb  Nb4  1  0.333333  0.666667  0.636422  1
  Nb  Nb5  1  0.666667  0.333333  0.134939  1
  Al  Al6  1  0.000000  0.000000  0.750632  1
  Al  Al7  1  0.000000  0.000000  0.249368  1
  C  C8  1  0.333333  0.666667  0.425069  1
  C  C9  1  0.666667  0.333333  0.927581  1
  C  C10  1  0.333333  0.666667  0.072419  1
  C  C11  1  0.666667  0.333333  0.574931  1
