# generated using pymatgen
data_CeZr3(Ni4As3)2
_symmetry_space_group_name_H-M   'P 1'
_cell_length_a   12.72570200
_cell_length_b   12.72570132
_cell_length_c   3.88142000
_cell_angle_alpha   90.00000000
_cell_angle_beta   90.00000000
_cell_angle_gamma   119.99999658
_symmetry_Int_Tables_number   1
_chemical_formula_structural   CeZr3(Ni4As3)2
_chemical_formula_sum   'Ce2 Zr6 Ni16 As12'
_cell_volume   544.35818926
_cell_formula_units_Z   2
loop_
 _symmetry_equiv_pos_site_id
 _symmetry_equiv_pos_as_xyz
  1  'x, y, z'
loop_
 _atom_site_type_symbol
 _atom_site_label
 _atom_site_symmetry_multiplicity
 _atom_site_fract_x
 _atom_site_fract_y
 _atom_site_fract_z
 _atom_site_occupancy
  Ce  Ce0  1  0.666667  0.333333  0.000000  1
  Ce  Ce1  1  0.333333  0.666667  0.000000  1
  Zr  Zr2  1  0.000000  0.178047  0.500000  1
  Zr  Zr3  1  0.821953  0.821953  0.500000  1
  Zr  Zr4  1  0.178047  0.000000  0.500000  1
  Zr  Zr5  1  0.000000  0.559201  0.000000  1
  Zr  Zr6  1  0.440799  0.440799  0.000000  1
  Zr  Zr7  1  0.559201  0.000000  0.000000  1
  Ni  Ni8  1  0.000000  0.726909  0.500000  1
  Ni  Ni9  1  0.273091  0.273091  0.500000  1
  Ni  Ni10  1  0.726909  0.000000  0.500000  1
  Ni  Ni11  1  0.811268  0.176699  0.000000  1
  Ni  Ni12  1  0.823301  0.634569  0.000000  1
  Ni  Ni13  1  0.365431  0.188732  0.000000  1
  Ni  Ni14  1  0.176699  0.811268  0.000000  1
  Ni  Ni15  1  0.634569  0.823301  0.000000  1
  Ni  Ni16  1  0.188732  0.365431  0.000000  1
  Ni  Ni17  1  0.881774  0.358007  0.500000  1
  Ni  Ni18  1  0.641993  0.523766  0.500000  1
  Ni  Ni19  1  0.476234  0.118226  0.500000  1
  Ni  Ni20  1  0.358007  0.881774  0.500000  1
  Ni  Ni21  1  0.523766  0.641993  0.500000  1
  Ni  Ni22  1  0.118226  0.476234  0.500000  1
  Ni  Ni23  1  0.000000  0.000000  0.000000  1
  As  As24  1  0.000000  0.825158  0.000000  1
  As  As25  1  0.174842  0.174842  0.000000  1
  As  As26  1  0.825158  0.000000  0.000000  1
  As  As27  1  0.691307  0.170526  0.500000  1
  As  As28  1  0.829474  0.520781  0.500000  1
  As  As29  1  0.479219  0.308693  0.500000  1
  As  As30  1  0.170526  0.691307  0.500000  1
  As  As31  1  0.520781  0.829474  0.500000  1
  As  As32  1  0.308693  0.479219  0.500000  1
  As  As33  1  0.000000  0.350034  0.000000  1
  As  As34  1  0.649966  0.649966  0.000000  1
  As  As35  1  0.350034  0.000000  0.000000  1
