# generated using pymatgen
data_Sc8Si16Tc11Os
_symmetry_space_group_name_H-M   'P 1'
_cell_length_a   6.63845072
_cell_length_b   6.64510591
_cell_length_c   12.35012564
_cell_angle_alpha   90.07682278
_cell_angle_beta   89.76447161
_cell_angle_gamma   90.18978395
_symmetry_Int_Tables_number   1
_chemical_formula_structural   Sc8Si16Tc11Os
_chemical_formula_sum   'Sc8 Si16 Tc11 Os1'
_cell_volume   544.79559187
_cell_formula_units_Z   1
loop_
 _symmetry_equiv_pos_site_id
 _symmetry_equiv_pos_as_xyz
  1  'x, y, z'
loop_
 _atom_site_type_symbol
 _atom_site_label
 _atom_site_symmetry_multiplicity
 _atom_site_fract_x
 _atom_site_fract_y
 _atom_site_fract_z
 _atom_site_occupancy
  Sc  Sc0  1  0.002739  0.659098  0.030002  1
  Sc  Sc1  1  0.841813  0.503078  0.280412  1
  Sc  Sc2  1  0.159718  0.496379  0.780515  1
  Sc  Sc3  1  0.505248  0.843138  0.718388  1
  Sc  Sc4  1  0.494617  0.159244  0.219904  1
  Sc  Sc5  1  0.996701  0.344616  0.531885  1
  Sc  Sc6  1  0.657817  0.005296  0.968904  1
  Sc  Sc7  1  0.342462  0.998207  0.470966  1
  Si  Si8  1  0.282284  0.970359  0.065414  1
  Si  Si9  1  0.525486  0.780809  0.314946  1
  Si  Si10  1  0.473342  0.220188  0.813538  1
  Si  Si11  1  0.778735  0.526612  0.687501  1
  Si  Si12  1  0.215409  0.469787  0.184262  1
  Si  Si13  1  0.731840  0.024794  0.561746  1
  Si  Si14  1  0.972588  0.281241  0.935170  1
  Si  Si15  1  0.025889  0.728548  0.436544  1
  Si  Si16  1  0.693232  0.376556  0.067263  1
  Si  Si17  1  0.118851  0.191299  0.317074  1
  Si  Si18  1  0.877365  0.806194  0.818283  1
  Si  Si19  1  0.194118  0.120604  0.682972  1
  Si  Si20  1  0.806091  0.876085  0.182181  1
  Si  Si21  1  0.309274  0.619085  0.565688  1
  Si  Si22  1  0.378397  0.692929  0.934120  1
  Si  Si23  1  0.619354  0.310667  0.433462  1
  Tc  Tc24  1  0.331346  0.331263  0.000271  1
  Tc  Tc25  1  0.167510  0.832477  0.252411  1
  Tc  Tc26  1  0.833191  0.170142  0.749590  1
  Tc  Tc27  1  0.671214  0.672490  0.497846  1
  Tc  Tc28  1  0.977631  0.177525  0.128093  1
  Tc  Tc29  1  0.318205  0.477429  0.377249  1
  Tc  Tc30  1  0.681591  0.520032  0.881621  1
  Tc  Tc31  1  0.483713  0.315640  0.618106  1
  Tc  Tc32  1  0.519204  0.676266  0.123354  1
  Tc  Tc33  1  0.026683  0.811090  0.633553  1
  Tc  Tc34  1  0.180651  0.977449  0.871794  1
  Os  Os35  1  0.805690  0.033384  0.364973  1
