# generated using pymatgen
data_Tm3In3CuHgRh
_symmetry_space_group_name_H-M   'P 1'
_cell_length_a   7.69727200
_cell_length_b   7.69727329
_cell_length_c   3.83844000
_cell_angle_alpha   90.00000000
_cell_angle_beta   90.00000000
_cell_angle_gamma   120.00000307
_symmetry_Int_Tables_number   1
_chemical_formula_structural   Tm3In3CuHgRh
_chemical_formula_sum   'Tm3 In3 Cu1 Hg1 Rh1'
_cell_volume   196.95141911
_cell_formula_units_Z   1
loop_
 _symmetry_equiv_pos_site_id
 _symmetry_equiv_pos_as_xyz
  1  'x, y, z'
loop_
 _atom_site_type_symbol
 _atom_site_label
 _atom_site_symmetry_multiplicity
 _atom_site_fract_x
 _atom_site_fract_y
 _atom_site_fract_z
 _atom_site_occupancy
  Tm  Tm0  1  0.971034  0.393747  0.500000  1
  Tm  Tm1  1  0.606253  0.577288  0.500000  1
  Tm  Tm2  1  0.422712  0.028966  0.500000  1
  In  In3  1  0.251435  0.246928  0.000000  1
  In  In4  1  0.995493  0.748565  0.000000  1
  In  In5  1  0.753072  0.004507  0.000000  1
  Cu  Cu6  1  0.000000  0.000000  0.500000  1
  Hg  Hg7  1  0.333333  0.666667  0.000000  1
  Rh  Rh8  1  0.666667  0.333333  0.000000  1
