# generated using pymatgen
data_Tb2Y2HgIr
_symmetry_space_group_name_H-M   'P 1'
_cell_length_a   9.64289290
_cell_length_b   9.64289252
_cell_length_c   9.65195500
_cell_angle_alpha   59.96890306
_cell_angle_beta   59.96890435
_cell_angle_gamma   60.06218501
_symmetry_Int_Tables_number   1
_chemical_formula_structural   Tb2Y2HgIr
_chemical_formula_sum   'Tb8 Y8 Hg4 Ir4'
_cell_volume   634.62060258
_cell_formula_units_Z   4
loop_
 _symmetry_equiv_pos_site_id
 _symmetry_equiv_pos_as_xyz
  1  'x, y, z'
loop_
 _atom_site_type_symbol
 _atom_site_label
 _atom_site_symmetry_multiplicity
 _atom_site_fract_x
 _atom_site_fract_y
 _atom_site_fract_z
 _atom_site_occupancy
  Tb  Tb0  1  0.350374  0.350374  0.351176  1
  Tb  Tb1  1  0.350374  0.350374  0.948077  1
  Tb  Tb2  1  0.351176  0.948077  0.350374  1
  Tb  Tb3  1  0.948077  0.351176  0.350374  1
  Tb  Tb4  1  0.809490  0.190510  0.190510  1
  Tb  Tb5  1  0.190510  0.809490  0.809490  1
  Tb  Tb6  1  0.190510  0.809490  0.190510  1
  Tb  Tb7  1  0.809490  0.190510  0.809490  1
  Y  Y8  1  0.190923  0.190923  0.809077  1
  Y  Y9  1  0.809077  0.809077  0.190923  1
  Y  Y10  1  0.938448  0.561552  0.561552  1
  Y  Y11  1  0.561552  0.938448  0.938448  1
  Y  Y12  1  0.561552  0.938448  0.561552  1
  Y  Y13  1  0.938448  0.561552  0.938448  1
  Y  Y14  1  0.561136  0.561136  0.938864  1
  Y  Y15  1  0.938864  0.938864  0.561136  1
  Hg  Hg16  1  0.585017  0.585017  0.584701  1
  Hg  Hg17  1  0.585017  0.585017  0.245267  1
  Hg  Hg18  1  0.584701  0.245267  0.585017  1
  Hg  Hg19  1  0.245267  0.584701  0.585017  1
  Ir  Ir20  1  0.141301  0.141301  0.142843  1
  Ir  Ir21  1  0.141301  0.141301  0.574555  1
  Ir  Ir22  1  0.142843  0.574555  0.141301  1
  Ir  Ir23  1  0.574555  0.142843  0.141301  1
