# generated using pymatgen
data_Rb4Th6FeI18
_symmetry_space_group_name_H-M   'P 1'
_cell_length_a   11.95344768
_cell_length_b   12.09579250
_cell_length_c   12.21575265
_cell_angle_alpha   118.54323011
_cell_angle_beta   100.41356504
_cell_angle_gamma   103.66741607
_symmetry_Int_Tables_number   1
_chemical_formula_structural   Rb4Th6FeI18
_chemical_formula_sum   'Rb4 Th6 Fe1 I18'
_cell_volume   1415.59894692
_cell_formula_units_Z   1
loop_
 _symmetry_equiv_pos_site_id
 _symmetry_equiv_pos_as_xyz
  1  'x, y, z'
loop_
 _atom_site_type_symbol
 _atom_site_label
 _atom_site_symmetry_multiplicity
 _atom_site_fract_x
 _atom_site_fract_y
 _atom_site_fract_z
 _atom_site_occupancy
  Rb  Rb0  1  0.647900  0.536017  0.225565  1
  Rb  Rb1  1  0.352100  0.463983  0.774435  1
  Rb  Rb2  1  0.683815  0.226427  0.564380  1
  Rb  Rb3  1  0.316185  0.773573  0.435620  1
  Th  Th4  1  0.153959  0.056796  0.234837  1
  Th  Th5  1  0.846041  0.943204  0.765163  1
  Th  Th6  1  0.860519  0.130601  0.136638  1
  Th  Th7  1  0.139481  0.869399  0.863362  1
  Th  Th8  1  0.147516  0.242629  0.045396  1
  Th  Th9  1  0.852484  0.757371  0.954604  1
  Fe  Fe10  1  0.000000  0.000000  0.000000  1
  I  I11  1  0.010069  0.425275  0.205018  1
  I  I12  1  0.989931  0.574725  0.794982  1
  I  I13  1  0.339662  0.344437  0.322292  1
  I  I14  1  0.660338  0.655563  0.677708  1
  I  I15  1  0.331253  0.527447  0.102420  1
  I  I16  1  0.668747  0.472553  0.897580  1
  I  I17  1  0.005777  0.788493  0.217065  1
  I  I18  1  0.994223  0.211507  0.782935  1
  I  I19  1  0.701066  0.283836  0.295927  1
  I  I20  1  0.298934  0.716164  0.704073  1
  I  I21  1  0.325675  0.129365  0.898274  1
  I  I22  1  0.674325  0.870635  0.101726  1
  I  I23  1  0.017760  0.212340  0.423357  1
  I  I24  1  0.982240  0.787660  0.576643  1
  I  I25  1  0.330770  0.917110  0.112464  1
  I  I26  1  0.669230  0.082890  0.887536  1
  I  I27  1  0.342956  0.122633  0.508900  1
  I  I28  1  0.657044  0.877367  0.491100  1
