# generated using pymatgen
data_Tb5Ho2ErAu4
_symmetry_space_group_name_H-M   'P 1'
_cell_length_a   4.95959100
_cell_length_b   7.14352561
_cell_length_c   8.98432983
_cell_angle_alpha   90.14433157
_cell_angle_beta   90.00000000
_cell_angle_gamma   90.00000000
_symmetry_Int_Tables_number   1
_chemical_formula_structural   Tb5Ho2ErAu4
_chemical_formula_sum   'Tb5 Ho2 Er1 Au4'
_cell_volume   318.30449983
_cell_formula_units_Z   1
loop_
 _symmetry_equiv_pos_site_id
 _symmetry_equiv_pos_as_xyz
  1  'x, y, z'
loop_
 _atom_site_type_symbol
 _atom_site_label
 _atom_site_symmetry_multiplicity
 _atom_site_fract_x
 _atom_site_fract_y
 _atom_site_fract_z
 _atom_site_occupancy
  Tb  Tb0  1  0.250000  0.486439  0.176672  1
  Tb  Tb1  1  0.750000  0.512945  0.823465  1
  Tb  Tb2  1  0.250000  0.987669  0.323151  1
  Tb  Tb3  1  0.750000  0.013522  0.677057  1
  Tb  Tb4  1  0.750000  0.648568  0.419052  1
  Ho  Ho5  1  0.250000  0.351522  0.581096  1
  Ho  Ho6  1  0.250000  0.851700  0.919633  1
  Er  Er7  1  0.750000  0.148402  0.080218  1
  Au  Au8  1  0.250000  0.256136  0.901035  1
  Au  Au9  1  0.750000  0.744223  0.097957  1
  Au  Au10  1  0.250000  0.756774  0.600222  1
  Au  Au11  1  0.750000  0.242100  0.400441  1
