# generated using pymatgen
data_Ho8Al(Pd11Pt)2
_symmetry_space_group_name_H-M   'P 1'
_cell_length_a   8.34081000
_cell_length_b   8.34207000
_cell_length_c   8.34207000
_cell_angle_alpha   90.00000000
_cell_angle_beta   90.00000000
_cell_angle_gamma   90.00000000
_symmetry_Int_Tables_number   1
_chemical_formula_structural   Ho8Al(Pd11Pt)2
_chemical_formula_sum   'Ho8 Al1 Pd22 Pt2'
_cell_volume   580.43806793
_cell_formula_units_Z   1
loop_
 _symmetry_equiv_pos_site_id
 _symmetry_equiv_pos_as_xyz
  1  'x, y, z'
loop_
 _atom_site_type_symbol
 _atom_site_label
 _atom_site_symmetry_multiplicity
 _atom_site_fract_x
 _atom_site_fract_y
 _atom_site_fract_z
 _atom_site_occupancy
  Ho  Ho0  1  0.251545  0.251150  0.251150  1
  Ho  Ho1  1  0.748455  0.748850  0.748850  1
  Ho  Ho2  1  0.748455  0.748850  0.251150  1
  Ho  Ho3  1  0.748455  0.251150  0.748850  1
  Ho  Ho4  1  0.251545  0.251150  0.748850  1
  Ho  Ho5  1  0.251545  0.748850  0.251150  1
  Ho  Ho6  1  0.251545  0.748850  0.748850  1
  Ho  Ho7  1  0.748455  0.251150  0.251150  1
  Al  Al8  1  0.000000  0.000000  0.000000  1
  Pd  Pd9  1  0.259937  0.500000  0.000000  1
  Pd  Pd10  1  0.740063  0.500000  0.000000  1
  Pd  Pd11  1  0.000000  0.259974  0.500000  1
  Pd  Pd12  1  0.500000  0.260118  0.000000  1
  Pd  Pd13  1  0.000000  0.740026  0.500000  1
  Pd  Pd14  1  0.500000  0.739882  0.000000  1
  Pd  Pd15  1  0.500000  0.000000  0.260118  1
  Pd  Pd16  1  0.259937  0.000000  0.500000  1
  Pd  Pd17  1  0.500000  0.000000  0.739882  1
  Pd  Pd18  1  0.740063  0.000000  0.500000  1
  Pd  Pd19  1  0.000000  0.500000  0.259974  1
  Pd  Pd20  1  0.000000  0.500000  0.740026  1
  Pd  Pd21  1  0.252824  0.500000  0.500000  1
  Pd  Pd22  1  0.747176  0.500000  0.500000  1
  Pd  Pd23  1  0.500000  0.252757  0.500000  1
  Pd  Pd24  1  0.500000  0.747243  0.500000  1
  Pd  Pd25  1  0.500000  0.500000  0.252757  1
  Pd  Pd26  1  0.500000  0.500000  0.747243  1
  Pd  Pd27  1  0.000000  0.290021  0.000000  1
  Pd  Pd28  1  0.000000  0.709979  0.000000  1
  Pd  Pd29  1  0.000000  0.000000  0.290021  1
  Pd  Pd30  1  0.000000  0.000000  0.709979  1
  Pt  Pt31  1  0.288992  0.000000  0.000000  1
  Pt  Pt32  1  0.711008  0.000000  0.000000  1
