# generated using pymatgen
data_Ta24SiAs7
_symmetry_space_group_name_H-M   'P 1'
_cell_length_a   10.34477805
_cell_length_b   10.40744781
_cell_length_c   5.16572924
_cell_angle_alpha   90.01665527
_cell_angle_beta   90.03009748
_cell_angle_gamma   89.95776651
_symmetry_Int_Tables_number   1
_chemical_formula_structural   Ta24SiAs7
_chemical_formula_sum   'Ta24 Si1 As7'
_cell_volume   556.15630081
_cell_formula_units_Z   1
loop_
 _symmetry_equiv_pos_site_id
 _symmetry_equiv_pos_as_xyz
  1  'x, y, z'
loop_
 _atom_site_type_symbol
 _atom_site_label
 _atom_site_symmetry_multiplicity
 _atom_site_fract_x
 _atom_site_fract_y
 _atom_site_fract_z
 _atom_site_occupancy
  Ta  Ta0  1  0.507781  0.650118  0.265611  1
  Ta  Ta1  1  0.404194  0.087896  0.017977  1
  Ta  Ta2  1  0.705416  0.804382  0.508688  1
  Ta  Ta3  1  0.904748  0.588117  0.480345  1
  Ta  Ta4  1  0.850865  0.007343  0.764233  1
  Ta  Ta5  1  0.007218  0.149109  0.233411  1
  Ta  Ta6  1  0.788305  0.695808  0.989861  1
  Ta  Ta7  1  0.291071  0.195315  0.508114  1
  Ta  Ta8  1  0.696052  0.207987  0.006465  1
  Ta  Ta9  1  0.415137  0.903864  0.521490  1
  Ta  Ta10  1  0.804195  0.292368  0.491876  1
  Ta  Ta11  1  0.352660  0.509507  0.735982  1
  Ta  Ta12  1  0.647548  0.494537  0.731947  1
  Ta  Ta13  1  0.149299  0.992921  0.767304  1
  Ta  Ta14  1  0.208547  0.305088  0.993484  1
  Ta  Ta15  1  0.912665  0.405812  0.981460  1
  Ta  Ta16  1  0.307364  0.791218  0.005730  1
  Ta  Ta17  1  0.592150  0.910405  0.015225  1
  Ta  Ta18  1  0.088065  0.595226  0.982917  1
  Ta  Ta19  1  0.094309  0.412764  0.482316  1
  Ta  Ta20  1  0.992828  0.850977  0.234084  1
  Ta  Ta21  1  0.198130  0.708373  0.494912  1
  Ta  Ta22  1  0.492765  0.350363  0.267325  1
  Ta  Ta23  1  0.588213  0.095277  0.518470  1
  Si  Si24  1  0.515884  0.704809  0.767832  1
  As  As25  1  0.985025  0.793223  0.732987  1
  As  As26  1  0.207237  0.983507  0.269310  1
  As  As27  1  0.792853  0.013304  0.264833  1
  As  As28  1  0.484742  0.293921  0.768364  1
  As  As29  1  0.294339  0.514798  0.234029  1
  As  As30  1  0.014807  0.206504  0.732500  1
  As  As31  1  0.705588  0.485159  0.230916  1
