# generated using pymatgen
data_TbZrCr3Fe9P7
_symmetry_space_group_name_H-M   'P 1'
_cell_length_a   9.04986700
_cell_length_b   9.04986526
_cell_length_c   3.58051400
_cell_angle_alpha   90.00000000
_cell_angle_beta   90.00000000
_cell_angle_gamma   120.00000271
_symmetry_Int_Tables_number   1
_chemical_formula_structural   TbZrCr3Fe9P7
_chemical_formula_sum   'Tb1 Zr1 Cr3 Fe9 P7'
_cell_volume   253.95706884
_cell_formula_units_Z   1
loop_
 _symmetry_equiv_pos_site_id
 _symmetry_equiv_pos_as_xyz
  1  'x, y, z'
loop_
 _atom_site_type_symbol
 _atom_site_label
 _atom_site_symmetry_multiplicity
 _atom_site_fract_x
 _atom_site_fract_y
 _atom_site_fract_z
 _atom_site_occupancy
  Tb  Tb0  1  0.333333  0.666667  0.500000  1
  Zr  Zr1  1  0.666667  0.333333  0.000000  1
  Cr  Cr2  1  0.101149  0.882707  0.500000  1
  Cr  Cr3  1  0.781559  0.898851  0.500000  1
  Cr  Cr4  1  0.117293  0.218441  0.500000  1
  Fe  Fe5  1  0.052969  0.626604  0.000000  1
  Fe  Fe6  1  0.573634  0.947031  0.000000  1
  Fe  Fe7  1  0.373396  0.426366  0.000000  1
  Fe  Fe8  1  0.276531  0.121159  0.000000  1
  Fe  Fe9  1  0.844628  0.723469  0.000000  1
  Fe  Fe10  1  0.878841  0.155372  0.000000  1
  Fe  Fe11  1  0.438679  0.054852  0.500000  1
  Fe  Fe12  1  0.616173  0.561321  0.500000  1
  Fe  Fe13  1  0.945148  0.383827  0.500000  1
  P  P14  1  0.297859  0.888230  0.000000  1
  P  P15  1  0.590372  0.702141  0.000000  1
  P  P16  1  0.111770  0.409628  0.000000  1
  P  P17  1  0.409186  0.289152  0.500000  1
  P  P18  1  0.879967  0.590814  0.500000  1
  P  P19  1  0.710848  0.120033  0.500000  1
  P  P20  1  0.000000  0.000000  0.000000  1
