# generated using pymatgen
data_HoLu3Sc3AlPt4
_symmetry_space_group_name_H-M   'P 1'
_cell_length_a   4.48257400
_cell_length_b   6.94769044
_cell_length_c   8.24814028
_cell_angle_alpha   87.13617076
_cell_angle_beta   90.00000000
_cell_angle_gamma   90.00000000
_symmetry_Int_Tables_number   1
_chemical_formula_structural   HoLu3Sc3AlPt4
_chemical_formula_sum   'Ho1 Lu3 Sc3 Al1 Pt4'
_cell_volume   256.55544448
_cell_formula_units_Z   1
loop_
 _symmetry_equiv_pos_site_id
 _symmetry_equiv_pos_as_xyz
  1  'x, y, z'
loop_
 _atom_site_type_symbol
 _atom_site_label
 _atom_site_symmetry_multiplicity
 _atom_site_fract_x
 _atom_site_fract_y
 _atom_site_fract_z
 _atom_site_occupancy
  Ho  Ho0  1  0.250000  0.039643  0.671744  1
  Lu  Lu1  1  0.250000  0.519288  0.816245  1
  Lu  Lu2  1  0.750000  0.991379  0.341660  1
  Lu  Lu3  1  0.750000  0.466808  0.182294  1
  Sc  Sc4  1  0.250000  0.133901  0.071196  1
  Sc  Sc5  1  0.250000  0.643583  0.434831  1
  Sc  Sc6  1  0.750000  0.858256  0.930176  1
  Al  Al7  1  0.750000  0.362464  0.567180  1
  Pt  Pt8  1  0.250000  0.263523  0.382174  1
  Pt  Pt9  1  0.250000  0.739954  0.101413  1
  Pt  Pt10  1  0.750000  0.733700  0.615440  1
  Pt  Pt11  1  0.750000  0.247505  0.885647  1
