# generated using pymatgen
data_La5NdZn4Pt13
_symmetry_space_group_name_H-M   'P 1'
_cell_length_a   8.45771178
_cell_length_b   8.45771169
_cell_length_c   8.45771254
_cell_angle_alpha   109.30837658
_cell_angle_beta   109.55270505
_cell_angle_gamma   109.55270719
_symmetry_Int_Tables_number   1
_chemical_formula_structural   La5NdZn4Pt13
_chemical_formula_sum   'La5 Nd1 Zn4 Pt13'
_cell_volume   465.72991453
_cell_formula_units_Z   1
loop_
 _symmetry_equiv_pos_site_id
 _symmetry_equiv_pos_as_xyz
  1  'x, y, z'
loop_
 _atom_site_type_symbol
 _atom_site_label
 _atom_site_symmetry_multiplicity
 _atom_site_fract_x
 _atom_site_fract_y
 _atom_site_fract_z
 _atom_site_occupancy
  La  La0  1  0.698647  0.698343  0.999696  1
  La  La1  1  0.301353  0.999696  0.301049  1
  La  La2  1  0.000000  0.302508  0.302508  1
  La  La3  1  0.301353  0.301049  0.999696  1
  La  La4  1  0.698647  0.999696  0.698343  1
  Nd  Nd5  1  0.000000  0.697285  0.697285  1
  Zn  Zn6  1  0.000000  0.999796  0.500694  1
  Zn  Zn7  1  0.000000  0.500694  0.999796  1
  Zn  Zn8  1  0.499102  0.999796  0.999796  1
  Zn  Zn9  1  0.500898  0.500694  0.500694  1
  Pt  Pt10  1  0.329125  0.328885  0.658008  1
  Pt  Pt11  1  0.670875  0.999760  0.328885  1
  Pt  Pt12  1  0.000000  0.670660  0.329967  1
  Pt  Pt13  1  0.670875  0.328885  0.999760  1
  Pt  Pt14  1  0.329125  0.658008  0.328885  1
  Pt  Pt15  1  0.000000  0.329967  0.670660  1
  Pt  Pt16  1  0.328452  0.671218  0.999670  1
  Pt  Pt17  1  0.328452  0.999670  0.671218  1
  Pt  Pt18  1  0.659306  0.329967  0.329967  1
  Pt  Pt19  1  0.671548  0.671218  0.342767  1
  Pt  Pt20  1  0.671548  0.342767  0.671218  1
  Pt  Pt21  1  0.340694  0.670660  0.670660  1
  Pt  Pt22  1  0.000000  0.998780  0.998780  1
