# generated using pymatgen
data_Ba2HoFeO5
_symmetry_space_group_name_H-M   'P 1'
_cell_length_a   6.13359200
_cell_length_b   7.95239422
_cell_length_c   12.73013197
_cell_angle_alpha   91.37179382
_cell_angle_beta   90.00000000
_cell_angle_gamma   90.00000000
_symmetry_Int_Tables_number   1
_chemical_formula_structural   Ba2HoFeO5
_chemical_formula_sum   'Ba8 Ho4 Fe4 O20'
_cell_volume   620.75639516
_cell_formula_units_Z   4
loop_
 _symmetry_equiv_pos_site_id
 _symmetry_equiv_pos_as_xyz
  1  'x, y, z'
loop_
 _atom_site_type_symbol
 _atom_site_label
 _atom_site_symmetry_multiplicity
 _atom_site_fract_x
 _atom_site_fract_y
 _atom_site_fract_z
 _atom_site_occupancy
  Ba  Ba0  1  0.759522  0.488804  0.354454  1
  Ba  Ba1  1  0.740478  0.988804  0.854454  1
  Ba  Ba2  1  0.240478  0.511196  0.645546  1
  Ba  Ba3  1  0.259522  0.011196  0.145546  1
  Ba  Ba4  1  0.755770  0.995489  0.378321  1
  Ba  Ba5  1  0.744230  0.495489  0.878321  1
  Ba  Ba6  1  0.244230  0.004511  0.621679  1
  Ba  Ba7  1  0.255770  0.504511  0.121679  1
  Ho  Ho8  1  0.749122  0.262331  0.630850  1
  Ho  Ho9  1  0.750878  0.762331  0.130850  1
  Ho  Ho10  1  0.250878  0.737669  0.369150  1
  Ho  Ho11  1  0.249122  0.237669  0.869150  1
  Fe  Fe12  1  0.737462  0.744883  0.585176  1
  Fe  Fe13  1  0.762538  0.244883  0.085176  1
  Fe  Fe14  1  0.262538  0.255117  0.414824  1
  Fe  Fe15  1  0.237462  0.755117  0.914824  1
  O  O16  1  0.762579  0.970497  0.638491  1
  O  O17  1  0.737421  0.470497  0.138491  1
  O  O18  1  0.237421  0.029503  0.361509  1
  O  O19  1  0.262579  0.529503  0.861509  1
  O  O20  1  0.734255  0.055095  0.171701  1
  O  O21  1  0.765745  0.555095  0.671701  1
  O  O22  1  0.265745  0.944905  0.828299  1
  O  O23  1  0.234255  0.444905  0.328299  1
  O  O24  1  0.546134  0.747272  0.273429  1
  O  O25  1  0.953866  0.247272  0.773429  1
  O  O26  1  0.453866  0.252728  0.726571  1
  O  O27  1  0.046134  0.752728  0.226571  1
  O  O28  1  0.543830  0.229441  0.977984  1
  O  O29  1  0.956170  0.729441  0.477984  1
  O  O30  1  0.456170  0.770559  0.022016  1
  O  O31  1  0.043830  0.270559  0.522016  1
  O  O32  1  0.041390  0.235784  0.018577  1
  O  O33  1  0.458610  0.735784  0.518577  1
  O  O34  1  0.958610  0.764216  0.981423  1
  O  O35  1  0.541390  0.264216  0.481423  1
