# generated using pymatgen
data_Ta12Al8MoPd(RhC2)2
_symmetry_space_group_name_H-M   'P 1'
_cell_length_a   8.33756802
_cell_length_b   8.33756905
_cell_length_c   8.33756800
_cell_angle_alpha   59.79100316
_cell_angle_beta   59.79099901
_cell_angle_gamma   59.79100426
_symmetry_Int_Tables_number   1
_chemical_formula_structural   Ta12Al8MoPd(RhC2)2
_chemical_formula_sum   'Ta12 Al8 Mo1 Pd1 Rh2 C4'
_cell_volume   407.88499215
_cell_formula_units_Z   1
loop_
 _symmetry_equiv_pos_site_id
 _symmetry_equiv_pos_as_xyz
  1  'x, y, z'
loop_
 _atom_site_type_symbol
 _atom_site_label
 _atom_site_symmetry_multiplicity
 _atom_site_fract_x
 _atom_site_fract_y
 _atom_site_fract_z
 _atom_site_occupancy
  Ta  Ta0  1  0.564564  0.936201  0.564564  1
  Ta  Ta1  1  0.314910  0.686192  0.682879  1
  Ta  Ta2  1  0.699058  0.308295  0.308984  1
  Ta  Ta3  1  0.309902  0.699257  0.309902  1
  Ta  Ta4  1  0.682879  0.686192  0.314910  1
  Ta  Ta5  1  0.308984  0.308295  0.699058  1
  Ta  Ta6  1  0.567121  0.563808  0.935090  1
  Ta  Ta7  1  0.935090  0.563808  0.567121  1
  Ta  Ta8  1  0.550942  0.941705  0.941016  1
  Ta  Ta9  1  0.941016  0.941705  0.550942  1
  Ta  Ta10  1  0.685436  0.313799  0.685436  1
  Ta  Ta11  1  0.940098  0.550743  0.940098  1
  Al  Al12  1  0.913023  0.916477  0.913023  1
  Al  Al13  1  0.999298  0.335226  0.338161  1
  Al  Al14  1  0.336586  0.001107  0.336586  1
  Al  Al15  1  0.338161  0.335226  0.999298  1
  Al  Al16  1  0.913414  0.248893  0.913414  1
  Al  Al17  1  0.911839  0.914774  0.250702  1
  Al  Al18  1  0.250702  0.914774  0.911839  1
  Al  Al19  1  0.336977  0.333523  0.336977  1
  Mo  Mo20  1  0.125000  0.125000  0.125000  1
  Pd  Pd21  1  0.125000  0.625000  0.125000  1
  Rh  Rh22  1  0.625000  0.125000  0.125000  1
  Rh  Rh23  1  0.125000  0.125000  0.625000  1
  C  C24  1  0.625000  0.625000  0.625000  1
  C  C25  1  0.125000  0.625000  0.625000  1
  C  C26  1  0.625000  0.125000  0.625000  1
  C  C27  1  0.625000  0.625000  0.125000  1
