# generated using pymatgen
data_Ta4Al6CoCu
_symmetry_space_group_name_H-M   'P 1'
_cell_length_a   5.13178700
_cell_length_b   5.13178733
_cell_length_c   7.90250200
_cell_angle_alpha   90.00000000
_cell_angle_beta   90.00000000
_cell_angle_gamma   120.00000433
_symmetry_Int_Tables_number   1
_chemical_formula_structural   Ta4Al6CoCu
_chemical_formula_sum   'Ta4 Al6 Co1 Cu1'
_cell_volume   180.23224797
_cell_formula_units_Z   1
loop_
 _symmetry_equiv_pos_site_id
 _symmetry_equiv_pos_as_xyz
  1  'x, y, z'
loop_
 _atom_site_type_symbol
 _atom_site_label
 _atom_site_symmetry_multiplicity
 _atom_site_fract_x
 _atom_site_fract_y
 _atom_site_fract_z
 _atom_site_occupancy
  Ta  Ta0  1  0.666666  0.333333  0.067352  1
  Ta  Ta1  1  0.666666  0.333333  0.430348  1
  Ta  Ta2  1  0.333334  0.666667  0.569650  1
  Ta  Ta3  1  0.333334  0.666667  0.932648  1
  Al  Al4  1  0.168254  0.336509  0.255567  1
  Al  Al5  1  0.168254  0.831745  0.255567  1
  Al  Al6  1  0.663490  0.831745  0.255567  1
  Al  Al7  1  0.336509  0.168253  0.744433  1
  Al  Al8  1  0.831744  0.168253  0.744433  1
  Al  Al9  1  0.831745  0.663491  0.744433  1
  Co  Co10  1  0.000000  0.000000  0.499999  1
  Cu  Cu11  1  0.000000  0.000000  0.000000  1
