# generated using pymatgen
data_Zr16CoNi3Os4
_symmetry_space_group_name_H-M   'P 1'
_cell_length_a   8.73391839
_cell_length_b   8.72004259
_cell_length_c   8.72190847
_cell_angle_alpha   60.00708205
_cell_angle_beta   60.05886662
_cell_angle_gamma   60.05254742
_symmetry_Int_Tables_number   1
_chemical_formula_structural   Zr16CoNi3Os4
_chemical_formula_sum   'Zr16 Co1 Ni3 Os4'
_cell_volume   470.12430634
_cell_formula_units_Z   1
loop_
 _symmetry_equiv_pos_site_id
 _symmetry_equiv_pos_as_xyz
  1  'x, y, z'
loop_
 _atom_site_type_symbol
 _atom_site_label
 _atom_site_symmetry_multiplicity
 _atom_site_fract_x
 _atom_site_fract_y
 _atom_site_fract_z
 _atom_site_occupancy
  Zr  Zr0  1  0.185449  0.604830  0.604894  1
  Zr  Zr1  1  0.605036  0.191200  0.601834  1
  Zr  Zr2  1  0.605036  0.601932  0.601834  1
  Zr  Zr3  1  0.605560  0.602270  0.189900  1
  Zr  Zr4  1  0.455943  0.454797  0.044538  1
  Zr  Zr5  1  0.044802  0.051601  0.452117  1
  Zr  Zr6  1  0.455943  0.044723  0.044538  1
  Zr  Zr7  1  0.044802  0.451481  0.452117  1
  Zr  Zr8  1  0.044396  0.452311  0.050982  1
  Zr  Zr9  1  0.455011  0.045156  0.454678  1
  Zr  Zr10  1  0.815531  0.814921  0.185420  1
  Zr  Zr11  1  0.184838  0.184935  0.815321  1
  Zr  Zr12  1  0.815531  0.184128  0.185420  1
  Zr  Zr13  1  0.184838  0.814905  0.815321  1
  Zr  Zr14  1  0.184639  0.814743  0.185875  1
  Zr  Zr15  1  0.815692  0.184420  0.815467  1
  Co  Co16  1  0.826256  0.391503  0.390737  1
  Ni  Ni17  1  0.390181  0.827101  0.390675  1
  Ni  Ni18  1  0.390181  0.392043  0.390675  1
  Ni  Ni19  1  0.390004  0.391311  0.827375  1
  Os  Os20  1  0.831776  0.831846  0.504531  1
  Os  Os21  1  0.504148  0.831999  0.831855  1
  Os  Os22  1  0.832204  0.503714  0.831950  1
  Os  Os23  1  0.832204  0.832133  0.831950  1
