# generated using pymatgen
data_Tb4Gd2ReO12
_symmetry_space_group_name_H-M   'P 1'
_cell_length_a   6.53691367
_cell_length_b   6.53282085
_cell_length_c   6.53636389
_cell_angle_alpha   98.74460492
_cell_angle_beta   98.63901253
_cell_angle_gamma   98.68149348
_symmetry_Int_Tables_number   1
_chemical_formula_structural   Tb4Gd2ReO12
_chemical_formula_sum   'Tb4 Gd2 Re1 O12'
_cell_volume   268.40938117
_cell_formula_units_Z   1
loop_
 _symmetry_equiv_pos_site_id
 _symmetry_equiv_pos_as_xyz
  1  'x, y, z'
loop_
 _atom_site_type_symbol
 _atom_site_label
 _atom_site_symmetry_multiplicity
 _atom_site_fract_x
 _atom_site_fract_y
 _atom_site_fract_z
 _atom_site_occupancy
  Tb  Tb0  1  0.855556  0.387410  0.685678  1
  Tb  Tb1  1  0.610764  0.312252  0.144161  1
  Tb  Tb2  1  0.314575  0.143691  0.610748  1
  Tb  Tb3  1  0.687627  0.856728  0.389828  1
  Gd  Gd4  1  0.391190  0.686473  0.856584  1
  Gd  Gd5  1  0.143327  0.609879  0.313281  1
  Re  Re6  1  0.999823  0.000633  0.999583  1
  O  O7  1  0.926306  0.035826  0.705256  1
  O  O8  1  0.961553  0.292794  0.069413  1
  O  O9  1  0.591715  0.176976  0.434267  1
  O  O10  1  0.821988  0.565289  0.410317  1
  O  O11  1  0.293105  0.075373  0.963277  1
  O  O12  1  0.566601  0.405703  0.823013  1
  O  O13  1  0.436327  0.590303  0.178334  1
  O  O14  1  0.706400  0.929458  0.039686  1
  O  O15  1  0.176549  0.432015  0.591551  1
  O  O16  1  0.410521  0.823463  0.565697  1
  O  O17  1  0.032549  0.708761  0.925825  1
  O  O18  1  0.073525  0.966974  0.293500  1
