# generated using pymatgen
data_Li7(Eu2As3)2
_symmetry_space_group_name_H-M   'P 1'
_cell_length_a   8.39336599
_cell_length_b   8.39336646
_cell_length_c   11.81581557
_cell_angle_alpha   55.27880948
_cell_angle_beta   55.27880706
_cell_angle_gamma   30.54997485
_symmetry_Int_Tables_number   1
_chemical_formula_structural   Li7(Eu2As3)2
_chemical_formula_sum   'Li7 Eu4 As6'
_cell_volume   341.47886288
_cell_formula_units_Z   1
loop_
 _symmetry_equiv_pos_site_id
 _symmetry_equiv_pos_as_xyz
  1  'x, y, z'
loop_
 _atom_site_type_symbol
 _atom_site_label
 _atom_site_symmetry_multiplicity
 _atom_site_fract_x
 _atom_site_fract_y
 _atom_site_fract_z
 _atom_site_occupancy
  Li  Li0  1  0.053025  0.053025  0.677507  1
  Li  Li1  1  0.946975  0.946975  0.322493  1
  Li  Li2  1  0.236908  0.236908  0.911088  1
  Li  Li3  1  0.763092  0.763092  0.088912  1
  Li  Li4  1  0.416704  0.416704  0.654635  1
  Li  Li5  1  0.583296  0.583296  0.345365  1
  Li  Li6  1  0.000000  0.000000  0.500000  1
  Eu  Eu7  1  0.260960  0.260960  0.337994  1
  Eu  Eu8  1  0.739040  0.739040  0.662006  1
  Eu  Eu9  1  0.431095  0.431095  0.914165  1
  Eu  Eu10  1  0.568905  0.568905  0.085835  1
  As  As11  1  0.085883  0.085883  0.878661  1
  As  As12  1  0.914117  0.914117  0.121339  1
  As  As13  1  0.154508  0.154508  0.185105  1
  As  As14  1  0.845492  0.845492  0.814895  1
  As  As15  1  0.385128  0.385128  0.463068  1
  As  As16  1  0.614872  0.614872  0.536932  1
