# generated using pymatgen
data_Zr3Ti(PdPt)6
_symmetry_space_group_name_H-M   'P 1'
_cell_length_a   5.68487600
_cell_length_b   5.68487734
_cell_length_c   9.29448200
_cell_angle_alpha   90.00000000
_cell_angle_beta   90.00000000
_cell_angle_gamma   120.00000386
_symmetry_Int_Tables_number   1
_chemical_formula_structural   Zr3Ti(PdPt)6
_chemical_formula_sum   'Zr3 Ti1 Pd6 Pt6'
_cell_volume   260.13446781
_cell_formula_units_Z   1
loop_
 _symmetry_equiv_pos_site_id
 _symmetry_equiv_pos_as_xyz
  1  'x, y, z'
loop_
 _atom_site_type_symbol
 _atom_site_label
 _atom_site_symmetry_multiplicity
 _atom_site_fract_x
 _atom_site_fract_y
 _atom_site_fract_z
 _atom_site_occupancy
  Zr  Zr0  1  0.000000  0.000000  0.500000  1
  Zr  Zr1  1  0.333333  0.666667  0.249200  1
  Zr  Zr2  1  0.666667  0.333333  0.750800  1
  Ti  Ti3  1  0.000000  0.000000  0.000000  1
  Pd  Pd4  1  0.500000  0.500000  0.500000  1
  Pd  Pd5  1  0.500000  0.000000  0.500000  1
  Pd  Pd6  1  0.000000  0.500000  0.500000  1
  Pd  Pd7  1  0.500000  0.500000  0.000000  1
  Pd  Pd8  1  0.500000  0.000000  0.000000  1
  Pd  Pd9  1  0.000000  0.500000  0.000000  1
  Pt  Pt10  1  0.831897  0.663796  0.246541  1
  Pt  Pt11  1  0.336204  0.168103  0.246541  1
  Pt  Pt12  1  0.831897  0.168103  0.246541  1
  Pt  Pt13  1  0.168103  0.336204  0.753459  1
  Pt  Pt14  1  0.663796  0.831897  0.753459  1
  Pt  Pt15  1  0.168103  0.831897  0.753459  1
