# generated using pymatgen
data_MgAl11Ir12
_symmetry_space_group_name_H-M   'P 1'
_cell_length_a   4.29604400
_cell_length_b   6.04455100
_cell_length_c   12.86986200
_cell_angle_alpha   90.00076779
_cell_angle_beta   89.99983996
_cell_angle_gamma   90.00172516
_symmetry_Int_Tables_number   1
_chemical_formula_structural   MgAl11Ir12
_chemical_formula_sum   'Mg1 Al11 Ir12'
_cell_volume   334.20016278
_cell_formula_units_Z   1
loop_
 _symmetry_equiv_pos_site_id
 _symmetry_equiv_pos_as_xyz
  1  'x, y, z'
loop_
 _atom_site_type_symbol
 _atom_site_label
 _atom_site_symmetry_multiplicity
 _atom_site_fract_x
 _atom_site_fract_y
 _atom_site_fract_z
 _atom_site_occupancy
  Mg  Mg0  1  0.499885  0.999906  0.833328  1
  Al  Al1  1  0.999978  0.500062  0.999683  1
  Al  Al2  1  0.500022  0.999947  0.166702  1
  Al  Al3  1  0.000023  0.500083  0.333337  1
  Al  Al4  1  0.500070  0.999947  0.499965  1
  Al  Al5  1  0.000030  0.500055  0.666981  1
  Al  Al6  1  0.999961  0.999935  0.997126  1
  Al  Al7  1  0.500019  0.500074  0.167246  1
  Al  Al8  1  0.000027  0.999955  0.333335  1
  Al  Al9  1  0.500073  0.500074  0.499421  1
  Al  Al10  1  0.000008  0.999931  0.669540  1
  Al  Al11  1  0.499923  0.500024  0.833324  1
  Ir  Ir12  1  0.499983  0.252949  0.004208  1
  Ir  Ir13  1  0.499984  0.747042  0.004223  1
  Ir  Ir14  1  0.000004  0.249451  0.167501  1
  Ir  Ir15  1  0.000004  0.750576  0.167492  1
  Ir  Ir16  1  0.500036  0.249904  0.333337  1
  Ir  Ir17  1  0.500035  0.750128  0.333337  1
  Ir  Ir18  1  0.000055  0.249444  0.499160  1
  Ir  Ir19  1  0.000053  0.750577  0.499169  1
  Ir  Ir20  1  0.500035  0.252916  0.662474  1
  Ir  Ir21  1  0.500037  0.747066  0.662458  1
  Ir  Ir22  1  0.999882  0.257269  0.833327  1
  Ir  Ir23  1  0.999882  0.742682  0.833327  1
