# generated using pymatgen
data_Tb6Dy2In2NiRh
_symmetry_space_group_name_H-M   'P 1'
_cell_length_a   9.66547161
_cell_length_b   9.66146371
_cell_length_c   9.66532702
_cell_angle_alpha   60.00671073
_cell_angle_beta   60.16011843
_cell_angle_gamma   60.00593356
_symmetry_Int_Tables_number   1
_chemical_formula_structural   Tb6Dy2In2NiRh
_chemical_formula_sum   'Tb12 Dy4 In4 Ni2 Rh2'
_cell_volume   639.04568866
_cell_formula_units_Z   2
loop_
 _symmetry_equiv_pos_site_id
 _symmetry_equiv_pos_as_xyz
  1  'x, y, z'
loop_
 _atom_site_type_symbol
 _atom_site_label
 _atom_site_symmetry_multiplicity
 _atom_site_fract_x
 _atom_site_fract_y
 _atom_site_fract_z
 _atom_site_occupancy
  Tb  Tb0  1  0.061858  0.062256  0.436698  1
  Tb  Tb1  1  0.436676  0.439146  0.061925  1
  Tb  Tb2  1  0.652287  0.649878  0.652145  1
  Tb  Tb3  1  0.809925  0.190855  0.188025  1
  Tb  Tb4  1  0.187935  0.811193  0.809978  1
  Tb  Tb5  1  0.047434  0.650034  0.652468  1
  Tb  Tb6  1  0.436708  0.062245  0.061854  1
  Tb  Tb7  1  0.437988  0.062046  0.437986  1
  Tb  Tb8  1  0.062082  0.437913  0.062079  1
  Tb  Tb9  1  0.652474  0.650140  0.047437  1
  Tb  Tb10  1  0.189989  0.809992  0.189997  1
  Tb  Tb11  1  0.061924  0.439154  0.436682  1
  Dy  Dy12  1  0.809898  0.811113  0.188079  1
  Dy  Dy13  1  0.810676  0.189258  0.810677  1
  Dy  Dy14  1  0.188164  0.190883  0.809844  1
  Dy  Dy15  1  0.652176  0.045619  0.652298  1
  In  In16  1  0.417665  0.417715  0.417736  1
  In  In17  1  0.417981  0.417583  0.746708  1
  In  In18  1  0.417705  0.746871  0.417642  1
  In  In19  1  0.746709  0.417627  0.417979  1
  Ni  Ni20  1  0.858317  0.426778  0.858190  1
  Ni  Ni21  1  0.858104  0.856791  0.858234  1
  Rh  Rh22  1  0.858428  0.857365  0.426900  1
  Rh  Rh23  1  0.426898  0.857545  0.858440  1
