# generated using pymatgen
data_Lu2Nb3B4SbRu10
_symmetry_space_group_name_H-M   'P 1'
_cell_length_a   9.51899264
_cell_length_b   9.56010173
_cell_length_c   3.09404300
_cell_angle_alpha   90.00000000
_cell_angle_beta   90.00000000
_cell_angle_gamma   90.59704388
_symmetry_Int_Tables_number   1
_chemical_formula_structural   Lu2Nb3B4SbRu10
_chemical_formula_sum   'Lu2 Nb3 B4 Sb1 Ru10'
_cell_volume   281.55047901
_cell_formula_units_Z   1
loop_
 _symmetry_equiv_pos_site_id
 _symmetry_equiv_pos_as_xyz
  1  'x, y, z'
loop_
 _atom_site_type_symbol
 _atom_site_label
 _atom_site_symmetry_multiplicity
 _atom_site_fract_x
 _atom_site_fract_y
 _atom_site_fract_z
 _atom_site_occupancy
  Lu  Lu0  1  0.822291  0.673911  0.000000  1
  Lu  Lu1  1  0.177709  0.326089  0.000000  1
  Nb  Nb2  1  0.321142  0.827570  0.000000  1
  Nb  Nb3  1  0.678858  0.172430  0.000000  1
  Nb  Nb4  1  0.000000  0.000000  0.000000  1
  B  B5  1  0.620285  0.878939  0.000000  1
  B  B6  1  0.379715  0.121061  0.000000  1
  B  B7  1  0.119649  0.621831  0.000000  1
  B  B8  1  0.880351  0.378169  0.000000  1
  Sb  Sb9  1  0.500000  0.500000  0.000000  1
  Ru  Ru10  1  0.558868  0.725164  0.500000  1
  Ru  Ru11  1  0.441132  0.274836  0.500000  1
  Ru  Ru12  1  0.076410  0.785034  0.500000  1
  Ru  Ru13  1  0.923590  0.214966  0.500000  1
  Ru  Ru14  1  0.283119  0.585786  0.500000  1
  Ru  Ru15  1  0.716881  0.414214  0.500000  1
  Ru  Ru16  1  0.222329  0.062655  0.500000  1
  Ru  Ru17  1  0.777671  0.937345  0.500000  1
  Ru  Ru18  1  0.500000  0.000000  0.500000  1
  Ru  Ru19  1  0.000000  0.500000  0.500000  1
