# generated using pymatgen
data_LiTa3PdPt8Rh3
_symmetry_space_group_name_H-M   'P 1'
_cell_length_a   5.59652005
_cell_length_b   5.59517912
_cell_length_c   9.05767300
_cell_angle_alpha   90.00000000
_cell_angle_beta   90.00000000
_cell_angle_gamma   119.99208120
_symmetry_Int_Tables_number   1
_chemical_formula_structural   LiTa3PdPt8Rh3
_chemical_formula_sum   'Li1 Ta3 Pd1 Pt8 Rh3'
_cell_volume   245.64842098
_cell_formula_units_Z   1
loop_
 _symmetry_equiv_pos_site_id
 _symmetry_equiv_pos_as_xyz
  1  'x, y, z'
loop_
 _atom_site_type_symbol
 _atom_site_label
 _atom_site_symmetry_multiplicity
 _atom_site_fract_x
 _atom_site_fract_y
 _atom_site_fract_z
 _atom_site_occupancy
  Li  Li0  1  0.333809  0.666905  0.000000  1
  Ta  Ta1  1  0.666037  0.333018  0.500000  1
  Ta  Ta2  1  0.998336  0.999168  0.746370  1
  Ta  Ta3  1  0.998336  0.999168  0.253630  1
  Pd  Pd4  1  0.335977  0.167988  0.000000  1
  Pt  Pt5  1  0.832083  0.168618  0.000000  1
  Pt  Pt6  1  0.832083  0.663464  0.000000  1
  Pt  Pt7  1  0.999064  0.499532  0.747836  1
  Pt  Pt8  1  0.500291  0.499010  0.747515  1
  Pt  Pt9  1  0.500291  0.001282  0.747515  1
  Pt  Pt10  1  0.999064  0.499532  0.252164  1
  Pt  Pt11  1  0.500291  0.499010  0.252485  1
  Pt  Pt12  1  0.500291  0.001282  0.252485  1
  Rh  Rh13  1  0.169584  0.831236  0.500000  1
  Rh  Rh14  1  0.169584  0.338348  0.500000  1
  Rh  Rh15  1  0.664879  0.832439  0.500000  1
