# generated using pymatgen
data_Fe3Sb2Br3ClO4
_symmetry_space_group_name_H-M   'P 1'
_cell_length_a   6.43156906
_cell_length_b   7.25641332
_cell_length_c   14.82666502
_cell_angle_alpha   89.62766862
_cell_angle_beta   90.01078907
_cell_angle_gamma   63.67817232
_symmetry_Int_Tables_number   1
_chemical_formula_structural   Fe3Sb2Br3ClO4
_chemical_formula_sum   'Fe6 Sb4 Br6 Cl2 O8'
_cell_volume   620.20122209
_cell_formula_units_Z   2
loop_
 _symmetry_equiv_pos_site_id
 _symmetry_equiv_pos_as_xyz
  1  'x, y, z'
loop_
 _atom_site_type_symbol
 _atom_site_label
 _atom_site_symmetry_multiplicity
 _atom_site_fract_x
 _atom_site_fract_y
 _atom_site_fract_z
 _atom_site_occupancy
  Fe  Fe0  1  0.747020  0.009225  0.751557  1
  Fe  Fe1  1  0.756919  0.990837  0.248407  1
  Fe  Fe2  1  0.999764  0.999989  0.999986  1
  Fe  Fe3  1  0.500271  0.999950  0.499885  1
  Fe  Fe4  1  0.252778  0.990178  0.248501  1
  Fe  Fe5  1  0.243284  0.009566  0.751565  1
  Sb  Sb6  1  0.608665  0.784072  0.056749  1
  Sb  Sb7  1  0.391618  0.215978  0.943279  1
  Sb  Sb8  1  0.891972  0.214808  0.556510  1
  Sb  Sb9  1  0.107744  0.785180  0.443534  1
  Br  Br10  1  0.378465  0.242850  0.337435  1
  Br  Br11  1  0.621305  0.757165  0.662579  1
  Br  Br12  1  0.160119  0.678377  0.115532  1
  Br  Br13  1  0.840685  0.321687  0.884463  1
  Br  Br14  1  0.340558  0.320352  0.615363  1
  Br  Br15  1  0.658622  0.679691  0.384574  1
  Cl  Cl16  1  0.108713  0.782694  0.839365  1
  Cl  Cl17  1  0.891504  0.217353  0.160665  1
  O  O18  1  0.306262  0.999774  0.000017  1
  O  O19  1  0.806151  0.999808  0.499955  1
  O  O20  1  0.693990  0.000245  0.999977  1
  O  O21  1  0.193614  0.000185  0.500048  1
  O  O22  1  0.539163  0.922003  0.175020  1
  O  O23  1  0.461025  0.078084  0.824998  1
  O  O24  1  0.961175  0.077364  0.675915  1
  O  O25  1  0.038617  0.922586  0.324121  1
