# generated using pymatgen
data_HoEr5Tm10(CdIr)4
_symmetry_space_group_name_H-M   'P 1'
_cell_length_a   9.52558647
_cell_length_b   9.52603779
_cell_length_c   9.52603901
_cell_angle_alpha   59.99794652
_cell_angle_beta   60.00157146
_cell_angle_gamma   60.00156876
_symmetry_Int_Tables_number   1
_chemical_formula_structural   HoEr5Tm10(CdIr)4
_chemical_formula_sum   'Ho1 Er5 Tm10 Cd4 Ir4'
_cell_volume   611.23040153
_cell_formula_units_Z   1
loop_
 _symmetry_equiv_pos_site_id
 _symmetry_equiv_pos_as_xyz
  1  'x, y, z'
loop_
 _atom_site_type_symbol
 _atom_site_label
 _atom_site_symmetry_multiplicity
 _atom_site_fract_x
 _atom_site_fract_y
 _atom_site_fract_z
 _atom_site_occupancy
  Ho  Ho0  1  0.187538  0.812462  0.812462  1
  Er  Er1  1  0.812424  0.187576  0.187576  1
  Er  Er2  1  0.812294  0.187720  0.812367  1
  Er  Er3  1  0.187618  0.812367  0.187720  1
  Er  Er4  1  0.812294  0.812367  0.187720  1
  Er  Er5  1  0.187618  0.187720  0.812367  1
  Tm  Tm6  1  0.599280  0.599151  0.599151  1
  Tm  Tm7  1  0.599217  0.599149  0.202418  1
  Tm  Tm8  1  0.599217  0.202418  0.599149  1
  Tm  Tm9  1  0.202418  0.599151  0.599151  1
  Tm  Tm10  1  0.060967  0.439033  0.439033  1
  Tm  Tm11  1  0.439031  0.060969  0.060969  1
  Tm  Tm12  1  0.439097  0.061002  0.438976  1
  Tm  Tm13  1  0.060925  0.438976  0.061002  1
  Tm  Tm14  1  0.439097  0.438976  0.061002  1
  Tm  Tm15  1  0.060925  0.061002  0.438976  1
  Cd  Cd16  1  0.830875  0.830987  0.830987  1
  Cd  Cd17  1  0.830979  0.830984  0.507055  1
  Cd  Cd18  1  0.830979  0.507055  0.830984  1
  Cd  Cd19  1  0.507149  0.830987  0.830987  1
  Ir  Ir20  1  0.391864  0.391847  0.391847  1
  Ir  Ir21  1  0.391874  0.391785  0.824466  1
  Ir  Ir22  1  0.391874  0.824466  0.391785  1
  Ir  Ir23  1  0.824441  0.391847  0.391847  1
