# generated using pymatgen
data_Li2Zn3(BRh2)4
_symmetry_space_group_name_H-M   'P 1'
_cell_length_a   9.46868466
_cell_length_b   9.46868575
_cell_length_c   2.88991700
_cell_angle_alpha   90.00000000
_cell_angle_beta   90.00000000
_cell_angle_gamma   126.82200746
_symmetry_Int_Tables_number   1
_chemical_formula_structural   Li2Zn3(BRh2)4
_chemical_formula_sum   'Li2 Zn3 B4 Rh8'
_cell_volume   207.40858439
_cell_formula_units_Z   1
loop_
 _symmetry_equiv_pos_site_id
 _symmetry_equiv_pos_as_xyz
  1  'x, y, z'
loop_
 _atom_site_type_symbol
 _atom_site_label
 _atom_site_symmetry_multiplicity
 _atom_site_fract_x
 _atom_site_fract_y
 _atom_site_fract_z
 _atom_site_occupancy
  Li  Li0  1  0.203776  0.796224  0.500000  1
  Li  Li1  1  0.796224  0.203776  0.500000  1
  Zn  Zn2  1  0.354630  0.354630  0.500000  1
  Zn  Zn3  1  0.000000  0.000000  0.500000  1
  Zn  Zn4  1  0.645370  0.645370  0.500000  1
  B  B5  1  0.461413  0.146655  0.500000  1
  B  B6  1  0.146655  0.461413  0.500000  1
  B  B7  1  0.538587  0.853345  0.500000  1
  B  B8  1  0.853345  0.538587  0.500000  1
  Rh  Rh9  1  0.630904  0.369096  0.000000  1
  Rh  Rh10  1  0.369096  0.630904  0.000000  1
  Rh  Rh11  1  0.916448  0.732677  0.000000  1
  Rh  Rh12  1  0.083552  0.267323  0.000000  1
  Rh  Rh13  1  0.500000  0.000000  0.000000  1
  Rh  Rh14  1  0.267323  0.083552  0.000000  1
  Rh  Rh15  1  0.732677  0.916448  0.000000  1
  Rh  Rh16  1  0.000000  0.500000  0.000000  1
