# generated using pymatgen
data_Y8Tc3B24Rh
_symmetry_space_group_name_H-M   'P 1'
_cell_length_a   3.68832900
_cell_length_b   9.16846130
_cell_length_c   11.55473700
_cell_angle_alpha   90.12253402
_cell_angle_beta   90.00000000
_cell_angle_gamma   90.00000000
_symmetry_Int_Tables_number   1
_chemical_formula_structural   Y8Tc3B24Rh
_chemical_formula_sum   'Y8 Tc3 B24 Rh1'
_cell_volume   390.73757875
_cell_formula_units_Z   1
loop_
 _symmetry_equiv_pos_site_id
 _symmetry_equiv_pos_as_xyz
  1  'x, y, z'
loop_
 _atom_site_type_symbol
 _atom_site_label
 _atom_site_symmetry_multiplicity
 _atom_site_fract_x
 _atom_site_fract_y
 _atom_site_fract_z
 _atom_site_occupancy
  Y  Y0  1  0.500000  0.318951  0.415770  1
  Y  Y1  1  0.500000  0.677739  0.590978  1
  Y  Y2  1  0.500000  0.176770  0.912825  1
  Y  Y3  1  0.500000  0.827393  0.081319  1
  Y  Y4  1  0.500000  0.440782  0.129020  1
  Y  Y5  1  0.500000  0.556924  0.871059  1
  Y  Y6  1  0.500000  0.056037  0.629576  1
  Y  Y7  1  0.500000  0.943953  0.369742  1
  Tc  Tc8  1  0.500000  0.138610  0.180169  1
  Tc  Tc9  1  0.500000  0.861385  0.820830  1
  Tc  Tc10  1  0.500000  0.362393  0.677728  1
  B  B11  1  0.000000  0.102563  0.471038  1
  B  B12  1  0.000000  0.894511  0.528421  1
  B  B13  1  0.000000  0.396282  0.971723  1
  B  B14  1  0.000000  0.604625  0.029532  1
  B  B15  1  0.000000  0.131295  0.314657  1
  B  B16  1  0.000000  0.868027  0.685851  1
  B  B17  1  0.000000  0.368841  0.813855  1
  B  B18  1  0.000000  0.632161  0.184292  1
  B  B19  1  0.000000  0.053856  0.066745  1
  B  B20  1  0.000000  0.946930  0.932399  1
  B  B21  1  0.000000  0.446181  0.566840  1
  B  B22  1  0.000000  0.554231  0.433570  1
  B  B23  1  0.000000  0.483697  0.288132  1
  B  B24  1  0.000000  0.517354  0.712143  1
  B  B25  1  0.000000  0.016825  0.787356  1
  B  B26  1  0.000000  0.983593  0.211682  1
  B  B27  1  0.000000  0.248749  0.081348  1
  B  B28  1  0.000000  0.752093  0.918763  1
  B  B29  1  0.000000  0.250817  0.581108  1
  B  B30  1  0.000000  0.748718  0.420182  1
  B  B31  1  0.000000  0.291417  0.235294  1
  B  B32  1  0.000000  0.708532  0.765807  1
  B  B33  1  0.000000  0.208757  0.734237  1
  B  B34  1  0.000000  0.790918  0.264842  1
  Rh  Rh35  1  0.500000  0.638095  0.321168  1
