# generated using pymatgen
data_Nb10(GaAs)3
_symmetry_space_group_name_H-M   'P 1'
_cell_length_a   5.19604246
_cell_length_b   7.66408193
_cell_length_c   7.73328900
_cell_angle_alpha   96.54252356
_cell_angle_beta   109.63049919
_cell_angle_gamma   70.17449652
_symmetry_Int_Tables_number   1
_chemical_formula_structural   Nb10(GaAs)3
_chemical_formula_sum   'Nb10 Ga3 As3'
_cell_volume   272.87077064
_cell_formula_units_Z   1
loop_
 _symmetry_equiv_pos_site_id
 _symmetry_equiv_pos_as_xyz
  1  'x, y, z'
loop_
 _atom_site_type_symbol
 _atom_site_label
 _atom_site_symmetry_multiplicity
 _atom_site_fract_x
 _atom_site_fract_y
 _atom_site_fract_z
 _atom_site_occupancy
  Nb  Nb0  1  0.423035  0.854194  0.701701  1
  Nb  Nb1  1  0.577483  0.144215  0.300849  1
  Nb  Nb2  1  0.924966  0.301265  0.148393  1
  Nb  Nb3  1  0.073229  0.702393  0.848146  1
  Nb  Nb4  1  0.723427  0.698735  0.148393  1
  Nb  Nb5  1  0.274918  0.297607  0.848146  1
  Nb  Nb6  1  0.778666  0.145806  0.701701  1
  Nb  Nb7  1  0.223366  0.855785  0.300849  1
  Nb  Nb8  1  0.250492  0.500195  0.501038  1
  Nb  Nb9  1  0.750547  0.499805  0.501038  1
  Ga  Ga10  1  0.250614  0.000000  0.001229  1
  Ga  Ga11  1  0.750861  0.000000  0.001723  1
  Ga  Ga12  1  0.334640  0.500000  0.169282  1
  As  As13  1  0.665330  0.500000  0.830658  1
  As  As14  1  0.834143  0.831008  0.498429  1
  As  As15  1  0.164285  0.168992  0.498429  1
