# generated using pymatgen
data_Zr8Ti2CuGeSb6
_symmetry_space_group_name_H-M   'P 1'
_cell_length_a   8.59295000
_cell_length_b   8.59295137
_cell_length_c   5.78149200
_cell_angle_alpha   90.00000000
_cell_angle_beta   90.00000000
_cell_angle_gamma   120.00000242
_symmetry_Int_Tables_number   1
_chemical_formula_structural   Zr8Ti2CuGeSb6
_chemical_formula_sum   'Zr8 Ti2 Cu1 Ge1 Sb6'
_cell_volume   369.70488495
_cell_formula_units_Z   1
loop_
 _symmetry_equiv_pos_site_id
 _symmetry_equiv_pos_as_xyz
  1  'x, y, z'
loop_
 _atom_site_type_symbol
 _atom_site_label
 _atom_site_symmetry_multiplicity
 _atom_site_fract_x
 _atom_site_fract_y
 _atom_site_fract_z
 _atom_site_occupancy
  Zr  Zr0  1  0.666667  0.333333  0.500000  1
  Zr  Zr1  1  0.333333  0.666667  0.500000  1
  Zr  Zr2  1  0.734075  0.734075  0.251030  1
  Zr  Zr3  1  0.265925  0.000000  0.251030  1
  Zr  Zr4  1  0.000000  0.265925  0.251030  1
  Zr  Zr5  1  0.265925  0.265925  0.748970  1
  Zr  Zr6  1  0.734075  0.000000  0.748970  1
  Zr  Zr7  1  0.000000  0.734075  0.748970  1
  Ti  Ti8  1  0.333333  0.666667  0.000000  1
  Ti  Ti9  1  0.666667  0.333333  0.000000  1
  Cu  Cu10  1  0.000000  0.000000  0.000000  1
  Ge  Ge11  1  0.000000  0.000000  0.500000  1
  Sb  Sb12  1  0.390416  0.390416  0.240801  1
  Sb  Sb13  1  0.609584  0.000000  0.240801  1
  Sb  Sb14  1  0.000000  0.609584  0.240801  1
  Sb  Sb15  1  0.609584  0.609584  0.759199  1
  Sb  Sb16  1  0.390416  0.000000  0.759199  1
  Sb  Sb17  1  0.000000  0.390416  0.759199  1
