# generated using pymatgen
data_Nd4InSn5Rh7
_symmetry_space_group_name_H-M   'P 1'
_cell_length_a   7.74085093
_cell_length_b   7.74085233
_cell_length_c   7.74085100
_cell_angle_alpha   109.47681743
_cell_angle_beta   109.47682110
_cell_angle_gamma   109.46002069
_symmetry_Int_Tables_number   1
_chemical_formula_structural   Nd4InSn5Rh7
_chemical_formula_sum   'Nd4 In1 Sn5 Rh7'
_cell_volume   357.06255594
_cell_formula_units_Z   1
loop_
 _symmetry_equiv_pos_site_id
 _symmetry_equiv_pos_as_xyz
  1  'x, y, z'
loop_
 _atom_site_type_symbol
 _atom_site_label
 _atom_site_symmetry_multiplicity
 _atom_site_fract_x
 _atom_site_fract_y
 _atom_site_fract_z
 _atom_site_occupancy
  Nd  Nd0  1  0.506791  0.001303  0.000000  1
  Nd  Nd1  1  0.001303  0.506791  0.000000  1
  Nd  Nd2  1  0.001303  0.001303  0.494512  1
  Nd  Nd3  1  0.506791  0.506791  0.505488  1
  In  In4  1  0.310696  0.310696  0.000000  1
  Sn  Sn5  1  0.004429  0.325255  0.320826  1
  Sn  Sn6  1  0.683603  0.004429  0.679174  1
  Sn  Sn7  1  0.670603  0.670603  0.000000  1
  Sn  Sn8  1  0.004429  0.683603  0.679174  1
  Sn  Sn9  1  0.325255  0.004429  0.320826  1
  Rh  Rh10  1  0.988016  0.988016  0.000000  1
  Rh  Rh11  1  0.497404  0.747777  0.250374  1
  Rh  Rh12  1  0.747777  0.497404  0.250374  1
  Rh  Rh13  1  0.253585  0.753585  0.500000  1
  Rh  Rh14  1  0.247030  0.497404  0.749626  1
  Rh  Rh15  1  0.497404  0.247030  0.749626  1
  Rh  Rh16  1  0.753585  0.253585  0.500000  1
