# generated using pymatgen
data_Rb4Na2TbLuAs4
_symmetry_space_group_name_H-M   'P 1'
_cell_length_a   9.43251560
_cell_length_b   9.43251484
_cell_length_c   9.43251427
_cell_angle_alpha   135.18335382
_cell_angle_beta   135.33489928
_cell_angle_gamma   65.12791753
_symmetry_Int_Tables_number   1
_chemical_formula_structural   Rb4Na2TbLuAs4
_chemical_formula_sum   'Rb4 Na2 Tb1 Lu1 As4'
_cell_volume   409.81077799
_cell_formula_units_Z   1
loop_
 _symmetry_equiv_pos_site_id
 _symmetry_equiv_pos_as_xyz
  1  'x, y, z'
loop_
 _atom_site_type_symbol
 _atom_site_label
 _atom_site_symmetry_multiplicity
 _atom_site_fract_x
 _atom_site_fract_y
 _atom_site_fract_z
 _atom_site_occupancy
  Rb  Rb0  1  0.681888  0.392897  0.712813  1
  Rb  Rb1  1  0.818112  0.030925  0.211010  1
  Rb  Rb2  1  0.180085  0.969075  0.787187  1
  Rb  Rb3  1  0.319915  0.607103  0.288990  1
  Na  Na4  1  0.750000  0.000000  0.750000  1
  Na  Na5  1  0.250000  0.000000  0.250000  1
  Tb  Tb6  1  0.250000  0.500000  0.750000  1
  Lu  Lu7  1  0.750000  0.500000  0.250000  1
  As  As8  1  0.410857  0.184311  0.783548  1
  As  As9  1  0.599237  0.815689  0.226545  1
  As  As10  1  0.089143  0.372693  0.273455  1
  As  As11  1  0.900763  0.627307  0.716452  1
