# generated using pymatgen
data_Yb2Pr2OsRu7
_symmetry_space_group_name_H-M   'P 1'
_cell_length_a   5.25082888
_cell_length_b   5.38707692
_cell_length_c   9.07946214
_cell_angle_alpha   89.99999930
_cell_angle_beta   89.83926707
_cell_angle_gamma   120.86214497
_symmetry_Int_Tables_number   1
_chemical_formula_structural   Yb2Pr2OsRu7
_chemical_formula_sum   'Yb2 Pr2 Os1 Ru7'
_cell_volume   220.46039635
_cell_formula_units_Z   1
loop_
 _symmetry_equiv_pos_site_id
 _symmetry_equiv_pos_as_xyz
  1  'x, y, z'
loop_
 _atom_site_type_symbol
 _atom_site_label
 _atom_site_symmetry_multiplicity
 _atom_site_fract_x
 _atom_site_fract_y
 _atom_site_fract_z
 _atom_site_occupancy
  Yb  Yb0  1  0.323566  0.661784  0.440126  1
  Yb  Yb1  1  0.655313  0.327657  0.559984  1
  Pr  Pr2  1  0.661895  0.330947  0.928297  1
  Pr  Pr3  1  0.326241  0.663122  0.072086  1
  Os  Os4  1  0.686000  0.842999  0.742132  1
  Ru  Ru5  1  0.971334  0.985667  0.500529  1
  Ru  Ru6  1  0.977661  0.988831  0.999355  1
  Ru  Ru7  1  0.835774  0.163498  0.256467  1
  Ru  Ru8  1  0.835774  0.672276  0.256467  1
  Ru  Ru9  1  0.362297  0.181149  0.254522  1
  Ru  Ru10  1  0.182072  0.827888  0.745017  1
  Ru  Ru11  1  0.182072  0.354184  0.745017  1
