# generated using pymatgen
data_LaNdY2(Ni7P4)2
_symmetry_space_group_name_H-M   'P 1'
_cell_length_a   3.74402600
_cell_length_b   9.21005645
_cell_length_c   10.37867680
_cell_angle_alpha   89.75214020
_cell_angle_beta   90.00000000
_cell_angle_gamma   90.00000000
_symmetry_Int_Tables_number   1
_chemical_formula_structural   LaNdY2(Ni7P4)2
_chemical_formula_sum   'La1 Nd1 Y2 Ni14 P8'
_cell_volume   357.88135451
_cell_formula_units_Z   1
loop_
 _symmetry_equiv_pos_site_id
 _symmetry_equiv_pos_as_xyz
  1  'x, y, z'
loop_
 _atom_site_type_symbol
 _atom_site_label
 _atom_site_symmetry_multiplicity
 _atom_site_fract_x
 _atom_site_fract_y
 _atom_site_fract_z
 _atom_site_occupancy
  La  La0  1  0.500000  0.438185  0.499762  1
  Nd  Nd1  1  0.000000  0.564582  0.999392  1
  Y  Y2  1  0.500000  0.058997  0.282182  1
  Y  Y3  1  0.000000  0.941365  0.782998  1
  Ni  Ni4  1  0.500000  0.302357  0.075776  1
  Ni  Ni5  1  0.500000  0.751185  0.403714  1
  Ni  Ni6  1  0.500000  0.415288  0.806170  1
  Ni  Ni7  1  0.500000  0.057749  0.977337  1
  Ni  Ni8  1  0.500000  0.686279  0.766237  1
  Ni  Ni9  1  0.000000  0.269574  0.670806  1
  Ni  Ni10  1  0.000000  0.250627  0.903836  1
  Ni  Ni11  1  0.000000  0.699274  0.580159  1
  Ni  Ni12  1  0.500000  0.092592  0.585975  1
  Ni  Ni13  1  0.000000  0.313452  0.262579  1
  Ni  Ni14  1  0.000000  0.584995  0.299804  1
  Ni  Ni15  1  0.000000  0.905611  0.085418  1
  Ni  Ni16  1  0.000000  0.941014  0.477111  1
  Ni  Ni17  1  0.500000  0.729092  0.169914  1
  P  P18  1  0.000000  0.820475  0.287491  1
  P  P19  1  0.000000  0.184281  0.465120  1
  P  P20  1  0.500000  0.179970  0.787875  1
  P  P21  1  0.000000  0.154750  0.093201  1
  P  P22  1  0.500000  0.478491  0.213759  1
  P  P23  1  0.500000  0.814118  0.965152  1
  P  P24  1  0.500000  0.844027  0.594279  1
  P  P25  1  0.000000  0.521673  0.719353  1
