# generated using pymatgen
data_Tb6Ho2Ti5Si16Mo7
_symmetry_space_group_name_H-M   'P 1'
_cell_length_a   6.95359003
_cell_length_b   6.94467921
_cell_length_c   12.86237220
_cell_angle_alpha   89.88111161
_cell_angle_beta   90.00790305
_cell_angle_gamma   90.07688839
_symmetry_Int_Tables_number   1
_chemical_formula_structural   Tb6Ho2Ti5Si16Mo7
_chemical_formula_sum   'Tb6 Ho2 Ti5 Si16 Mo7'
_cell_volume   621.12786657
_cell_formula_units_Z   1
loop_
 _symmetry_equiv_pos_site_id
 _symmetry_equiv_pos_as_xyz
  1  'x, y, z'
loop_
 _atom_site_type_symbol
 _atom_site_label
 _atom_site_symmetry_multiplicity
 _atom_site_fract_x
 _atom_site_fract_y
 _atom_site_fract_z
 _atom_site_occupancy
  Tb  Tb0  1  0.340903  0.003967  0.467133  1
  Tb  Tb1  1  0.496716  0.840534  0.718623  1
  Tb  Tb2  1  0.502857  0.159865  0.218444  1
  Tb  Tb3  1  0.840232  0.496068  0.280991  1
  Tb  Tb4  1  0.159389  0.502704  0.782915  1
  Tb  Tb5  1  0.659539  0.996648  0.968362  1
  Ho  Ho6  1  0.002448  0.340779  0.531914  1
  Ho  Ho7  1  0.996653  0.660223  0.031233  1
  Ti  Ti8  1  0.329150  0.329721  0.999469  1
  Ti  Ti9  1  0.169944  0.828605  0.249999  1
  Ti  Ti10  1  0.827680  0.172365  0.750402  1
  Ti  Ti11  1  0.670303  0.668033  0.499306  1
  Ti  Ti12  1  0.993527  0.841201  0.625596  1
  Si  Si13  1  0.201523  0.129670  0.684060  1
  Si  Si14  1  0.371092  0.700894  0.934846  1
  Si  Si15  1  0.630602  0.300133  0.434849  1
  Si  Si16  1  0.699715  0.371973  0.065529  1
  Si  Si17  1  0.300481  0.627845  0.564662  1
  Si  Si18  1  0.800090  0.871096  0.183915  1
  Si  Si19  1  0.126844  0.200639  0.316068  1
  Si  Si20  1  0.872840  0.799677  0.815762  1
  Si  Si21  1  0.287290  0.957900  0.062762  1
  Si  Si22  1  0.541773  0.787383  0.312666  1
  Si  Si23  1  0.457694  0.212238  0.812626  1
  Si  Si24  1  0.788620  0.542691  0.687240  1
  Si  Si25  1  0.211544  0.458441  0.186613  1
  Si  Si26  1  0.712389  0.043754  0.563273  1
  Si  Si27  1  0.957945  0.289216  0.937726  1
  Si  Si28  1  0.043667  0.710752  0.437324  1
  Mo  Mo29  1  0.159376  0.009333  0.875510  1
  Mo  Mo30  1  0.491990  0.658596  0.124317  1
  Mo  Mo31  1  0.507693  0.341285  0.623574  1
  Mo  Mo32  1  0.657988  0.491680  0.877588  1
  Mo  Mo33  1  0.342033  0.504886  0.374706  1
  Mo  Mo34  1  0.840391  0.990464  0.373677  1
  Mo  Mo35  1  0.007082  0.158742  0.126318  1
