# generated using pymatgen
data_Ac3Pd2Pt
_symmetry_space_group_name_H-M   'P 1'
_cell_length_a   4.68980400
_cell_length_b   6.13709191
_cell_length_c   11.90318002
_cell_angle_alpha   83.37401503
_cell_angle_beta   90.00000000
_cell_angle_gamma   90.00000000
_symmetry_Int_Tables_number   1
_chemical_formula_structural   Ac3Pd2Pt
_chemical_formula_sum   'Ac6 Pd4 Pt2'
_cell_volume   340.30610183
_cell_formula_units_Z   2
loop_
 _symmetry_equiv_pos_site_id
 _symmetry_equiv_pos_as_xyz
  1  'x, y, z'
loop_
 _atom_site_type_symbol
 _atom_site_label
 _atom_site_symmetry_multiplicity
 _atom_site_fract_x
 _atom_site_fract_y
 _atom_site_fract_z
 _atom_site_occupancy
  Ac  Ac0  1  0.250000  0.401282  0.785199  1
  Ac  Ac1  1  0.750000  0.598718  0.214801  1
  Ac  Ac2  1  0.250000  0.113696  0.122559  1
  Ac  Ac3  1  0.750000  0.886304  0.877441  1
  Ac  Ac4  1  0.250000  0.252749  0.457581  1
  Ac  Ac5  1  0.750000  0.747251  0.542419  1
  Pd  Pd6  1  0.250000  0.639539  0.028506  1
  Pd  Pd7  1  0.750000  0.360461  0.971494  1
  Pd  Pd8  1  0.250000  0.914042  0.698208  1
  Pd  Pd9  1  0.750000  0.085958  0.301792  1
  Pt  Pt10  1  0.250000  0.759624  0.363797  1
  Pt  Pt11  1  0.750000  0.240376  0.636203  1
