# generated using pymatgen
data_Ho2Co9P7Ru3
_symmetry_space_group_name_H-M   'P 1'
_cell_length_a   9.03866300
_cell_length_b   9.03866308
_cell_length_c   3.67971900
_cell_angle_alpha   90.00000000
_cell_angle_beta   90.00000000
_cell_angle_gamma   120.00000435
_symmetry_Int_Tables_number   1
_chemical_formula_structural   Ho2Co9P7Ru3
_chemical_formula_sum   'Ho2 Co9 P7 Ru3'
_cell_volume   260.34764909
_cell_formula_units_Z   1
loop_
 _symmetry_equiv_pos_site_id
 _symmetry_equiv_pos_as_xyz
  1  'x, y, z'
loop_
 _atom_site_type_symbol
 _atom_site_label
 _atom_site_symmetry_multiplicity
 _atom_site_fract_x
 _atom_site_fract_y
 _atom_site_fract_z
 _atom_site_occupancy
  Ho  Ho0  1  0.666667  0.333333  0.000000  1
  Ho  Ho1  1  0.333333  0.666667  0.500000  1
  Co  Co2  1  0.061851  0.434627  0.000000  1
  Co  Co3  1  0.565373  0.627224  0.000000  1
  Co  Co4  1  0.372776  0.938149  0.000000  1
  Co  Co5  1  0.282338  0.159454  0.000000  1
  Co  Co6  1  0.840546  0.122884  0.000000  1
  Co  Co7  1  0.877116  0.717662  0.000000  1
  Co  Co8  1  0.440016  0.384537  0.500000  1
  Co  Co9  1  0.615463  0.055479  0.500000  1
  Co  Co10  1  0.944521  0.559984  0.500000  1
  P  P11  1  0.299476  0.410827  0.000000  1
  P  P12  1  0.589173  0.888649  0.000000  1
  P  P13  1  0.111351  0.700524  0.000000  1
  P  P14  1  0.407284  0.116304  0.500000  1
  P  P15  1  0.883696  0.290980  0.500000  1
  P  P16  1  0.709020  0.592716  0.500000  1
  P  P17  1  0.000000  0.000000  0.000000  1
  Ru  Ru18  1  0.100725  0.225754  0.500000  1
  Ru  Ru19  1  0.774246  0.874971  0.500000  1
  Ru  Ru20  1  0.125029  0.899275  0.500000  1
