# generated using pymatgen
data_Sr9Ca(InSb3)4
_symmetry_space_group_name_H-M   'P 1'
_cell_length_a   4.73274900
_cell_length_b   12.73070624
_cell_length_c   14.86978427
_cell_angle_alpha   90.02192520
_cell_angle_beta   90.00000000
_cell_angle_gamma   90.00000000
_symmetry_Int_Tables_number   1
_chemical_formula_structural   Sr9Ca(InSb3)4
_chemical_formula_sum   'Sr9 Ca1 In4 Sb12'
_cell_volume   895.92283361
_cell_formula_units_Z   1
loop_
 _symmetry_equiv_pos_site_id
 _symmetry_equiv_pos_as_xyz
  1  'x, y, z'
loop_
 _atom_site_type_symbol
 _atom_site_label
 _atom_site_symmetry_multiplicity
 _atom_site_fract_x
 _atom_site_fract_y
 _atom_site_fract_z
 _atom_site_occupancy
  Sr  Sr0  1  0.500000  0.087320  0.747593  1
  Sr  Sr1  1  0.500000  0.172472  0.017836  1
  Sr  Sr2  1  0.500000  0.410369  0.250360  1
  Sr  Sr3  1  0.500000  0.827528  0.982164  1
  Sr  Sr4  1  0.500000  0.324747  0.517895  1
  Sr  Sr5  1  0.500000  0.589631  0.749640  1
  Sr  Sr6  1  0.500000  0.912680  0.252407  1
  Sr  Sr7  1  0.500000  0.500000  0.000000  1
  Sr  Sr8  1  0.500000  0.675253  0.482105  1
  Ca  Ca9  1  0.500000  0.000000  0.500000  1
  In  In10  1  0.000000  0.327607  0.711656  1
  In  In11  1  0.000000  0.168234  0.216404  1
  In  In12  1  0.000000  0.672393  0.288344  1
  In  In13  1  0.000000  0.831766  0.783596  1
  Sb  Sb14  1  0.000000  0.653650  0.904760  1
  Sb  Sb15  1  0.500000  0.664062  0.176120  1
  Sb  Sb16  1  0.000000  0.026215  0.904455  1
  Sb  Sb17  1  0.000000  0.474711  0.404967  1
  Sb  Sb18  1  0.500000  0.335938  0.823880  1
  Sb  Sb19  1  0.500000  0.161141  0.329411  1
  Sb  Sb20  1  0.000000  0.346350  0.095240  1
  Sb  Sb21  1  0.000000  0.146838  0.590467  1
  Sb  Sb22  1  0.000000  0.973785  0.095545  1
  Sb  Sb23  1  0.500000  0.838859  0.670589  1
  Sb  Sb24  1  0.000000  0.525289  0.595033  1
  Sb  Sb25  1  0.000000  0.853162  0.409533  1
