# generated using pymatgen
data_Yb3Pr8Y9Sn16
_symmetry_space_group_name_H-M   'P 1'
_cell_length_a   8.03128896
_cell_length_b   8.39532921
_cell_length_c   15.84525800
_cell_angle_alpha   90.00000000
_cell_angle_beta   90.00000000
_cell_angle_gamma   90.13342998
_symmetry_Int_Tables_number   1
_chemical_formula_structural   Yb3Pr8Y9Sn16
_chemical_formula_sum   'Yb3 Pr8 Y9 Sn16'
_cell_volume   1068.36861120
_cell_formula_units_Z   1
loop_
 _symmetry_equiv_pos_site_id
 _symmetry_equiv_pos_as_xyz
  1  'x, y, z'
loop_
 _atom_site_type_symbol
 _atom_site_label
 _atom_site_symmetry_multiplicity
 _atom_site_fract_x
 _atom_site_fract_y
 _atom_site_fract_z
 _atom_site_occupancy
  Yb  Yb0  1  0.333707  0.997358  0.750000  1
  Yb  Yb1  1  0.165925  0.495812  0.250000  1
  Yb  Yb2  1  0.665548  0.002464  0.250000  1
  Pr  Pr3  1  0.504432  0.680818  0.597517  1
  Pr  Pr4  1  0.006887  0.822072  0.903778  1
  Pr  Pr5  1  0.493234  0.318847  0.096003  1
  Pr  Pr6  1  0.992873  0.180742  0.404075  1
  Pr  Pr7  1  0.493234  0.318847  0.403997  1
  Pr  Pr8  1  0.992873  0.180742  0.095925  1
  Pr  Pr9  1  0.504432  0.680818  0.902483  1
  Pr  Pr10  1  0.006887  0.822072  0.596222  1
  Y  Y11  1  0.666126  0.168958  0.624768  1
  Y  Y12  1  0.169429  0.330989  0.875380  1
  Y  Y13  1  0.333505  0.828558  0.123818  1
  Y  Y14  1  0.833010  0.669051  0.376641  1
  Y  Y15  1  0.333505  0.828558  0.376182  1
  Y  Y16  1  0.833010  0.669051  0.123359  1
  Y  Y17  1  0.666126  0.168958  0.875232  1
  Y  Y18  1  0.169429  0.330989  0.624620  1
  Y  Y19  1  0.835715  0.502801  0.750000  1
  Sn  Sn20  1  0.674088  0.959542  0.461790  1
  Sn  Sn21  1  0.174893  0.537784  0.038672  1
  Sn  Sn22  1  0.325602  0.039701  0.961430  1
  Sn  Sn23  1  0.826027  0.462872  0.541913  1
  Sn  Sn24  1  0.325602  0.039701  0.538570  1
  Sn  Sn25  1  0.826027  0.462872  0.958087  1
  Sn  Sn26  1  0.674088  0.959542  0.038210  1
  Sn  Sn27  1  0.174893  0.537784  0.461328  1
  Sn  Sn28  1  0.472069  0.383609  0.750000  1
  Sn  Sn29  1  0.968370  0.125190  0.750000  1
  Sn  Sn30  1  0.532316  0.618287  0.250000  1
  Sn  Sn31  1  0.032128  0.879707  0.250000  1
  Sn  Sn32  1  0.709286  0.859569  0.750000  1
  Sn  Sn33  1  0.201253  0.637169  0.750000  1
  Sn  Sn34  1  0.291130  0.134266  0.250000  1
  Sn  Sn35  1  0.792341  0.363902  0.250000  1
