# generated using pymatgen
data_CeHo15(InRu)4
_symmetry_space_group_name_H-M   'P 1'
_cell_length_a   9.65964745
_cell_length_b   9.65964835
_cell_length_c   9.65964832
_cell_angle_alpha   59.47549422
_cell_angle_beta   59.47549542
_cell_angle_gamma   59.47549248
_symmetry_Int_Tables_number   1
_chemical_formula_structural   CeHo15(InRu)4
_chemical_formula_sum   'Ce1 Ho15 In4 Ru4'
_cell_volume   629.73296513
_cell_formula_units_Z   1
loop_
 _symmetry_equiv_pos_site_id
 _symmetry_equiv_pos_as_xyz
  1  'x, y, z'
loop_
 _atom_site_type_symbol
 _atom_site_label
 _atom_site_symmetry_multiplicity
 _atom_site_fract_x
 _atom_site_fract_y
 _atom_site_fract_z
 _atom_site_occupancy
  Ce  Ce0  1  0.341832  0.341832  0.341832  1
  Ho  Ho1  1  0.560205  0.560205  0.938183  1
  Ho  Ho2  1  0.941884  0.558138  0.941884  1
  Ho  Ho3  1  0.558138  0.941884  0.941884  1
  Ho  Ho4  1  0.941884  0.941884  0.558138  1
  Ho  Ho5  1  0.560205  0.938183  0.560205  1
  Ho  Ho6  1  0.938183  0.560205  0.560205  1
  Ho  Ho7  1  0.191819  0.191819  0.809648  1
  Ho  Ho8  1  0.808223  0.190032  0.808223  1
  Ho  Ho9  1  0.190031  0.808224  0.808223  1
  Ho  Ho10  1  0.808223  0.808224  0.190032  1
  Ho  Ho11  1  0.191818  0.809648  0.191818  1
  Ho  Ho12  1  0.809648  0.191819  0.191819  1
  Ho  Ho13  1  0.349224  0.349224  0.953968  1
  Ho  Ho14  1  0.349224  0.953968  0.349224  1
  Ho  Ho15  1  0.953968  0.349224  0.349224  1
  In  In16  1  0.581921  0.581921  0.252123  1
  In  In17  1  0.581921  0.252123  0.581921  1
  In  In18  1  0.252123  0.581921  0.581921  1
  In  In19  1  0.581912  0.581912  0.581912  1
  Ru  Ru20  1  0.145594  0.145594  0.577588  1
  Ru  Ru21  1  0.145594  0.577588  0.145594  1
  Ru  Ru22  1  0.577588  0.145594  0.145594  1
  Ru  Ru23  1  0.138835  0.138835  0.138835  1
