# generated using pymatgen
data_Zr2Be9Re
_symmetry_space_group_name_H-M   'P 1'
_cell_length_a   7.60805181
_cell_length_b   7.60805177
_cell_length_c   7.60805133
_cell_angle_alpha   35.16420632
_cell_angle_beta   35.16420768
_cell_angle_gamma   35.16419921
_symmetry_Int_Tables_number   1
_chemical_formula_structural   Zr2Be9Re
_chemical_formula_sum   'Zr2 Be9 Re1'
_cell_volume   130.45560904
_cell_formula_units_Z   1
loop_
 _symmetry_equiv_pos_site_id
 _symmetry_equiv_pos_as_xyz
  1  'x, y, z'
loop_
 _atom_site_type_symbol
 _atom_site_label
 _atom_site_symmetry_multiplicity
 _atom_site_fract_x
 _atom_site_fract_y
 _atom_site_fract_z
 _atom_site_occupancy
  Zr  Zr0  1  0.142512  0.142512  0.142512  1
  Zr  Zr1  1  0.995519  0.995519  0.995519  1
  Be  Be2  1  0.416715  0.916981  0.416715  1
  Be  Be3  1  0.416715  0.416715  0.916981  1
  Be  Be4  1  0.916981  0.416715  0.416715  1
  Be  Be5  1  0.587508  0.073131  0.587508  1
  Be  Be6  1  0.587508  0.587508  0.073131  1
  Be  Be7  1  0.073131  0.587508  0.587508  1
  Be  Be8  1  0.667470  0.667470  0.667470  1
  Be  Be9  1  0.336621  0.336621  0.336621  1
  Be  Be10  1  0.500851  0.500851  0.500851  1
  Re  Re11  1  0.858470  0.858470  0.858470  1
