# generated using pymatgen
data_Tb7Ho2Tm3In20
_symmetry_space_group_name_H-M   'P 1'
_cell_length_a   6.52517313
_cell_length_b   10.41982093
_cell_length_c   12.28199200
_cell_angle_alpha   89.98049601
_cell_angle_beta   90.03376191
_cell_angle_gamma   90.01436318
_symmetry_Int_Tables_number   1
_chemical_formula_structural   Tb7Ho2Tm3In20
_chemical_formula_sum   'Tb7 Ho2 Tm3 In20'
_cell_volume   835.06636377
_cell_formula_units_Z   1
loop_
 _symmetry_equiv_pos_site_id
 _symmetry_equiv_pos_as_xyz
  1  'x, y, z'
loop_
 _atom_site_type_symbol
 _atom_site_label
 _atom_site_symmetry_multiplicity
 _atom_site_fract_x
 _atom_site_fract_y
 _atom_site_fract_z
 _atom_site_occupancy
  Tb  Tb0  1  0.890327  0.492637  0.141936  1
  Tb  Tb1  1  0.609236  0.006838  0.642310  1
  Tb  Tb2  1  0.109712  0.992504  0.858178  1
  Tb  Tb3  1  0.390188  0.507173  0.358299  1
  Tb  Tb4  1  0.109610  0.507511  0.858051  1
  Tb  Tb5  1  0.390241  0.992788  0.358225  1
  Tb  Tb6  1  0.890319  0.007289  0.141902  1
  Ho  Ho7  1  0.850226  0.250125  0.443763  1
  Ho  Ho8  1  0.609170  0.493142  0.642287  1
  Tm  Tm9  1  0.349313  0.749916  0.055908  1
  Tm  Tm10  1  0.150984  0.750129  0.556044  1
  Tm  Tm11  1  0.650687  0.250014  0.944122  1
  In  In12  1  0.614718  0.749489  0.505426  1
  In  In13  1  0.885392  0.749985  0.004803  1
  In  In14  1  0.384010  0.250130  0.495407  1
  In  In15  1  0.114670  0.249975  0.994788  1
  In  In16  1  0.650346  0.749997  0.244632  1
  In  In17  1  0.849301  0.749820  0.744572  1
  In  In18  1  0.349641  0.250106  0.755560  1
  In  In19  1  0.151881  0.249961  0.254441  1
  In  In20  1  0.124420  0.750050  0.283330  1
  In  In21  1  0.375977  0.750042  0.783612  1
  In  In22  1  0.875591  0.250373  0.716813  1
  In  In23  1  0.623982  0.249976  0.215494  1
  In  In24  1  0.874926  0.544226  0.401577  1
  In  In25  1  0.624764  0.956512  0.901551  1
  In  In26  1  0.124761  0.043292  0.598797  1
  In  In27  1  0.375185  0.456548  0.098323  1
  In  In28  1  0.125451  0.456931  0.598825  1
  In  In29  1  0.375300  0.043418  0.098363  1
  In  In30  1  0.874994  0.955701  0.401478  1
  In  In31  1  0.624676  0.543400  0.901182  1
