# generated using pymatgen
data_Ho8Er12Si15Rh
_symmetry_space_group_name_H-M   'P 1'
_cell_length_a   7.37730852
_cell_length_b   7.61889798
_cell_length_c   14.46163426
_cell_angle_alpha   90.32046568
_cell_angle_beta   90.35257409
_cell_angle_gamma   90.23195726
_symmetry_Int_Tables_number   1
_chemical_formula_structural   Ho8Er12Si15Rh
_chemical_formula_sum   'Ho8 Er12 Si15 Rh1'
_cell_volume   812.80963343
_cell_formula_units_Z   1
loop_
 _symmetry_equiv_pos_site_id
 _symmetry_equiv_pos_as_xyz
  1  'x, y, z'
loop_
 _atom_site_type_symbol
 _atom_site_label
 _atom_site_symmetry_multiplicity
 _atom_site_fract_x
 _atom_site_fract_y
 _atom_site_fract_z
 _atom_site_occupancy
  Ho  Ho0  1  0.025044  0.818607  0.599533  1
  Ho  Ho1  1  0.525315  0.683600  0.597635  1
  Ho  Ho2  1  0.321372  0.818966  0.121813  1
  Ho  Ho3  1  0.816779  0.680112  0.122519  1
  Ho  Ho4  1  0.851674  0.506212  0.749221  1
  Ho  Ho5  1  0.471421  0.316087  0.099467  1
  Ho  Ho6  1  0.028150  0.818325  0.901722  1
  Ho  Ho7  1  0.472160  0.316147  0.401771  1
  Er  Er8  1  0.652922  0.012110  0.257838  1
  Er  Er9  1  0.529492  0.682593  0.900394  1
  Er  Er10  1  0.681060  0.179872  0.877523  1
  Er  Er11  1  0.178025  0.320945  0.623867  1
  Er  Er12  1  0.184453  0.322660  0.875644  1
  Er  Er13  1  0.816440  0.688467  0.382306  1
  Er  Er14  1  0.323397  0.825177  0.377982  1
  Er  Er15  1  0.352249  0.990600  0.747554  1
  Er  Er16  1  0.683257  0.164882  0.618102  1
  Er  Er17  1  0.147167  0.490263  0.252157  1
  Er  Er18  1  0.971287  0.181280  0.098314  1
  Er  Er19  1  0.971599  0.177007  0.401381  1
  Si  Si20  1  0.233734  0.629008  0.750833  1
  Si  Si21  1  0.343058  0.028518  0.541029  1
  Si  Si22  1  0.027104  0.893238  0.246901  1
  Si  Si23  1  0.733639  0.869943  0.752178  1
  Si  Si24  1  0.265386  0.128299  0.246362  1
  Si  Si25  1  0.851373  0.471455  0.541666  1
  Si  Si26  1  0.480981  0.391619  0.748761  1
  Si  Si27  1  0.147949  0.531365  0.461453  1
  Si  Si28  1  0.147147  0.527554  0.039823  1
  Si  Si29  1  0.977733  0.104251  0.751781  1
  Si  Si30  1  0.768592  0.375659  0.248996  1
  Si  Si31  1  0.351313  0.030151  0.959675  1
  Si  Si32  1  0.856007  0.470851  0.959237  1
  Si  Si33  1  0.646928  0.971148  0.038947  1
  Si  Si34  1  0.521989  0.603441  0.248758  1
  Rh  Rh35  1  0.643809  0.979587  0.456856  1
