# generated using pymatgen
data_Tm4Lu8TlFe3Rh
_symmetry_space_group_name_H-M   'P 1'
_cell_length_a   8.08410556
_cell_length_b   8.08410570
_cell_length_c   8.08410518
_cell_angle_alpha   111.04405071
_cell_angle_beta   106.64957485
_cell_angle_gamma   110.75649667
_symmetry_Int_Tables_number   1
_chemical_formula_structural   Tm4Lu8TlFe3Rh
_chemical_formula_sum   'Tm4 Lu8 Tl1 Fe3 Rh1'
_cell_volume   405.96196928
_cell_formula_units_Z   1
loop_
 _symmetry_equiv_pos_site_id
 _symmetry_equiv_pos_as_xyz
  1  'x, y, z'
loop_
 _atom_site_type_symbol
 _atom_site_label
 _atom_site_symmetry_multiplicity
 _atom_site_fract_x
 _atom_site_fract_y
 _atom_site_fract_z
 _atom_site_occupancy
  Tm  Tm0  1  0.308452  0.309298  0.617750  1
  Tm  Tm1  1  0.691548  0.690702  0.382250  1
  Tm  Tm2  1  0.691548  0.309298  0.000846  1
  Tm  Tm3  1  0.308452  0.690702  0.999154  1
  Lu  Lu4  1  0.187578  0.459437  0.271859  1
  Lu  Lu5  1  0.812422  0.540563  0.728141  1
  Lu  Lu6  1  0.187578  0.915719  0.728141  1
  Lu  Lu7  1  0.970065  0.188175  0.781891  1
  Lu  Lu8  1  0.812422  0.084281  0.271859  1
  Lu  Lu9  1  0.029935  0.811825  0.218109  1
  Lu  Lu10  1  0.406284  0.188175  0.218109  1
  Lu  Lu11  1  0.593716  0.811825  0.781891  1
  Tl  Tl12  1  0.500000  0.000000  0.500000  1
  Fe  Fe13  1  0.380889  0.380889  0.000000  1
  Fe  Fe14  1  0.619111  0.619111  0.000000  1
  Fe  Fe15  1  0.000000  0.000000  0.000000  1
  Rh  Rh16  1  0.000000  0.500000  0.500000  1
