# generated using pymatgen
data_Dy10AlSnSb4
_symmetry_space_group_name_H-M   'P 1'
_cell_length_a   6.41030000
_cell_length_b   8.95430476
_cell_length_c   8.92643578
_cell_angle_alpha   120.10333621
_cell_angle_beta   90.00000951
_cell_angle_gamma   89.99999360
_symmetry_Int_Tables_number   1
_chemical_formula_structural   Dy10AlSnSb4
_chemical_formula_sum   'Dy10 Al1 Sn1 Sb4'
_cell_volume   443.26738382
_cell_formula_units_Z   1
loop_
 _symmetry_equiv_pos_site_id
 _symmetry_equiv_pos_as_xyz
  1  'x, y, z'
loop_
 _atom_site_type_symbol
 _atom_site_label
 _atom_site_symmetry_multiplicity
 _atom_site_fract_x
 _atom_site_fract_y
 _atom_site_fract_z
 _atom_site_occupancy
  Dy  Dy0  1  0.501232  0.338214  0.673294  1
  Dy  Dy1  1  0.501232  0.664921  0.326706  1
  Dy  Dy2  1  0.998766  0.664922  0.326708  1
  Dy  Dy3  1  0.998766  0.338215  0.673292  1
  Dy  Dy4  1  0.750001  0.247031  0.000000  1
  Dy  Dy5  1  0.750000  0.754109  0.763607  1
  Dy  Dy6  1  0.750000  0.990502  0.236393  1
  Dy  Dy7  1  0.250000  0.757887  0.000000  1
  Dy  Dy8  1  0.250001  0.244905  0.243159  1
  Dy  Dy9  1  0.250001  0.001746  0.756841  1
  Al  Al10  1  0.750000  0.603877  0.000000  1
  Sn  Sn11  1  0.249999  0.393744  0.000000  1
  Sb  Sb12  1  0.750001  0.388582  0.390488  1
  Sb  Sb13  1  0.750001  0.998095  0.609512  1
  Sb  Sb14  1  0.250000  0.610697  0.608143  1
  Sb  Sb15  1  0.250000  0.002554  0.391857  1
