# generated using pymatgen
data_Nd4CuSi8Pt7
_symmetry_space_group_name_H-M   'P 1'
_cell_length_a   4.23974469
_cell_length_b   8.56921378
_cell_length_c   9.83906255
_cell_angle_alpha   89.98814387
_cell_angle_beta   89.97297778
_cell_angle_gamma   89.95618101
_symmetry_Int_Tables_number   1
_chemical_formula_structural   Nd4CuSi8Pt7
_chemical_formula_sum   'Nd4 Cu1 Si8 Pt7'
_cell_volume   357.46557138
_cell_formula_units_Z   1
loop_
 _symmetry_equiv_pos_site_id
 _symmetry_equiv_pos_as_xyz
  1  'x, y, z'
loop_
 _atom_site_type_symbol
 _atom_site_label
 _atom_site_symmetry_multiplicity
 _atom_site_fract_x
 _atom_site_fract_y
 _atom_site_fract_z
 _atom_site_occupancy
  Nd  Nd0  1  0.751239  0.625102  0.754499  1
  Nd  Nd1  1  0.749525  0.125005  0.751237  1
  Nd  Nd2  1  0.251462  0.877889  0.247930  1
  Nd  Nd3  1  0.248477  0.371885  0.247698  1
  Cu  Cu4  1  0.241286  0.126875  0.500234  1
  Si  Si5  1  0.748284  0.374082  0.002281  1
  Si  Si6  1  0.744526  0.124526  0.371285  1
  Si  Si7  1  0.255404  0.879957  0.630169  1
  Si  Si8  1  0.251874  0.625021  0.997546  1
  Si  Si9  1  0.752729  0.875494  0.002095  1
  Si  Si10  1  0.246569  0.371585  0.630986  1
  Si  Si11  1  0.249150  0.124791  0.997220  1
  Si  Si12  1  0.752230  0.624571  0.366439  1
  Pt  Pt13  1  0.248742  0.374931  0.878945  1
  Pt  Pt14  1  0.751446  0.624833  0.121093  1
  Pt  Pt15  1  0.756932  0.870702  0.499953  1
  Pt  Pt16  1  0.745656  0.378106  0.500041  1
  Pt  Pt17  1  0.749318  0.124687  0.121733  1
  Pt  Pt18  1  0.252795  0.624987  0.500042  1
  Pt  Pt19  1  0.252357  0.874971  0.878573  1
