# generated using pymatgen
data_CoI9
_symmetry_space_group_name_H-M   'P 1'
_cell_length_a   9.83267842
_cell_length_b   9.86953743
_cell_length_c   9.82063989
_cell_angle_alpha   93.32319575
_cell_angle_beta   93.39485196
_cell_angle_gamma   93.24679893
_symmetry_Int_Tables_number   1
_chemical_formula_structural   CoI9
_chemical_formula_sum   'Co2 I18'
_cell_volume   948.03490303
_cell_formula_units_Z   2
loop_
 _symmetry_equiv_pos_site_id
 _symmetry_equiv_pos_as_xyz
  1  'x, y, z'
loop_
 _atom_site_type_symbol
 _atom_site_label
 _atom_site_symmetry_multiplicity
 _atom_site_fract_x
 _atom_site_fract_y
 _atom_site_fract_z
 _atom_site_occupancy
  Co  Co0  1  0.000000  0.000000  0.000000  1
  Co  Co1  1  0.500000  0.500000  0.500000  1
  I  I2  1  0.766126  0.489204  0.517934  1
  I  I3  1  0.517245  0.764928  0.488566  1
  I  I4  1  0.489429  0.518117  0.766441  1
  I  I5  1  0.233874  0.510796  0.482066  1
  I  I6  1  0.482755  0.235072  0.511434  1
  I  I7  1  0.510571  0.481883  0.233559  1
  I  I8  1  0.886461  0.368230  0.761167  1
  I  I9  1  0.760186  0.885060  0.368373  1
  I  I10  1  0.368649  0.760565  0.886396  1
  I  I11  1  0.113539  0.631770  0.238833  1
  I  I12  1  0.239814  0.114940  0.631627  1
  I  I13  1  0.631351  0.239435  0.113604  1
  I  I14  1  0.003646  0.965389  0.734580  1
  I  I15  1  0.734922  0.003801  0.964137  1
  I  I16  1  0.964233  0.735924  0.002316  1
  I  I17  1  0.996354  0.034611  0.265420  1
  I  I18  1  0.265078  0.996199  0.035863  1
  I  I19  1  0.035767  0.264076  0.997684  1
