# generated using pymatgen
data_Er6Sc4(SnSb)3
_symmetry_space_group_name_H-M   'P 1'
_cell_length_a   8.74669100
_cell_length_b   8.74287133
_cell_length_c   6.16347800
_cell_angle_alpha   90.00000000
_cell_angle_beta   90.00000000
_cell_angle_gamma   120.01444945
_symmetry_Int_Tables_number   1
_chemical_formula_structural   Er6Sc4(SnSb)3
_chemical_formula_sum   'Er6 Sc4 Sn3 Sb3'
_cell_volume   408.12302814
_cell_formula_units_Z   1
loop_
 _symmetry_equiv_pos_site_id
 _symmetry_equiv_pos_as_xyz
  1  'x, y, z'
loop_
 _atom_site_type_symbol
 _atom_site_label
 _atom_site_symmetry_multiplicity
 _atom_site_fract_x
 _atom_site_fract_y
 _atom_site_fract_z
 _atom_site_occupancy
  Er  Er0  1  0.000929  0.758616  0.750000  1
  Er  Er1  1  0.000907  0.243011  0.250000  1
  Er  Er2  1  0.757896  0.756989  0.250000  1
  Er  Er3  1  0.756904  0.000000  0.750000  1
  Er  Er4  1  0.242313  0.241384  0.750000  1
  Er  Er5  1  0.241125  0.000000  0.250000  1
  Sc  Sc6  1  0.333040  0.666521  0.500376  1
  Sc  Sc7  1  0.666520  0.333479  0.999624  1
  Sc  Sc8  1  0.666520  0.333479  0.500376  1
  Sc  Sc9  1  0.333040  0.666521  0.999624  1
  Sn  Sn10  1  0.397090  0.000000  0.750000  1
  Sn  Sn11  1  0.396704  0.397293  0.250000  1
  Sn  Sn12  1  0.999411  0.602707  0.250000  1
  Sb  Sb13  1  0.999426  0.395556  0.750000  1
  Sb  Sb14  1  0.603870  0.604444  0.750000  1
  Sb  Sb15  1  0.604304  0.000000  0.250000  1
