# generated using pymatgen
data_Tb2Co4P6(IrRu)3
_symmetry_space_group_name_H-M   'P 1'
_cell_length_a   3.83429600
_cell_length_b   10.65815800
_cell_length_c   12.12230600
_cell_angle_alpha   90.00000000
_cell_angle_beta   90.00000000
_cell_angle_gamma   90.00000000
_symmetry_Int_Tables_number   1
_chemical_formula_structural   Tb2Co4P6(IrRu)3
_chemical_formula_sum   'Tb4 Co8 P12 Ir6 Ru6'
_cell_volume   495.39661318
_cell_formula_units_Z   2
loop_
 _symmetry_equiv_pos_site_id
 _symmetry_equiv_pos_as_xyz
  1  'x, y, z'
loop_
 _atom_site_type_symbol
 _atom_site_label
 _atom_site_symmetry_multiplicity
 _atom_site_fract_x
 _atom_site_fract_y
 _atom_site_fract_z
 _atom_site_occupancy
  Tb  Tb0  1  0.250000  0.583652  0.708691  1
  Tb  Tb1  1  0.250000  0.916348  0.208691  1
  Tb  Tb2  1  0.750000  0.415716  0.292325  1
  Tb  Tb3  1  0.750000  0.084284  0.792325  1
  Co  Co4  1  0.250000  0.885719  0.698285  1
  Co  Co5  1  0.250000  0.614281  0.198285  1
  Co  Co6  1  0.750000  0.113499  0.300212  1
  Co  Co7  1  0.750000  0.386501  0.800212  1
  Co  Co8  1  0.250000  0.461979  0.932114  1
  Co  Co9  1  0.250000  0.038021  0.432114  1
  Co  Co10  1  0.750000  0.537235  0.066875  1
  Co  Co11  1  0.750000  0.962765  0.566875  1
  P  P12  1  0.250000  0.430751  0.110506  1
  P  P13  1  0.250000  0.069249  0.610506  1
  P  P14  1  0.750000  0.568396  0.889134  1
  P  P15  1  0.750000  0.931604  0.389134  1
  P  P16  1  0.250000  0.270602  0.874397  1
  P  P17  1  0.250000  0.229398  0.374397  1
  P  P18  1  0.750000  0.725979  0.127770  1
  P  P19  1  0.750000  0.774021  0.627770  1
  P  P20  1  0.250000  0.598355  0.384418  1
  P  P21  1  0.250000  0.901645  0.884418  1
  P  P22  1  0.750000  0.399140  0.613230  1
  P  P23  1  0.750000  0.100860  0.113230  1
  Ir  Ir24  1  0.750000  0.594247  0.517586  1
  Ir  Ir25  1  0.750000  0.905753  0.017586  1
  Ir  Ir26  1  0.250000  0.228415  0.181252  1
  Ir  Ir27  1  0.250000  0.271585  0.681252  1
  Ir  Ir28  1  0.750000  0.771820  0.819151  1
  Ir  Ir29  1  0.750000  0.728180  0.319151  1
  Ru  Ru30  1  0.250000  0.714304  0.989141  1
  Ru  Ru31  1  0.250000  0.785696  0.489141  1
  Ru  Ru32  1  0.750000  0.286647  0.009306  1
  Ru  Ru33  1  0.750000  0.213353  0.509306  1
  Ru  Ru34  1  0.250000  0.407850  0.485607  1
  Ru  Ru35  1  0.250000  0.092150  0.985607  1
