# generated using pymatgen
data_Zr20Zn2GeSb9
_symmetry_space_group_name_H-M   'P 1'
_cell_length_a   5.53701100
_cell_length_b   8.38145631
_cell_length_c   15.82878000
_cell_angle_alpha   90.00000000
_cell_angle_beta   90.00000000
_cell_angle_gamma   109.28778181
_symmetry_Int_Tables_number   1
_chemical_formula_structural   Zr20Zn2GeSb9
_chemical_formula_sum   'Zr20 Zn2 Ge1 Sb9'
_cell_volume   693.35419428
_cell_formula_units_Z   1
loop_
 _symmetry_equiv_pos_site_id
 _symmetry_equiv_pos_as_xyz
  1  'x, y, z'
loop_
 _atom_site_type_symbol
 _atom_site_label
 _atom_site_symmetry_multiplicity
 _atom_site_fract_x
 _atom_site_fract_y
 _atom_site_fract_z
 _atom_site_occupancy
  Zr  Zr0  1  0.431716  0.861198  0.356338  1
  Zr  Zr1  1  0.922255  0.857677  0.851451  1
  Zr  Zr2  1  0.064578  0.142323  0.148549  1
  Zr  Zr3  1  0.570518  0.138802  0.643662  1
  Zr  Zr4  1  0.653563  0.294894  0.072446  1
  Zr  Zr5  1  0.144397  0.289708  0.568589  1
  Zr  Zr6  1  0.854689  0.710292  0.431411  1
  Zr  Zr7  1  0.358671  0.705106  0.927554  1
  Zr  Zr8  1  0.846437  0.705106  0.072446  1
  Zr  Zr9  1  0.355603  0.710292  0.568589  1
  Zr  Zr10  1  0.645311  0.289708  0.431411  1
  Zr  Zr11  1  0.141329  0.294894  0.927554  1
  Zr  Zr12  1  0.068284  0.138802  0.356338  1
  Zr  Zr13  1  0.577745  0.142323  0.851451  1
  Zr  Zr14  1  0.435422  0.857677  0.148549  1
  Zr  Zr15  1  0.929482  0.861198  0.643662  1
  Zr  Zr16  1  0.501306  0.503155  0.249990  1
  Zr  Zr17  1  0.998151  0.496845  0.750010  1
  Zr  Zr18  1  0.998694  0.496845  0.249990  1
  Zr  Zr19  1  0.501849  0.503155  0.750010  1
  Zn  Zn20  1  0.750000  0.000000  0.000000  1
  Zn  Zn21  1  0.250000  0.000000  0.500000  1
  Ge  Ge22  1  0.750000  0.000000  0.500000  1
  Sb  Sb23  1  0.917695  0.828412  0.251559  1
  Sb  Sb24  1  0.410716  0.828412  0.748441  1
  Sb  Sb25  1  0.582305  0.171588  0.251559  1
  Sb  Sb26  1  0.089284  0.171588  0.748441  1
  Sb  Sb27  1  0.250000  0.500000  0.085637  1
  Sb  Sb28  1  0.750000  0.500000  0.586055  1
  Sb  Sb29  1  0.250000  0.500000  0.413945  1
  Sb  Sb30  1  0.750000  0.500000  0.914363  1
  Sb  Sb31  1  0.250000  0.000000  0.000000  1
