# generated using pymatgen
data_CsNa3FeO4
_symmetry_space_group_name_H-M   'P 1'
_cell_length_a   6.42689973
_cell_length_b   8.67043353
_cell_length_c   11.62122118
_cell_angle_alpha   79.11240993
_cell_angle_beta   74.85411883
_cell_angle_gamma   78.26435484
_symmetry_Int_Tables_number   1
_chemical_formula_structural   CsNa3FeO4
_chemical_formula_sum   'Cs4 Na12 Fe4 O16'
_cell_volume   605.67445325
_cell_formula_units_Z   4
loop_
 _symmetry_equiv_pos_site_id
 _symmetry_equiv_pos_as_xyz
  1  'x, y, z'
loop_
 _atom_site_type_symbol
 _atom_site_label
 _atom_site_symmetry_multiplicity
 _atom_site_fract_x
 _atom_site_fract_y
 _atom_site_fract_z
 _atom_site_occupancy
  Cs  Cs0  1  0.025561  0.130547  0.625600  1
  Cs  Cs1  1  0.974439  0.869453  0.374400  1
  Cs  Cs2  1  0.025653  0.382129  0.870921  1
  Cs  Cs3  1  0.974347  0.617871  0.129079  1
  Na  Na4  1  0.215280  0.158580  0.145876  1
  Na  Na5  1  0.784720  0.841420  0.854124  1
  Na  Na6  1  0.497195  0.659085  0.398205  1
  Na  Na7  1  0.502805  0.340915  0.601795  1
  Na  Na8  1  0.190248  0.436684  0.399046  1
  Na  Na9  1  0.538143  0.427090  0.129927  1
  Na  Na10  1  0.212711  0.942312  0.896576  1
  Na  Na11  1  0.787289  0.057688  0.103424  1
  Na  Na12  1  0.563979  0.954260  0.627082  1
  Na  Na13  1  0.436021  0.045740  0.372918  1
  Na  Na14  1  0.461857  0.572910  0.870073  1
  Na  Na15  1  0.809752  0.563316  0.600954  1
  Fe  Fe16  1  0.166620  0.716140  0.645546  1
  Fe  Fe17  1  0.833380  0.283860  0.354454  1
  Fe  Fe18  1  0.579130  0.214295  0.862323  1
  Fe  Fe19  1  0.420870  0.785705  0.137677  1
  O  O20  1  0.369147  0.830840  0.541812  1
  O  O21  1  0.630853  0.169160  0.458188  1
  O  O22  1  0.455766  0.111934  0.779117  1
  O  O23  1  0.544234  0.888066  0.220883  1
  O  O24  1  0.179558  0.735375  0.797623  1
  O  O25  1  0.820442  0.264625  0.202377  1
  O  O26  1  0.818818  0.077975  0.901549  1
  O  O27  1  0.181182  0.922025  0.098451  1
  O  O28  1  0.652257  0.386948  0.750001  1
  O  O29  1  0.347743  0.613052  0.249999  1
  O  O30  1  0.564052  0.688194  0.005517  1
  O  O31  1  0.435948  0.311806  0.994483  1
  O  O32  1  0.873733  0.787471  0.655870  1
  O  O33  1  0.798354  0.463837  0.425263  1
  O  O34  1  0.126267  0.212529  0.344130  1
  O  O35  1  0.201646  0.536163  0.574737  1
