# generated using pymatgen
data_RbNaAlCoH8
_symmetry_space_group_name_H-M   'P 1'
_cell_length_a   5.41956793
_cell_length_b   4.31097947
_cell_length_c   6.82829213
_cell_angle_alpha   92.64577028
_cell_angle_beta   115.89486333
_cell_angle_gamma   88.52134802
_symmetry_Int_Tables_number   1
_chemical_formula_structural   RbNaAlCoH8
_chemical_formula_sum   'Rb1 Na1 Al1 Co1 H8'
_cell_volume   143.36030328
_cell_formula_units_Z   1
loop_
 _symmetry_equiv_pos_site_id
 _symmetry_equiv_pos_as_xyz
  1  'x, y, z'
loop_
 _atom_site_type_symbol
 _atom_site_label
 _atom_site_symmetry_multiplicity
 _atom_site_fract_x
 _atom_site_fract_y
 _atom_site_fract_z
 _atom_site_occupancy
  Rb  Rb0  1  0.217092  0.684690  0.355274  1
  Na  Na1  1  0.898613  0.191040  0.736385  1
  Al  Al2  1  0.574545  0.168011  0.077881  1
  Co  Co3  1  0.381568  0.659247  0.911592  1
  H  H4  1  0.257748  0.915012  0.002506  1
  H  H5  1  0.904400  0.164533  0.129678  1
  H  H6  1  0.247653  0.436923  0.002318  1
  H  H7  1  0.513651  0.874855  0.813790  1
  H  H8  1  0.104627  0.673342  0.705936  1
  H  H9  1  0.616491  0.180829  0.344799  1
  H  H10  1  0.471358  0.398017  0.797153  1
  H  H11  1  0.642907  0.653501  0.122685  1
