# generated using pymatgen
data_Ta3Ti(PRu)4
_symmetry_space_group_name_H-M   'P 1'
_cell_length_a   3.74269800
_cell_length_b   6.30985422
_cell_length_c   7.19336526
_cell_angle_alpha   90.03058685
_cell_angle_beta   90.00000000
_cell_angle_gamma   90.00000000
_symmetry_Int_Tables_number   1
_chemical_formula_structural   Ta3Ti(PRu)4
_chemical_formula_sum   'Ta3 Ti1 P4 Ru4'
_cell_volume   169.87761776
_cell_formula_units_Z   1
loop_
 _symmetry_equiv_pos_site_id
 _symmetry_equiv_pos_as_xyz
  1  'x, y, z'
loop_
 _atom_site_type_symbol
 _atom_site_label
 _atom_site_symmetry_multiplicity
 _atom_site_fract_x
 _atom_site_fract_y
 _atom_site_fract_z
 _atom_site_occupancy
  Ta  Ta0  1  0.250000  0.523445  0.673250  1
  Ta  Ta1  1  0.750000  0.975841  0.172481  1
  Ta  Ta2  1  0.750000  0.474416  0.328098  1
  Ti  Ti3  1  0.250000  0.025112  0.823946  1
  P  P4  1  0.250000  0.768930  0.376026  1
  P  P5  1  0.250000  0.266761  0.122575  1
  P  P6  1  0.750000  0.229693  0.627504  1
  P  P7  1  0.750000  0.735825  0.875323  1
  Ru  Ru8  1  0.250000  0.148170  0.436939  1
  Ru  Ru9  1  0.250000  0.648182  0.061186  1
  Ru  Ru10  1  0.750000  0.852839  0.562711  1
  Ru  Ru11  1  0.750000  0.350786  0.939961  1
