# generated using pymatgen
data_Y2TmLuPt4F28
_symmetry_space_group_name_H-M   'P 1'
_cell_length_a   5.52652309
_cell_length_b   8.83104580
_cell_length_c   11.93796368
_cell_angle_alpha   62.58179290
_cell_angle_beta   89.88702206
_cell_angle_gamma   90.04099438
_symmetry_Int_Tables_number   1
_chemical_formula_structural   Y2TmLuPt4F28
_chemical_formula_sum   'Y2 Tm1 Lu1 Pt4 F28'
_cell_volume   517.18260734
_cell_formula_units_Z   1
loop_
 _symmetry_equiv_pos_site_id
 _symmetry_equiv_pos_as_xyz
  1  'x, y, z'
loop_
 _atom_site_type_symbol
 _atom_site_label
 _atom_site_symmetry_multiplicity
 _atom_site_fract_x
 _atom_site_fract_y
 _atom_site_fract_z
 _atom_site_occupancy
  Y  Y0  1  0.260633  0.815286  0.264327  1
  Y  Y1  1  0.739385  0.183673  0.735783  1
  Tm  Tm2  1  0.761855  0.187188  0.235498  1
  Lu  Lu3  1  0.237777  0.813064  0.764265  1
  Pt  Pt4  1  0.759277  0.725597  0.041781  1
  Pt  Pt5  1  0.240905  0.275095  0.957486  1
  Pt  Pt6  1  0.259713  0.270295  0.455768  1
  Pt  Pt7  1  0.739951  0.729526  0.544991  1
  F  F8  1  0.936469  0.703105  0.417784  1
  F  F9  1  0.062905  0.296818  0.582886  1
  F  F10  1  0.437341  0.299243  0.085477  1
  F  F11  1  0.561941  0.701122  0.914192  1
  F  F12  1  0.465453  0.723712  0.135215  1
  F  F13  1  0.535148  0.276220  0.864480  1
  F  F14  1  0.967122  0.274071  0.361008  1
  F  F15  1  0.033157  0.726445  0.639728  1
  F  F16  1  0.948078  0.743870  0.175166  1
  F  F17  1  0.051900  0.256218  0.824515  1
  F  F18  1  0.451792  0.251412  0.323550  1
  F  F19  1  0.546051  0.749135  0.676838  1
  F  F20  1  0.774721  0.475667  0.141671  1
  F  F21  1  0.225557  0.525656  0.857852  1
  F  F22  1  0.275996  0.520551  0.356877  1
  F  F23  1  0.723986  0.479161  0.643314  1
  F  F24  1  0.938399  0.279075  0.044407  1
  F  F25  1  0.062109  0.721675  0.954437  1
  F  F26  1  0.440100  0.722721  0.458431  1
  F  F27  1  0.560361  0.277004  0.541971  1
  F  F28  1  0.745106  0.979621  0.449683  1
  F  F29  1  0.254816  0.020090  0.550961  1
  F  F30  1  0.245872  0.025125  0.050137  1
  F  F31  1  0.753995  0.975662  0.949314  1
  F  F32  1  0.586326  0.974424  0.232447  1
  F  F33  1  0.413099  0.023459  0.767401  1
  F  F34  1  0.080030  0.032969  0.267260  1
  F  F35  1  0.922674  0.966044  0.733103  1
