# generated using pymatgen
data_YbEu4Sb3O14
_symmetry_space_group_name_H-M   'P 1'
_cell_length_a   7.50336138
_cell_length_b   7.50336079
_cell_length_c   7.50336118
_cell_angle_alpha   60.88102479
_cell_angle_beta   60.88103843
_cell_angle_gamma   60.88103358
_symmetry_Int_Tables_number   1
_chemical_formula_structural   YbEu4Sb3O14
_chemical_formula_sum   'Yb1 Eu4 Sb3 O14'
_cell_volume   304.64465129
_cell_formula_units_Z   1
loop_
 _symmetry_equiv_pos_site_id
 _symmetry_equiv_pos_as_xyz
  1  'x, y, z'
loop_
 _atom_site_type_symbol
 _atom_site_label
 _atom_site_symmetry_multiplicity
 _atom_site_fract_x
 _atom_site_fract_y
 _atom_site_fract_z
 _atom_site_occupancy
  Yb  Yb0  1  0.000000  0.000000  0.000000  1
  Eu  Eu1  1  0.500000  0.000000  0.500000  1
  Eu  Eu2  1  0.000000  0.500000  0.500000  1
  Eu  Eu3  1  0.500000  0.500000  0.000000  1
  Eu  Eu4  1  0.500000  0.500000  0.500000  1
  Sb  Sb5  1  0.000000  0.000000  0.500000  1
  Sb  Sb6  1  0.500000  0.000000  0.000000  1
  Sb  Sb7  1  0.000000  0.500000  0.000000  1
  O  O8  1  0.095161  0.095161  0.632066  1
  O  O9  1  0.904839  0.904839  0.367934  1
  O  O10  1  0.367934  0.904839  0.904839  1
  O  O11  1  0.632066  0.095161  0.095161  1
  O  O12  1  0.909276  0.317396  0.317396  1
  O  O13  1  0.090724  0.682604  0.682604  1
  O  O14  1  0.682604  0.682604  0.090724  1
  O  O15  1  0.317396  0.317396  0.909276  1
  O  O16  1  0.377139  0.377139  0.377139  1
  O  O17  1  0.622861  0.622861  0.622861  1
  O  O18  1  0.904839  0.367934  0.904839  1
  O  O19  1  0.095161  0.632066  0.095161  1
  O  O20  1  0.682604  0.090724  0.682604  1
  O  O21  1  0.317396  0.909276  0.317396  1
