# generated using pymatgen
data_Dy6Al20Fe3Si4Os5
_symmetry_space_group_name_H-M   'P 1'
_cell_length_a   8.66356100
_cell_length_b   8.64094862
_cell_length_c   9.52626961
_cell_angle_alpha   90.10053946
_cell_angle_beta   90.00000000
_cell_angle_gamma   120.08659988
_symmetry_Int_Tables_number   1
_chemical_formula_structural   Dy6Al20Fe3Si4Os5
_chemical_formula_sum   'Dy6 Al20 Fe3 Si4 Os5'
_cell_volume   617.06487264
_cell_formula_units_Z   1
loop_
 _symmetry_equiv_pos_site_id
 _symmetry_equiv_pos_as_xyz
  1  'x, y, z'
loop_
 _atom_site_type_symbol
 _atom_site_label
 _atom_site_symmetry_multiplicity
 _atom_site_fract_x
 _atom_site_fract_y
 _atom_site_fract_z
 _atom_site_occupancy
  Dy  Dy0  1  0.196695  0.393390  0.247813  1
  Dy  Dy1  1  0.803305  0.606610  0.752187  1
  Dy  Dy2  1  0.608460  0.803037  0.250166  1
  Dy  Dy3  1  0.391540  0.196963  0.749834  1
  Dy  Dy4  1  0.194576  0.803037  0.250166  1
  Dy  Dy5  1  0.805424  0.196963  0.749834  1
  Al  Al6  1  0.161279  0.322559  0.575884  1
  Al  Al7  1  0.838721  0.677441  0.424116  1
  Al  Al8  1  0.677632  0.839546  0.576741  1
  Al  Al9  1  0.838464  0.676927  0.075823  1
  Al  Al10  1  0.322368  0.160454  0.423259  1
  Al  Al11  1  0.161536  0.323073  0.924177  1
  Al  Al12  1  0.161912  0.839546  0.576741  1
  Al  Al13  1  0.324105  0.158417  0.074929  1
  Al  Al14  1  0.838088  0.160454  0.423259  1
  Al  Al15  1  0.675895  0.841583  0.925071  1
  Al  Al16  1  0.834313  0.158417  0.074929  1
  Al  Al17  1  0.165687  0.841583  0.925071  1
  Al  Al18  1  0.561626  0.123253  0.244587  1
  Al  Al19  1  0.438374  0.876747  0.755413  1
  Al  Al20  1  0.870884  0.434556  0.249571  1
  Al  Al21  1  0.129116  0.565444  0.750429  1
  Al  Al22  1  0.563673  0.434556  0.249571  1
  Al  Al23  1  0.436327  0.565444  0.750429  1
  Al  Al24  1  0.000152  0.000304  0.249911  1
  Al  Al25  1  0.999848  0.999696  0.750089  1
  Fe  Fe26  1  0.500000  0.000000  0.000000  1
  Fe  Fe27  1  0.000000  0.000000  0.000000  1
  Fe  Fe28  1  0.000000  0.000000  0.500000  1
  Si  Si29  1  0.337643  0.675288  0.031658  1
  Si  Si30  1  0.662357  0.324712  0.968342  1
  Si  Si31  1  0.666606  0.333211  0.532657  1
  Si  Si32  1  0.333394  0.666789  0.467343  1
  Os  Os33  1  0.000000  0.500000  0.000000  1
  Os  Os34  1  0.500000  0.000000  0.500000  1
  Os  Os35  1  0.500000  0.500000  0.000000  1
  Os  Os36  1  0.000000  0.500000  0.500000  1
  Os  Os37  1  0.500000  0.500000  0.500000  1
