# generated using pymatgen
data_Sr3Ga3Si2BiO14
_symmetry_space_group_name_H-M   'P 1'
_cell_length_a   8.44973300
_cell_length_b   8.44973287
_cell_length_c   5.21159100
_cell_angle_alpha   90.00000000
_cell_angle_beta   90.00000000
_cell_angle_gamma   120.00000440
_symmetry_Int_Tables_number   1
_chemical_formula_structural   Sr3Ga3Si2BiO14
_chemical_formula_sum   'Sr3 Ga3 Si2 Bi1 O14'
_cell_volume   322.24553128
_cell_formula_units_Z   1
loop_
 _symmetry_equiv_pos_site_id
 _symmetry_equiv_pos_as_xyz
  1  'x, y, z'
loop_
 _atom_site_type_symbol
 _atom_site_label
 _atom_site_symmetry_multiplicity
 _atom_site_fract_x
 _atom_site_fract_y
 _atom_site_fract_z
 _atom_site_occupancy
  Sr  Sr0  1  0.432448  0.000000  0.000000  1
  Sr  Sr1  1  0.567552  0.567552  0.000000  1
  Sr  Sr2  1  0.000000  0.432448  0.000000  1
  Ga  Ga3  1  0.740818  0.000000  0.500000  1
  Ga  Ga4  1  0.259182  0.259182  0.500000  1
  Ga  Ga5  1  0.000000  0.740818  0.500000  1
  Si  Si6  1  0.666667  0.333333  0.533953  1
  Si  Si7  1  0.333333  0.666667  0.466047  1
  Bi  Bi8  1  0.000000  0.000000  0.000000  1
  O  O9  1  0.666667  0.333333  0.224470  1
  O  O10  1  0.333333  0.666667  0.775530  1
  O  O11  1  0.164913  0.686707  0.332029  1
  O  O12  1  0.521794  0.835087  0.332029  1
  O  O13  1  0.313293  0.478206  0.332029  1
  O  O14  1  0.835087  0.521794  0.667971  1
  O  O15  1  0.686707  0.164913  0.667971  1
  O  O16  1  0.478206  0.313293  0.667971  1
  O  O17  1  0.135294  0.900398  0.760863  1
  O  O18  1  0.765103  0.864706  0.760863  1
  O  O19  1  0.099602  0.234897  0.760863  1
  O  O20  1  0.864706  0.765103  0.239137  1
  O  O21  1  0.900398  0.135294  0.239137  1
  O  O22  1  0.234897  0.099602  0.239137  1
