# generated using pymatgen
data_PrAl4Os
_symmetry_space_group_name_H-M   'P 1'
_cell_length_a   7.73521200
_cell_length_b   8.84393000
_cell_length_c   9.78239400
_cell_angle_alpha   90.00000000
_cell_angle_beta   90.00000000
_cell_angle_gamma   90.00000000
_symmetry_Int_Tables_number   1
_chemical_formula_structural   PrAl4Os
_chemical_formula_sum   'Pr6 Al24 Os6'
_cell_volume   669.21037923
_cell_formula_units_Z   6
loop_
 _symmetry_equiv_pos_site_id
 _symmetry_equiv_pos_as_xyz
  1  'x, y, z'
loop_
 _atom_site_type_symbol
 _atom_site_label
 _atom_site_symmetry_multiplicity
 _atom_site_fract_x
 _atom_site_fract_y
 _atom_site_fract_z
 _atom_site_occupancy
  Pr  Pr0  1  0.316648  0.500000  0.750000  1
  Pr  Pr1  1  0.683352  0.500000  0.250000  1
  Pr  Pr2  1  0.841528  0.252065  0.750000  1
  Pr  Pr3  1  0.158472  0.747935  0.250000  1
  Pr  Pr4  1  0.841528  0.747935  0.750000  1
  Pr  Pr5  1  0.158472  0.252065  0.250000  1
  Al  Al6  1  0.180515  0.233273  0.570217  1
  Al  Al7  1  0.819485  0.766727  0.429783  1
  Al  Al8  1  0.180515  0.766727  0.929783  1
  Al  Al9  1  0.819485  0.233273  0.429783  1
  Al  Al10  1  0.819485  0.233273  0.070217  1
  Al  Al11  1  0.180515  0.766727  0.570217  1
  Al  Al12  1  0.819485  0.766727  0.070217  1
  Al  Al13  1  0.180515  0.233273  0.929783  1
  Al  Al14  1  0.127711  0.000000  0.750000  1
  Al  Al15  1  0.872289  0.000000  0.250000  1
  Al  Al16  1  0.338677  0.000000  0.052863  1
  Al  Al17  1  0.661323  0.000000  0.947137  1
  Al  Al18  1  0.338677  0.000000  0.447137  1
  Al  Al19  1  0.661323  0.000000  0.552863  1
  Al  Al20  1  0.451834  0.157611  0.750000  1
  Al  Al21  1  0.548166  0.842389  0.250000  1
  Al  Al22  1  0.451834  0.842389  0.750000  1
  Al  Al23  1  0.548166  0.157611  0.250000  1
  Al  Al24  1  0.654079  0.500000  0.579043  1
  Al  Al25  1  0.345921  0.500000  0.420957  1
  Al  Al26  1  0.654079  0.500000  0.920957  1
  Al  Al27  1  0.345921  0.500000  0.079043  1
  Al  Al28  1  0.000000  0.500000  0.500000  1
  Al  Al29  1  0.000000  0.500000  0.000000  1
  Os  Os30  1  0.500000  0.256489  0.500000  1
  Os  Os31  1  0.500000  0.743511  0.500000  1
  Os  Os32  1  0.500000  0.743511  0.000000  1
  Os  Os33  1  0.500000  0.256489  0.000000  1
  Os  Os34  1  0.000000  0.000000  0.500000  1
  Os  Os35  1  0.000000  0.000000  0.000000  1
