# generated using pymatgen
data_Er2Al3Tc
_symmetry_space_group_name_H-M   'P 1'
_cell_length_a   5.48608300
_cell_length_b   5.48603662
_cell_length_c   8.90106100
_cell_angle_alpha   90.00000000
_cell_angle_beta   90.00000000
_cell_angle_gamma   119.99668043
_symmetry_Int_Tables_number   1
_chemical_formula_structural   Er2Al3Tc
_chemical_formula_sum   'Er4 Al6 Tc2'
_cell_volume   232.01069843
_cell_formula_units_Z   2
loop_
 _symmetry_equiv_pos_site_id
 _symmetry_equiv_pos_as_xyz
  1  'x, y, z'
loop_
 _atom_site_type_symbol
 _atom_site_label
 _atom_site_symmetry_multiplicity
 _atom_site_fract_x
 _atom_site_fract_y
 _atom_site_fract_z
 _atom_site_occupancy
  Er  Er0  1  0.333332  0.666658  0.052406  1
  Er  Er1  1  0.333332  0.666658  0.447594  1
  Er  Er2  1  0.666667  0.333340  0.552407  1
  Er  Er3  1  0.666667  0.333340  0.947593  1
  Al  Al4  1  0.325294  0.162642  0.250000  1
  Al  Al5  1  0.837352  0.162644  0.250000  1
  Al  Al6  1  0.837350  0.674699  0.250000  1
  Al  Al7  1  0.162651  0.325301  0.750000  1
  Al  Al8  1  0.162648  0.837356  0.750000  1
  Al  Al9  1  0.674706  0.837358  0.750000  1
  Tc  Tc10  1  0.000000  0.000000  0.000000  1
  Tc  Tc11  1  0.000000  0.000000  0.500000  1
