# generated using pymatgen
data_Ca3Cu6Ni7B2
_symmetry_space_group_name_H-M   'P 1'
_cell_length_a   5.11918700
_cell_length_b   5.11918716
_cell_length_c   10.76190300
_cell_angle_alpha   90.00000000
_cell_angle_beta   90.00000000
_cell_angle_gamma   120.06002892
_symmetry_Int_Tables_number   1
_chemical_formula_structural   Ca3Cu6Ni7B2
_chemical_formula_sum   'Ca3 Cu6 Ni7 B2'
_cell_volume   244.09489015
_cell_formula_units_Z   1
loop_
 _symmetry_equiv_pos_site_id
 _symmetry_equiv_pos_as_xyz
  1  'x, y, z'
loop_
 _atom_site_type_symbol
 _atom_site_label
 _atom_site_symmetry_multiplicity
 _atom_site_fract_x
 _atom_site_fract_y
 _atom_site_fract_z
 _atom_site_occupancy
  Ca  Ca0  1  0.000000  0.000000  0.000000  1
  Ca  Ca1  1  0.000000  0.000000  0.678220  1
  Ca  Ca2  1  0.000000  0.000000  0.321780  1
  Cu  Cu3  1  0.500000  0.000000  0.500000  1
  Cu  Cu4  1  0.000000  0.500000  0.500000  1
  Cu  Cu5  1  0.664288  0.335712  0.685532  1
  Cu  Cu6  1  0.335712  0.664288  0.685532  1
  Cu  Cu7  1  0.335712  0.664288  0.314468  1
  Cu  Cu8  1  0.664288  0.335712  0.314468  1
  Ni  Ni9  1  0.500000  0.500000  0.500000  1
  Ni  Ni10  1  0.500000  0.500000  0.873694  1
  Ni  Ni11  1  0.500000  0.000000  0.873393  1
  Ni  Ni12  1  0.000000  0.500000  0.873393  1
  Ni  Ni13  1  0.500000  0.500000  0.126306  1
  Ni  Ni14  1  0.500000  0.000000  0.126607  1
  Ni  Ni15  1  0.000000  0.500000  0.126607  1
  B  B16  1  0.666910  0.333090  0.000000  1
  B  B17  1  0.333090  0.666910  0.000000  1
