# generated using pymatgen
data_HoZn2Cu2Au
_symmetry_space_group_name_H-M   'P 1'
_cell_length_a   5.10362941
_cell_length_b   5.10362910
_cell_length_c   5.13681500
_cell_angle_alpha   59.78467428
_cell_angle_beta   59.78467633
_cell_angle_gamma   60.23038469
_symmetry_Int_Tables_number   1
_chemical_formula_structural   HoZn2Cu2Au
_chemical_formula_sum   'Ho1 Zn2 Cu2 Au1'
_cell_volume   94.46294374
_cell_formula_units_Z   1
loop_
 _symmetry_equiv_pos_site_id
 _symmetry_equiv_pos_as_xyz
  1  'x, y, z'
loop_
 _atom_site_type_symbol
 _atom_site_label
 _atom_site_symmetry_multiplicity
 _atom_site_fract_x
 _atom_site_fract_y
 _atom_site_fract_z
 _atom_site_occupancy
  Ho  Ho0  1  0.246509  0.246509  0.253491  1
  Zn  Zn1  1  0.627129  0.627129  0.625947  1
  Zn  Zn2  1  0.627129  0.627129  0.119793  1
  Cu  Cu3  1  0.625058  0.125126  0.624907  1
  Cu  Cu4  1  0.125126  0.625058  0.624907  1
  Au  Au5  1  0.999048  0.999048  0.000952  1
