# generated using pymatgen
data_Tb5Tl2BiSe
_symmetry_space_group_name_H-M   'P 1'
_cell_length_a   9.20303000
_cell_length_b   9.20303003
_cell_length_c   6.85189100
_cell_angle_alpha   90.00000000
_cell_angle_beta   90.00000000
_cell_angle_gamma   119.93235401
_symmetry_Int_Tables_number   1
_chemical_formula_structural   Tb5Tl2BiSe
_chemical_formula_sum   'Tb10 Tl4 Bi2 Se2'
_cell_volume   502.91939668
_cell_formula_units_Z   2
loop_
 _symmetry_equiv_pos_site_id
 _symmetry_equiv_pos_as_xyz
  1  'x, y, z'
loop_
 _atom_site_type_symbol
 _atom_site_label
 _atom_site_symmetry_multiplicity
 _atom_site_fract_x
 _atom_site_fract_y
 _atom_site_fract_z
 _atom_site_occupancy
  Tb  Tb0  1  0.666628  0.336534  0.494575  1
  Tb  Tb1  1  0.336534  0.666628  0.494575  1
  Tb  Tb2  1  0.336534  0.666628  0.005425  1
  Tb  Tb3  1  0.666628  0.336534  0.005425  1
  Tb  Tb4  1  0.748473  0.748473  0.250000  1
  Tb  Tb5  1  0.249492  0.998418  0.250000  1
  Tb  Tb6  1  0.998418  0.249492  0.250000  1
  Tb  Tb7  1  0.251735  0.251735  0.750000  1
  Tb  Tb8  1  0.748193  0.994389  0.750000  1
  Tb  Tb9  1  0.994389  0.748193  0.750000  1
  Tl  Tl10  1  0.397674  0.397674  0.250000  1
  Tl  Tl11  1  0.604975  0.001285  0.250000  1
  Tl  Tl12  1  0.001285  0.604975  0.250000  1
  Tl  Tl13  1  0.600044  0.600044  0.750000  1
  Bi  Bi14  1  0.396464  0.000065  0.750000  1
  Bi  Bi15  1  0.000065  0.396464  0.750000  1
  Se  Se16  1  0.001234  0.001234  0.501260  1
  Se  Se17  1  0.001234  0.001234  0.998740  1
