# generated using pymatgen
data_Tb2Sm2Ga20Pt11
_symmetry_space_group_name_H-M   'P 1'
_cell_length_a   4.27809532
_cell_length_b   10.95867404
_cell_length_c   13.67864793
_cell_angle_alpha   81.58440396
_cell_angle_beta   81.00324594
_cell_angle_gamma   78.74405034
_symmetry_Int_Tables_number   1
_chemical_formula_structural   Tb2Sm2Ga20Pt11
_chemical_formula_sum   'Tb2 Sm2 Ga20 Pt11'
_cell_volume   616.75603723
_cell_formula_units_Z   1
loop_
 _symmetry_equiv_pos_site_id
 _symmetry_equiv_pos_as_xyz
  1  'x, y, z'
loop_
 _atom_site_type_symbol
 _atom_site_label
 _atom_site_symmetry_multiplicity
 _atom_site_fract_x
 _atom_site_fract_y
 _atom_site_fract_z
 _atom_site_occupancy
  Tb  Tb0  1  0.122536  0.089832  0.665098  1
  Tb  Tb1  1  0.877464  0.910168  0.334902  1
  Sm  Sm2  1  0.773924  0.631141  0.821009  1
  Sm  Sm3  1  0.226076  0.368859  0.178991  1
  Ga  Ga4  1  0.007295  0.073885  0.911525  1
  Ga  Ga5  1  0.992705  0.926115  0.088475  1
  Ga  Ga6  1  0.064762  0.676374  0.194103  1
  Ga  Ga7  1  0.935238  0.323626  0.805897  1
  Ga  Ga8  1  0.102661  0.340965  0.453712  1
  Ga  Ga9  1  0.897339  0.659035  0.546288  1
  Ga  Ga10  1  0.201485  0.605000  0.992029  1
  Ga  Ga11  1  0.798515  0.395000  0.007971  1
  Ga  Ga12  1  0.257382  0.785078  0.700160  1
  Ga  Ga13  1  0.742618  0.214922  0.299840  1
  Ga  Ga14  1  0.301747  0.899511  0.496996  1
  Ga  Ga15  1  0.698253  0.100489  0.503004  1
  Ga  Ga16  1  0.387552  0.524941  0.699954  1
  Ga  Ga17  1  0.612448  0.475059  0.300046  1
  Ga  Ga18  1  0.397961  0.202138  0.001940  1
  Ga  Ga19  1  0.602039  0.797862  0.998060  1
  Ga  Ga20  1  0.544038  0.284055  0.627868  1
  Ga  Ga21  1  0.455962  0.715945  0.372132  1
  Ga  Ga22  1  0.635573  0.935035  0.793819  1
  Ga  Ga23  1  0.364427  0.064965  0.206181  1
  Pt  Pt24  1  0.500000  0.500000  0.500000  1
  Pt  Pt25  1  0.026837  0.575131  0.371193  1
  Pt  Pt26  1  0.973163  0.424869  0.628807  1
  Pt  Pt27  1  0.137052  0.836857  0.889037  1
  Pt  Pt28  1  0.862948  0.163143  0.110963  1
  Pt  Pt29  1  0.240654  0.127167  0.391526  1
  Pt  Pt30  1  0.759346  0.872833  0.608474  1
  Pt  Pt31  1  0.344751  0.418481  0.892018  1
  Pt  Pt32  1  0.655249  0.581519  0.107982  1
  Pt  Pt33  1  0.506955  0.169855  0.816236  1
  Pt  Pt34  1  0.493045  0.830145  0.183764  1
