# generated using pymatgen
data_CaZr7(Si4W3)4
_symmetry_space_group_name_H-M   'P 1'
_cell_length_a   6.63532524
_cell_length_b   6.78539970
_cell_length_c   12.75290101
_cell_angle_alpha   89.89940134
_cell_angle_beta   89.97906296
_cell_angle_gamma   89.95818058
_symmetry_Int_Tables_number   1
_chemical_formula_structural   CaZr7(Si4W3)4
_chemical_formula_sum   'Ca1 Zr7 Si16 W12'
_cell_volume   574.17704452
_cell_formula_units_Z   1
loop_
 _symmetry_equiv_pos_site_id
 _symmetry_equiv_pos_as_xyz
  1  'x, y, z'
loop_
 _atom_site_type_symbol
 _atom_site_label
 _atom_site_symmetry_multiplicity
 _atom_site_fract_x
 _atom_site_fract_y
 _atom_site_fract_z
 _atom_site_occupancy
  Ca  Ca0  1  0.995971  0.833033  0.589534  1
  Zr  Zr1  1  0.497069  0.669749  0.592383  1
  Zr  Zr2  1  0.995986  0.828642  0.907966  1
  Zr  Zr3  1  0.505411  0.328704  0.092144  1
  Zr  Zr4  1  0.006382  0.174824  0.404936  1
  Zr  Zr5  1  0.506221  0.329450  0.407109  1
  Zr  Zr6  1  0.004718  0.169659  0.092877  1
  Zr  Zr7  1  0.494206  0.670945  0.908953  1
  Si  Si8  1  0.666356  0.960095  0.456227  1
  Si  Si9  1  0.166898  0.541786  0.043443  1
  Si  Si10  1  0.331900  0.042052  0.958092  1
  Si  Si11  1  0.833073  0.457813  0.543184  1
  Si  Si12  1  0.335343  0.041762  0.542561  1
  Si  Si13  1  0.832938  0.458214  0.958111  1
  Si  Si14  1  0.667390  0.958044  0.042637  1
  Si  Si15  1  0.167194  0.539980  0.455485  1
  Si  Si16  1  0.464390  0.380319  0.750956  1
  Si  Si17  1  0.964687  0.121923  0.750696  1
  Si  Si18  1  0.534168  0.618419  0.248814  1
  Si  Si19  1  0.034513  0.877446  0.251333  1
  Si  Si20  1  0.698700  0.858554  0.750184  1
  Si  Si21  1  0.199285  0.641795  0.750115  1
  Si  Si22  1  0.301333  0.139708  0.249382  1
  Si  Si23  1  0.799543  0.359239  0.249479  1
  W  W24  1  0.662010  0.167601  0.625547  1
  W  W25  1  0.167192  0.337734  0.876633  1
  W  W26  1  0.333677  0.836734  0.123913  1
  W  W27  1  0.829047  0.660985  0.374117  1
  W  W28  1  0.337281  0.835674  0.374675  1
  W  W29  1  0.832901  0.663414  0.124300  1
  W  W30  1  0.664377  0.164334  0.876803  1
  W  W31  1  0.167421  0.336129  0.624931  1
  W  W32  1  0.834237  0.502095  0.751961  1
  W  W33  1  0.335264  0.995957  0.751630  1
  W  W34  1  0.166106  0.490730  0.250064  1
  W  W35  1  0.666812  0.006459  0.248822  1
