# generated using pymatgen
data_Na2Ho(B3Rh4)2
_symmetry_space_group_name_H-M   'P 1'
_cell_length_a   9.79358102
_cell_length_b   8.94242794
_cell_length_c   5.58611511
_cell_angle_alpha   81.21559916
_cell_angle_beta   64.47270829
_cell_angle_gamma   34.31169854
_symmetry_Int_Tables_number   1
_chemical_formula_structural   Na2Ho(B3Rh4)2
_chemical_formula_sum   'Na2 Ho1 B6 Rh8'
_cell_volume   228.12602671
_cell_formula_units_Z   1
loop_
 _symmetry_equiv_pos_site_id
 _symmetry_equiv_pos_as_xyz
  1  'x, y, z'
loop_
 _atom_site_type_symbol
 _atom_site_label
 _atom_site_symmetry_multiplicity
 _atom_site_fract_x
 _atom_site_fract_y
 _atom_site_fract_z
 _atom_site_occupancy
  Na  Na0  1  0.312185  0.312185  0.687815  1
  Na  Na1  1  0.687815  0.687815  0.312185  1
  Ho  Ho2  1  0.500000  0.500000  0.500000  1
  B  B3  1  0.667906  0.986890  0.013110  1
  B  B4  1  0.986890  0.667906  0.332094  1
  B  B5  1  0.332094  0.013110  0.986890  1
  B  B6  1  0.013110  0.332094  0.667906  1
  B  B7  1  0.168560  0.831440  0.168560  1
  B  B8  1  0.831440  0.168560  0.831440  1
  Rh  Rh9  1  0.585224  0.585224  0.914776  1
  Rh  Rh10  1  0.912797  0.912797  0.087203  1
  Rh  Rh11  1  0.414776  0.414776  0.085224  1
  Rh  Rh12  1  0.085224  0.085224  0.414776  1
  Rh  Rh13  1  0.914776  0.914776  0.585224  1
  Rh  Rh14  1  0.250000  0.250000  0.250000  1
  Rh  Rh15  1  0.087203  0.087203  0.912797  1
  Rh  Rh16  1  0.750000  0.750000  0.750000  1
