# generated using pymatgen
data_MnSn2(ClO)2
_symmetry_space_group_name_H-M   'P 1'
_cell_length_a   6.40059106
_cell_length_b   6.40059081
_cell_length_c   7.88706078
_cell_angle_alpha   59.57236133
_cell_angle_beta   59.57236429
_cell_angle_gamma   33.51479562
_symmetry_Int_Tables_number   1
_chemical_formula_structural   MnSn2(ClO)2
_chemical_formula_sum   'Mn1 Sn2 Cl2 O2'
_cell_volume   151.41085153
_cell_formula_units_Z   1
loop_
 _symmetry_equiv_pos_site_id
 _symmetry_equiv_pos_as_xyz
  1  'x, y, z'
loop_
 _atom_site_type_symbol
 _atom_site_label
 _atom_site_symmetry_multiplicity
 _atom_site_fract_x
 _atom_site_fract_y
 _atom_site_fract_z
 _atom_site_occupancy
  Mn  Mn0  1  0.000000  0.000000  0.000000  1
  Sn  Sn1  1  0.191447  0.191447  0.221924  1
  Sn  Sn2  1  0.808553  0.808553  0.778076  1
  Cl  Cl3  1  0.437439  0.437439  0.268437  1
  Cl  Cl4  1  0.562561  0.562561  0.731563  1
  O  O5  1  0.191952  0.191952  0.940327  1
  O  O6  1  0.808048  0.808048  0.059673  1
