# generated using pymatgen
data_Pr12B3CCl12
_symmetry_space_group_name_H-M   'P 1'
_cell_length_a   9.84687005
_cell_length_b   9.84686864
_cell_length_c   9.84687003
_cell_angle_alpha   109.29834833
_cell_angle_beta   109.29834835
_cell_angle_gamma   109.29833787
_symmetry_Int_Tables_number   1
_chemical_formula_structural   Pr12B3CCl12
_chemical_formula_sum   'Pr12 B3 C1 Cl12'
_cell_volume   739.64201416
_cell_formula_units_Z   1
loop_
 _symmetry_equiv_pos_site_id
 _symmetry_equiv_pos_as_xyz
  1  'x, y, z'
loop_
 _atom_site_type_symbol
 _atom_site_label
 _atom_site_symmetry_multiplicity
 _atom_site_fract_x
 _atom_site_fract_y
 _atom_site_fract_z
 _atom_site_occupancy
  Pr  Pr0  1  0.470503  0.481677  0.237651  1
  Pr  Pr1  1  0.750000  0.238516  0.261484  1
  Pr  Pr2  1  0.750000  0.012278  0.487722  1
  Pr  Pr3  1  0.237651  0.470503  0.481677  1
  Pr  Pr4  1  0.261484  0.750000  0.238516  1
  Pr  Pr5  1  0.029497  0.262349  0.018323  1
  Pr  Pr6  1  0.018323  0.029497  0.262349  1
  Pr  Pr7  1  0.487722  0.750000  0.012278  1
  Pr  Pr8  1  0.481677  0.237651  0.470503  1
  Pr  Pr9  1  0.012278  0.487722  0.750000  1
  Pr  Pr10  1  0.262349  0.018323  0.029497  1
  Pr  Pr11  1  0.238516  0.261484  0.750000  1
  B  B12  1  0.499214  0.000786  0.250000  1
  B  B13  1  0.000786  0.250000  0.499214  1
  B  B14  1  0.250000  0.499214  0.000786  1
  C  C15  1  0.250000  0.250000  0.250000  1
  Cl  Cl16  1  0.250000  0.755363  0.744637  1
  Cl  Cl17  1  0.510462  0.505183  0.753551  1
  Cl  Cl18  1  0.989538  0.746449  0.994817  1
  Cl  Cl19  1  0.744637  0.250000  0.755363  1
  Cl  Cl20  1  0.994817  0.989538  0.746449  1
  Cl  Cl21  1  0.250000  0.994978  0.505022  1
  Cl  Cl22  1  0.753551  0.510462  0.505183  1
  Cl  Cl23  1  0.505022  0.250000  0.994978  1
  Cl  Cl24  1  0.755363  0.744637  0.250000  1
  Cl  Cl25  1  0.746449  0.994817  0.989538  1
  Cl  Cl26  1  0.994978  0.505022  0.250000  1
  Cl  Cl27  1  0.505183  0.753551  0.510462  1
