# generated using pymatgen
data_KCl30
_symmetry_space_group_name_H-M   'P 1'
_cell_length_a   13.05217541
_cell_length_b   13.05217579
_cell_length_c   15.36486800
_cell_angle_alpha   79.89564072
_cell_angle_beta   79.89564042
_cell_angle_gamma   111.89425675
_symmetry_Int_Tables_number   1
_chemical_formula_structural   KCl30
_chemical_formula_sum   'K1 Cl30'
_cell_volume   2306.46636076
_cell_formula_units_Z   1
loop_
 _symmetry_equiv_pos_site_id
 _symmetry_equiv_pos_as_xyz
  1  'x, y, z'
loop_
 _atom_site_type_symbol
 _atom_site_label
 _atom_site_symmetry_multiplicity
 _atom_site_fract_x
 _atom_site_fract_y
 _atom_site_fract_z
 _atom_site_occupancy
  K  K0  1  0.000000  0.000000  0.000000  1
  Cl  Cl1  1  0.935462  0.935462  0.208029  1
  Cl  Cl2  1  0.064538  0.064538  0.791971  1
  Cl  Cl3  1  0.169607  0.262028  0.005397  1
  Cl  Cl4  1  0.830393  0.737972  0.994603  1
  Cl  Cl5  1  0.262028  0.169607  0.005397  1
  Cl  Cl6  1  0.737972  0.830393  0.994603  1
  Cl  Cl7  1  0.201720  0.734979  0.069161  1
  Cl  Cl8  1  0.798280  0.265021  0.930839  1
  Cl  Cl9  1  0.671607  0.086509  0.265332  1
  Cl  Cl10  1  0.265021  0.798280  0.930839  1
  Cl  Cl11  1  0.328393  0.913491  0.734668  1
  Cl  Cl12  1  0.734979  0.201720  0.069161  1
  Cl  Cl13  1  0.985553  0.210174  0.754465  1
  Cl  Cl14  1  0.913491  0.328393  0.734668  1
  Cl  Cl15  1  0.014447  0.789826  0.245535  1
  Cl  Cl16  1  0.086509  0.671607  0.265332  1
  Cl  Cl17  1  0.789826  0.014447  0.245535  1
  Cl  Cl18  1  0.210174  0.985553  0.754465  1
  Cl  Cl19  1  0.463544  0.555809  0.262151  1
  Cl  Cl20  1  0.536456  0.444191  0.737849  1
  Cl  Cl21  1  0.520716  0.199076  0.451242  1
  Cl  Cl22  1  0.444191  0.536456  0.737849  1
  Cl  Cl23  1  0.479284  0.800924  0.548758  1
  Cl  Cl24  1  0.555809  0.463544  0.262151  1
  Cl  Cl25  1  0.242545  0.429994  0.544725  1
  Cl  Cl26  1  0.800924  0.479284  0.548758  1
  Cl  Cl27  1  0.757455  0.570006  0.455275  1
  Cl  Cl28  1  0.199076  0.520716  0.451242  1
  Cl  Cl29  1  0.570006  0.757455  0.455275  1
  Cl  Cl30  1  0.429994  0.242545  0.544725  1
