# generated using pymatgen
data_HoTm7B24Ru3W
_symmetry_space_group_name_H-M   'P 1'
_cell_length_a   3.60986500
_cell_length_b   9.11178892
_cell_length_c   11.49947802
_cell_angle_alpha   89.86156995
_cell_angle_beta   90.00000000
_cell_angle_gamma   90.00000000
_symmetry_Int_Tables_number   1
_chemical_formula_structural   HoTm7B24Ru3W
_chemical_formula_sum   'Ho1 Tm7 B24 Ru3 W1'
_cell_volume   378.24349769
_cell_formula_units_Z   1
loop_
 _symmetry_equiv_pos_site_id
 _symmetry_equiv_pos_as_xyz
  1  'x, y, z'
loop_
 _atom_site_type_symbol
 _atom_site_label
 _atom_site_symmetry_multiplicity
 _atom_site_fract_x
 _atom_site_fract_y
 _atom_site_fract_z
 _atom_site_occupancy
  Ho  Ho0  1  0.000000  0.321132  0.413688  1
  Tm  Tm1  1  0.000000  0.678049  0.585423  1
  Tm  Tm2  1  0.000000  0.820171  0.086899  1
  Tm  Tm3  1  0.000000  0.177179  0.914798  1
  Tm  Tm4  1  0.000000  0.946254  0.373379  1
  Tm  Tm5  1  0.000000  0.057581  0.628960  1
  Tm  Tm6  1  0.000000  0.442473  0.125555  1
  Tm  Tm7  1  0.000000  0.556858  0.871078  1
  B  B8  1  0.500000  0.550266  0.436993  1
  B  B9  1  0.500000  0.446052  0.568638  1
  B  B10  1  0.500000  0.053662  0.066240  1
  B  B11  1  0.500000  0.946332  0.933494  1
  B  B12  1  0.500000  0.752561  0.423126  1
  B  B13  1  0.500000  0.251317  0.581454  1
  B  B14  1  0.500000  0.248330  0.079374  1
  B  B15  1  0.500000  0.751208  0.919335  1
  B  B16  1  0.500000  0.796336  0.263518  1
  B  B17  1  0.500000  0.208272  0.734880  1
  B  B18  1  0.500000  0.290524  0.232214  1
  B  B19  1  0.500000  0.709062  0.765519  1
  B  B20  1  0.500000  0.632065  0.181275  1
  B  B21  1  0.500000  0.367975  0.815416  1
  B  B22  1  0.500000  0.131431  0.314272  1
  B  B23  1  0.500000  0.869360  0.685218  1
  B  B24  1  0.500000  0.983529  0.212386  1
  B  B25  1  0.500000  0.017622  0.788364  1
  B  B26  1  0.500000  0.476654  0.285992  1
  B  B27  1  0.500000  0.517006  0.713117  1
  B  B28  1  0.500000  0.605969  0.027259  1
  B  B29  1  0.500000  0.392667  0.969393  1
  B  B30  1  0.500000  0.106971  0.471516  1
  B  B31  1  0.500000  0.896519  0.530810  1
  Ru  Ru32  1  0.000000  0.361182  0.680687  1
  Ru  Ru33  1  0.000000  0.137402  0.177715  1
  Ru  Ru34  1  0.000000  0.862139  0.820767  1
  W  W35  1  0.000000  0.637893  0.321245  1
