# generated using pymatgen
data_CaEr5(MoO6)2
_symmetry_space_group_name_H-M   'P 1'
_cell_length_a   6.58578507
_cell_length_b   6.58825271
_cell_length_c   6.58636000
_cell_angle_alpha   92.10972061
_cell_angle_beta   92.08212204
_cell_angle_gamma   92.07580508
_symmetry_Int_Tables_number   1
_chemical_formula_structural   CaEr5(MoO6)2
_chemical_formula_sum   'Ca1 Er5 Mo2 O12'
_cell_volume   285.19019831
_cell_formula_units_Z   1
loop_
 _symmetry_equiv_pos_site_id
 _symmetry_equiv_pos_as_xyz
  1  'x, y, z'
loop_
 _atom_site_type_symbol
 _atom_site_label
 _atom_site_symmetry_multiplicity
 _atom_site_fract_x
 _atom_site_fract_y
 _atom_site_fract_z
 _atom_site_occupancy
  Ca  Ca0  1  0.559945  0.251741  0.064660  1
  Er  Er1  1  0.747746  0.932655  0.434929  1
  Er  Er2  1  0.931757  0.437996  0.750003  1
  Er  Er3  1  0.439917  0.749822  0.933392  1
  Er  Er4  1  0.250035  0.067005  0.563777  1
  Er  Er5  1  0.065790  0.560185  0.251867  1
  Mo  Mo6  1  0.499911  0.498619  0.497919  1
  Mo  Mo7  1  0.999054  0.998880  0.998939  1
  O  O8  1  0.593287  0.473343  0.796147  1
  O  O9  1  0.464938  0.802213  0.588067  1
  O  O10  1  0.808052  0.596335  0.465575  1
  O  O11  1  0.405860  0.549331  0.205423  1
  O  O12  1  0.535941  0.199262  0.423026  1
  O  O13  1  0.191250  0.403974  0.534351  1
  O  O14  1  0.069229  0.908317  0.312564  1
  O  O15  1  0.920453  0.312367  0.066427  1
  O  O16  1  0.690185  0.921309  0.095564  1
  O  O17  1  0.092499  0.685437  0.931554  1
  O  O18  1  0.928317  0.092731  0.686173  1
  O  O19  1  0.305830  0.058478  0.899640  1
