# generated using pymatgen
data_Ho3Cd3Pd2
_symmetry_space_group_name_H-M   'P 1'
_cell_length_a   7.49711000
_cell_length_b   7.64572699
_cell_length_c   3.67794100
_cell_angle_alpha   90.00000000
_cell_angle_beta   90.00000000
_cell_angle_gamma   119.35904677
_symmetry_Int_Tables_number   1
_chemical_formula_structural   Ho3Cd3Pd2
_chemical_formula_sum   'Ho3 Cd3 Pd2'
_cell_volume   183.74559894
_cell_formula_units_Z   1
loop_
 _symmetry_equiv_pos_site_id
 _symmetry_equiv_pos_as_xyz
  1  'x, y, z'
loop_
 _atom_site_type_symbol
 _atom_site_label
 _atom_site_symmetry_multiplicity
 _atom_site_fract_x
 _atom_site_fract_y
 _atom_site_fract_z
 _atom_site_occupancy
  Ho  Ho0  1  0.585092  0.000000  0.500000  1
  Ho  Ho1  1  0.420811  0.424943  0.500000  1
  Ho  Ho2  1  0.995868  0.575057  0.500000  1
  Cd  Cd3  1  0.228198  0.000000  0.000000  1
  Cd  Cd4  1  0.003698  0.232774  0.000000  1
  Cd  Cd5  1  0.770924  0.767226  0.000000  1
  Pd  Pd6  1  0.661067  0.326728  0.000000  1
  Pd  Pd7  1  0.334340  0.673272  0.000000  1
