# generated using pymatgen
data_Y8Zn3Si12Pt
_symmetry_space_group_name_H-M   'P 1'
_cell_length_a   8.12518000
_cell_length_b   8.12517628
_cell_length_c   8.12137100
_cell_angle_alpha   90.00003105
_cell_angle_beta   89.99985893
_cell_angle_gamma   120.00001513
_symmetry_Int_Tables_number   1
_chemical_formula_structural   Y8Zn3Si12Pt
_chemical_formula_sum   'Y8 Zn3 Si12 Pt1'
_cell_volume   464.32888266
_cell_formula_units_Z   1
loop_
 _symmetry_equiv_pos_site_id
 _symmetry_equiv_pos_as_xyz
  1  'x, y, z'
loop_
 _atom_site_type_symbol
 _atom_site_label
 _atom_site_symmetry_multiplicity
 _atom_site_fract_x
 _atom_site_fract_y
 _atom_site_fract_z
 _atom_site_occupancy
  Y  Y0  1  0.500784  0.001570  0.248769  1
  Y  Y1  1  0.499923  0.999844  0.751116  1
  Y  Y2  1  0.998430  0.499216  0.248769  1
  Y  Y3  1  0.000156  0.500078  0.751116  1
  Y  Y4  1  0.500784  0.499216  0.248769  1
  Y  Y5  1  0.499922  0.500077  0.751116  1
  Y  Y6  1  0.000001  0.000001  0.249612  1
  Y  Y7  1  0.000000  0.000000  0.750567  1
  Zn  Zn8  1  0.333333  0.666667  0.005760  1
  Zn  Zn9  1  0.666667  0.333333  0.995686  1
  Zn  Zn10  1  0.666667  0.333333  0.499360  1
  Si  Si11  1  0.166511  0.333024  0.997192  1
  Si  Si12  1  0.832932  0.665864  0.002564  1
  Si  Si13  1  0.666976  0.833488  0.997192  1
  Si  Si14  1  0.835107  0.670213  0.502087  1
  Si  Si15  1  0.334137  0.167068  0.002565  1
  Si  Si16  1  0.167389  0.334780  0.497663  1
  Si  Si17  1  0.166511  0.833488  0.997191  1
  Si  Si18  1  0.329787  0.164893  0.502087  1
  Si  Si19  1  0.832932  0.167068  0.002565  1
  Si  Si20  1  0.665220  0.832610  0.497662  1
  Si  Si21  1  0.835107  0.164893  0.502087  1
  Si  Si22  1  0.167390  0.832611  0.497663  1
  Pt  Pt23  1  0.333333  0.666666  0.500841  1
