# generated using pymatgen
data_La3Ga24TcPd8
_symmetry_space_group_name_H-M   'P 1'
_cell_length_a   8.56458401
_cell_length_b   8.56458501
_cell_length_c   8.56458401
_cell_angle_alpha   89.96989456
_cell_angle_beta   89.96989558
_cell_angle_gamma   89.96990227
_symmetry_Int_Tables_number   1
_chemical_formula_structural   La3Ga24TcPd8
_chemical_formula_sum   'La3 Ga24 Tc1 Pd8'
_cell_volume   628.23003064
_cell_formula_units_Z   1
loop_
 _symmetry_equiv_pos_site_id
 _symmetry_equiv_pos_as_xyz
  1  'x, y, z'
loop_
 _atom_site_type_symbol
 _atom_site_label
 _atom_site_symmetry_multiplicity
 _atom_site_fract_x
 _atom_site_fract_y
 _atom_site_fract_z
 _atom_site_occupancy
  La  La0  1  0.000000  0.500000  0.000000  1
  La  La1  1  0.500000  0.000000  0.000000  1
  La  La2  1  0.000000  0.000000  0.500000  1
  Ga  Ga3  1  0.989009  0.643081  0.643081  1
  Ga  Ga4  1  0.643081  0.643081  0.989009  1
  Ga  Ga5  1  0.643081  0.989009  0.643081  1
  Ga  Ga6  1  0.010991  0.356919  0.356919  1
  Ga  Ga7  1  0.356919  0.356919  0.010991  1
  Ga  Ga8  1  0.356919  0.010991  0.356919  1
  Ga  Ga9  1  0.734202  0.500000  0.265798  1
  Ga  Ga10  1  0.265798  0.500000  0.734202  1
  Ga  Ga11  1  0.500000  0.265798  0.734202  1
  Ga  Ga12  1  0.500000  0.734202  0.265798  1
  Ga  Ga13  1  0.265798  0.734202  0.500000  1
  Ga  Ga14  1  0.734202  0.265798  0.500000  1
  Ga  Ga15  1  0.839063  0.143659  0.839063  1
  Ga  Ga16  1  0.143659  0.839063  0.839063  1
  Ga  Ga17  1  0.839063  0.839063  0.143659  1
  Ga  Ga18  1  0.160937  0.856341  0.160937  1
  Ga  Ga19  1  0.856341  0.160937  0.160937  1
  Ga  Ga20  1  0.160937  0.160937  0.856341  1
  Ga  Ga21  1  0.726785  0.488887  0.726785  1
  Ga  Ga22  1  0.488887  0.726785  0.726785  1
  Ga  Ga23  1  0.726785  0.726785  0.488887  1
  Ga  Ga24  1  0.273215  0.511113  0.273215  1
  Ga  Ga25  1  0.511113  0.273215  0.273215  1
  Ga  Ga26  1  0.273215  0.273215  0.511113  1
  Tc  Tc27  1  0.500000  0.500000  0.500000  1
  Pd  Pd28  1  0.836527  0.836527  0.836527  1
  Pd  Pd29  1  0.163473  0.163473  0.163473  1
  Pd  Pd30  1  0.663254  0.336746  0.000000  1
  Pd  Pd31  1  0.000000  0.336746  0.663254  1
  Pd  Pd32  1  0.336746  0.000000  0.663254  1
  Pd  Pd33  1  0.336746  0.663254  0.000000  1
  Pd  Pd34  1  0.000000  0.663254  0.336746  1
  Pd  Pd35  1  0.663254  0.000000  0.336746  1
