# generated using pymatgen
data_Dy4Lu8Tc3Ir
_symmetry_space_group_name_H-M   'P 1'
_cell_length_a   6.20412770
_cell_length_b   7.37970236
_cell_length_c   8.90987300
_cell_angle_alpha   90.00000000
_cell_angle_beta   90.00000000
_cell_angle_gamma   90.01869208
_symmetry_Int_Tables_number   1
_chemical_formula_structural   Dy4Lu8Tc3Ir
_chemical_formula_sum   'Dy4 Lu8 Tc3 Ir1'
_cell_volume   407.93509075
_cell_formula_units_Z   1
loop_
 _symmetry_equiv_pos_site_id
 _symmetry_equiv_pos_as_xyz
  1  'x, y, z'
loop_
 _atom_site_type_symbol
 _atom_site_label
 _atom_site_symmetry_multiplicity
 _atom_site_fract_x
 _atom_site_fract_y
 _atom_site_fract_z
 _atom_site_occupancy
  Dy  Dy0  1  0.876855  0.540179  0.250000  1
  Dy  Dy1  1  0.622689  0.036668  0.250000  1
  Dy  Dy2  1  0.127603  0.458110  0.750000  1
  Dy  Dy3  1  0.375316  0.962008  0.750000  1
  Lu  Lu4  1  0.337010  0.674628  0.063651  1
  Lu  Lu5  1  0.156959  0.175919  0.437065  1
  Lu  Lu6  1  0.659568  0.324661  0.561625  1
  Lu  Lu7  1  0.841570  0.825517  0.937708  1
  Lu  Lu8  1  0.659568  0.324661  0.938375  1
  Lu  Lu9  1  0.841570  0.825517  0.562292  1
  Lu  Lu10  1  0.337010  0.674628  0.436349  1
  Lu  Lu11  1  0.156959  0.175919  0.062935  1
  Tc  Tc12  1  0.043947  0.881669  0.250000  1
  Tc  Tc13  1  0.460110  0.383455  0.250000  1
  Tc  Tc14  1  0.955207  0.118872  0.750000  1
  Ir  Ir15  1  0.548057  0.617590  0.750000  1
