# generated using pymatgen
data_CoBi3Ru2(RhO7)2
_symmetry_space_group_name_H-M   'P 1'
_cell_length_a   7.31840217
_cell_length_b   7.16926548
_cell_length_c   7.33630700
_cell_angle_alpha   59.22621762
_cell_angle_beta   59.91904027
_cell_angle_gamma   59.19268922
_symmetry_Int_Tables_number   1
_chemical_formula_structural   CoBi3Ru2(RhO7)2
_chemical_formula_sum   'Co1 Bi3 Ru2 Rh2 O14'
_cell_volume   268.71960509
_cell_formula_units_Z   1
loop_
 _symmetry_equiv_pos_site_id
 _symmetry_equiv_pos_as_xyz
  1  'x, y, z'
loop_
 _atom_site_type_symbol
 _atom_site_label
 _atom_site_symmetry_multiplicity
 _atom_site_fract_x
 _atom_site_fract_y
 _atom_site_fract_z
 _atom_site_occupancy
  Co  Co0  1  0.125000  0.625000  0.125000  1
  Bi  Bi1  1  0.125000  0.125000  0.125000  1
  Bi  Bi2  1  0.625000  0.125000  0.125000  1
  Bi  Bi3  1  0.125000  0.125000  0.625000  1
  Ru  Ru4  1  0.625000  0.625000  0.625000  1
  Ru  Ru5  1  0.625000  0.625000  0.125000  1
  Rh  Rh6  1  0.125000  0.625000  0.625000  1
  Rh  Rh7  1  0.625000  0.125000  0.625000  1
  O  O8  1  0.238414  0.287463  0.237062  1
  O  O9  1  0.297837  0.701193  0.290478  1
  O  O10  1  0.961553  0.964372  0.537038  1
  O  O11  1  0.543733  0.958618  0.538658  1
  O  O12  1  0.682793  0.705563  0.305822  1
  O  O13  1  0.952163  0.548807  0.539508  1
  O  O14  1  0.706267  0.291382  0.711342  1
  O  O15  1  0.288447  0.285628  0.712962  1
  O  O16  1  0.706267  0.291382  0.291009  1
  O  O17  1  0.297837  0.701193  0.710492  1
  O  O18  1  0.952163  0.548807  0.959522  1
  O  O19  1  0.567207  0.544437  0.944178  1
  O  O20  1  0.011586  0.962537  0.012938  1
  O  O21  1  0.543733  0.958618  0.958991  1
