# generated using pymatgen
data_Pu3Ga3Ge2Rh
_symmetry_space_group_name_H-M   'P 1'
_cell_length_a   6.97754426
_cell_length_b   6.97208019
_cell_length_c   4.30166600
_cell_angle_alpha   90.00000000
_cell_angle_beta   90.00000000
_cell_angle_gamma   120.11817463
_symmetry_Int_Tables_number   1
_chemical_formula_structural   Pu3Ga3Ge2Rh
_chemical_formula_sum   'Pu3 Ga3 Ge2 Rh1'
_cell_volume   181.01472242
_cell_formula_units_Z   1
loop_
 _symmetry_equiv_pos_site_id
 _symmetry_equiv_pos_as_xyz
  1  'x, y, z'
loop_
 _atom_site_type_symbol
 _atom_site_label
 _atom_site_symmetry_multiplicity
 _atom_site_fract_x
 _atom_site_fract_y
 _atom_site_fract_z
 _atom_site_occupancy
  Pu  Pu0  1  0.000269  0.416971  0.500000  1
  Pu  Pu1  1  0.583301  0.583105  0.500000  1
  Pu  Pu2  1  0.416776  0.999949  0.500000  1
  Ga  Ga3  1  0.000095  0.767381  0.000000  1
  Ga  Ga4  1  0.232683  0.232582  0.000000  1
  Ga  Ga5  1  0.767279  0.000065  0.000000  1
  Ge  Ge6  1  0.333286  0.666621  0.000000  1
  Ge  Ge7  1  0.666727  0.333353  0.000000  1
  Rh  Rh8  1  0.999585  0.999972  0.500000  1
