# generated using pymatgen
data_Rb3Na(ThTe3)2
_symmetry_space_group_name_H-M   'P 1'
_cell_length_a   8.13721023
_cell_length_b   8.13717678
_cell_length_c   8.93500383
_cell_angle_alpha   81.33053652
_cell_angle_beta   81.32970185
_cell_angle_gamma   119.99968258
_symmetry_Int_Tables_number   1
_chemical_formula_structural   Rb3Na(ThTe3)2
_chemical_formula_sum   'Rb3 Na1 Th2 Te6'
_cell_volume   488.52196435
_cell_formula_units_Z   1
loop_
 _symmetry_equiv_pos_site_id
 _symmetry_equiv_pos_as_xyz
  1  'x, y, z'
loop_
 _atom_site_type_symbol
 _atom_site_label
 _atom_site_symmetry_multiplicity
 _atom_site_fract_x
 _atom_site_fract_y
 _atom_site_fract_z
 _atom_site_occupancy
  Rb  Rb0  1  0.660884  0.339116  0.500001  1
  Rb  Rb1  1  0.339116  0.660884  0.499999  1
  Rb  Rb2  1  0.000000  0.000000  0.500000  1
  Na  Na3  1  0.500000  0.500000  0.000000  1
  Th  Th4  1  0.832619  0.167379  0.000002  1
  Th  Th5  1  0.167381  0.832621  0.999998  1
  Te  Te6  1  0.782700  0.782699  0.201428  1
  Te  Te7  1  0.217300  0.217301  0.798572  1
  Te  Te8  1  0.431726  0.081011  0.204005  1
  Te  Te9  1  0.568274  0.918989  0.795995  1
  Te  Te10  1  0.918981  0.568266  0.795997  1
  Te  Te11  1  0.081019  0.431734  0.204003  1
