# generated using pymatgen
data_Ce12Al6Ru5Au
_symmetry_space_group_name_H-M   'P 1'
_cell_length_a   7.83796054
_cell_length_b   7.86386521
_cell_length_c   9.85232294
_cell_angle_alpha   88.75534325
_cell_angle_beta   90.62434814
_cell_angle_gamma   120.10939063
_symmetry_Int_Tables_number   1
_chemical_formula_structural   Ce12Al6Ru5Au
_chemical_formula_sum   'Ce12 Al6 Ru5 Au1'
_cell_volume   525.20172880
_cell_formula_units_Z   1
loop_
 _symmetry_equiv_pos_site_id
 _symmetry_equiv_pos_as_xyz
  1  'x, y, z'
loop_
 _atom_site_type_symbol
 _atom_site_label
 _atom_site_symmetry_multiplicity
 _atom_site_fract_x
 _atom_site_fract_y
 _atom_site_fract_z
 _atom_site_occupancy
  Ce  Ce0  1  0.000000  0.616907  0.522511  1
  Ce  Ce1  1  0.578685  0.994759  0.504334  1
  Ce  Ce2  1  0.421315  0.416074  0.504334  1
  Ce  Ce3  1  0.000000  0.410411  0.000340  1
  Ce  Ce4  1  0.415220  0.997583  0.001188  1
  Ce  Ce5  1  0.584780  0.582363  0.001188  1
  Ce  Ce6  1  0.000000  0.741978  0.176527  1
  Ce  Ce7  1  0.727980  0.987492  0.163106  1
  Ce  Ce8  1  0.272020  0.259512  0.163106  1
  Ce  Ce9  1  0.000000  0.263945  0.675981  1
  Ce  Ce10  1  0.259948  0.004233  0.676603  1
  Ce  Ce11  1  0.740052  0.744284  0.676603  1
  Al  Al12  1  0.666714  0.333860  0.271861  1
  Al  Al13  1  0.333286  0.667146  0.271861  1
  Al  Al14  1  0.333672  0.667815  0.769797  1
  Al  Al15  1  0.666328  0.334142  0.769797  1
  Al  Al16  1  0.000000  0.997298  0.418830  1
  Al  Al17  1  0.000000  0.997935  0.921520  1
  Ru  Ru18  1  0.342570  0.999632  0.340270  1
  Ru  Ru19  1  0.657430  0.657063  0.340270  1
  Ru  Ru20  1  0.000000  0.656046  0.843555  1
  Ru  Ru21  1  0.658883  0.998633  0.837457  1
  Ru  Ru22  1  0.341117  0.339750  0.837457  1
  Au  Au23  1  0.000000  0.331139  0.340752  1
