# generated using pymatgen
data_Hf6Co15Si7Ir
_symmetry_space_group_name_H-M   'P 1'
_cell_length_a   8.03641514
_cell_length_b   8.03641440
_cell_length_c   8.05987805
_cell_angle_alpha   60.09625563
_cell_angle_beta   60.09625941
_cell_angle_gamma   60.00000243
_symmetry_Int_Tables_number   1
_chemical_formula_structural   Hf6Co15Si7Ir
_chemical_formula_sum   'Hf6 Co15 Si7 Ir1'
_cell_volume   368.61118265
_cell_formula_units_Z   1
loop_
 _symmetry_equiv_pos_site_id
 _symmetry_equiv_pos_as_xyz
  1  'x, y, z'
loop_
 _atom_site_type_symbol
 _atom_site_label
 _atom_site_symmetry_multiplicity
 _atom_site_fract_x
 _atom_site_fract_y
 _atom_site_fract_z
 _atom_site_occupancy
  Hf  Hf0  1  0.205018  0.796495  0.793470  1
  Hf  Hf1  1  0.797331  0.797331  0.204977  1
  Hf  Hf2  1  0.797331  0.200360  0.204977  1
  Hf  Hf3  1  0.205018  0.205018  0.793470  1
  Hf  Hf4  1  0.796495  0.205018  0.793470  1
  Hf  Hf5  1  0.200360  0.797331  0.204977  1
  Co  Co6  1  0.171391  0.484896  0.172323  1
  Co  Co7  1  0.859667  0.378179  0.383974  1
  Co  Co8  1  0.507026  0.832990  0.826992  1
  Co  Co9  1  0.484896  0.171391  0.172323  1
  Co  Co10  1  0.829506  0.829506  0.511480  1
  Co  Co11  1  0.171999  0.171999  0.484005  1
  Co  Co12  1  0.140024  0.620074  0.619828  1
  Co  Co13  1  0.171391  0.171391  0.172323  1
  Co  Co14  1  0.379573  0.379573  0.861281  1
  Co  Co15  1  0.620074  0.620074  0.619828  1
  Co  Co16  1  0.378179  0.859667  0.383974  1
  Co  Co17  1  0.378179  0.378179  0.383974  1
  Co  Co18  1  0.832990  0.832990  0.826992  1
  Co  Co19  1  0.620074  0.140024  0.619828  1
  Co  Co20  1  0.832990  0.507026  0.826992  1
  Si  Si21  1  0.500388  0.000342  0.498928  1
  Si  Si22  1  0.499483  0.499483  0.994308  1
  Si  Si23  1  0.495601  0.495601  0.513196  1
  Si  Si24  1  0.000342  0.000342  0.498928  1
  Si  Si25  1  0.006725  0.499483  0.994308  1
  Si  Si26  1  0.000342  0.500388  0.498928  1
  Si  Si27  1  0.499483  0.006725  0.994308  1
  Ir  Ir28  1  0.618122  0.618122  0.145634  1
