# generated using pymatgen
data_TmPu3(AsPt)4
_symmetry_space_group_name_H-M   'P 1'
_cell_length_a   4.30131500
_cell_length_b   4.30131520
_cell_length_c   15.26485000
_cell_angle_alpha   90.00000000
_cell_angle_beta   90.00000000
_cell_angle_gamma   120.00000617
_symmetry_Int_Tables_number   1
_chemical_formula_structural   TmPu3(AsPt)4
_chemical_formula_sum   'Tm1 Pu3 As4 Pt4'
_cell_volume   244.58265946
_cell_formula_units_Z   1
loop_
 _symmetry_equiv_pos_site_id
 _symmetry_equiv_pos_as_xyz
  1  'x, y, z'
loop_
 _atom_site_type_symbol
 _atom_site_label
 _atom_site_symmetry_multiplicity
 _atom_site_fract_x
 _atom_site_fract_y
 _atom_site_fract_z
 _atom_site_occupancy
  Tm  Tm0  1  0.000000  0.000000  0.750000  1
  Pu  Pu1  1  0.000000  0.000000  0.502331  1
  Pu  Pu2  1  0.000000  0.000000  0.997669  1
  Pu  Pu3  1  0.000000  0.000000  0.250000  1
  As  As4  1  0.333333  0.666667  0.886567  1
  As  As5  1  0.666667  0.333333  0.113764  1
  As  As6  1  0.666667  0.333333  0.386236  1
  As  As7  1  0.333333  0.666667  0.613433  1
  Pt  Pt8  1  0.333333  0.666667  0.370891  1
  Pt  Pt9  1  0.666667  0.333333  0.645150  1
  Pt  Pt10  1  0.666667  0.333333  0.854850  1
  Pt  Pt11  1  0.333333  0.666667  0.129109  1
