# generated using pymatgen
data_Dy3ZnIn3HgRu
_symmetry_space_group_name_H-M   'P 1'
_cell_length_a   7.83510900
_cell_length_b   7.83510924
_cell_length_c   3.89790400
_cell_angle_alpha   90.00000000
_cell_angle_beta   90.00000000
_cell_angle_gamma   119.99999477
_symmetry_Int_Tables_number   1
_chemical_formula_structural   Dy3ZnIn3HgRu
_chemical_formula_sum   'Dy3 Zn1 In3 Hg1 Ru1'
_cell_volume   207.22964926
_cell_formula_units_Z   1
loop_
 _symmetry_equiv_pos_site_id
 _symmetry_equiv_pos_as_xyz
  1  'x, y, z'
loop_
 _atom_site_type_symbol
 _atom_site_label
 _atom_site_symmetry_multiplicity
 _atom_site_fract_x
 _atom_site_fract_y
 _atom_site_fract_z
 _atom_site_occupancy
  Dy  Dy0  1  0.578552  0.611355  0.000000  1
  Dy  Dy1  1  0.388645  0.967197  0.000000  1
  Dy  Dy2  1  0.032803  0.421448  0.000000  1
  Zn  Zn3  1  0.000000  0.000000  0.000000  1
  In  In4  1  0.006657  0.743695  0.500000  1
  In  In5  1  0.256305  0.262963  0.500000  1
  In  In6  1  0.737037  0.993343  0.500000  1
  Hg  Hg7  1  0.666667  0.333333  0.500000  1
  Ru  Ru8  1  0.333333  0.666667  0.500000  1
