# generated using pymatgen
data_Li7Nd4Co12P12Rh
_symmetry_space_group_name_H-M   'P 1'
_cell_length_a   3.75841200
_cell_length_b   10.44192461
_cell_length_c   12.57625914
_cell_angle_alpha   89.87451002
_cell_angle_beta   90.00000000
_cell_angle_gamma   90.00000000
_symmetry_Int_Tables_number   1
_chemical_formula_structural   Li7Nd4Co12P12Rh
_chemical_formula_sum   'Li7 Nd4 Co12 P12 Rh1'
_cell_volume   493.55479448
_cell_formula_units_Z   1
loop_
 _symmetry_equiv_pos_site_id
 _symmetry_equiv_pos_as_xyz
  1  'x, y, z'
loop_
 _atom_site_type_symbol
 _atom_site_label
 _atom_site_symmetry_multiplicity
 _atom_site_fract_x
 _atom_site_fract_y
 _atom_site_fract_z
 _atom_site_occupancy
  Li  Li0  1  0.250000  0.703808  0.992996  1
  Li  Li1  1  0.250000  0.800648  0.491734  1
  Li  Li2  1  0.750000  0.298309  0.011025  1
  Li  Li3  1  0.750000  0.199656  0.508653  1
  Li  Li4  1  0.250000  0.398836  0.494758  1
  Li  Li5  1  0.250000  0.092794  0.995197  1
  Li  Li6  1  0.750000  0.603819  0.502962  1
  Nd  Nd7  1  0.250000  0.582528  0.712114  1
  Nd  Nd8  1  0.250000  0.915818  0.212158  1
  Nd  Nd9  1  0.750000  0.417406  0.287483  1
  Nd  Nd10  1  0.750000  0.083430  0.791332  1
  Co  Co11  1  0.250000  0.214198  0.174508  1
  Co  Co12  1  0.250000  0.281909  0.676069  1
  Co  Co13  1  0.750000  0.779778  0.824579  1
  Co  Co14  1  0.750000  0.719241  0.318089  1
  Co  Co15  1  0.250000  0.883525  0.697684  1
  Co  Co16  1  0.250000  0.620358  0.188818  1
  Co  Co17  1  0.750000  0.116497  0.305490  1
  Co  Co18  1  0.750000  0.381093  0.808525  1
  Co  Co19  1  0.250000  0.468022  0.935197  1
  Co  Co20  1  0.250000  0.032767  0.436115  1
  Co  Co21  1  0.750000  0.530070  0.064883  1
  Co  Co22  1  0.750000  0.968275  0.566435  1
  P  P23  1  0.250000  0.419307  0.109480  1
  P  P24  1  0.250000  0.079219  0.610815  1
  P  P25  1  0.750000  0.577744  0.891124  1
  P  P26  1  0.750000  0.921427  0.390892  1
  P  P27  1  0.250000  0.283116  0.852815  1
  P  P28  1  0.250000  0.215937  0.351284  1
  P  P29  1  0.750000  0.720974  0.137190  1
  P  P30  1  0.750000  0.784377  0.648857  1
  P  P31  1  0.250000  0.617594  0.368741  1
  P  P32  1  0.250000  0.886712  0.879617  1
  P  P33  1  0.750000  0.384730  0.626833  1
  P  P34  1  0.750000  0.107017  0.123687  1
  Rh  Rh35  1  0.750000  0.909062  0.011861  1
