# generated using pymatgen
data_CeMoH5
_symmetry_space_group_name_H-M   'P 1'
_cell_length_a   4.68103000
_cell_length_b   4.69175200
_cell_length_c   11.99867700
_cell_angle_alpha   90.00000000
_cell_angle_beta   90.00000000
_cell_angle_gamma   90.00000000
_symmetry_Int_Tables_number   1
_chemical_formula_structural   CeMoH5
_chemical_formula_sum   'Ce4 Mo4 H20'
_cell_volume   263.51772634
_cell_formula_units_Z   4
loop_
 _symmetry_equiv_pos_site_id
 _symmetry_equiv_pos_as_xyz
  1  'x, y, z'
loop_
 _atom_site_type_symbol
 _atom_site_label
 _atom_site_symmetry_multiplicity
 _atom_site_fract_x
 _atom_site_fract_y
 _atom_site_fract_z
 _atom_site_occupancy
  Ce  Ce0  1  0.750732  0.752402  0.853502  1
  Ce  Ce1  1  0.250732  0.747598  0.146498  1
  Ce  Ce2  1  0.749268  0.247598  0.353502  1
  Ce  Ce3  1  0.249268  0.252402  0.646498  1
  Mo  Mo4  1  0.251168  0.210176  0.926859  1
  Mo  Mo5  1  0.751168  0.289824  0.073141  1
  Mo  Mo6  1  0.248832  0.789824  0.426859  1
  Mo  Mo7  1  0.748832  0.710176  0.573141  1
  H  H8  1  0.520644  0.995609  0.002308  1
  H  H9  1  0.020644  0.504391  0.997692  1
  H  H10  1  0.979356  0.004391  0.502308  1
  H  H11  1  0.479356  0.495609  0.497692  1
  H  H12  1  0.250994  0.919165  0.831021  1
  H  H13  1  0.750994  0.580835  0.168979  1
  H  H14  1  0.249006  0.080835  0.331021  1
  H  H15  1  0.749006  0.419165  0.668979  1
  H  H16  1  0.509184  0.178037  0.182168  1
  H  H17  1  0.009184  0.321963  0.817832  1
  H  H18  1  0.990816  0.821963  0.682168  1
  H  H19  1  0.490816  0.678037  0.317832  1
  H  H20  1  0.491738  0.322616  0.817488  1
  H  H21  1  0.991738  0.177384  0.182512  1
  H  H22  1  0.008262  0.677384  0.317488  1
  H  H23  1  0.508262  0.822616  0.682512  1
  H  H24  1  0.981977  0.995517  0.002328  1
  H  H25  1  0.481977  0.504483  0.997672  1
  H  H26  1  0.518023  0.004483  0.502328  1
  H  H27  1  0.018023  0.495517  0.497672  1
