# generated using pymatgen
data_NdPu2(CdAu)3
_symmetry_space_group_name_H-M   'P 1'
_cell_length_a   7.91798107
_cell_length_b   7.91798106
_cell_length_c   4.01897500
_cell_angle_alpha   90.00000000
_cell_angle_beta   90.00000000
_cell_angle_gamma   120.43507978
_symmetry_Int_Tables_number   1
_chemical_formula_structural   NdPu2(CdAu)3
_chemical_formula_sum   'Nd1 Pu2 Cd3 Au3'
_cell_volume   217.24715449
_cell_formula_units_Z   1
loop_
 _symmetry_equiv_pos_site_id
 _symmetry_equiv_pos_as_xyz
  1  'x, y, z'
loop_
 _atom_site_type_symbol
 _atom_site_label
 _atom_site_symmetry_multiplicity
 _atom_site_fract_x
 _atom_site_fract_y
 _atom_site_fract_z
 _atom_site_occupancy
  Nd  Nd0  1  0.407776  0.407776  0.000000  1
  Pu  Pu1  1  0.594213  0.001293  0.000000  1
  Pu  Pu2  1  0.001293  0.594213  0.000000  1
  Cd  Cd3  1  0.256933  0.998696  0.500000  1
  Cd  Cd4  1  0.998696  0.256933  0.500000  1
  Cd  Cd5  1  0.743049  0.743049  0.500000  1
  Au  Au6  1  0.331880  0.668156  0.500000  1
  Au  Au7  1  0.668156  0.331880  0.500000  1
  Au  Au8  1  0.998003  0.998003  0.000000  1
