# generated using pymatgen
data_Tm15LuMgCo4Ag3
_symmetry_space_group_name_H-M   'P 1'
_cell_length_a   9.29089753
_cell_length_b   9.30011959
_cell_length_c   9.30012001
_cell_angle_alpha   60.00418532
_cell_angle_beta   59.97323715
_cell_angle_gamma   59.97323957
_symmetry_Int_Tables_number   1
_chemical_formula_structural   Tm15LuMgCo4Ag3
_chemical_formula_sum   'Tm15 Lu1 Mg1 Co4 Ag3'
_cell_volume   568.01223518
_cell_formula_units_Z   1
loop_
 _symmetry_equiv_pos_site_id
 _symmetry_equiv_pos_as_xyz
  1  'x, y, z'
loop_
 _atom_site_type_symbol
 _atom_site_label
 _atom_site_symmetry_multiplicity
 _atom_site_fract_x
 _atom_site_fract_y
 _atom_site_fract_z
 _atom_site_occupancy
  Tm  Tm0  1  0.346468  0.345408  0.962790  1
  Tm  Tm1  1  0.346468  0.962790  0.345408  1
  Tm  Tm2  1  0.952685  0.349131  0.349131  1
  Tm  Tm3  1  0.809569  0.189195  0.189195  1
  Tm  Tm4  1  0.185699  0.813788  0.813788  1
  Tm  Tm5  1  0.185832  0.813622  0.186752  1
  Tm  Tm6  1  0.809715  0.189071  0.812043  1
  Tm  Tm7  1  0.185832  0.186752  0.813622  1
  Tm  Tm8  1  0.809715  0.812043  0.189071  1
  Tm  Tm9  1  0.935178  0.562644  0.562644  1
  Tm  Tm10  1  0.561945  0.937180  0.937180  1
  Tm  Tm11  1  0.561848  0.937321  0.563612  1
  Tm  Tm12  1  0.935043  0.562724  0.939494  1
  Tm  Tm13  1  0.561848  0.563612  0.937321  1
  Tm  Tm14  1  0.935043  0.939494  0.562724  1
  Lu  Lu15  1  0.346333  0.345292  0.345292  1
  Mg  Mg16  1  0.287688  0.570716  0.570716  1
  Co  Co17  1  0.138694  0.142520  0.142520  1
  Co  Co18  1  0.138903  0.142748  0.576062  1
  Co  Co19  1  0.138903  0.576062  0.142748  1
  Co  Co20  1  0.575854  0.141511  0.141511  1
  Ag  Ag21  1  0.583614  0.582905  0.582905  1
  Ag  Ag22  1  0.583563  0.582848  0.250623  1
  Ag  Ag23  1  0.583563  0.250623  0.582848  1
