# generated using pymatgen
data_Hf6C4O
_symmetry_space_group_name_H-M   'P 1'
_cell_length_a   5.67755225
_cell_length_b   5.67754969
_cell_length_c   5.65178699
_cell_angle_alpha   99.71210124
_cell_angle_beta   99.71206204
_cell_angle_gamma   119.87268427
_symmetry_Int_Tables_number   1
_chemical_formula_structural   Hf6C4O
_chemical_formula_sum   'Hf6 C4 O1'
_cell_volume   148.75052876
_cell_formula_units_Z   1
loop_
 _symmetry_equiv_pos_site_id
 _symmetry_equiv_pos_as_xyz
  1  'x, y, z'
loop_
 _atom_site_type_symbol
 _atom_site_label
 _atom_site_symmetry_multiplicity
 _atom_site_fract_x
 _atom_site_fract_y
 _atom_site_fract_z
 _atom_site_occupancy
  Hf  Hf0  1  0.426947  0.079186  0.258820  1
  Hf  Hf1  1  0.090451  0.432403  0.254898  1
  Hf  Hf2  1  0.740229  0.747380  0.264681  1
  Hf  Hf3  1  0.252619  0.259770  0.735318  1
  Hf  Hf4  1  0.920813  0.573052  0.741179  1
  Hf  Hf5  1  0.567599  0.909550  0.745103  1
  C  C6  1  0.333736  0.666263  0.999999  1
  C  C7  1  0.832415  0.167583  0.499999  1
  C  C8  1  0.500822  0.499177  0.499999  1
  C  C9  1  0.167001  0.833000  0.500000  1
  O  O10  1  0.667366  0.332633  0.999999  1
