# generated using pymatgen
data_Dy6Al24IrRu7
_symmetry_space_group_name_H-M   'P 1'
_cell_length_a   8.80860200
_cell_length_b   8.81505964
_cell_length_c   9.56444884
_cell_angle_alpha   89.93300362
_cell_angle_beta   90.00000000
_cell_angle_gamma   119.97576978
_symmetry_Int_Tables_number   1
_chemical_formula_structural   Dy6Al24IrRu7
_chemical_formula_sum   'Dy6 Al24 Ir1 Ru7'
_cell_volume   643.32201348
_cell_formula_units_Z   1
loop_
 _symmetry_equiv_pos_site_id
 _symmetry_equiv_pos_as_xyz
  1  'x, y, z'
loop_
 _atom_site_type_symbol
 _atom_site_label
 _atom_site_symmetry_multiplicity
 _atom_site_fract_x
 _atom_site_fract_y
 _atom_site_fract_z
 _atom_site_occupancy
  Dy  Dy0  1  0.193114  0.806727  0.250747  1
  Dy  Dy1  1  0.194103  0.388205  0.249600  1
  Dy  Dy2  1  0.613612  0.806727  0.250747  1
  Dy  Dy3  1  0.806886  0.193273  0.749253  1
  Dy  Dy4  1  0.805897  0.611795  0.750400  1
  Dy  Dy5  1  0.386388  0.193273  0.749253  1
  Al  Al6  1  0.561201  0.438785  0.250494  1
  Al  Al7  1  0.561574  0.123148  0.249430  1
  Al  Al8  1  0.877584  0.438785  0.250494  1
  Al  Al9  1  0.438799  0.561215  0.749506  1
  Al  Al10  1  0.438426  0.876852  0.750570  1
  Al  Al11  1  0.122416  0.561215  0.749506  1
  Al  Al12  1  0.324288  0.163398  0.422570  1
  Al  Al13  1  0.839111  0.163398  0.422570  1
  Al  Al14  1  0.837760  0.675522  0.422556  1
  Al  Al15  1  0.675712  0.836602  0.577430  1
  Al  Al16  1  0.160889  0.836602  0.577430  1
  Al  Al17  1  0.162240  0.324478  0.577444  1
  Al  Al18  1  0.675850  0.838138  0.922140  1
  Al  Al19  1  0.162289  0.838138  0.922140  1
  Al  Al20  1  0.162262  0.324525  0.921946  1
  Al  Al21  1  0.324150  0.161862  0.077860  1
  Al  Al22  1  0.837711  0.161862  0.077860  1
  Al  Al23  1  0.837738  0.675475  0.078054  1
  Al  Al24  1  0.667385  0.334769  0.518214  1
  Al  Al25  1  0.332615  0.665231  0.481786  1
  Al  Al26  1  0.333488  0.666976  0.017221  1
  Al  Al27  1  0.666512  0.333024  0.982779  1
  Al  Al28  1  0.000272  0.000545  0.250073  1
  Al  Al29  1  0.999728  0.999455  0.749927  1
  Ir  Ir30  1  0.500000  0.000000  0.500000  1
  Ru  Ru31  1  0.000000  0.000000  0.500000  1
  Ru  Ru32  1  0.000000  0.000000  0.000000  1
  Ru  Ru33  1  0.500000  0.500000  0.500000  1
  Ru  Ru34  1  0.000000  0.500000  0.500000  1
  Ru  Ru35  1  0.500000  0.500000  0.000000  1
  Ru  Ru36  1  0.500000  0.000000  0.000000  1
  Ru  Ru37  1  0.000000  0.500000  0.000000  1
