# generated using pymatgen
data_PrNd2Al12Ir3Os
_symmetry_space_group_name_H-M   'P 1'
_cell_length_a   8.92337600
_cell_length_b   8.92053496
_cell_length_c   9.62534100
_cell_angle_alpha   90.00000000
_cell_angle_beta   90.00000000
_cell_angle_gamma   120.01054332
_symmetry_Int_Tables_number   1
_chemical_formula_structural   PrNd2Al12Ir3Os
_chemical_formula_sum   'Pr2 Nd4 Al24 Ir6 Os2'
_cell_volume   663.46909632
_cell_formula_units_Z   2
loop_
 _symmetry_equiv_pos_site_id
 _symmetry_equiv_pos_as_xyz
  1  'x, y, z'
loop_
 _atom_site_type_symbol
 _atom_site_label
 _atom_site_symmetry_multiplicity
 _atom_site_fract_x
 _atom_site_fract_y
 _atom_site_fract_z
 _atom_site_occupancy
  Pr  Pr0  1  0.190829  0.381659  0.250000  1
  Pr  Pr1  1  0.809171  0.618341  0.750000  1
  Nd  Nd2  1  0.618394  0.809214  0.250000  1
  Nd  Nd3  1  0.381606  0.190786  0.750000  1
  Nd  Nd4  1  0.190820  0.809214  0.250000  1
  Nd  Nd5  1  0.809180  0.190786  0.750000  1
  Al  Al6  1  0.333394  0.666790  0.013487  1
  Al  Al7  1  0.666606  0.333210  0.986513  1
  Al  Al8  1  0.666606  0.333210  0.513487  1
  Al  Al9  1  0.333394  0.666790  0.486513  1
  Al  Al10  1  0.163197  0.326395  0.575237  1
  Al  Al11  1  0.836803  0.673605  0.424763  1
  Al  Al12  1  0.673564  0.836875  0.575086  1
  Al  Al13  1  0.836803  0.673605  0.075237  1
  Al  Al14  1  0.326436  0.163125  0.424914  1
  Al  Al15  1  0.163197  0.326395  0.924763  1
  Al  Al16  1  0.163310  0.836875  0.575086  1
  Al  Al17  1  0.326436  0.163125  0.075086  1
  Al  Al18  1  0.836690  0.163125  0.424914  1
  Al  Al19  1  0.673564  0.836875  0.924914  1
  Al  Al20  1  0.836690  0.163125  0.075086  1
  Al  Al21  1  0.163310  0.836875  0.924914  1
  Al  Al22  1  0.562957  0.125915  0.250000  1
  Al  Al23  1  0.437043  0.874085  0.750000  1
  Al  Al24  1  0.873932  0.437072  0.250000  1
  Al  Al25  1  0.126068  0.562928  0.750000  1
  Al  Al26  1  0.563140  0.437072  0.250000  1
  Al  Al27  1  0.436860  0.562928  0.750000  1
  Al  Al28  1  0.999908  0.999816  0.250000  1
  Al  Al29  1  0.000092  0.000184  0.750000  1
  Ir  Ir30  1  0.500000  0.000000  0.000000  1
  Ir  Ir31  1  0.000000  0.500000  0.000000  1
  Ir  Ir32  1  0.500000  0.000000  0.500000  1
  Ir  Ir33  1  0.500000  0.500000  0.000000  1
  Ir  Ir34  1  0.000000  0.500000  0.500000  1
  Ir  Ir35  1  0.500000  0.500000  0.500000  1
  Os  Os36  1  0.000000  0.000000  0.000000  1
  Os  Os37  1  0.000000  0.000000  0.500000  1
