# generated using pymatgen
data_Tm2Lu2NbOs7
_symmetry_space_group_name_H-M   'P 1'
_cell_length_a   5.41575100
_cell_length_b   5.41568865
_cell_length_c   8.59912700
_cell_angle_alpha   89.99997289
_cell_angle_beta   89.99935699
_cell_angle_gamma   120.00172331
_symmetry_Int_Tables_number   1
_chemical_formula_structural   Tm2Lu2NbOs7
_chemical_formula_sum   'Tm2 Lu2 Nb1 Os7'
_cell_volume   218.41870613
_cell_formula_units_Z   1
loop_
 _symmetry_equiv_pos_site_id
 _symmetry_equiv_pos_as_xyz
  1  'x, y, z'
loop_
 _atom_site_type_symbol
 _atom_site_label
 _atom_site_symmetry_multiplicity
 _atom_site_fract_x
 _atom_site_fract_y
 _atom_site_fract_z
 _atom_site_occupancy
  Tm  Tm0  1  0.333335  0.666671  0.061641  1
  Tm  Tm1  1  0.666665  0.333329  0.938359  1
  Lu  Lu2  1  0.666670  0.333338  0.571527  1
  Lu  Lu3  1  0.333330  0.666662  0.428473  1
  Nb  Nb4  1  0.000000  0.000000  0.500000  1
  Os  Os5  1  0.000000  0.000000  0.000000  1
  Os  Os6  1  0.174309  0.348627  0.751420  1
  Os  Os7  1  0.174313  0.825700  0.751416  1
  Os  Os8  1  0.651374  0.825690  0.751419  1
  Os  Os9  1  0.825691  0.651373  0.248580  1
  Os  Os10  1  0.825687  0.174300  0.248584  1
  Os  Os11  1  0.348626  0.174310  0.248581  1
