# generated using pymatgen
data_Gd2TcMoC3
_symmetry_space_group_name_H-M   'P 1'
_cell_length_a   6.12484842
_cell_length_b   6.12484855
_cell_length_c   5.76999041
_cell_angle_alpha   66.99140675
_cell_angle_beta   66.99140768
_cell_angle_gamma   32.24615044
_symmetry_Int_Tables_number   1
_chemical_formula_structural   Gd2TcMoC3
_chemical_formula_sum   'Gd2 Tc1 Mo1 C3'
_cell_volume   105.49905510
_cell_formula_units_Z   1
loop_
 _symmetry_equiv_pos_site_id
 _symmetry_equiv_pos_as_xyz
  1  'x, y, z'
loop_
 _atom_site_type_symbol
 _atom_site_label
 _atom_site_symmetry_multiplicity
 _atom_site_fract_x
 _atom_site_fract_y
 _atom_site_fract_z
 _atom_site_occupancy
  Gd  Gd0  1  0.391719  0.391719  0.819028  1
  Gd  Gd1  1  0.607500  0.607500  0.176099  1
  Tc  Tc2  1  0.160908  0.160908  0.679309  1
  Mo  Mo3  1  0.839644  0.839644  0.324045  1
  C  C4  1  0.001957  0.001957  0.998886  1
  C  C5  1  0.248223  0.248223  0.272427  1
  C  C6  1  0.750048  0.750048  0.730205  1
