# generated using pymatgen
data_PaAsP
_symmetry_space_group_name_H-M   'P 1'
_cell_length_a   3.92678700
_cell_length_b   3.92678700
_cell_length_c   8.02519800
_cell_angle_alpha   90.00000000
_cell_angle_beta   90.00000000
_cell_angle_gamma   90.00000000
_symmetry_Int_Tables_number   1
_chemical_formula_structural   PaAsP
_chemical_formula_sum   'Pa2 As2 P2'
_cell_volume   123.74579364
_cell_formula_units_Z   2
loop_
 _symmetry_equiv_pos_site_id
 _symmetry_equiv_pos_as_xyz
  1  'x, y, z'
loop_
 _atom_site_type_symbol
 _atom_site_label
 _atom_site_symmetry_multiplicity
 _atom_site_fract_x
 _atom_site_fract_y
 _atom_site_fract_z
 _atom_site_occupancy
  Pa  Pa0  1  0.000000  0.500000  0.291789  1
  Pa  Pa1  1  0.500000  0.000000  0.708211  1
  As  As2  1  0.500000  0.500000  0.000000  1
  As  As3  1  0.000000  0.000000  0.000000  1
  P  P4  1  0.000000  0.500000  0.640499  1
  P  P5  1  0.500000  0.000000  0.359501  1
