# generated using pymatgen
data_TbYb3Pt8
_symmetry_space_group_name_H-M   'P 1'
_cell_length_a   9.38730265
_cell_length_b   9.38730228
_cell_length_c   9.38730329
_cell_angle_alpha   33.58707259
_cell_angle_beta   33.58707524
_cell_angle_gamma   33.58707286
_symmetry_Int_Tables_number   1
_chemical_formula_structural   TbYb3Pt8
_chemical_formula_sum   'Tb1 Yb3 Pt8'
_cell_volume   225.50527073
_cell_formula_units_Z   1
loop_
 _symmetry_equiv_pos_site_id
 _symmetry_equiv_pos_as_xyz
  1  'x, y, z'
loop_
 _atom_site_type_symbol
 _atom_site_label
 _atom_site_symmetry_multiplicity
 _atom_site_fract_x
 _atom_site_fract_y
 _atom_site_fract_z
 _atom_site_occupancy
  Tb  Tb0  1  0.812038  0.812038  0.812038  1
  Yb  Yb1  1  0.312705  0.312705  0.312705  1
  Yb  Yb2  1  0.685681  0.685681  0.685681  1
  Yb  Yb3  1  0.189557  0.189557  0.189557  1
  Pt  Pt4  1  0.500121  0.500121  0.500121  1
  Pt  Pt5  1  0.999938  0.999938  0.999938  1
  Pt  Pt6  1  0.249842  0.249842  0.751623  1
  Pt  Pt7  1  0.749897  0.749897  0.248857  1
  Pt  Pt8  1  0.249842  0.751623  0.249842  1
  Pt  Pt9  1  0.749897  0.248857  0.749897  1
  Pt  Pt10  1  0.751623  0.249842  0.249842  1
  Pt  Pt11  1  0.248857  0.749897  0.749897  1
