# generated using pymatgen
data_Tb2Gd4RhO12
_symmetry_space_group_name_H-M   'P 1'
_cell_length_a   6.53569093
_cell_length_b   6.52889686
_cell_length_c   6.53311833
_cell_angle_alpha   98.54514695
_cell_angle_beta   98.67982417
_cell_angle_gamma   98.58185272
_symmetry_Int_Tables_number   1
_chemical_formula_structural   Tb2Gd4RhO12
_chemical_formula_sum   'Tb2 Gd4 Rh1 O12'
_cell_volume   268.28798749
_cell_formula_units_Z   1
loop_
 _symmetry_equiv_pos_site_id
 _symmetry_equiv_pos_as_xyz
  1  'x, y, z'
loop_
 _atom_site_type_symbol
 _atom_site_label
 _atom_site_symmetry_multiplicity
 _atom_site_fract_x
 _atom_site_fract_y
 _atom_site_fract_z
 _atom_site_occupancy
  Tb  Tb0  1  0.856829  0.387741  0.691527  1
  Tb  Tb1  1  0.612386  0.307989  0.142290  1
  Gd  Gd2  1  0.309334  0.143309  0.610610  1
  Gd  Gd3  1  0.692897  0.858187  0.390366  1
  Gd  Gd4  1  0.390586  0.691042  0.858334  1
  Gd  Gd5  1  0.140984  0.608252  0.307045  1
  Rh  Rh6  1  0.000216  0.000063  0.999973  1
  O  O7  1  0.931647  0.039321  0.701267  1
  O  O8  1  0.960430  0.299427  0.067084  1
  O  O9  1  0.592253  0.178497  0.436680  1
  O  O10  1  0.821670  0.561852  0.409028  1
  O  O11  1  0.299406  0.070276  0.964983  1
  O  O12  1  0.564948  0.409216  0.823351  1
  O  O13  1  0.436748  0.588799  0.177866  1
  O  O14  1  0.700967  0.933301  0.037150  1
  O  O15  1  0.176244  0.436378  0.591331  1
  O  O16  1  0.408975  0.822357  0.563314  1
  O  O17  1  0.035077  0.700780  0.929664  1
  O  O18  1  0.068404  0.963213  0.298138  1
