# generated using pymatgen
data_Li30Pd3Pt5
_symmetry_space_group_name_H-M   'P 1'
_cell_length_a   9.09112697
_cell_length_b   9.09112693
_cell_length_c   9.07843000
_cell_angle_alpha   109.44292920
_cell_angle_beta   109.44292911
_cell_angle_gamma   109.49949743
_symmetry_Int_Tables_number   1
_chemical_formula_structural   Li30Pd3Pt5
_chemical_formula_sum   'Li30 Pd3 Pt5'
_cell_volume   577.79771404
_cell_formula_units_Z   1
loop_
 _symmetry_equiv_pos_site_id
 _symmetry_equiv_pos_as_xyz
  1  'x, y, z'
loop_
 _atom_site_type_symbol
 _atom_site_label
 _atom_site_symmetry_multiplicity
 _atom_site_fract_x
 _atom_site_fract_y
 _atom_site_fract_z
 _atom_site_occupancy
  Li  Li0  1  0.872630  0.249954  0.122548  1
  Li  Li1  1  0.626471  0.751699  0.377639  1
  Li  Li2  1  0.250046  0.122677  0.872595  1
  Li  Li3  1  0.748301  0.374772  0.625940  1
  Li  Li4  1  0.125228  0.873529  0.251168  1
  Li  Li5  1  0.377323  0.627370  0.749918  1
  Li  Li6  1  0.778741  0.695943  0.157619  1
  Li  Li7  1  0.461898  0.805356  0.581668  1
  Li  Li8  1  0.038375  0.621293  0.342408  1
  Li  Li9  1  0.721144  0.878893  0.917108  1
  Li  Li10  1  0.654489  0.193546  0.275105  1
  Li  Li11  1  0.079376  0.305196  0.960789  1
  Li  Li12  1  0.842142  0.117891  0.538430  1
  Li  Li13  1  0.420744  0.381469  0.225878  1
  Li  Li14  1  0.694644  0.156541  0.776312  1
  Li  Li15  1  0.804057  0.582797  0.461677  1
  Li  Li16  1  0.621107  0.342251  0.038214  1
  Li  Li17  1  0.878707  0.917083  0.721115  1
  Li  Li18  1  0.194804  0.274180  0.655592  1
  Li  Li19  1  0.306454  0.960944  0.081559  1
  Li  Li20  1  0.118531  0.539274  0.844409  1
  Li  Li21  1  0.382109  0.224252  0.420540  1
  Li  Li22  1  0.157749  0.778856  0.695964  1
  Li  Li23  1  0.582917  0.461625  0.804033  1
  Li  Li24  1  0.343459  0.038102  0.619770  1
  Li  Li25  1  0.917203  0.721259  0.878879  1
  Li  Li26  1  0.275748  0.657858  0.196289  1
  Li  Li27  1  0.960726  0.079256  0.305134  1
  Li  Li28  1  0.539056  0.845511  0.120616  1
  Li  Li29  1  0.225820  0.420624  0.381412  1
  Pd  Pd30  1  0.413326  0.499611  0.999668  1
  Pd  Pd31  1  0.000389  0.413715  0.500057  1
  Pd  Pd32  1  0.086285  0.086674  0.086342  1
  Pt  Pt33  1  0.914193  0.499852  0.000022  1
  Pt  Pt34  1  0.500000  0.000000  0.914437  1
  Pt  Pt35  1  0.000148  0.914341  0.500170  1
  Pt  Pt36  1  0.585659  0.585807  0.585829  1
  Pt  Pt37  1  0.500000  0.000000  0.413149  1
