# generated using pymatgen
data_La3Tl(CO3)6
_symmetry_space_group_name_H-M   'P 1'
_cell_length_a   8.67895859
_cell_length_b   8.61530543
_cell_length_c   8.62645100
_cell_angle_alpha   119.96519805
_cell_angle_beta   90.09757960
_cell_angle_gamma   90.02613903
_symmetry_Int_Tables_number   1
_chemical_formula_structural   La3Tl(CO3)6
_chemical_formula_sum   'La3 Tl1 C6 O18'
_cell_volume   558.79454400
_cell_formula_units_Z   1
loop_
 _symmetry_equiv_pos_site_id
 _symmetry_equiv_pos_as_xyz
  1  'x, y, z'
loop_
 _atom_site_type_symbol
 _atom_site_label
 _atom_site_symmetry_multiplicity
 _atom_site_fract_x
 _atom_site_fract_y
 _atom_site_fract_z
 _atom_site_occupancy
  La  La0  1  0.963750  0.664883  0.332065  1
  La  La1  1  0.503616  0.667479  0.333682  1
  La  La2  1  0.455921  0.332040  0.665696  1
  Tl  Tl3  1  0.000293  0.334821  0.667560  1
  C  C4  1  0.245321  0.993533  0.403140  1
  C  C5  1  0.245976  0.409205  0.006952  1
  C  C6  1  0.753616  0.393948  0.419298  1
  C  C7  1  0.246074  0.597250  0.590167  1
  C  C8  1  0.753733  0.580519  0.974505  1
  C  C9  1  0.754738  0.025725  0.606122  1
  O  O10  1  0.147281  0.867759  0.321668  1
  O  O11  1  0.390408  0.959971  0.419901  1
  O  O12  1  0.721910  0.668734  0.146501  1
  O  O13  1  0.390680  0.459981  0.042515  1
  O  O14  1  0.146970  0.451953  0.131059  1
  O  O15  1  0.721659  0.477457  0.330523  1
  O  O16  1  0.723944  0.853063  0.521410  1
  O  O17  1  0.147265  0.678344  0.546405  1
  O  O18  1  0.390754  0.581356  0.539649  1
  O  O19  1  0.652475  0.309931  0.454285  1
  O  O20  1  0.899793  0.406003  0.465351  1
  O  O21  1  0.211826  0.163523  0.474246  1
  O  O22  1  0.213282  0.525646  0.688859  1
  O  O23  1  0.900035  0.535605  0.940804  1
  O  O24  1  0.652449  0.544931  0.855415  1
  O  O25  1  0.213187  0.311359  0.836648  1
  O  O26  1  0.652447  0.143328  0.689285  1
  O  O27  1  0.900599  0.061652  0.596289  1
