# generated using pymatgen
data_TaBe8Mo2Ru
_symmetry_space_group_name_H-M   'P 1'
_cell_length_a   4.44332700
_cell_length_b   4.44332720
_cell_length_c   7.31878000
_cell_angle_alpha   90.00000000
_cell_angle_beta   90.00000000
_cell_angle_gamma   120.00000597
_symmetry_Int_Tables_number   1
_chemical_formula_structural   TaBe8Mo2Ru
_chemical_formula_sum   'Ta1 Be8 Mo2 Ru1'
_cell_volume   125.13703741
_cell_formula_units_Z   1
loop_
 _symmetry_equiv_pos_site_id
 _symmetry_equiv_pos_as_xyz
  1  'x, y, z'
loop_
 _atom_site_type_symbol
 _atom_site_label
 _atom_site_symmetry_multiplicity
 _atom_site_fract_x
 _atom_site_fract_y
 _atom_site_fract_z
 _atom_site_occupancy
  Ta  Ta0  1  0.666667  0.333333  0.058768  1
  Be  Be1  1  0.000000  0.000000  0.504141  1
  Be  Be2  1  0.000000  0.000000  0.998936  1
  Be  Be3  1  0.662557  0.831278  0.252566  1
  Be  Be4  1  0.168722  0.831278  0.252566  1
  Be  Be5  1  0.168722  0.337443  0.252566  1
  Be  Be6  1  0.337907  0.168954  0.747918  1
  Be  Be7  1  0.831046  0.168954  0.747918  1
  Be  Be8  1  0.831046  0.662093  0.747918  1
  Mo  Mo9  1  0.666667  0.333333  0.439754  1
  Mo  Mo10  1  0.333333  0.666667  0.562644  1
  Ru  Ru11  1  0.333333  0.666667  0.934306  1
