# generated using pymatgen
data_Hf2Nb2Co4Si3P
_symmetry_space_group_name_H-M   'P 1'
_cell_length_a   3.69816900
_cell_length_b   6.28954916
_cell_length_c   7.10367828
_cell_angle_alpha   89.93081222
_cell_angle_beta   90.00000000
_cell_angle_gamma   90.00000000
_symmetry_Int_Tables_number   1
_chemical_formula_structural   Hf2Nb2Co4Si3P
_chemical_formula_sum   'Hf2 Nb2 Co4 Si3 P1'
_cell_volume   165.23012730
_cell_formula_units_Z   1
loop_
 _symmetry_equiv_pos_site_id
 _symmetry_equiv_pos_as_xyz
  1  'x, y, z'
loop_
 _atom_site_type_symbol
 _atom_site_label
 _atom_site_symmetry_multiplicity
 _atom_site_fract_x
 _atom_site_fract_y
 _atom_site_fract_z
 _atom_site_occupancy
  Hf  Hf0  1  0.250000  0.020590  0.816365  1
  Hf  Hf1  1  0.250000  0.517043  0.681433  1
  Nb  Nb2  1  0.750000  0.981593  0.184219  1
  Nb  Nb3  1  0.750000  0.480263  0.317685  1
  Co  Co4  1  0.250000  0.143224  0.440899  1
  Co  Co5  1  0.250000  0.640283  0.061803  1
  Co  Co6  1  0.750000  0.860452  0.565104  1
  Co  Co7  1  0.750000  0.354645  0.932303  1
  Si  Si8  1  0.250000  0.776517  0.378639  1
  Si  Si9  1  0.250000  0.277556  0.120509  1
  Si  Si10  1  0.750000  0.723339  0.892863  1
  P  P11  1  0.750000  0.224496  0.608178  1
