# generated using pymatgen
data_LaEr2Ga8Ag3
_symmetry_space_group_name_H-M   'P 1'
_cell_length_a   4.36788613
_cell_length_b   8.41082206
_cell_length_c   8.41082158
_cell_angle_alpha   69.06758341
_cell_angle_beta   74.95017964
_cell_angle_gamma   74.95017990
_symmetry_Int_Tables_number   1
_chemical_formula_structural   LaEr2Ga8Ag3
_chemical_formula_sum   'La1 Er2 Ga8 Ag3'
_cell_volume   273.88866273
_cell_formula_units_Z   1
loop_
 _symmetry_equiv_pos_site_id
 _symmetry_equiv_pos_as_xyz
  1  'x, y, z'
loop_
 _atom_site_type_symbol
 _atom_site_label
 _atom_site_symmetry_multiplicity
 _atom_site_fract_x
 _atom_site_fract_y
 _atom_site_fract_z
 _atom_site_occupancy
  La  La0  1  0.500000  0.500000  0.500000  1
  Er  Er1  1  0.200906  0.799094  0.799094  1
  Er  Er2  1  0.799094  0.200906  0.200906  1
  Ga  Ga3  1  0.354838  0.361854  0.928469  1
  Ga  Ga4  1  0.645162  0.638146  0.071531  1
  Ga  Ga5  1  0.354838  0.928469  0.361854  1
  Ga  Ga6  1  0.645162  0.071531  0.638146  1
  Ga  Ga7  1  0.160461  0.472165  0.206915  1
  Ga  Ga8  1  0.839539  0.527835  0.793085  1
  Ga  Ga9  1  0.160461  0.206915  0.472165  1
  Ga  Ga10  1  0.839539  0.793085  0.527835  1
  Ag  Ag11  1  0.500000  0.000000  0.000000  1
  Ag  Ag12  1  0.000000  0.809356  0.190644  1
  Ag  Ag13  1  0.000000  0.190644  0.809356  1
