# generated using pymatgen
data_Ba6CaMn3NiO15
_symmetry_space_group_name_H-M   'P 1'
_cell_length_a   7.34213953
_cell_length_b   7.34211111
_cell_length_c   7.34209919
_cell_angle_alpha   87.59842374
_cell_angle_beta   87.59852325
_cell_angle_gamma   87.59844718
_symmetry_Int_Tables_number   1
_chemical_formula_structural   Ba6CaMn3NiO15
_chemical_formula_sum   'Ba6 Ca1 Mn3 Ni1 O15'
_cell_volume   394.77452465
_cell_formula_units_Z   1
loop_
 _symmetry_equiv_pos_site_id
 _symmetry_equiv_pos_as_xyz
  1  'x, y, z'
loop_
 _atom_site_type_symbol
 _atom_site_label
 _atom_site_symmetry_multiplicity
 _atom_site_fract_x
 _atom_site_fract_y
 _atom_site_fract_z
 _atom_site_occupancy
  Ba  Ba0  1  0.333777  0.666096  0.999457  1
  Ba  Ba1  1  0.999456  0.333779  0.666096  1
  Ba  Ba2  1  0.666096  0.999458  0.333776  1
  Ba  Ba3  1  0.143452  0.856338  0.502753  1
  Ba  Ba4  1  0.502754  0.143455  0.856339  1
  Ba  Ba5  1  0.856341  0.502752  0.143452  1
  Ca  Ca6  1  0.500955  0.500950  0.500948  1
  Mn  Mn7  1  0.289447  0.289448  0.289451  1
  Mn  Mn8  1  0.712781  0.712781  0.712780  1
  Mn  Mn9  1  0.092963  0.092963  0.092960  1
  Ni  Ni10  1  0.905748  0.905749  0.905749  1
  O  O11  1  0.140915  0.998438  0.853363  1
  O  O12  1  0.853365  0.140920  0.998439  1
  O  O13  1  0.998440  0.853365  0.140917  1
  O  O14  1  0.030054  0.190561  0.328706  1
  O  O15  1  0.328706  0.030054  0.190558  1
  O  O16  1  0.190559  0.328709  0.030052  1
  O  O17  1  0.810243  0.967964  0.673621  1
  O  O18  1  0.673616  0.810246  0.967966  1
  O  O19  1  0.967961  0.673621  0.810247  1
  O  O20  1  0.360752  0.218605  0.526257  1
  O  O21  1  0.526253  0.360746  0.218609  1
  O  O22  1  0.218610  0.526254  0.360753  1
  O  O23  1  0.782317  0.640095  0.474343  1
  O  O24  1  0.474340  0.782313  0.640093  1
  O  O25  1  0.640095  0.474340  0.782315  1
