# generated using pymatgen
data_Ce2Al6Ga6Ir
_symmetry_space_group_name_H-M   'P 1'
_cell_length_a   6.04559300
_cell_length_b   6.04559300
_cell_length_c   15.89885800
_cell_angle_alpha   90.00000000
_cell_angle_beta   90.00000000
_cell_angle_gamma   90.00000000
_symmetry_Int_Tables_number   1
_chemical_formula_structural   Ce2Al6Ga6Ir
_chemical_formula_sum   'Ce4 Al12 Ga12 Ir2'
_cell_volume   581.09045689
_cell_formula_units_Z   2
loop_
 _symmetry_equiv_pos_site_id
 _symmetry_equiv_pos_as_xyz
  1  'x, y, z'
loop_
 _atom_site_type_symbol
 _atom_site_label
 _atom_site_symmetry_multiplicity
 _atom_site_fract_x
 _atom_site_fract_y
 _atom_site_fract_z
 _atom_site_occupancy
  Ce  Ce0  1  0.750000  0.250000  0.245725  1
  Ce  Ce1  1  0.250000  0.750000  0.245725  1
  Ce  Ce2  1  0.250000  0.750000  0.753514  1
  Ce  Ce3  1  0.750000  0.250000  0.753514  1
  Al  Al4  1  0.500074  0.000074  0.913489  1
  Al  Al5  1  0.000074  0.999926  0.913489  1
  Al  Al6  1  0.499926  0.500074  0.913489  1
  Al  Al7  1  0.999926  0.499926  0.913489  1
  Al  Al8  1  0.499877  0.999877  0.086307  1
  Al  Al9  1  0.999877  0.000123  0.086307  1
  Al  Al10  1  0.500123  0.499877  0.086307  1
  Al  Al11  1  0.000123  0.500123  0.086307  1
  Al  Al12  1  0.581016  0.081016  0.431454  1
  Al  Al13  1  0.081016  0.918984  0.431454  1
  Al  Al14  1  0.418984  0.581016  0.431454  1
  Al  Al15  1  0.918984  0.418984  0.431454  1
  Ga  Ga16  1  0.250000  0.250000  0.188597  1
  Ga  Ga17  1  0.750000  0.750000  0.188597  1
  Ga  Ga18  1  0.750000  0.750000  0.811259  1
  Ga  Ga19  1  0.250000  0.250000  0.811259  1
  Ga  Ga20  1  0.250000  0.250000  0.343322  1
  Ga  Ga21  1  0.750000  0.750000  0.343322  1
  Ga  Ga22  1  0.750000  0.750000  0.656289  1
  Ga  Ga23  1  0.250000  0.250000  0.656289  1
  Ga  Ga24  1  0.417950  0.917950  0.569427  1
  Ga  Ga25  1  0.917950  0.082050  0.569427  1
  Ga  Ga26  1  0.582050  0.417950  0.569427  1
  Ga  Ga27  1  0.082050  0.582050  0.569427  1
  Ir  Ir28  1  0.750000  0.250000  0.999938  1
  Ir  Ir29  1  0.250000  0.750000  0.999938  1
