# generated using pymatgen
data_LaTh(Zn10Pd)2
_symmetry_space_group_name_H-M   'P 1'
_cell_length_a   8.33144655
_cell_length_b   8.33144689
_cell_length_c   8.30980468
_cell_angle_alpha   99.92015631
_cell_angle_beta   99.92015650
_cell_angle_gamma   131.08272247
_symmetry_Int_Tables_number   1
_chemical_formula_structural   LaTh(Zn10Pd)2
_chemical_formula_sum   'La1 Th1 Zn20 Pd2'
_cell_volume   395.35242950
_cell_formula_units_Z   1
loop_
 _symmetry_equiv_pos_site_id
 _symmetry_equiv_pos_as_xyz
  1  'x, y, z'
loop_
 _atom_site_type_symbol
 _atom_site_label
 _atom_site_symmetry_multiplicity
 _atom_site_fract_x
 _atom_site_fract_y
 _atom_site_fract_z
 _atom_site_occupancy
  La  La0  1  0.995693  0.004307  0.000000  1
  Th  Th1  1  0.254558  0.745442  0.500000  1
  Zn  Zn2  1  0.903958  0.575608  0.085160  1
  Zn  Zn3  1  0.624552  0.874459  0.249846  1
  Zn  Zn4  1  0.425753  0.508303  0.326082  1
  Zn  Zn5  1  0.491697  0.574247  0.673918  1
  Zn  Zn6  1  0.424392  0.096042  0.914840  1
  Zn  Zn7  1  0.757228  0.175121  0.825111  1
  Zn  Zn8  1  0.487256  0.816595  0.914914  1
  Zn  Zn9  1  0.505135  0.494865  0.000000  1
  Zn  Zn10  1  0.761276  0.933330  0.584332  1
  Zn  Zn11  1  0.744950  0.255050  0.500000  1
  Zn  Zn12  1  0.067404  0.654179  0.828987  1
  Zn  Zn13  1  0.125541  0.375448  0.750154  1
  Zn  Zn14  1  0.346532  0.173770  0.415115  1
  Zn  Zn15  1  0.826230  0.653468  0.584885  1
  Zn  Zn16  1  0.904964  0.817762  0.330490  1
  Zn  Zn17  1  0.182238  0.095036  0.669510  1
  Zn  Zn18  1  0.066670  0.238724  0.415668  1
  Zn  Zn19  1  0.345821  0.932596  0.171013  1
  Zn  Zn20  1  0.824879  0.242772  0.174889  1
  Zn  Zn21  1  0.183405  0.512744  0.085086  1
  Pd  Pd22  1  0.625425  0.375557  0.249827  1
  Pd  Pd23  1  0.624443  0.374575  0.750173  1
