# generated using pymatgen
data_Er6Tm10Cd4Ir3Ru
_symmetry_space_group_name_H-M   'P 1'
_cell_length_a   9.55167300
_cell_length_b   9.55167271
_cell_length_c   9.55167375
_cell_angle_alpha   59.63465195
_cell_angle_beta   59.63465509
_cell_angle_gamma   59.63465177
_symmetry_Int_Tables_number   1
_chemical_formula_structural   Er6Tm10Cd4Ir3Ru
_chemical_formula_sum   'Er6 Tm10 Cd4 Ir3 Ru1'
_cell_volume   611.08655913
_cell_formula_units_Z   1
loop_
 _symmetry_equiv_pos_site_id
 _symmetry_equiv_pos_as_xyz
  1  'x, y, z'
loop_
 _atom_site_type_symbol
 _atom_site_label
 _atom_site_symmetry_multiplicity
 _atom_site_fract_x
 _atom_site_fract_y
 _atom_site_fract_z
 _atom_site_occupancy
  Er  Er0  1  0.189392  0.811452  0.811452  1
  Er  Er1  1  0.809818  0.188713  0.188713  1
  Er  Er2  1  0.811452  0.189392  0.811452  1
  Er  Er3  1  0.188713  0.809818  0.188713  1
  Er  Er4  1  0.811452  0.811452  0.189392  1
  Er  Er5  1  0.188713  0.188713  0.809818  1
  Tm  Tm6  1  0.598647  0.598647  0.598647  1
  Tm  Tm7  1  0.598757  0.598757  0.205000  1
  Tm  Tm8  1  0.598757  0.205000  0.598757  1
  Tm  Tm9  1  0.205000  0.598757  0.598757  1
  Tm  Tm10  1  0.061669  0.438635  0.438635  1
  Tm  Tm11  1  0.438278  0.060441  0.060441  1
  Tm  Tm12  1  0.438635  0.061669  0.438635  1
  Tm  Tm13  1  0.060441  0.438278  0.060441  1
  Tm  Tm14  1  0.438635  0.438635  0.061669  1
  Tm  Tm15  1  0.060441  0.060441  0.438278  1
  Cd  Cd16  1  0.830295  0.830295  0.830295  1
  Cd  Cd17  1  0.830938  0.830938  0.506404  1
  Cd  Cd18  1  0.830938  0.506404  0.830938  1
  Cd  Cd19  1  0.506404  0.830938  0.830938  1
  Ir  Ir20  1  0.392892  0.392892  0.825685  1
  Ir  Ir21  1  0.392892  0.825685  0.392892  1
  Ir  Ir22  1  0.825685  0.392892  0.392892  1
  Ru  Ru23  1  0.391152  0.391152  0.391152  1
