# generated using pymatgen
data_YTm23Ru14
_symmetry_space_group_name_H-M   'P 1'
_cell_length_a   11.16962829
_cell_length_b   8.28893828
_cell_length_c   11.13780312
_cell_angle_alpha   56.50594408
_cell_angle_beta   89.96301310
_cell_angle_gamma   90.02066846
_symmetry_Int_Tables_number   1
_chemical_formula_structural   YTm23Ru14
_chemical_formula_sum   'Y1 Tm23 Ru14'
_cell_volume   859.95023625
_cell_formula_units_Z   1
loop_
 _symmetry_equiv_pos_site_id
 _symmetry_equiv_pos_as_xyz
  1  'x, y, z'
loop_
 _atom_site_type_symbol
 _atom_site_label
 _atom_site_symmetry_multiplicity
 _atom_site_fract_x
 _atom_site_fract_y
 _atom_site_fract_z
 _atom_site_occupancy
  Y  Y0  1  0.704431  0.240970  0.533211  1
  Tm  Tm1  1  0.205797  0.757501  0.968772  1
  Tm  Tm2  1  0.845193  0.507932  0.655395  1
  Tm  Tm3  1  0.344504  0.492225  0.844717  1
  Tm  Tm4  1  0.155675  0.492139  0.344850  1
  Tm  Tm5  1  0.655061  0.508105  0.154405  1
  Tm  Tm6  1  0.007063  0.852487  0.361759  1
  Tm  Tm7  1  0.506613  0.148184  0.137594  1
  Tm  Tm8  1  0.993901  0.148373  0.637990  1
  Tm  Tm9  1  0.493022  0.851562  0.862479  1
  Tm  Tm10  1  0.794221  0.242207  0.031504  1
  Tm  Tm11  1  0.294079  0.757360  0.468911  1
  Tm  Tm12  1  0.931393  0.777349  0.090500  1
  Tm  Tm13  1  0.429674  0.222833  0.408740  1
  Tm  Tm14  1  0.068815  0.222668  0.909523  1
  Tm  Tm15  1  0.568630  0.776801  0.590561  1
  Tm  Tm16  1  0.301698  0.241374  0.674871  1
  Tm  Tm17  1  0.802200  0.757800  0.825776  1
  Tm  Tm18  1  0.698527  0.758969  0.325076  1
  Tm  Tm19  1  0.198266  0.241535  0.174425  1
  Tm  Tm20  1  0.925478  0.280063  0.293283  1
  Tm  Tm21  1  0.425204  0.720386  0.206490  1
  Tm  Tm22  1  0.075061  0.720079  0.706809  1
  Tm  Tm23  1  0.574328  0.279879  0.794286  1
  Ru  Ru24  1  0.498103  0.501780  0.500046  1
  Ru  Ru25  1  0.000169  0.499940  0.000034  1
  Ru  Ru26  1  0.647267  0.923872  0.033950  1
  Ru  Ru27  1  0.147457  0.076277  0.465690  1
  Ru  Ru28  1  0.352460  0.076167  0.966044  1
  Ru  Ru29  1  0.853000  0.922712  0.533759  1
  Ru  Ru30  1  0.398046  0.484394  0.103685  1
  Ru  Ru31  1  0.899769  0.517506  0.395378  1
  Ru  Ru32  1  0.601726  0.515825  0.896306  1
  Ru  Ru33  1  0.101843  0.484441  0.603689  1
  Ru  Ru34  1  0.821373  0.099696  0.849269  1
  Ru  Ru35  1  0.320936  0.900280  0.651616  1
  Ru  Ru36  1  0.179181  0.899982  0.151609  1
  Ru  Ru37  1  0.679837  0.098346  0.346997  1
