# generated using pymatgen
data_Dy3Y9Co4SnRu
_symmetry_space_group_name_H-M   'P 1'
_cell_length_a   8.32464178
_cell_length_b   8.33254546
_cell_length_c   8.32464264
_cell_angle_alpha   111.05727885
_cell_angle_beta   110.57851716
_cell_angle_gamma   106.77374135
_symmetry_Int_Tables_number   1
_chemical_formula_structural   Dy3Y9Co4SnRu
_chemical_formula_sum   'Dy3 Y9 Co4 Sn1 Ru1'
_cell_volume   443.98457410
_cell_formula_units_Z   1
loop_
 _symmetry_equiv_pos_site_id
 _symmetry_equiv_pos_as_xyz
  1  'x, y, z'
loop_
 _atom_site_type_symbol
 _atom_site_label
 _atom_site_symmetry_multiplicity
 _atom_site_fract_x
 _atom_site_fract_y
 _atom_site_fract_z
 _atom_site_occupancy
  Dy  Dy0  1  0.686686  0.378557  0.691872  1
  Dy  Dy1  1  0.312982  0.003893  0.690911  1
  Dy  Dy2  1  0.686050  0.994256  0.308206  1
  Y  Y3  1  0.409173  0.215432  0.192310  1
  Y  Y4  1  0.591790  0.784347  0.807271  1
  Y  Y5  1  0.023121  0.215432  0.806260  1
  Y  Y6  1  0.977076  0.784347  0.192556  1
  Y  Y7  1  0.184606  0.285931  0.470729  1
  Y  Y8  1  0.816103  0.713494  0.529116  1
  Y  Y9  1  0.184378  0.713494  0.897390  1
  Y  Y10  1  0.815203  0.285931  0.101326  1
  Y  Y11  1  0.313350  0.620192  0.306841  1
  Co  Co12  1  0.379663  0.002344  0.380973  1
  Co  Co13  1  0.621371  0.002344  0.622681  1
  Co  Co14  1  0.109984  0.610556  0.500573  1
  Co  Co15  1  0.888049  0.387643  0.499594  1
  Sn  Sn16  1  0.499979  0.500256  0.000276  1
  Ru  Ru17  1  0.000433  0.001550  0.001117  1
