# generated using pymatgen
data_TbPu(MoN2)2
_symmetry_space_group_name_H-M   'P 1'
_cell_length_a   3.23209900
_cell_length_b   5.65146319
_cell_length_c   10.71936135
_cell_angle_alpha   90.22837188
_cell_angle_beta   90.00000000
_cell_angle_gamma   90.00000000
_symmetry_Int_Tables_number   1
_chemical_formula_structural   TbPu(MoN2)2
_chemical_formula_sum   'Tb2 Pu2 Mo4 N8'
_cell_volume   195.79924801
_cell_formula_units_Z   2
loop_
 _symmetry_equiv_pos_site_id
 _symmetry_equiv_pos_as_xyz
  1  'x, y, z'
loop_
 _atom_site_type_symbol
 _atom_site_label
 _atom_site_symmetry_multiplicity
 _atom_site_fract_x
 _atom_site_fract_y
 _atom_site_fract_z
 _atom_site_occupancy
  Tb  Tb0  1  0.250000  0.576296  0.854834  1
  Tb  Tb1  1  0.750000  0.423704  0.145166  1
  Pu  Pu2  1  0.750000  0.924511  0.355524  1
  Pu  Pu3  1  0.250000  0.075489  0.644476  1
  Mo  Mo4  1  0.250000  0.931005  0.093094  1
  Mo  Mo5  1  0.750000  0.068995  0.906906  1
  Mo  Mo6  1  0.750000  0.571034  0.599907  1
  Mo  Mo7  1  0.250000  0.428966  0.400093  1
  N  N8  1  0.250000  0.668575  0.247042  1
  N  N9  1  0.750000  0.331425  0.752958  1
  N  N10  1  0.750000  0.842572  0.745652  1
  N  N11  1  0.250000  0.157428  0.254348  1
  N  N12  1  0.250000  0.754005  0.504754  1
  N  N13  1  0.750000  0.245995  0.495246  1
  N  N14  1  0.750000  0.743070  0.005165  1
  N  N15  1  0.250000  0.256930  0.994835  1
