# generated using pymatgen
data_Dy3Ho5(NiAg)2
_symmetry_space_group_name_H-M   'P 1'
_cell_length_a   9.40349427
_cell_length_b   9.40495899
_cell_length_c   9.40495911
_cell_angle_alpha   59.98969977
_cell_angle_beta   60.00514903
_cell_angle_gamma   60.00515084
_symmetry_Int_Tables_number   1
_chemical_formula_structural   Dy3Ho5(NiAg)2
_chemical_formula_sum   'Dy6 Ho10 Ni4 Ag4'
_cell_volume   588.14994691
_cell_formula_units_Z   2
loop_
 _symmetry_equiv_pos_site_id
 _symmetry_equiv_pos_as_xyz
  1  'x, y, z'
loop_
 _atom_site_type_symbol
 _atom_site_label
 _atom_site_symmetry_multiplicity
 _atom_site_fract_x
 _atom_site_fract_y
 _atom_site_fract_z
 _atom_site_occupancy
  Dy  Dy0  1  0.350288  0.350714  0.350714  1
  Dy  Dy1  1  0.350714  0.350288  0.948282  1
  Dy  Dy2  1  0.350714  0.948282  0.350288  1
  Dy  Dy3  1  0.948282  0.350714  0.350714  1
  Dy  Dy4  1  0.811253  0.188747  0.188747  1
  Dy  Dy5  1  0.188747  0.811253  0.811253  1
  Ho  Ho6  1  0.188867  0.811133  0.188867  1
  Ho  Ho7  1  0.811133  0.188867  0.811133  1
  Ho  Ho8  1  0.188867  0.188867  0.811133  1
  Ho  Ho9  1  0.811133  0.811133  0.188867  1
  Ho  Ho10  1  0.935682  0.564318  0.564318  1
  Ho  Ho11  1  0.564318  0.935682  0.935682  1
  Ho  Ho12  1  0.564242  0.935758  0.564242  1
  Ho  Ho13  1  0.935758  0.564242  0.935758  1
  Ho  Ho14  1  0.564242  0.564242  0.935758  1
  Ho  Ho15  1  0.935758  0.935758  0.564242  1
  Ni  Ni16  1  0.143254  0.142789  0.142789  1
  Ni  Ni17  1  0.142789  0.143254  0.571169  1
  Ni  Ni18  1  0.142789  0.571169  0.143254  1
  Ni  Ni19  1  0.571169  0.142789  0.142789  1
  Ag  Ag20  1  0.582128  0.581937  0.581937  1
  Ag  Ag21  1  0.581937  0.582128  0.254001  1
  Ag  Ag22  1  0.581937  0.254001  0.582128  1
  Ag  Ag23  1  0.254001  0.581937  0.581937  1
