# generated using pymatgen
data_LiNp2Zn25
_symmetry_space_group_name_H-M   'P 1'
_cell_length_a   8.59476726
_cell_length_b   8.59476718
_cell_length_c   8.59476600
_cell_angle_alpha   59.99998914
_cell_angle_beta   59.99998947
_cell_angle_gamma   59.99998821
_symmetry_Int_Tables_number   1
_chemical_formula_structural   LiNp2Zn25
_chemical_formula_sum   'Li1 Np2 Zn25'
_cell_volume   448.93884827
_cell_formula_units_Z   1
loop_
 _symmetry_equiv_pos_site_id
 _symmetry_equiv_pos_as_xyz
  1  'x, y, z'
loop_
 _atom_site_type_symbol
 _atom_site_label
 _atom_site_symmetry_multiplicity
 _atom_site_fract_x
 _atom_site_fract_y
 _atom_site_fract_z
 _atom_site_occupancy
  Li  Li0  1  0.500000  0.500000  0.500000  1
  Np  Np1  1  0.250000  0.250000  0.250000  1
  Np  Np2  1  0.750000  0.750000  0.750000  1
  Zn  Zn3  1  0.000000  0.000000  0.000000  1
  Zn  Zn4  1  0.798951  0.557626  0.201049  1
  Zn  Zn5  1  0.201049  0.442374  0.798951  1
  Zn  Zn6  1  0.557626  0.798951  0.442374  1
  Zn  Zn7  1  0.442374  0.201049  0.557626  1
  Zn  Zn8  1  0.301473  0.942580  0.698527  1
  Zn  Zn9  1  0.698527  0.057420  0.301473  1
  Zn  Zn10  1  0.942580  0.301473  0.057420  1
  Zn  Zn11  1  0.057420  0.698527  0.942580  1
  Zn  Zn12  1  0.201049  0.798951  0.557626  1
  Zn  Zn13  1  0.798951  0.201049  0.442374  1
  Zn  Zn14  1  0.442374  0.557626  0.798951  1
  Zn  Zn15  1  0.557626  0.442374  0.201049  1
  Zn  Zn16  1  0.698527  0.301473  0.942580  1
  Zn  Zn17  1  0.301473  0.698527  0.057420  1
  Zn  Zn18  1  0.057420  0.942580  0.301473  1
  Zn  Zn19  1  0.942580  0.057420  0.698527  1
  Zn  Zn20  1  0.557626  0.201049  0.798951  1
  Zn  Zn21  1  0.442374  0.798951  0.201049  1
  Zn  Zn22  1  0.798951  0.442374  0.557626  1
  Zn  Zn23  1  0.201049  0.557626  0.442374  1
  Zn  Zn24  1  0.942580  0.698527  0.301473  1
  Zn  Zn25  1  0.057420  0.301473  0.698527  1
  Zn  Zn26  1  0.301473  0.057420  0.942580  1
  Zn  Zn27  1  0.698527  0.942580  0.057420  1
