# generated using pymatgen
data_Sm2Fe11MoP7
_symmetry_space_group_name_H-M   'P 1'
_cell_length_a   9.08991782
_cell_length_b   9.10816058
_cell_length_c   3.67538000
_cell_angle_alpha   90.00000000
_cell_angle_beta   90.00000000
_cell_angle_gamma   120.53626015
_symmetry_Int_Tables_number   1
_chemical_formula_structural   Sm2Fe11MoP7
_chemical_formula_sum   'Sm2 Fe11 Mo1 P7'
_cell_volume   262.09048661
_cell_formula_units_Z   1
loop_
 _symmetry_equiv_pos_site_id
 _symmetry_equiv_pos_as_xyz
  1  'x, y, z'
loop_
 _atom_site_type_symbol
 _atom_site_label
 _atom_site_symmetry_multiplicity
 _atom_site_fract_x
 _atom_site_fract_y
 _atom_site_fract_z
 _atom_site_occupancy
  Sm  Sm0  1  0.667904  0.332235  0.000000  1
  Sm  Sm1  1  0.328841  0.668695  0.500000  1
  Fe  Fe2  1  0.425941  0.055401  0.500000  1
  Fe  Fe3  1  0.944694  0.366664  0.500000  1
  Fe  Fe4  1  0.617902  0.569108  0.500000  1
  Fe  Fe5  1  0.156653  0.275757  0.500000  1
  Fe  Fe6  1  0.726154  0.883593  0.500000  1
  Fe  Fe7  1  0.122162  0.850913  0.500000  1
  Fe  Fe8  1  0.387093  0.432236  0.000000  1
  Fe  Fe9  1  0.567814  0.954024  0.000000  1
  Fe  Fe10  1  0.051394  0.615568  0.000000  1
  Fe  Fe11  1  0.219234  0.097359  0.000000  1
  Fe  Fe12  1  0.904872  0.118158  0.000000  1
  Mo  Mo13  1  0.884970  0.783563  0.000000  1
  P  P14  1  0.107207  0.397100  0.000000  1
  P  P15  1  0.592495  0.717151  0.000000  1
  P  P16  1  0.290020  0.891614  0.000000  1
  P  P17  1  0.003472  0.006548  0.500000  1
  P  P18  1  0.403302  0.287211  0.500000  1
  P  P19  1  0.700352  0.109861  0.500000  1
  P  P20  1  0.897522  0.587239  0.500000  1
