# generated using pymatgen
data_Tm4Bi2Ru
_symmetry_space_group_name_H-M   'P 1'
_cell_length_a   8.69789568
_cell_length_b   8.69655801
_cell_length_c   8.69829888
_cell_angle_alpha   96.69849879
_cell_angle_beta   96.71705600
_cell_angle_gamma   140.02143376
_symmetry_Int_Tables_number   1
_chemical_formula_structural   Tm4Bi2Ru
_chemical_formula_sum   'Tm8 Bi4 Ru2'
_cell_volume   397.29277566
_cell_formula_units_Z   2
loop_
 _symmetry_equiv_pos_site_id
 _symmetry_equiv_pos_as_xyz
  1  'x, y, z'
loop_
 _atom_site_type_symbol
 _atom_site_label
 _atom_site_symmetry_multiplicity
 _atom_site_fract_x
 _atom_site_fract_y
 _atom_site_fract_z
 _atom_site_occupancy
  Tm  Tm0  1  0.695332  0.579636  0.275025  1
  Tm  Tm1  1  0.304668  0.420364  0.724975  1
  Tm  Tm2  1  0.579768  0.304570  0.884338  1
  Tm  Tm3  1  0.079758  0.195441  0.275175  1
  Tm  Tm4  1  0.804667  0.079708  0.884327  1
  Tm  Tm5  1  0.420232  0.695430  0.115662  1
  Tm  Tm6  1  0.920242  0.804559  0.724825  1
  Tm  Tm7  1  0.195333  0.920292  0.115673  1
  Bi  Bi8  1  0.141512  0.641544  0.783017  1
  Bi  Bi9  1  0.358599  0.141503  0.500033  1
  Bi  Bi10  1  0.858488  0.358456  0.216983  1
  Bi  Bi11  1  0.641401  0.858497  0.499967  1
  Ru  Ru12  1  0.250012  0.250019  0.000021  1
  Ru  Ru13  1  0.749988  0.749981  0.999979  1
