# generated using pymatgen
data_La9Tb6Tm5Sn16
_symmetry_space_group_name_H-M   'P 1'
_cell_length_a   8.17518062
_cell_length_b   8.36658804
_cell_length_c   15.82653300
_cell_angle_alpha   89.98178388
_cell_angle_beta   90.09235810
_cell_angle_gamma   90.08689826
_symmetry_Int_Tables_number   1
_chemical_formula_structural   La9Tb6Tm5Sn16
_chemical_formula_sum   'La9 Tb6 Tm5 Sn16'
_cell_volume   1082.50632937
_cell_formula_units_Z   1
loop_
 _symmetry_equiv_pos_site_id
 _symmetry_equiv_pos_as_xyz
  1  'x, y, z'
loop_
 _atom_site_type_symbol
 _atom_site_label
 _atom_site_symmetry_multiplicity
 _atom_site_fract_x
 _atom_site_fract_y
 _atom_site_fract_z
 _atom_site_occupancy
  La  La0  1  0.857262  0.664157  0.879521  1
  La  La1  1  0.512889  0.320503  0.902341  1
  La  La2  1  0.011391  0.178487  0.594115  1
  La  La3  1  0.488355  0.678281  0.404798  1
  La  La4  1  0.988026  0.821149  0.097855  1
  La  La5  1  0.487585  0.678251  0.097648  1
  La  La6  1  0.988579  0.821600  0.404222  1
  La  La7  1  0.511203  0.321629  0.594905  1
  La  La8  1  0.012206  0.178933  0.903446  1
  Tb  Tb9  1  0.355235  0.836314  0.875091  1
  Tb  Tb10  1  0.855520  0.663572  0.622238  1
  Tb  Tb11  1  0.644945  0.163397  0.376426  1
  Tb  Tb12  1  0.143320  0.337837  0.123173  1
  Tb  Tb13  1  0.642896  0.162750  0.126313  1
  Tb  Tb14  1  0.145458  0.336151  0.377593  1
  Tm  Tm15  1  0.354881  0.837590  0.622578  1
  Tm  Tm16  1  0.191140  0.502776  0.748670  1
  Tm  Tm17  1  0.688188  0.997595  0.748077  1
  Tm  Tm18  1  0.810131  0.496824  0.251177  1
  Tm  Tm19  1  0.310132  0.002319  0.250478  1
  Sn  Sn20  1  0.307340  0.040715  0.043035  1
  Sn  Sn21  1  0.808328  0.459151  0.456507  1
  Sn  Sn22  1  0.688840  0.958440  0.542915  1
  Sn  Sn23  1  0.204602  0.538121  0.957290  1
  Sn  Sn24  1  0.685718  0.965927  0.958286  1
  Sn  Sn25  1  0.192768  0.542869  0.543342  1
  Sn  Sn26  1  0.308937  0.039784  0.457558  1
  Sn  Sn27  1  0.804586  0.455889  0.048110  1
  Sn  Sn28  1  0.550713  0.625541  0.745970  1
  Sn  Sn29  1  0.056279  0.879415  0.746980  1
  Sn  Sn30  1  0.445573  0.376024  0.251133  1
  Sn  Sn31  1  0.947997  0.124219  0.250876  1
  Sn  Sn32  1  0.319378  0.142341  0.747740  1
  Sn  Sn33  1  0.819504  0.353385  0.747362  1
  Sn  Sn34  1  0.680433  0.855743  0.251306  1
  Sn  Sn35  1  0.179662  0.642323  0.250926  1
