# generated using pymatgen
data_Tm8Zr12Si15Hg
_symmetry_space_group_name_H-M   'P 1'
_cell_length_a   7.13942821
_cell_length_b   7.28300682
_cell_length_c   13.96772168
_cell_angle_alpha   89.96137506
_cell_angle_beta   89.45478174
_cell_angle_gamma   90.16267431
_symmetry_Int_Tables_number   1
_chemical_formula_structural   Tm8Zr12Si15Hg
_chemical_formula_sum   'Tm8 Zr12 Si15 Hg1'
_cell_volume   726.23671298
_cell_formula_units_Z   1
loop_
 _symmetry_equiv_pos_site_id
 _symmetry_equiv_pos_as_xyz
  1  'x, y, z'
loop_
 _atom_site_type_symbol
 _atom_site_label
 _atom_site_symmetry_multiplicity
 _atom_site_fract_x
 _atom_site_fract_y
 _atom_site_fract_z
 _atom_site_occupancy
  Tm  Tm0  1  0.015239  0.177672  0.096682  1
  Tm  Tm1  1  0.984720  0.823624  0.904616  1
  Tm  Tm2  1  0.487600  0.676734  0.904889  1
  Tm  Tm3  1  0.986551  0.832376  0.598044  1
  Tm  Tm4  1  0.513396  0.322573  0.096589  1
  Tm  Tm5  1  0.006621  0.172253  0.398159  1
  Tm  Tm6  1  0.514172  0.321538  0.399552  1
  Tm  Tm7  1  0.497727  0.683450  0.599874  1
  Zr  Zr8  1  0.158977  0.500588  0.756697  1
  Zr  Zr9  1  0.841568  0.500467  0.248475  1
  Zr  Zr10  1  0.341153  0.999258  0.248976  1
  Zr  Zr11  1  0.658810  0.000359  0.751196  1
  Zr  Zr12  1  0.346505  0.166393  0.630792  1
  Zr  Zr13  1  0.666149  0.823750  0.372546  1
  Zr  Zr14  1  0.163209  0.681877  0.370660  1
  Zr  Zr15  1  0.669962  0.822087  0.123677  1
  Zr  Zr16  1  0.821107  0.323386  0.625360  1
  Zr  Zr17  1  0.328690  0.175311  0.876181  1
  Zr  Zr18  1  0.829571  0.322552  0.876674  1
  Zr  Zr19  1  0.169572  0.676977  0.124064  1
  Si  Si20  1  0.033901  0.118069  0.750808  1
  Si  Si21  1  0.964004  0.887025  0.246747  1
  Si  Si22  1  0.464606  0.613990  0.248678  1
  Si  Si23  1  0.534297  0.387601  0.752888  1
  Si  Si24  1  0.282764  0.867198  0.752449  1
  Si  Si25  1  0.714404  0.129328  0.247699  1
  Si  Si26  1  0.214691  0.369328  0.248669  1
  Si  Si27  1  0.788503  0.630685  0.751271  1
  Si  Si28  1  0.830811  0.535191  0.458516  1
  Si  Si29  1  0.339064  0.967124  0.459715  1
  Si  Si30  1  0.842778  0.530072  0.040825  1
  Si  Si31  1  0.661421  0.034264  0.536443  1
  Si  Si32  1  0.156326  0.467811  0.960946  1
  Si  Si33  1  0.654460  0.031003  0.959722  1
  Si  Si34  1  0.345002  0.968760  0.041046  1
  Hg  Hg35  1  0.171669  0.459325  0.539875  1
