# generated using pymatgen
data_YbDy9Ru4
_symmetry_space_group_name_H-M   'P 1'
_cell_length_a   8.50097008
_cell_length_b   8.50462671
_cell_length_c   7.26134472
_cell_angle_alpha   83.39873003
_cell_angle_beta   83.25026039
_cell_angle_gamma   43.91529431
_symmetry_Int_Tables_number   1
_chemical_formula_structural   YbDy9Ru4
_chemical_formula_sum   'Yb1 Dy9 Ru4'
_cell_volume   361.24781278
_cell_formula_units_Z   1
loop_
 _symmetry_equiv_pos_site_id
 _symmetry_equiv_pos_as_xyz
  1  'x, y, z'
loop_
 _atom_site_type_symbol
 _atom_site_label
 _atom_site_symmetry_multiplicity
 _atom_site_fract_x
 _atom_site_fract_y
 _atom_site_fract_z
 _atom_site_occupancy
  Yb  Yb0  1  0.206503  0.979575  0.582504  1
  Dy  Dy1  1  0.020833  0.793796  0.916502  1
  Dy  Dy2  1  0.204484  0.361881  0.313494  1
  Dy  Dy3  1  0.641529  0.792476  0.184254  1
  Dy  Dy4  1  0.795081  0.639990  0.685566  1
  Dy  Dy5  1  0.360673  0.205135  0.814670  1
  Dy  Dy6  1  0.979410  0.207985  0.084422  1
  Dy  Dy7  1  0.793510  0.020182  0.414986  1
  Dy  Dy8  1  0.576306  0.424244  0.750066  1
  Dy  Dy9  1  0.422726  0.578571  0.249520  1
  Ru  Ru10  1  0.174419  0.598398  0.576012  1
  Ru  Ru11  1  0.399736  0.821800  0.929884  1
  Ru  Ru12  1  0.820729  0.399977  0.423092  1
  Ru  Ru13  1  0.604061  0.175991  0.075029  1
