# generated using pymatgen
data_Tm2InCuPd
_symmetry_space_group_name_H-M   'P 1'
_cell_length_a   7.57562200
_cell_length_b   7.53653700
_cell_length_c   3.69272100
_cell_angle_alpha   90.00000000
_cell_angle_beta   90.00000000
_cell_angle_gamma   90.00000000
_symmetry_Int_Tables_number   1
_chemical_formula_structural   Tm2InCuPd
_chemical_formula_sum   'Tm4 In2 Cu2 Pd2'
_cell_volume   210.83204845
_cell_formula_units_Z   2
loop_
 _symmetry_equiv_pos_site_id
 _symmetry_equiv_pos_as_xyz
  1  'x, y, z'
loop_
 _atom_site_type_symbol
 _atom_site_label
 _atom_site_symmetry_multiplicity
 _atom_site_fract_x
 _atom_site_fract_y
 _atom_site_fract_z
 _atom_site_occupancy
  Tm  Tm0  1  0.326485  0.824519  0.500000  1
  Tm  Tm1  1  0.826485  0.675481  0.500000  1
  Tm  Tm2  1  0.175726  0.330565  0.500000  1
  Tm  Tm3  1  0.675726  0.169435  0.500000  1
  In  In4  1  0.004091  0.007068  0.000000  1
  In  In5  1  0.504091  0.492932  0.000000  1
  Cu  Cu6  1  0.374447  0.124817  0.000000  1
  Cu  Cu7  1  0.874447  0.375183  0.000000  1
  Pd  Pd8  1  0.119251  0.622525  0.000000  1
  Pd  Pd9  1  0.619251  0.877475  0.000000  1
