# generated using pymatgen
data_Lu12InTc3Te
_symmetry_space_group_name_H-M   'P 1'
_cell_length_a   8.32731092
_cell_length_b   8.32731169
_cell_length_c   8.32731205
_cell_angle_alpha   110.96206788
_cell_angle_beta   108.61339941
_cell_angle_gamma   108.84863694
_symmetry_Int_Tables_number   1
_chemical_formula_structural   Lu12InTc3Te
_chemical_formula_sum   'Lu12 In1 Tc3 Te1'
_cell_volume   444.29309054
_cell_formula_units_Z   1
loop_
 _symmetry_equiv_pos_site_id
 _symmetry_equiv_pos_as_xyz
  1  'x, y, z'
loop_
 _atom_site_type_symbol
 _atom_site_label
 _atom_site_symmetry_multiplicity
 _atom_site_fract_x
 _atom_site_fract_y
 _atom_site_fract_z
 _atom_site_occupancy
  Lu  Lu0  1  0.323982  0.315439  0.639422  1
  Lu  Lu1  1  0.676018  0.684561  0.360578  1
  Lu  Lu2  1  0.676018  0.315439  0.991458  1
  Lu  Lu3  1  0.323982  0.684561  0.008542  1
  Lu  Lu4  1  0.189381  0.432576  0.243195  1
  Lu  Lu5  1  0.810619  0.567424  0.756805  1
  Lu  Lu6  1  0.189381  0.946186  0.756805  1
  Lu  Lu7  1  0.943897  0.181486  0.762412  1
  Lu  Lu8  1  0.810619  0.053814  0.243195  1
  Lu  Lu9  1  0.056103  0.818514  0.237588  1
  Lu  Lu10  1  0.419075  0.181486  0.237588  1
  Lu  Lu11  1  0.580925  0.818514  0.762412  1
  In  In12  1  0.500000  0.000000  0.500000  1
  Tc  Tc13  1  0.341914  0.341914  0.000000  1
  Tc  Tc14  1  0.658086  0.658086  0.000000  1
  Tc  Tc15  1  0.000000  0.000000  0.000000  1
  Te  Te16  1  0.000000  0.500000  0.500000  1
