# generated using pymatgen
data_Yb2AlNi6GeB2
_symmetry_space_group_name_H-M   'P 1'
_cell_length_a   5.21253800
_cell_length_b   5.20410897
_cell_length_c   6.57290092
_cell_angle_alpha   90.07535952
_cell_angle_beta   89.89955741
_cell_angle_gamma   119.95434635
_symmetry_Int_Tables_number   1
_chemical_formula_structural   Yb2AlNi6GeB2
_chemical_formula_sum   'Yb2 Al1 Ni6 Ge1 B2'
_cell_volume   154.48354169
_cell_formula_units_Z   1
loop_
 _symmetry_equiv_pos_site_id
 _symmetry_equiv_pos_as_xyz
  1  'x, y, z'
loop_
 _atom_site_type_symbol
 _atom_site_label
 _atom_site_symmetry_multiplicity
 _atom_site_fract_x
 _atom_site_fract_y
 _atom_site_fract_z
 _atom_site_occupancy
  Yb  Yb0  1  0.999930  0.999980  0.000015  1
  Yb  Yb1  1  0.000017  0.999996  0.499992  1
  Al  Al2  1  0.333610  0.666821  0.500075  1
  Ni  Ni3  1  0.500022  0.499677  0.797994  1
  Ni  Ni4  1  0.500293  0.000167  0.797956  1
  Ni  Ni5  1  0.000184  0.499842  0.797864  1
  Ni  Ni6  1  0.499757  0.500262  0.202007  1
  Ni  Ni7  1  0.499867  0.999849  0.202018  1
  Ni  Ni8  1  0.999961  0.500213  0.202094  1
  Ge  Ge9  1  0.666419  0.333174  0.499940  1
  B  B10  1  0.667073  0.333592  0.000128  1
  B  B11  1  0.332868  0.666426  0.999918  1
