# generated using pymatgen
data_Ho5LuTe3
_symmetry_space_group_name_H-M   'P 1'
_cell_length_a   4.09449900
_cell_length_b   11.57379300
_cell_length_c   22.15007400
_cell_angle_alpha   90.00000000
_cell_angle_beta   90.00000000
_cell_angle_gamma   90.00000000
_symmetry_Int_Tables_number   1
_chemical_formula_structural   Ho5LuTe3
_chemical_formula_sum   'Ho20 Lu4 Te12'
_cell_volume   1049.66728438
_cell_formula_units_Z   4
loop_
 _symmetry_equiv_pos_site_id
 _symmetry_equiv_pos_as_xyz
  1  'x, y, z'
loop_
 _atom_site_type_symbol
 _atom_site_label
 _atom_site_symmetry_multiplicity
 _atom_site_fract_x
 _atom_site_fract_y
 _atom_site_fract_z
 _atom_site_occupancy
  Ho  Ho0  1  0.250000  0.151123  0.392299  1
  Ho  Ho1  1  0.750000  0.848877  0.607701  1
  Ho  Ho2  1  0.750000  0.651123  0.107701  1
  Ho  Ho3  1  0.250000  0.348877  0.892299  1
  Ho  Ho4  1  0.250000  0.455249  0.340245  1
  Ho  Ho5  1  0.750000  0.544751  0.659755  1
  Ho  Ho6  1  0.750000  0.955249  0.159755  1
  Ho  Ho7  1  0.250000  0.044751  0.840245  1
  Ho  Ho8  1  0.250000  0.734894  0.233117  1
  Ho  Ho9  1  0.750000  0.265106  0.766883  1
  Ho  Ho10  1  0.750000  0.234894  0.266883  1
  Ho  Ho11  1  0.250000  0.765106  0.733117  1
  Ho  Ho12  1  0.250000  0.115344  0.034360  1
  Ho  Ho13  1  0.750000  0.884656  0.965640  1
  Ho  Ho14  1  0.750000  0.615344  0.465640  1
  Ho  Ho15  1  0.250000  0.384656  0.534360  1
  Ho  Ho16  1  0.250000  0.415247  0.145780  1
  Ho  Ho17  1  0.750000  0.584753  0.854220  1
  Ho  Ho18  1  0.750000  0.915247  0.354220  1
  Ho  Ho19  1  0.250000  0.084753  0.645780  1
  Lu  Lu20  1  0.250000  0.610671  0.982552  1
  Lu  Lu21  1  0.750000  0.389329  0.017448  1
  Lu  Lu22  1  0.750000  0.110671  0.517448  1
  Lu  Lu23  1  0.250000  0.889329  0.482552  1
  Te  Te24  1  0.250000  0.849637  0.068711  1
  Te  Te25  1  0.750000  0.150363  0.931289  1
  Te  Te26  1  0.750000  0.349637  0.431289  1
  Te  Te27  1  0.250000  0.650363  0.568711  1
  Te  Te28  1  0.250000  0.712375  0.373264  1
  Te  Te29  1  0.750000  0.287625  0.626736  1
  Te  Te30  1  0.750000  0.212375  0.126736  1
  Te  Te31  1  0.250000  0.787625  0.873264  1
  Te  Te32  1  0.250000  0.020521  0.261119  1
  Te  Te33  1  0.750000  0.979479  0.738881  1
  Te  Te34  1  0.750000  0.520521  0.238881  1
  Te  Te35  1  0.250000  0.479479  0.761119  1
