# generated using pymatgen
data_La3Pr2Nd5C4I15
_symmetry_space_group_name_H-M   'P 1'
_cell_length_a   9.85903644
_cell_length_b   10.73954813
_cell_length_c   11.87792206
_cell_angle_alpha   93.73116835
_cell_angle_beta   114.36090909
_cell_angle_gamma   109.31430259
_symmetry_Int_Tables_number   1
_chemical_formula_structural   La3Pr2Nd5C4I15
_chemical_formula_sum   'La3 Pr2 Nd5 C4 I15'
_cell_volume   1051.07862248
_cell_formula_units_Z   1
loop_
 _symmetry_equiv_pos_site_id
 _symmetry_equiv_pos_as_xyz
  1  'x, y, z'
loop_
 _atom_site_type_symbol
 _atom_site_label
 _atom_site_symmetry_multiplicity
 _atom_site_fract_x
 _atom_site_fract_y
 _atom_site_fract_z
 _atom_site_occupancy
  La  La0  1  0.706248  0.568758  0.045179  1
  La  La1  1  0.293591  0.432164  0.955405  1
  La  La2  1  0.658713  0.252694  0.834315  1
  Pr  Pr3  1  0.596828  0.542681  0.341971  1
  Pr  Pr4  1  0.345223  0.747369  0.165335  1
  Nd  Nd5  1  0.775308  0.883000  0.257327  1
  Nd  Nd6  1  0.526720  0.185769  0.100355  1
  Nd  Nd7  1  0.225537  0.116920  0.743762  1
  Nd  Nd8  1  0.402095  0.457065  0.658875  1
  Nd  Nd9  1  0.471711  0.814657  0.899024  1
  C  C10  1  0.482950  0.299805  0.937196  1
  C  C11  1  0.518542  0.700345  0.062121  1
  C  C12  1  0.453703  0.361558  0.834065  1
  C  C13  1  0.547384  0.638227  0.164707  1
  I  I14  1  0.209113  0.907344  0.937394  1
  I  I15  1  0.106706  0.188758  0.471459  1
  I  I16  1  0.155649  0.558581  0.702118  1
  I  I17  1  0.401389  0.966262  0.647974  1
  I  I18  1  0.707656  0.734367  0.818113  1
  I  I19  1  0.289641  0.264400  0.180721  1
  I  I20  1  0.844440  0.440661  0.297428  1
  I  I21  1  0.894868  0.812472  0.530503  1
  I  I22  1  0.358538  0.630097  0.412264  1
  I  I23  1  0.053195  0.836342  0.221955  1
  I  I24  1  0.790505  0.091656  0.064784  1
  I  I25  1  0.639021  0.371437  0.586166  1
  I  I26  1  0.946040  0.162950  0.777760  1
  I  I27  1  0.595869  0.031166  0.350464  1
  I  I28  1  0.002817  0.502491  0.001257  1
