# generated using pymatgen
data_Yb5Cr3(P3Ir4)4
_symmetry_space_group_name_H-M   'P 1'
_cell_length_a   12.60040200
_cell_length_b   12.60040267
_cell_length_c   3.93958800
_cell_angle_alpha   90.00000000
_cell_angle_beta   90.00000000
_cell_angle_gamma   119.99999825
_symmetry_Int_Tables_number   1
_chemical_formula_structural   Yb5Cr3(P3Ir4)4
_chemical_formula_sum   'Yb5 Cr3 P12 Ir16'
_cell_volume   541.68931638
_cell_formula_units_Z   1
loop_
 _symmetry_equiv_pos_site_id
 _symmetry_equiv_pos_as_xyz
  1  'x, y, z'
loop_
 _atom_site_type_symbol
 _atom_site_label
 _atom_site_symmetry_multiplicity
 _atom_site_fract_x
 _atom_site_fract_y
 _atom_site_fract_z
 _atom_site_occupancy
  Yb  Yb0  1  0.333333  0.666667  0.500000  1
  Yb  Yb1  1  0.666667  0.333333  0.500000  1
  Yb  Yb2  1  0.000000  0.814884  0.000000  1
  Yb  Yb3  1  0.185116  0.185116  0.000000  1
  Yb  Yb4  1  0.814884  0.000000  0.000000  1
  Cr  Cr5  1  0.000000  0.452708  0.500000  1
  Cr  Cr6  1  0.547292  0.547292  0.500000  1
  Cr  Cr7  1  0.452708  0.000000  0.500000  1
  P  P8  1  0.000000  0.632559  0.500000  1
  P  P9  1  0.367441  0.367441  0.500000  1
  P  P10  1  0.632559  0.000000  0.500000  1
  P  P11  1  0.516067  0.685148  0.000000  1
  P  P12  1  0.314852  0.830919  0.000000  1
  P  P13  1  0.169081  0.483933  0.000000  1
  P  P14  1  0.483933  0.169081  0.000000  1
  P  P15  1  0.685148  0.516067  0.000000  1
  P  P16  1  0.830919  0.314852  0.000000  1
  P  P17  1  0.000000  0.179388  0.500000  1
  P  P18  1  0.820612  0.820612  0.500000  1
  P  P19  1  0.179388  0.000000  0.500000  1
  Ir  Ir20  1  0.510232  0.869982  0.000000  1
  Ir  Ir21  1  0.130018  0.640251  0.000000  1
  Ir  Ir22  1  0.359749  0.489768  0.000000  1
  Ir  Ir23  1  0.489768  0.359749  0.000000  1
  Ir  Ir24  1  0.869982  0.510232  0.000000  1
  Ir  Ir25  1  0.640251  0.130018  0.000000  1
  Ir  Ir26  1  0.000000  0.286029  0.000000  1
  Ir  Ir27  1  0.713971  0.713971  0.000000  1
  Ir  Ir28  1  0.286029  0.000000  0.000000  1
  Ir  Ir29  1  0.623448  0.804014  0.500000  1
  Ir  Ir30  1  0.195986  0.819433  0.500000  1
  Ir  Ir31  1  0.180567  0.376552  0.500000  1
  Ir  Ir32  1  0.376552  0.180567  0.500000  1
  Ir  Ir33  1  0.804014  0.623448  0.500000  1
  Ir  Ir34  1  0.819433  0.195986  0.500000  1
  Ir  Ir35  1  0.000000  0.000000  0.500000  1
