# generated using pymatgen
data_ErLu4Co19(As3P)3
_symmetry_space_group_name_H-M   'P 1'
_cell_length_a   12.25551600
_cell_length_b   12.25551620
_cell_length_c   3.73350800
_cell_angle_alpha   90.00000000
_cell_angle_beta   90.00000000
_cell_angle_gamma   119.99999406
_symmetry_Int_Tables_number   1
_chemical_formula_structural   ErLu4Co19(As3P)3
_chemical_formula_sum   'Er1 Lu4 Co19 As9 P3'
_cell_volume   485.63608971
_cell_formula_units_Z   1
loop_
 _symmetry_equiv_pos_site_id
 _symmetry_equiv_pos_as_xyz
  1  'x, y, z'
loop_
 _atom_site_type_symbol
 _atom_site_label
 _atom_site_symmetry_multiplicity
 _atom_site_fract_x
 _atom_site_fract_y
 _atom_site_fract_z
 _atom_site_occupancy
  Er  Er0  1  0.333333  0.666667  0.500000  1
  Lu  Lu1  1  0.666667  0.333333  0.500000  1
  Lu  Lu2  1  0.178956  0.999994  0.000000  1
  Lu  Lu3  1  0.000006  0.178962  0.000000  1
  Lu  Lu4  1  0.821038  0.821044  0.000000  1
  Co  Co5  1  0.197250  0.368030  0.500000  1
  Co  Co6  1  0.631970  0.829221  0.500000  1
  Co  Co7  1  0.170779  0.802750  0.500000  1
  Co  Co8  1  0.829019  0.631615  0.500000  1
  Co  Co9  1  0.802596  0.170981  0.500000  1
  Co  Co10  1  0.368385  0.197404  0.500000  1
  Co  Co11  1  0.553376  0.999948  0.500000  1
  Co  Co12  1  0.000052  0.553427  0.500000  1
  Co  Co13  1  0.446573  0.446624  0.500000  1
  Co  Co14  1  0.126000  0.478100  0.000000  1
  Co  Co15  1  0.521900  0.647900  0.000000  1
  Co  Co16  1  0.352100  0.874000  0.000000  1
  Co  Co17  1  0.647939  0.521243  0.000000  1
  Co  Co18  1  0.873304  0.352061  0.000000  1
  Co  Co19  1  0.478757  0.126696  0.000000  1
  Co  Co20  1  0.726198  0.000242  0.000000  1
  Co  Co21  1  0.999758  0.725956  0.000000  1
  Co  Co22  1  0.274044  0.273802  0.000000  1
  Co  Co23  1  0.000000  0.000000  0.500000  1
  As  As24  1  0.361100  0.999977  0.500000  1
  As  As25  1  0.000023  0.361124  0.500000  1
  As  As26  1  0.638876  0.638900  0.500000  1
  As  As27  1  0.319001  0.480114  0.000000  1
  As  As28  1  0.519886  0.838887  0.000000  1
  As  As29  1  0.161113  0.680999  0.000000  1
  As  As30  1  0.838139  0.519140  0.000000  1
  As  As31  1  0.681001  0.161861  0.000000  1
  As  As32  1  0.480860  0.318999  0.000000  1
  P  P33  1  0.823699  0.000051  0.500000  1
  P  P34  1  0.999949  0.823649  0.500000  1
  P  P35  1  0.176351  0.176301  0.500000  1
