# generated using pymatgen
data_Rb3Er(VS4)2
_symmetry_space_group_name_H-M   'P 1'
_cell_length_a   9.81904878
_cell_length_b   6.87928700
_cell_length_c   11.82939300
_cell_angle_alpha   90.00000000
_cell_angle_beta   89.41387069
_cell_angle_gamma   90.00000000
_symmetry_Int_Tables_number   1
_chemical_formula_structural   Rb3Er(VS4)2
_chemical_formula_sum   'Rb6 Er2 V4 S16'
_cell_volume   799.01067426
_cell_formula_units_Z   2
loop_
 _symmetry_equiv_pos_site_id
 _symmetry_equiv_pos_as_xyz
  1  'x, y, z'
loop_
 _atom_site_type_symbol
 _atom_site_label
 _atom_site_symmetry_multiplicity
 _atom_site_fract_x
 _atom_site_fract_y
 _atom_site_fract_z
 _atom_site_occupancy
  Rb  Rb0  1  0.373340  0.801627  0.082521  1
  Rb  Rb1  1  0.403103  0.306706  0.345167  1
  Rb  Rb2  1  0.850104  0.308736  0.437880  1
  Rb  Rb3  1  0.149896  0.808736  0.562121  1
  Rb  Rb4  1  0.596897  0.806706  0.654833  1
  Rb  Rb5  1  0.626661  0.301627  0.917479  1
  Er  Er6  1  0.890180  0.782114  0.143168  1
  Er  Er7  1  0.109820  0.282114  0.856832  1
  V  V8  1  0.085683  0.336369  0.148449  1
  V  V9  1  0.641761  0.805336  0.315504  1
  V  V10  1  0.358239  0.305335  0.684496  1
  V  V11  1  0.914317  0.836369  0.851551  1
  S  S12  1  0.929624  0.402777  0.028251  1
  S  S13  1  0.273656  0.304556  0.052262  1
  S  S14  1  0.677244  0.043280  0.199696  1
  S  S15  1  0.667560  0.551440  0.207519  1
  S  S16  1  0.046295  0.076548  0.245673  1
  S  S17  1  0.094150  0.583918  0.259404  1
  S  S18  1  0.445628  0.814067  0.394474  1
  S  S19  1  0.814276  0.804804  0.425966  1
  S  S20  1  0.185725  0.304803  0.574034  1
  S  S21  1  0.554371  0.314066  0.605526  1
  S  S22  1  0.905850  0.083917  0.740596  1
  S  S23  1  0.953705  0.576548  0.754327  1
  S  S24  1  0.332440  0.051441  0.792481  1
  S  S25  1  0.322756  0.543278  0.800304  1
  S  S26  1  0.726343  0.804557  0.947738  1
  S  S27  1  0.070376  0.902777  0.971748  1
