# generated using pymatgen
data_Pa6FeCo14Si7Ir
_symmetry_space_group_name_H-M   'P 1'
_cell_length_a   8.30287083
_cell_length_b   8.31701509
_cell_length_c   8.31701300
_cell_angle_alpha   59.99999638
_cell_angle_beta   59.94362776
_cell_angle_gamma   59.94363462
_symmetry_Int_Tables_number   1
_chemical_formula_structural   Pa6FeCo14Si7Ir
_chemical_formula_sum   'Pa6 Fe1 Co14 Si7 Ir1'
_cell_volume   405.76780972
_cell_formula_units_Z   1
loop_
 _symmetry_equiv_pos_site_id
 _symmetry_equiv_pos_as_xyz
  1  'x, y, z'
loop_
 _atom_site_type_symbol
 _atom_site_label
 _atom_site_symmetry_multiplicity
 _atom_site_fract_x
 _atom_site_fract_y
 _atom_site_fract_z
 _atom_site_occupancy
  Pa  Pa0  1  0.782046  0.211039  0.795875  1
  Pa  Pa1  1  0.782046  0.795875  0.211039  1
  Pa  Pa2  1  0.216234  0.784852  0.214062  1
  Pa  Pa3  1  0.216234  0.214062  0.784852  1
  Pa  Pa4  1  0.216234  0.784852  0.784852  1
  Pa  Pa5  1  0.782046  0.211039  0.211039  1
  Fe  Fe6  1  0.505714  0.164762  0.164762  1
  Co  Co7  1  0.617849  0.622945  0.136261  1
  Co  Co8  1  0.376779  0.379726  0.863769  1
  Co  Co9  1  0.835209  0.499197  0.832796  1
  Co  Co10  1  0.835209  0.832796  0.832796  1
  Co  Co11  1  0.835209  0.832796  0.499197  1
  Co  Co12  1  0.376779  0.379726  0.379726  1
  Co  Co13  1  0.134620  0.621794  0.621794  1
  Co  Co14  1  0.617849  0.622945  0.622945  1
  Co  Co15  1  0.170029  0.162126  0.162126  1
  Co  Co16  1  0.170029  0.505717  0.162126  1
  Co  Co17  1  0.500064  0.833312  0.833312  1
  Co  Co18  1  0.617849  0.136261  0.622945  1
  Co  Co19  1  0.170029  0.162126  0.505717  1
  Co  Co20  1  0.376779  0.863769  0.379726  1
  Si  Si21  1  0.501648  0.998143  0.998143  1
  Si  Si22  1  0.001998  0.501101  0.995801  1
  Si  Si23  1  0.501648  0.502067  0.998143  1
  Si  Si24  1  0.491053  0.502983  0.502983  1
  Si  Si25  1  0.001998  0.501101  0.501101  1
  Si  Si26  1  0.001998  0.995801  0.501101  1
  Si  Si27  1  0.501648  0.998143  0.502067  1
  Ir  Ir28  1  0.863164  0.378945  0.378945  1
