# generated using pymatgen
data_YbZnIn3Rh
_symmetry_space_group_name_H-M   'P 1'
_cell_length_a   4.17587800
_cell_length_b   7.52804400
_cell_length_c   8.37007000
_cell_angle_alpha   90.00000000
_cell_angle_beta   90.00000000
_cell_angle_gamma   90.00000000
_symmetry_Int_Tables_number   1
_chemical_formula_structural   YbZnIn3Rh
_chemical_formula_sum   'Yb2 Zn2 In6 Rh2'
_cell_volume   263.12313864
_cell_formula_units_Z   2
loop_
 _symmetry_equiv_pos_site_id
 _symmetry_equiv_pos_as_xyz
  1  'x, y, z'
loop_
 _atom_site_type_symbol
 _atom_site_label
 _atom_site_symmetry_multiplicity
 _atom_site_fract_x
 _atom_site_fract_y
 _atom_site_fract_z
 _atom_site_occupancy
  Yb  Yb0  1  0.000000  0.405597  0.250000  1
  Yb  Yb1  1  0.000000  0.594403  0.750000  1
  Zn  Zn2  1  0.000000  0.000000  0.000000  1
  Zn  Zn3  1  0.000000  0.000000  0.500000  1
  In  In4  1  0.500000  0.309491  0.558368  1
  In  In5  1  0.500000  0.309491  0.941632  1
  In  In6  1  0.500000  0.690509  0.441632  1
  In  In7  1  0.500000  0.690509  0.058368  1
  In  In8  1  0.500000  0.934922  0.750000  1
  In  In9  1  0.500000  0.065078  0.250000  1
  Rh  Rh10  1  0.000000  0.811393  0.250000  1
  Rh  Rh11  1  0.000000  0.188607  0.750000  1
