# generated using pymatgen
data_Cs6Hf3Zr(CuTe10)2
_symmetry_space_group_name_H-M   'P 1'
_cell_length_a   10.20764789
_cell_length_b   11.26001136
_cell_length_c   11.46955775
_cell_angle_alpha   89.38462596
_cell_angle_beta   89.38888318
_cell_angle_gamma   78.01565988
_symmetry_Int_Tables_number   1
_chemical_formula_structural   Cs6Hf3Zr(CuTe10)2
_chemical_formula_sum   'Cs6 Hf3 Zr1 Cu2 Te20'
_cell_volume   1289.43539926
_cell_formula_units_Z   1
loop_
 _symmetry_equiv_pos_site_id
 _symmetry_equiv_pos_as_xyz
  1  'x, y, z'
loop_
 _atom_site_type_symbol
 _atom_site_label
 _atom_site_symmetry_multiplicity
 _atom_site_fract_x
 _atom_site_fract_y
 _atom_site_fract_z
 _atom_site_occupancy
  Cs  Cs0  1  0.884443  0.891199  0.261459  1
  Cs  Cs1  1  0.115555  0.108766  0.738566  1
  Cs  Cs2  1  0.445095  0.765046  0.389561  1
  Cs  Cs3  1  0.554908  0.234950  0.610433  1
  Cs  Cs4  1  0.300127  0.625437  0.896230  1
  Cs  Cs5  1  0.699896  0.374536  0.103759  1
  Hf  Hf6  1  0.892577  0.622605  0.635392  1
  Hf  Hf7  1  0.307835  0.159239  0.143046  1
  Hf  Hf8  1  0.692107  0.840944  0.857021  1
  Zr  Zr9  1  0.107849  0.377058  0.364206  1
  Cu  Cu10  1  0.920687  0.377649  0.556788  1
  Cu  Cu11  1  0.078809  0.623189  0.444075  1
  Te  Te12  1  0.842789  0.559830  0.399493  1
  Te  Te13  1  0.155971  0.441853  0.602570  1
  Te  Te14  1  0.928586  0.206303  0.406782  1
  Te  Te15  1  0.071069  0.792769  0.593481  1
  Te  Te16  1  0.193069  0.588583  0.241817  1
  Te  Te17  1  0.807308  0.411712  0.757880  1
  Te  Te18  1  0.214351  0.116407  0.390560  1
  Te  Te19  1  0.785857  0.882368  0.609521  1
  Te  Te20  1  0.079669  0.362461  0.107825  1
  Te  Te21  1  0.920258  0.637397  0.889986  1
  Te  Te22  1  0.391313  0.356740  0.289975  1
  Te  Te23  1  0.609852  0.643193  0.709624  1
  Te  Te24  1  0.044574  0.122280  0.067970  1
  Te  Te25  1  0.955374  0.877610  0.931935  1
  Te  Te26  1  0.524009  0.090590  0.303428  1
  Te  Te27  1  0.476110  0.909247  0.696548  1
  Te  Te28  1  0.331981  0.913192  0.070232  1
  Te  Te29  1  0.668017  0.086814  0.929783  1
  Te  Te30  1  0.409252  0.244832  0.931047  1
  Te  Te31  1  0.590704  0.755198  0.069005  1
