# generated using pymatgen
data_Zr4Nb4Si3As
_symmetry_space_group_name_H-M   'P 1'
_cell_length_a   3.65661500
_cell_length_b   7.04067828
_cell_length_c   8.54237876
_cell_angle_alpha   89.97929861
_cell_angle_beta   90.00000000
_cell_angle_gamma   90.00000000
_symmetry_Int_Tables_number   1
_chemical_formula_structural   Zr4Nb4Si3As
_chemical_formula_sum   'Zr4 Nb4 Si3 As1'
_cell_volume   219.92395226
_cell_formula_units_Z   1
loop_
 _symmetry_equiv_pos_site_id
 _symmetry_equiv_pos_as_xyz
  1  'x, y, z'
loop_
 _atom_site_type_symbol
 _atom_site_label
 _atom_site_symmetry_multiplicity
 _atom_site_fract_x
 _atom_site_fract_y
 _atom_site_fract_z
 _atom_site_occupancy
  Zr  Zr0  1  0.250000  0.543157  0.833328  1
  Zr  Zr1  1  0.750000  0.952122  0.332698  1
  Zr  Zr2  1  0.250000  0.040974  0.670281  1
  Zr  Zr3  1  0.750000  0.460370  0.164472  1
  Nb  Nb4  1  0.250000  0.132449  0.056860  1
  Nb  Nb5  1  0.750000  0.868773  0.941276  1
  Nb  Nb6  1  0.250000  0.634935  0.442185  1
  Nb  Nb7  1  0.750000  0.369018  0.560529  1
  Si  Si8  1  0.750000  0.744570  0.640910  1
  Si  Si9  1  0.250000  0.754809  0.139786  1
  Si  Si10  1  0.750000  0.246253  0.859122  1
  As  As11  1  0.250000  0.252569  0.358552  1
