# generated using pymatgen
data_Y4Nb2(IrRu)3
_symmetry_space_group_name_H-M   'P 1'
_cell_length_a   5.66008246
_cell_length_b   5.64312286
_cell_length_c   8.26991800
_cell_angle_alpha   90.00000000
_cell_angle_beta   90.00000000
_cell_angle_gamma   119.90092325
_symmetry_Int_Tables_number   1
_chemical_formula_structural   Y4Nb2(IrRu)3
_chemical_formula_sum   'Y4 Nb2 Ir3 Ru3'
_cell_volume   228.98488572
_cell_formula_units_Z   1
loop_
 _symmetry_equiv_pos_site_id
 _symmetry_equiv_pos_as_xyz
  1  'x, y, z'
loop_
 _atom_site_type_symbol
 _atom_site_label
 _atom_site_symmetry_multiplicity
 _atom_site_fract_x
 _atom_site_fract_y
 _atom_site_fract_z
 _atom_site_occupancy
  Y  Y0  1  0.333830  0.666915  0.439713  1
  Y  Y1  1  0.666487  0.333243  0.562427  1
  Y  Y2  1  0.666487  0.333243  0.937573  1
  Y  Y3  1  0.333830  0.666915  0.060287  1
  Nb  Nb4  1  0.994680  0.997340  0.002798  1
  Nb  Nb5  1  0.994680  0.997340  0.497202  1
  Ir  Ir6  1  0.173118  0.343510  0.750000  1
  Ir  Ir7  1  0.173118  0.829607  0.750000  1
  Ir  Ir8  1  0.346386  0.173193  0.250000  1
  Ru  Ru9  1  0.829640  0.654408  0.250000  1
  Ru  Ru10  1  0.658105  0.829052  0.750000  1
  Ru  Ru11  1  0.829640  0.175233  0.250000  1
