# generated using pymatgen
data_Ta6Ti(NbSi2)3
_symmetry_space_group_name_H-M   'P 1'
_cell_length_a   7.55123093
_cell_length_b   7.55256738
_cell_length_c   7.55014739
_cell_angle_alpha   128.50874768
_cell_angle_beta   128.49819323
_cell_angle_gamma   75.78677289
_symmetry_Int_Tables_number   1
_chemical_formula_structural   Ta6Ti(NbSi2)3
_chemical_formula_sum   'Ta6 Ti1 Nb3 Si6'
_cell_volume   256.51074508
_cell_formula_units_Z   1
loop_
 _symmetry_equiv_pos_site_id
 _symmetry_equiv_pos_as_xyz
  1  'x, y, z'
loop_
 _atom_site_type_symbol
 _atom_site_label
 _atom_site_symmetry_multiplicity
 _atom_site_fract_x
 _atom_site_fract_y
 _atom_site_fract_z
 _atom_site_occupancy
  Ta  Ta0  1  0.184709  0.684319  0.168944  1
  Ta  Ta1  1  0.983987  0.814579  0.499332  1
  Ta  Ta2  1  0.314864  0.484276  0.499903  1
  Ta  Ta3  1  0.484101  0.983918  0.169030  1
  Ta  Ta4  1  0.814588  0.314750  0.830809  1
  Ta  Ta5  1  0.500092  0.500439  0.999958  1
  Ti  Ti6  1  0.000204  0.999981  0.999973  1
  Nb  Nb7  1  0.016821  0.184885  0.500438  1
  Nb  Nb8  1  0.684842  0.516744  0.500257  1
  Nb  Nb9  1  0.516294  0.016459  0.831383  1
  Si  Si10  1  0.750681  0.750375  0.000021  1
  Si  Si11  1  0.248986  0.249325  0.000001  1
  Si  Si12  1  0.366216  0.127128  0.493434  1
  Si  Si13  1  0.633491  0.872619  0.506195  1
  Si  Si14  1  0.872776  0.366436  0.239211  1
  Si  Si15  1  0.127350  0.633769  0.761111  1
