# generated using pymatgen
data_Pr3ScZn2Pt3
_symmetry_space_group_name_H-M   'P 1'
_cell_length_a   7.41694400
_cell_length_b   7.53508520
_cell_length_c   4.14744700
_cell_angle_alpha   90.00000000
_cell_angle_beta   90.00000000
_cell_angle_gamma   119.48269026
_symmetry_Int_Tables_number   1
_chemical_formula_structural   Pr3ScZn2Pt3
_chemical_formula_sum   'Pr3 Sc1 Zn2 Pt3'
_cell_volume   201.77390292
_cell_formula_units_Z   1
loop_
 _symmetry_equiv_pos_site_id
 _symmetry_equiv_pos_as_xyz
  1  'x, y, z'
loop_
 _atom_site_type_symbol
 _atom_site_label
 _atom_site_symmetry_multiplicity
 _atom_site_fract_x
 _atom_site_fract_y
 _atom_site_fract_z
 _atom_site_occupancy
  Pr  Pr0  1  0.615324  0.000000  0.000000  1
  Pr  Pr1  1  0.981982  0.566617  0.000000  1
  Pr  Pr2  1  0.415365  0.433383  0.000000  1
  Sc  Sc3  1  0.231829  0.000000  0.500000  1
  Zn  Zn4  1  0.002866  0.243170  0.500000  1
  Zn  Zn5  1  0.759698  0.756830  0.500000  1
  Pt  Pt6  1  0.331713  0.681834  0.500000  1
  Pt  Pt7  1  0.649880  0.318166  0.500000  1
  Pt  Pt8  1  0.011342  0.000000  0.000000  1
