# generated using pymatgen
data_Pu2GaRh3
_symmetry_space_group_name_H-M   'P 1'
_cell_length_a   5.60330024
_cell_length_b   5.60330060
_cell_length_c   5.12070582
_cell_angle_alpha   56.83021880
_cell_angle_beta   56.83021125
_cell_angle_gamma   60.00000335
_symmetry_Int_Tables_number   1
_chemical_formula_structural   Pu2GaRh3
_chemical_formula_sum   'Pu2 Ga1 Rh3'
_cell_volume   107.92971378
_cell_formula_units_Z   1
loop_
 _symmetry_equiv_pos_site_id
 _symmetry_equiv_pos_as_xyz
  1  'x, y, z'
loop_
 _atom_site_type_symbol
 _atom_site_label
 _atom_site_symmetry_multiplicity
 _atom_site_fract_x
 _atom_site_fract_y
 _atom_site_fract_z
 _atom_site_occupancy
  Pu  Pu0  1  0.249887  0.249887  0.250339  1
  Pu  Pu1  1  0.000113  0.000113  0.999661  1
  Ga  Ga2  1  0.625000  0.625000  0.125000  1
  Rh  Rh3  1  0.125000  0.625000  0.625000  1
  Rh  Rh4  1  0.625000  0.625000  0.625000  1
  Rh  Rh5  1  0.625000  0.125000  0.625000  1
