# generated using pymatgen
data_Dy3Er2Bi2Ru
_symmetry_space_group_name_H-M   'P 1'
_cell_length_a   7.95677300
_cell_length_b   9.00528100
_cell_length_c   12.44972000
_cell_angle_alpha   90.00000000
_cell_angle_beta   90.00000000
_cell_angle_gamma   90.00000000
_symmetry_Int_Tables_number   1
_chemical_formula_structural   Dy3Er2Bi2Ru
_chemical_formula_sum   'Dy12 Er8 Bi8 Ru4'
_cell_volume   892.05949731
_cell_formula_units_Z   4
loop_
 _symmetry_equiv_pos_site_id
 _symmetry_equiv_pos_as_xyz
  1  'x, y, z'
loop_
 _atom_site_type_symbol
 _atom_site_label
 _atom_site_symmetry_multiplicity
 _atom_site_fract_x
 _atom_site_fract_y
 _atom_site_fract_z
 _atom_site_occupancy
  Dy  Dy0  1  0.842849  0.750000  0.793482  1
  Dy  Dy1  1  0.157151  0.250000  0.206518  1
  Dy  Dy2  1  0.342849  0.250000  0.706518  1
  Dy  Dy3  1  0.657151  0.750000  0.293482  1
  Dy  Dy4  1  0.375793  0.750000  0.691410  1
  Dy  Dy5  1  0.624207  0.250000  0.308590  1
  Dy  Dy6  1  0.875793  0.250000  0.808590  1
  Dy  Dy7  1  0.124207  0.750000  0.191410  1
  Dy  Dy8  1  0.946462  0.750000  0.504421  1
  Dy  Dy9  1  0.053538  0.250000  0.495579  1
  Dy  Dy10  1  0.446462  0.250000  0.995579  1
  Dy  Dy11  1  0.553538  0.750000  0.004421  1
  Er  Er12  1  0.674513  0.041457  0.564046  1
  Er  Er13  1  0.325487  0.958543  0.435954  1
  Er  Er14  1  0.174513  0.958543  0.935954  1
  Er  Er15  1  0.325487  0.541457  0.435954  1
  Er  Er16  1  0.825487  0.041457  0.064046  1
  Er  Er17  1  0.674513  0.458543  0.564046  1
  Er  Er18  1  0.825487  0.458543  0.064046  1
  Er  Er19  1  0.174513  0.541457  0.935954  1
  Bi  Bi20  1  0.568850  0.493299  0.827330  1
  Bi  Bi21  1  0.431150  0.506701  0.172670  1
  Bi  Bi22  1  0.068850  0.506701  0.672670  1
  Bi  Bi23  1  0.431150  0.993299  0.172670  1
  Bi  Bi24  1  0.931150  0.493299  0.327330  1
  Bi  Bi25  1  0.568850  0.006701  0.827330  1
  Bi  Bi26  1  0.931150  0.006701  0.327330  1
  Bi  Bi27  1  0.068850  0.993299  0.672670  1
  Ru  Ru28  1  0.572583  0.750000  0.510691  1
  Ru  Ru29  1  0.427417  0.250000  0.489309  1
  Ru  Ru30  1  0.072583  0.250000  0.989309  1
  Ru  Ru31  1  0.927417  0.750000  0.010691  1
