# generated using pymatgen
data_Tl2WS4
_symmetry_space_group_name_H-M   'P 1'
_cell_length_a   6.83728100
_cell_length_b   9.53914400
_cell_length_c   15.25933900
_cell_angle_alpha   90.00000000
_cell_angle_beta   90.00000000
_cell_angle_gamma   90.00000000
_symmetry_Int_Tables_number   1
_chemical_formula_structural   Tl2WS4
_chemical_formula_sum   'Tl8 W4 S16'
_cell_volume   995.24167888
_cell_formula_units_Z   4
loop_
 _symmetry_equiv_pos_site_id
 _symmetry_equiv_pos_as_xyz
  1  'x, y, z'
loop_
 _atom_site_type_symbol
 _atom_site_label
 _atom_site_symmetry_multiplicity
 _atom_site_fract_x
 _atom_site_fract_y
 _atom_site_fract_z
 _atom_site_occupancy
  Tl  Tl0  1  0.000000  0.000000  0.000000  1
  Tl  Tl1  1  0.000000  0.500000  0.000000  1
  Tl  Tl2  1  0.498227  0.750000  0.233007  1
  Tl  Tl3  1  0.998227  0.250000  0.266993  1
  Tl  Tl4  1  0.500000  0.000000  0.500000  1
  Tl  Tl5  1  0.500000  0.500000  0.500000  1
  Tl  Tl6  1  0.001773  0.750000  0.733007  1
  Tl  Tl7  1  0.501773  0.250000  0.766993  1
  W  W8  1  0.400262  0.250000  0.093724  1
  W  W9  1  0.900262  0.750000  0.406276  1
  W  W10  1  0.099738  0.250000  0.593724  1
  W  W11  1  0.599738  0.750000  0.906276  1
  S  S12  1  0.719871  0.750000  0.041037  1
  S  S13  1  0.722769  0.250000  0.093209  1
  S  S14  1  0.277786  0.063280  0.160648  1
  S  S15  1  0.277786  0.436720  0.160648  1
  S  S16  1  0.777786  0.563280  0.339352  1
  S  S17  1  0.777786  0.936720  0.339352  1
  S  S18  1  0.222769  0.750000  0.406791  1
  S  S19  1  0.219871  0.250000  0.458963  1
  S  S20  1  0.780129  0.750000  0.541037  1
  S  S21  1  0.777231  0.250000  0.593209  1
  S  S22  1  0.222214  0.063280  0.660648  1
  S  S23  1  0.222214  0.436720  0.660648  1
  S  S24  1  0.722214  0.563280  0.839352  1
  S  S25  1  0.722214  0.936720  0.839352  1
  S  S26  1  0.277231  0.750000  0.906791  1
  S  S27  1  0.280129  0.250000  0.958963  1
