# generated using pymatgen
data_Er5(CoBi)2
_symmetry_space_group_name_H-M   'P 1'
_cell_length_a   8.19343036
_cell_length_b   8.19343114
_cell_length_c   15.46024700
_cell_angle_alpha   90.00000000
_cell_angle_beta   90.00000000
_cell_angle_gamma   154.06788661
_symmetry_Int_Tables_number   1
_chemical_formula_structural   Er5(CoBi)2
_chemical_formula_sum   'Er10 Co4 Bi4'
_cell_volume   453.87195399
_cell_formula_units_Z   2
loop_
 _symmetry_equiv_pos_site_id
 _symmetry_equiv_pos_as_xyz
  1  'x, y, z'
loop_
 _atom_site_type_symbol
 _atom_site_label
 _atom_site_symmetry_multiplicity
 _atom_site_fract_x
 _atom_site_fract_y
 _atom_site_fract_z
 _atom_site_occupancy
  Er  Er0  1  0.606412  0.393588  0.250000  1
  Er  Er1  1  0.736568  0.263432  0.633619  1
  Er  Er2  1  0.960931  0.039069  0.128085  1
  Er  Er3  1  0.039069  0.960931  0.871915  1
  Er  Er4  1  0.393588  0.606412  0.750000  1
  Er  Er5  1  0.960931  0.039069  0.371915  1
  Er  Er6  1  0.039069  0.960931  0.628085  1
  Er  Er7  1  0.263432  0.736568  0.133619  1
  Er  Er8  1  0.263432  0.736568  0.366381  1
  Er  Er9  1  0.736568  0.263432  0.866381  1
  Co  Co10  1  0.414416  0.585584  0.250000  1
  Co  Co11  1  0.585584  0.414416  0.750000  1
  Co  Co12  1  0.822474  0.177526  0.250000  1
  Co  Co13  1  0.177526  0.822474  0.750000  1
  Bi  Bi14  1  0.617679  0.382321  0.038448  1
  Bi  Bi15  1  0.617679  0.382321  0.461552  1
  Bi  Bi16  1  0.382321  0.617679  0.538448  1
  Bi  Bi17  1  0.382321  0.617679  0.961552  1
