# generated using pymatgen
data_CeTh2NpN6
_symmetry_space_group_name_H-M   'P 1'
_cell_length_a   5.89165604
_cell_length_b   6.04006900
_cell_length_c   8.57161400
_cell_angle_alpha   90.00000000
_cell_angle_beta   90.64476491
_cell_angle_gamma   90.00000000
_symmetry_Int_Tables_number   1
_chemical_formula_structural   CeTh2NpN6
_chemical_formula_sum   'Ce2 Th4 Np2 N12'
_cell_volume   305.01021955
_cell_formula_units_Z   2
loop_
 _symmetry_equiv_pos_site_id
 _symmetry_equiv_pos_as_xyz
  1  'x, y, z'
loop_
 _atom_site_type_symbol
 _atom_site_label
 _atom_site_symmetry_multiplicity
 _atom_site_fract_x
 _atom_site_fract_y
 _atom_site_fract_z
 _atom_site_occupancy
  Ce  Ce0  1  0.000000  0.500000  0.000000  1
  Ce  Ce1  1  0.500000  0.000000  0.500000  1
  Th  Th2  1  0.512150  0.548348  0.250472  1
  Th  Th3  1  0.987850  0.048348  0.249528  1
  Th  Th4  1  0.487850  0.451652  0.749528  1
  Th  Th5  1  0.012150  0.951652  0.750472  1
  Np  Np6  1  0.000000  0.500000  0.500000  1
  Np  Np7  1  0.500000  0.000000  0.000000  1
  N  N8  1  0.371925  0.939815  0.238315  1
  N  N9  1  0.128075  0.439815  0.261685  1
  N  N10  1  0.628075  0.060185  0.761685  1
  N  N11  1  0.871925  0.560185  0.738315  1
  N  N12  1  0.787940  0.819209  0.063133  1
  N  N13  1  0.712060  0.319209  0.436867  1
  N  N14  1  0.188956  0.203686  0.574631  1
  N  N15  1  0.311044  0.703686  0.925369  1
  N  N16  1  0.212060  0.180791  0.936867  1
  N  N17  1  0.287940  0.680791  0.563133  1
  N  N18  1  0.811044  0.796314  0.425369  1
  N  N19  1  0.688956  0.296314  0.074631  1
