# generated using pymatgen
data_Li3PaGe6Ir7
_symmetry_space_group_name_H-M   'P 1'
_cell_length_a   6.94584303
_cell_length_b   7.09652121
_cell_length_c   7.09652104
_cell_angle_alpha   109.91337370
_cell_angle_beta   109.05414398
_cell_angle_gamma   109.05415035
_symmetry_Int_Tables_number   1
_chemical_formula_structural   Li3PaGe6Ir7
_chemical_formula_sum   'Li3 Pa1 Ge6 Ir7'
_cell_volume   270.55334476
_cell_formula_units_Z   1
loop_
 _symmetry_equiv_pos_site_id
 _symmetry_equiv_pos_as_xyz
  1  'x, y, z'
loop_
 _atom_site_type_symbol
 _atom_site_label
 _atom_site_symmetry_multiplicity
 _atom_site_fract_x
 _atom_site_fract_y
 _atom_site_fract_z
 _atom_site_occupancy
  Li  Li0  1  0.000000  0.000000  0.500000  1
  Li  Li1  1  0.000000  0.500000  0.000000  1
  Li  Li2  1  0.500000  0.500000  0.500000  1
  Pa  Pa3  1  0.500000  0.000000  0.000000  1
  Ge  Ge4  1  0.705005  0.680116  0.000341  1
  Ge  Ge5  1  0.294995  0.999659  0.319884  1
  Ge  Ge6  1  0.024619  0.319904  0.319904  1
  Ge  Ge7  1  0.294995  0.319884  0.999659  1
  Ge  Ge8  1  0.705005  0.000341  0.680116  1
  Ge  Ge9  1  0.975381  0.680096  0.680096  1
  Ir  Ir10  1  0.748432  0.248360  0.496607  1
  Ir  Ir11  1  0.748432  0.496607  0.248360  1
  Ir  Ir12  1  0.500000  0.248382  0.751618  1
  Ir  Ir13  1  0.251568  0.503393  0.751640  1
  Ir  Ir14  1  0.251568  0.751640  0.503393  1
  Ir  Ir15  1  0.500000  0.751618  0.248382  1
  Ir  Ir16  1  0.000000  0.000000  0.000000  1
