# generated using pymatgen
data_PaInPd6
_symmetry_space_group_name_H-M   'P 1'
_cell_length_a   5.77084300
_cell_length_b   5.77084220
_cell_length_c   4.77472100
_cell_angle_alpha   90.00000000
_cell_angle_beta   90.00000000
_cell_angle_gamma   119.99999887
_symmetry_Int_Tables_number   1
_chemical_formula_structural   PaInPd6
_chemical_formula_sum   'Pa1 In1 Pd6'
_cell_volume   137.70734150
_cell_formula_units_Z   1
loop_
 _symmetry_equiv_pos_site_id
 _symmetry_equiv_pos_as_xyz
  1  'x, y, z'
loop_
 _atom_site_type_symbol
 _atom_site_label
 _atom_site_symmetry_multiplicity
 _atom_site_fract_x
 _atom_site_fract_y
 _atom_site_fract_z
 _atom_site_occupancy
  Pa  Pa0  1  0.333333  0.666667  0.750000  1
  In  In1  1  0.666667  0.333333  0.250000  1
  Pd  Pd2  1  0.834122  0.165878  0.750000  1
  Pd  Pd3  1  0.331756  0.165878  0.750000  1
  Pd  Pd4  1  0.834122  0.668244  0.750000  1
  Pd  Pd5  1  0.165087  0.834913  0.250000  1
  Pd  Pd6  1  0.669826  0.834913  0.250000  1
  Pd  Pd7  1  0.165087  0.330174  0.250000  1
