# generated using pymatgen
data_TiAg2(BrO3)6
_symmetry_space_group_name_H-M   'P 1'
_cell_length_a   5.80958600
_cell_length_b   9.67310127
_cell_length_c   9.67304900
_cell_angle_alpha   60.00004814
_cell_angle_beta   90.00040847
_cell_angle_gamma   90.00029054
_symmetry_Int_Tables_number   1
_chemical_formula_structural   TiAg2(BrO3)6
_chemical_formula_sum   'Ti1 Ag2 Br6 O18'
_cell_volume   470.76606551
_cell_formula_units_Z   1
loop_
 _symmetry_equiv_pos_site_id
 _symmetry_equiv_pos_as_xyz
  1  'x, y, z'
loop_
 _atom_site_type_symbol
 _atom_site_label
 _atom_site_symmetry_multiplicity
 _atom_site_fract_x
 _atom_site_fract_y
 _atom_site_fract_z
 _atom_site_occupancy
  Ti  Ti0  1  0.668793  0.000002  0.999998  1
  Ag  Ag1  1  0.722532  0.333334  0.333334  1
  Ag  Ag2  1  0.219555  0.666666  0.666667  1
  Br  Br3  1  0.813010  0.964794  0.686219  1
  Br  Br4  1  0.813014  0.348982  0.964804  1
  Br  Br5  1  0.813016  0.686223  0.348985  1
  Br  Br6  1  0.346558  0.021830  0.297118  1
  Br  Br7  1  0.346557  0.681051  0.021829  1
  Br  Br8  1  0.346558  0.297120  0.681050  1
  O  O9  1  0.476834  0.227266  0.574870  1
  O  O10  1  0.476834  0.197864  0.227261  1
  O  O11  1  0.476832  0.574873  0.197863  1
  O  O12  1  0.972036  0.770157  0.430402  1
  O  O13  1  0.972029  0.799445  0.770150  1
  O  O14  1  0.972024  0.430403  0.799449  1
  O  O15  1  0.862466  0.043603  0.817898  1
  O  O16  1  0.862469  0.138495  0.043607  1
  O  O17  1  0.862467  0.817899  0.138498  1
  O  O18  1  0.463059  0.933502  0.190315  1
  O  O19  1  0.463060  0.876181  0.933501  1
  O  O20  1  0.463065  0.190319  0.876179  1
  O  O21  1  0.950095  0.098358  0.522489  1
  O  O22  1  0.950105  0.379147  0.098369  1
  O  O23  1  0.950101  0.522490  0.379153  1
  O  O24  1  0.448512  0.901876  0.480818  1
  O  O25  1  0.448508  0.617304  0.901875  1
  O  O26  1  0.448507  0.480821  0.617303  1
