# generated using pymatgen
data_Li4HfZrBr12
_symmetry_space_group_name_H-M   'P 1'
_cell_length_a   6.78347600
_cell_length_b   6.78347503
_cell_length_c   13.56969300
_cell_angle_alpha   90.00000000
_cell_angle_beta   90.00000000
_cell_angle_gamma   119.99999497
_symmetry_Int_Tables_number   1
_chemical_formula_structural   Li4HfZrBr12
_chemical_formula_sum   'Li4 Hf1 Zr1 Br12'
_cell_volume   540.76079711
_cell_formula_units_Z   1
loop_
 _symmetry_equiv_pos_site_id
 _symmetry_equiv_pos_as_xyz
  1  'x, y, z'
loop_
 _atom_site_type_symbol
 _atom_site_label
 _atom_site_symmetry_multiplicity
 _atom_site_fract_x
 _atom_site_fract_y
 _atom_site_fract_z
 _atom_site_occupancy
  Li  Li0  1  0.000000  0.000000  0.750000  1
  Li  Li1  1  0.666667  0.333333  0.750000  1
  Li  Li2  1  0.333333  0.666667  0.250000  1
  Li  Li3  1  0.000000  0.000000  0.250000  1
  Hf  Hf4  1  0.333333  0.666667  0.750000  1
  Zr  Zr5  1  0.666667  0.333333  0.250000  1
  Br  Br6  1  0.016557  0.349695  0.638466  1
  Br  Br7  1  0.333139  0.983443  0.638466  1
  Br  Br8  1  0.650305  0.666861  0.638466  1
  Br  Br9  1  0.650305  0.983443  0.861534  1
  Br  Br10  1  0.333139  0.349695  0.861534  1
  Br  Br11  1  0.016557  0.666861  0.861534  1
  Br  Br12  1  0.986835  0.333173  0.137437  1
  Br  Br13  1  0.346337  0.013165  0.137437  1
  Br  Br14  1  0.666827  0.653663  0.137437  1
  Br  Br15  1  0.666827  0.013165  0.362563  1
  Br  Br16  1  0.346337  0.333173  0.362563  1
  Br  Br17  1  0.986835  0.653663  0.362563  1
