# generated using pymatgen
data_Hf5FeP3
_symmetry_space_group_name_H-M   'P 1'
_cell_length_a   3.60499200
_cell_length_b   10.21381600
_cell_length_c   17.00117700
_cell_angle_alpha   90.00000000
_cell_angle_beta   90.00000000
_cell_angle_gamma   90.00000000
_symmetry_Int_Tables_number   1
_chemical_formula_structural   Hf5FeP3
_chemical_formula_sum   'Hf20 Fe4 P12'
_cell_volume   625.99566247
_cell_formula_units_Z   4
loop_
 _symmetry_equiv_pos_site_id
 _symmetry_equiv_pos_as_xyz
  1  'x, y, z'
loop_
 _atom_site_type_symbol
 _atom_site_label
 _atom_site_symmetry_multiplicity
 _atom_site_fract_x
 _atom_site_fract_y
 _atom_site_fract_z
 _atom_site_occupancy
  Hf  Hf0  1  0.250000  0.123473  0.476188  1
  Hf  Hf1  1  0.750000  0.876527  0.523812  1
  Hf  Hf2  1  0.750000  0.623473  0.023812  1
  Hf  Hf3  1  0.250000  0.376527  0.976188  1
  Hf  Hf4  1  0.250000  0.058868  0.075172  1
  Hf  Hf5  1  0.750000  0.941132  0.924828  1
  Hf  Hf6  1  0.750000  0.558868  0.424828  1
  Hf  Hf7  1  0.250000  0.441132  0.575172  1
  Hf  Hf8  1  0.250000  0.484234  0.272917  1
  Hf  Hf9  1  0.750000  0.515766  0.727083  1
  Hf  Hf10  1  0.750000  0.984234  0.227083  1
  Hf  Hf11  1  0.250000  0.015766  0.772917  1
  Hf  Hf12  1  0.250000  0.817107  0.368239  1
  Hf  Hf13  1  0.750000  0.182893  0.631761  1
  Hf  Hf14  1  0.750000  0.317107  0.131761  1
  Hf  Hf15  1  0.250000  0.682893  0.868239  1
  Hf  Hf16  1  0.250000  0.753178  0.167906  1
  Hf  Hf17  1  0.750000  0.246822  0.832094  1
  Hf  Hf18  1  0.750000  0.253178  0.332094  1
  Hf  Hf19  1  0.250000  0.746822  0.667906  1
  Fe  Fe20  1  0.250000  0.368892  0.410045  1
  Fe  Fe21  1  0.750000  0.631108  0.589955  1
  Fe  Fe22  1  0.750000  0.868892  0.089955  1
  Fe  Fe23  1  0.250000  0.131108  0.910045  1
  P  P24  1  0.250000  0.810010  0.008845  1
  P  P25  1  0.750000  0.189990  0.991155  1
  P  P26  1  0.750000  0.310010  0.491155  1
  P  P27  1  0.250000  0.689990  0.508845  1
  P  P28  1  0.250000  0.504775  0.116011  1
  P  P29  1  0.750000  0.495225  0.883989  1
  P  P30  1  0.750000  0.004775  0.383989  1
  P  P31  1  0.250000  0.995225  0.616011  1
  P  P32  1  0.250000  0.185743  0.217127  1
  P  P33  1  0.750000  0.814257  0.782873  1
  P  P34  1  0.750000  0.685743  0.282873  1
  P  P35  1  0.250000  0.314257  0.717127  1
