# generated using pymatgen
data_Nd17Y3Si15S
_symmetry_space_group_name_H-M   'P 1'
_cell_length_a   7.93655869
_cell_length_b   7.84905501
_cell_length_c   15.21475400
_cell_angle_alpha   89.54215038
_cell_angle_beta   89.09241198
_cell_angle_gamma   90.90190759
_symmetry_Int_Tables_number   1
_chemical_formula_structural   Nd17Y3Si15S
_chemical_formula_sum   'Nd17 Y3 Si15 S1'
_cell_volume   947.52677433
_cell_formula_units_Z   1
loop_
 _symmetry_equiv_pos_site_id
 _symmetry_equiv_pos_as_xyz
  1  'x, y, z'
loop_
 _atom_site_type_symbol
 _atom_site_label
 _atom_site_symmetry_multiplicity
 _atom_site_fract_x
 _atom_site_fract_y
 _atom_site_fract_z
 _atom_site_occupancy
  Nd  Nd0  1  0.687027  0.686398  0.498256  1
  Nd  Nd1  1  0.380470  0.002417  0.442318  1
  Nd  Nd2  1  0.497292  0.862323  0.701090  1
  Nd  Nd3  1  0.510795  0.123070  0.196477  1
  Nd  Nd4  1  0.873499  0.483849  0.299867  1
  Nd  Nd5  1  0.124247  0.512837  0.800165  1
  Nd  Nd6  1  0.635389  0.986681  0.951820  1
  Nd  Nd7  1  0.997979  0.379434  0.549396  1
  Nd  Nd8  1  0.994851  0.623836  0.052606  1
  Nd  Nd9  1  0.142527  0.993592  0.869718  1
  Nd  Nd10  1  0.520814  0.631501  0.124670  1
  Nd  Nd11  1  0.464105  0.356206  0.633656  1
  Nd  Nd12  1  0.637188  0.521375  0.876399  1
  Nd  Nd13  1  0.366147  0.476154  0.374841  1
  Nd  Nd14  1  0.871268  0.019580  0.377363  1
  Nd  Nd15  1  0.984317  0.125995  0.122737  1
  Nd  Nd16  1  0.021897  0.880992  0.622197  1
  Y  Y17  1  0.314927  0.311623  0.998866  1
  Y  Y18  1  0.187390  0.807662  0.249227  1
  Y  Y19  1  0.802984  0.190188  0.752719  1
  Si  Si20  1  0.334104  0.697066  0.949577  1
  Si  Si21  1  0.660051  0.303331  0.454623  1
  Si  Si22  1  0.701322  0.334154  0.050498  1
  Si  Si23  1  0.303189  0.665837  0.550763  1
  Si  Si24  1  0.808408  0.829696  0.203614  1
  Si  Si25  1  0.169444  0.189046  0.294350  1
  Si  Si26  1  0.842212  0.808404  0.797119  1
  Si  Si27  1  0.288847  0.924821  0.060197  1
  Si  Si28  1  0.572561  0.784319  0.308276  1
  Si  Si29  1  0.456442  0.208221  0.825413  1
  Si  Si30  1  0.787768  0.577275  0.688474  1
  Si  Si31  1  0.212607  0.425563  0.187495  1
  Si  Si32  1  0.702636  0.074340  0.563963  1
  Si  Si33  1  0.931716  0.290729  0.938519  1
  Si  Si34  1  0.077477  0.713064  0.437661  1
  S  S35  1  0.136105  0.198424  0.695076  1
