# generated using pymatgen
data_Tb3Yb2Y(MnC3)4
_symmetry_space_group_name_H-M   'P 1'
_cell_length_a   8.10043700
_cell_length_b   8.07534771
_cell_length_c   4.99612100
_cell_angle_alpha   90.00000000
_cell_angle_beta   90.00000000
_cell_angle_gamma   120.11232109
_symmetry_Int_Tables_number   1
_chemical_formula_structural   Tb3Yb2Y(MnC3)4
_chemical_formula_sum   'Tb3 Yb2 Y1 Mn4 C12'
_cell_volume   282.70962999
_cell_formula_units_Z   1
loop_
 _symmetry_equiv_pos_site_id
 _symmetry_equiv_pos_as_xyz
  1  'x, y, z'
loop_
 _atom_site_type_symbol
 _atom_site_label
 _atom_site_symmetry_multiplicity
 _atom_site_fract_x
 _atom_site_fract_y
 _atom_site_fract_z
 _atom_site_occupancy
  Tb  Tb0  1  0.310773  0.931504  0.750000  1
  Tb  Tb1  1  0.067339  0.383769  0.750000  1
  Tb  Tb2  1  0.381962  0.315630  0.250000  1
  Yb  Yb3  1  0.613331  0.683163  0.750000  1
  Yb  Yb4  1  0.928254  0.614337  0.250000  1
  Y  Y5  1  0.685598  0.068133  0.250000  1
  Mn  Mn6  1  0.996870  0.996240  0.500385  1
  Mn  Mn7  1  0.996870  0.996240  0.999615  1
  Mn  Mn8  1  0.666603  0.329916  0.750000  1
  Mn  Mn9  1  0.336981  0.668152  0.250000  1
  C  C10  1  0.957285  0.771613  0.750000  1
  C  C11  1  0.190053  0.961668  0.250000  1
  C  C12  1  0.776902  0.819681  0.250000  1
  C  C13  1  0.229511  0.193938  0.750000  1
  C  C14  1  0.817893  0.039924  0.750000  1
  C  C15  1  0.036348  0.228922  0.250000  1
  C  C16  1  0.857752  0.577504  0.750000  1
  C  C17  1  0.281346  0.859098  0.250000  1
  C  C18  1  0.583240  0.719453  0.250000  1
  C  C19  1  0.423900  0.282502  0.750000  1
  C  C20  1  0.142497  0.423930  0.250000  1
  C  C21  1  0.718693  0.134685  0.750000  1
