# generated using pymatgen
data_LiTa6Zn5Ir12
_symmetry_space_group_name_H-M   'P 1'
_cell_length_a   4.59799461
_cell_length_b   5.82902300
_cell_length_c   13.81659218
_cell_angle_alpha   90.00003834
_cell_angle_beta   78.82028065
_cell_angle_gamma   89.99998439
_symmetry_Int_Tables_number   1
_chemical_formula_structural   LiTa6Zn5Ir12
_chemical_formula_sum   'Li1 Ta6 Zn5 Ir12'
_cell_volume   363.28271092
_cell_formula_units_Z   1
loop_
 _symmetry_equiv_pos_site_id
 _symmetry_equiv_pos_as_xyz
  1  'x, y, z'
loop_
 _atom_site_type_symbol
 _atom_site_label
 _atom_site_symmetry_multiplicity
 _atom_site_fract_x
 _atom_site_fract_y
 _atom_site_fract_z
 _atom_site_occupancy
  Li  Li0  1  0.501379  0.500088  0.833350  1
  Ta  Ta1  1  0.994704  0.499984  0.998124  1
  Ta  Ta2  1  0.495935  0.999993  0.164799  1
  Ta  Ta3  1  0.998220  0.500021  0.333412  1
  Ta  Ta4  1  0.502915  0.999990  0.501882  1
  Ta  Ta5  1  0.006645  0.499981  0.668546  1
  Ta  Ta6  1  0.501558  0.000017  0.833262  1
  Zn  Zn7  1  0.997812  0.999968  0.999221  1
  Zn  Zn8  1  0.496649  0.499983  0.166377  1
  Zn  Zn9  1  0.998233  0.000052  0.333342  1
  Zn  Zn10  1  0.502074  0.499981  0.500256  1
  Zn  Zn11  1  0.003696  0.999966  0.667504  1
  Ir  Ir12  1  0.496592  0.252779  0.998446  1
  Ir  Ir13  1  0.496603  0.747200  0.998453  1
  Ir  Ir14  1  0.996643  0.248719  0.166524  1
  Ir  Ir15  1  0.996660  0.751251  0.166534  1
  Ir  Ir16  1  0.498391  0.250421  0.333255  1
  Ir  Ir17  1  0.498390  0.749641  0.333255  1
  Ir  Ir18  1  0.002327  0.248685  0.500146  1
  Ir  Ir19  1  0.002315  0.751280  0.500136  1
  Ir  Ir20  1  0.504748  0.252785  0.668215  1
  Ir  Ir21  1  0.504738  0.747188  0.668208  1
  Ir  Ir22  1  0.001389  0.250763  0.833377  1
  Ir  Ir23  1  0.001390  0.749264  0.833376  1
