# generated using pymatgen
data_Sm3Cd3Hg2Ru
_symmetry_space_group_name_H-M   'P 1'
_cell_length_a   8.18123800
_cell_length_b   8.18123668
_cell_length_c   3.84840000
_cell_angle_alpha   90.00000000
_cell_angle_beta   90.00000000
_cell_angle_gamma   119.99999723
_symmetry_Int_Tables_number   1
_chemical_formula_structural   Sm3Cd3Hg2Ru
_chemical_formula_sum   'Sm3 Cd3 Hg2 Ru1'
_cell_volume   223.07393779
_cell_formula_units_Z   1
loop_
 _symmetry_equiv_pos_site_id
 _symmetry_equiv_pos_as_xyz
  1  'x, y, z'
loop_
 _atom_site_type_symbol
 _atom_site_label
 _atom_site_symmetry_multiplicity
 _atom_site_fract_x
 _atom_site_fract_y
 _atom_site_fract_z
 _atom_site_occupancy
  Sm  Sm0  1  0.387533  0.427202  0.500000  1
  Sm  Sm1  1  0.572798  0.960331  0.500000  1
  Sm  Sm2  1  0.039669  0.612467  0.500000  1
  Cd  Cd3  1  0.724501  0.726281  0.000000  1
  Cd  Cd4  1  0.273719  0.998221  0.000000  1
  Cd  Cd5  1  0.001779  0.275499  0.000000  1
  Hg  Hg6  1  0.666667  0.333333  0.000000  1
  Hg  Hg7  1  0.000000  0.000000  0.500000  1
  Ru  Ru8  1  0.333333  0.666667  0.000000  1
