# generated using pymatgen
data_Ba8Si15Ge
_symmetry_space_group_name_H-M   'P 1'
_cell_length_a   9.07282611
_cell_length_b   6.76374200
_cell_length_c   11.60460014
_cell_angle_alpha   90.00000000
_cell_angle_beta   89.98202801
_cell_angle_gamma   90.00000000
_symmetry_Int_Tables_number   1
_chemical_formula_structural   Ba8Si15Ge
_chemical_formula_sum   'Ba8 Si15 Ge1'
_cell_volume   712.13081684
_cell_formula_units_Z   1
loop_
 _symmetry_equiv_pos_site_id
 _symmetry_equiv_pos_as_xyz
  1  'x, y, z'
loop_
 _atom_site_type_symbol
 _atom_site_label
 _atom_site_symmetry_multiplicity
 _atom_site_fract_x
 _atom_site_fract_y
 _atom_site_fract_z
 _atom_site_occupancy
  Ba  Ba0  1  0.843971  0.250000  0.093960  1
  Ba  Ba1  1  0.484639  0.750000  0.191862  1
  Ba  Ba2  1  0.987609  0.750000  0.309829  1
  Ba  Ba3  1  0.343882  0.250000  0.406127  1
  Ba  Ba4  1  0.656004  0.750000  0.593006  1
  Ba  Ba5  1  0.013448  0.250000  0.691266  1
  Ba  Ba6  1  0.513430  0.250000  0.808544  1
  Ba  Ba7  1  0.156917  0.750000  0.905656  1
  Si  Si8  1  0.414566  0.250000  0.090993  1
  Si  Si9  1  0.194129  0.071846  0.146252  1
  Si  Si10  1  0.194129  0.428155  0.146252  1
  Si  Si11  1  0.694357  0.071775  0.353685  1
  Si  Si12  1  0.694357  0.428226  0.353685  1
  Si  Si13  1  0.914529  0.250000  0.409018  1
  Si  Si14  1  0.302726  0.750000  0.466555  1
  Si  Si15  1  0.697518  0.250000  0.533443  1
  Si  Si16  1  0.085470  0.750000  0.591044  1
  Si  Si17  1  0.305690  0.571756  0.646068  1
  Si  Si18  1  0.305690  0.928244  0.646068  1
  Si  Si19  1  0.804607  0.572284  0.851798  1
  Si  Si20  1  0.804607  0.927716  0.851798  1
  Si  Si21  1  0.584254  0.750000  0.906606  1
  Si  Si22  1  0.197640  0.250000  0.966674  1
  Ge  Ge23  1  0.805832  0.750000  0.039808  1
