# generated using pymatgen
data_BaNd(PPt3)4
_symmetry_space_group_name_H-M   'P 1'
_cell_length_a   8.59616944
_cell_length_b   8.62297000
_cell_length_c   8.61665130
_cell_angle_alpha   90.00000000
_cell_angle_beta   90.22348769
_cell_angle_gamma   90.00000000
_symmetry_Int_Tables_number   1
_chemical_formula_structural   BaNd(PPt3)4
_chemical_formula_sum   'Ba2 Nd2 P8 Pt24'
_cell_volume   638.70020662
_cell_formula_units_Z   2
loop_
 _symmetry_equiv_pos_site_id
 _symmetry_equiv_pos_as_xyz
  1  'x, y, z'
loop_
 _atom_site_type_symbol
 _atom_site_label
 _atom_site_symmetry_multiplicity
 _atom_site_fract_x
 _atom_site_fract_y
 _atom_site_fract_z
 _atom_site_occupancy
  Ba  Ba0  1  0.500000  0.500000  0.000000  1
  Ba  Ba1  1  0.500000  0.000000  0.500000  1
  Nd  Nd2  1  0.000000  0.500000  0.500000  1
  Nd  Nd3  1  0.000000  0.000000  0.000000  1
  P  P4  1  0.805695  0.307987  0.197330  1
  P  P5  1  0.194305  0.807987  0.302670  1
  P  P6  1  0.694770  0.697620  0.692661  1
  P  P7  1  0.305230  0.197620  0.807339  1
  P  P8  1  0.194305  0.692013  0.802670  1
  P  P9  1  0.805695  0.192013  0.697330  1
  P  P10  1  0.305230  0.302380  0.307339  1
  P  P11  1  0.694770  0.802380  0.192661  1
  Pt  Pt12  1  0.425077  0.842970  0.155681  1
  Pt  Pt13  1  0.574923  0.342970  0.344319  1
  Pt  Pt14  1  0.080652  0.155966  0.657948  1
  Pt  Pt15  1  0.919348  0.655966  0.842052  1
  Pt  Pt16  1  0.149661  0.424117  0.836922  1
  Pt  Pt17  1  0.334776  0.579750  0.348076  1
  Pt  Pt18  1  0.665224  0.079750  0.151924  1
  Pt  Pt19  1  0.850339  0.924117  0.663078  1
  Pt  Pt20  1  0.848939  0.165159  0.423815  1
  Pt  Pt21  1  0.334595  0.350135  0.577668  1
  Pt  Pt22  1  0.151061  0.665159  0.076185  1
  Pt  Pt23  1  0.665405  0.850135  0.922332  1
  Pt  Pt24  1  0.574923  0.157030  0.844319  1
  Pt  Pt25  1  0.425077  0.657030  0.655681  1
  Pt  Pt26  1  0.919348  0.844034  0.342052  1
  Pt  Pt27  1  0.080652  0.344034  0.157948  1
  Pt  Pt28  1  0.850339  0.575883  0.163078  1
  Pt  Pt29  1  0.665224  0.420250  0.651924  1
  Pt  Pt30  1  0.334776  0.920250  0.848076  1
  Pt  Pt31  1  0.149661  0.075883  0.336922  1
  Pt  Pt32  1  0.151061  0.834841  0.576185  1
  Pt  Pt33  1  0.665405  0.649865  0.422332  1
  Pt  Pt34  1  0.848939  0.334841  0.923815  1
  Pt  Pt35  1  0.334595  0.149865  0.077668  1
