# generated using pymatgen
data_Dy9Y3(OsRu)2
_symmetry_space_group_name_H-M   'P 1'
_cell_length_a   6.32718891
_cell_length_b   7.34935169
_cell_length_c   9.14685753
_cell_angle_alpha   90.00337751
_cell_angle_beta   90.10059925
_cell_angle_gamma   89.82383748
_symmetry_Int_Tables_number   1
_chemical_formula_structural   Dy9Y3(OsRu)2
_chemical_formula_sum   'Dy9 Y3 Os2 Ru2'
_cell_volume   425.33294534
_cell_formula_units_Z   1
loop_
 _symmetry_equiv_pos_site_id
 _symmetry_equiv_pos_as_xyz
  1  'x, y, z'
loop_
 _atom_site_type_symbol
 _atom_site_label
 _atom_site_symmetry_multiplicity
 _atom_site_fract_x
 _atom_site_fract_y
 _atom_site_fract_z
 _atom_site_occupancy
  Dy  Dy0  1  0.671336  0.323575  0.564696  1
  Dy  Dy1  1  0.828543  0.823829  0.935589  1
  Dy  Dy2  1  0.671488  0.323478  0.935416  1
  Dy  Dy3  1  0.828410  0.823749  0.564303  1
  Dy  Dy4  1  0.331848  0.675695  0.436894  1
  Dy  Dy5  1  0.168162  0.175320  0.063088  1
  Dy  Dy6  1  0.867251  0.540824  0.250062  1
  Dy  Dy7  1  0.633047  0.040621  0.249933  1
  Dy  Dy8  1  0.368013  0.961559  0.750006  1
  Y  Y9  1  0.331854  0.676035  0.062921  1
  Y  Y10  1  0.168182  0.175775  0.437083  1
  Y  Y11  1  0.131226  0.462729  0.750004  1
  Os  Os12  1  0.958854  0.113814  0.750295  1
  Os  Os13  1  0.541818  0.616113  0.749710  1
  Ru  Ru14  1  0.036470  0.883439  0.249713  1
  Ru  Ru15  1  0.463500  0.383442  0.250288  1
