# generated using pymatgen
data_TmLu3Al4NiRh3
_symmetry_space_group_name_H-M   'P 1'
_cell_length_a   4.16481600
_cell_length_b   6.72790972
_cell_length_c   7.82537601
_cell_angle_alpha   90.19653493
_cell_angle_beta   90.00000000
_cell_angle_gamma   90.00000000
_symmetry_Int_Tables_number   1
_chemical_formula_structural   TmLu3Al4NiRh3
_chemical_formula_sum   'Tm1 Lu3 Al4 Ni1 Rh3'
_cell_volume   219.26970575
_cell_formula_units_Z   1
loop_
 _symmetry_equiv_pos_site_id
 _symmetry_equiv_pos_as_xyz
  1  'x, y, z'
loop_
 _atom_site_type_symbol
 _atom_site_label
 _atom_site_symmetry_multiplicity
 _atom_site_fract_x
 _atom_site_fract_y
 _atom_site_fract_z
 _atom_site_occupancy
  Tm  Tm0  1  0.250000  0.467398  0.177279  1
  Lu  Lu1  1  0.250000  0.963452  0.319763  1
  Lu  Lu2  1  0.750000  0.538252  0.823987  1
  Lu  Lu3  1  0.750000  0.034435  0.677145  1
  Al  Al4  1  0.750000  0.638341  0.436067  1
  Al  Al5  1  0.750000  0.131214  0.059665  1
  Al  Al6  1  0.250000  0.363315  0.559224  1
  Al  Al7  1  0.250000  0.860231  0.945406  1
  Ni  Ni8  1  0.750000  0.769185  0.125346  1
  Rh  Rh9  1  0.750000  0.261320  0.375861  1
  Rh  Rh10  1  0.250000  0.236403  0.877507  1
  Rh  Rh11  1  0.250000  0.736452  0.622750  1
