# generated using pymatgen
data_TaCd2Sb3(PbO7)2
_symmetry_space_group_name_H-M   'P 1'
_cell_length_a   7.55545421
_cell_length_b   7.55545404
_cell_length_c   7.52045715
_cell_angle_alpha   120.58310901
_cell_angle_beta   120.30128827
_cell_angle_gamma   89.50491256
_symmetry_Int_Tables_number   1
_chemical_formula_structural   TaCd2Sb3(PbO7)2
_chemical_formula_sum   'Ta1 Cd2 Sb3 Pb2 O14'
_cell_volume   300.79787368
_cell_formula_units_Z   1
loop_
 _symmetry_equiv_pos_site_id
 _symmetry_equiv_pos_as_xyz
  1  'x, y, z'
loop_
 _atom_site_type_symbol
 _atom_site_label
 _atom_site_symmetry_multiplicity
 _atom_site_fract_x
 _atom_site_fract_y
 _atom_site_fract_z
 _atom_site_occupancy
  Ta  Ta0  1  0.500000  0.500000  0.500000  1
  Cd  Cd1  1  0.000000  0.000000  0.000000  1
  Cd  Cd2  1  0.500000  0.500000  0.000000  1
  Sb  Sb3  1  0.500000  0.000000  0.000000  1
  Sb  Sb4  1  0.500000  0.000000  0.500000  1
  Sb  Sb5  1  0.000000  0.500000  0.500000  1
  Pb  Pb6  1  0.000000  0.000000  0.500000  1
  Pb  Pb7  1  0.000000  0.500000  0.000000  1
  O  O8  1  0.442973  0.084837  0.766634  1
  O  O9  1  0.553391  0.317687  0.632334  1
  O  O10  1  0.185352  0.421056  0.367666  1
  O  O11  1  0.818203  0.176338  0.233366  1
  O  O12  1  0.557027  0.915163  0.233366  1
  O  O13  1  0.446609  0.682313  0.367666  1
  O  O14  1  0.814648  0.578944  0.632334  1
  O  O15  1  0.181797  0.823662  0.766634  1
  O  O16  1  0.588648  0.749663  0.838311  1
  O  O17  1  0.411352  0.250337  0.161689  1
  O  O18  1  0.178998  0.917271  0.261491  1
  O  O19  1  0.821002  0.082729  0.738509  1
  O  O20  1  0.844219  0.582493  0.261491  1
  O  O21  1  0.155781  0.417507  0.738509  1
