# generated using pymatgen
data_Ho19ErFeCo3Bi8
_symmetry_space_group_name_H-M   'P 1'
_cell_length_a   7.96771574
_cell_length_b   8.88062901
_cell_length_c   12.37065502
_cell_angle_alpha   89.99514719
_cell_angle_beta   89.97676727
_cell_angle_gamma   89.99944108
_symmetry_Int_Tables_number   1
_chemical_formula_structural   Ho19ErFeCo3Bi8
_chemical_formula_sum   'Ho19 Er1 Fe1 Co3 Bi8'
_cell_volume   875.32678468
_cell_formula_units_Z   1
loop_
 _symmetry_equiv_pos_site_id
 _symmetry_equiv_pos_as_xyz
  1  'x, y, z'
loop_
 _atom_site_type_symbol
 _atom_site_label
 _atom_site_symmetry_multiplicity
 _atom_site_fract_x
 _atom_site_fract_y
 _atom_site_fract_z
 _atom_site_occupancy
  Ho  Ho0  1  0.346424  0.749926  0.700542  1
  Ho  Ho1  1  0.652863  0.250026  0.300551  1
  Ho  Ho2  1  0.847004  0.250033  0.799971  1
  Ho  Ho3  1  0.152134  0.749980  0.199289  1
  Ho  Ho4  1  0.886647  0.749998  0.811387  1
  Ho  Ho5  1  0.114485  0.249989  0.189177  1
  Ho  Ho6  1  0.385690  0.250087  0.688555  1
  Ho  Ho7  1  0.614028  0.749892  0.312091  1
  Ho  Ho8  1  0.324681  0.461577  0.436846  1
  Ho  Ho9  1  0.174373  0.464121  0.937528  1
  Ho  Ho10  1  0.324495  0.038405  0.436804  1
  Ho  Ho11  1  0.824338  0.538641  0.062861  1
  Ho  Ho12  1  0.675583  0.962667  0.563324  1
  Ho  Ho13  1  0.824356  0.961389  0.062833  1
  Ho  Ho14  1  0.174338  0.035856  0.937539  1
  Ho  Ho15  1  0.052646  0.749946  0.497101  1
  Ho  Ho16  1  0.947364  0.250080  0.502541  1
  Ho  Ho17  1  0.554045  0.249981  0.002709  1
  Ho  Ho18  1  0.445582  0.749995  0.996758  1
  Er  Er19  1  0.675085  0.537416  0.563245  1
  Fe  Fe20  1  0.069446  0.749985  0.990792  1
  Co  Co21  1  0.932593  0.249996  0.008512  1
  Co  Co22  1  0.566264  0.250164  0.508395  1
  Co  Co23  1  0.434303  0.749811  0.492305  1
  Bi  Bi24  1  0.572278  0.509401  0.826372  1
  Bi  Bi25  1  0.428621  0.490737  0.173153  1
  Bi  Bi26  1  0.071780  0.490800  0.673061  1
  Bi  Bi27  1  0.428589  0.009243  0.173153  1
  Bi  Bi28  1  0.927876  0.509451  0.326521  1
  Bi  Bi29  1  0.572260  0.990637  0.826464  1
  Bi  Bi30  1  0.927859  0.990561  0.326524  1
  Bi  Bi31  1  0.071967  0.009209  0.673095  1
