# generated using pymatgen
data_CsNb(NO4)2
_symmetry_space_group_name_H-M   'P 1'
_cell_length_a   6.78195800
_cell_length_b   8.14823900
_cell_length_c   15.71999700
_cell_angle_alpha   90.00000000
_cell_angle_beta   90.00000000
_cell_angle_gamma   90.00000000
_symmetry_Int_Tables_number   1
_chemical_formula_structural   CsNb(NO4)2
_chemical_formula_sum   'Cs4 Nb4 N8 O32'
_cell_volume   868.70298486
_cell_formula_units_Z   4
loop_
 _symmetry_equiv_pos_site_id
 _symmetry_equiv_pos_as_xyz
  1  'x, y, z'
loop_
 _atom_site_type_symbol
 _atom_site_label
 _atom_site_symmetry_multiplicity
 _atom_site_fract_x
 _atom_site_fract_y
 _atom_site_fract_z
 _atom_site_occupancy
  Cs  Cs0  1  0.752832  0.643246  0.344502  1
  Cs  Cs1  1  0.747168  0.356754  0.844502  1
  Cs  Cs2  1  0.252832  0.856754  0.655498  1
  Cs  Cs3  1  0.247168  0.143246  0.155498  1
  Nb  Nb4  1  0.342742  0.320919  0.472927  1
  Nb  Nb5  1  0.157258  0.679081  0.972927  1
  Nb  Nb6  1  0.842742  0.179081  0.527073  1
  Nb  Nb7  1  0.657258  0.820919  0.027073  1
  N  N8  1  0.124975  0.618162  0.158175  1
  N  N9  1  0.375025  0.381838  0.658175  1
  N  N10  1  0.624975  0.881838  0.841825  1
  N  N11  1  0.875025  0.118162  0.341825  1
  N  N12  1  0.378149  0.992228  0.386125  1
  N  N13  1  0.121851  0.007772  0.886125  1
  N  N14  1  0.878149  0.507772  0.613875  1
  N  N15  1  0.621851  0.492228  0.113875  1
  O  O16  1  0.286929  0.491146  0.409478  1
  O  O17  1  0.213071  0.508854  0.909478  1
  O  O18  1  0.786929  0.008854  0.590522  1
  O  O19  1  0.713071  0.991146  0.090522  1
  O  O20  1  0.622071  0.305830  0.479063  1
  O  O21  1  0.877929  0.694170  0.979063  1
  O  O22  1  0.122071  0.194170  0.520937  1
  O  O23  1  0.377929  0.805830  0.020937  1
  O  O24  1  0.835699  0.031196  0.412113  1
  O  O25  1  0.664301  0.968804  0.912113  1
  O  O26  1  0.335699  0.468804  0.587887  1
  O  O27  1  0.164301  0.531196  0.087887  1
  O  O28  1  0.083383  0.766305  0.148581  1
  O  O29  1  0.416617  0.233695  0.648581  1
  O  O30  1  0.583383  0.733695  0.851419  1
  O  O31  1  0.916617  0.266305  0.351419  1
  O  O32  1  0.131156  0.545152  0.226885  1
  O  O33  1  0.368844  0.454848  0.726885  1
  O  O34  1  0.631156  0.954848  0.773115  1
  O  O35  1  0.868844  0.045152  0.273115  1
  O  O36  1  0.659225  0.649200  0.133007  1
  O  O37  1  0.840775  0.350800  0.633007  1
  O  O38  1  0.159225  0.850800  0.866993  1
  O  O39  1  0.340775  0.149200  0.366993  1
  O  O40  1  0.412616  0.957401  0.461903  1
  O  O41  1  0.087384  0.042599  0.961903  1
  O  O42  1  0.912616  0.542599  0.538097  1
  O  O43  1  0.587384  0.457401  0.038097  1
  O  O44  1  0.377178  0.893110  0.326474  1
  O  O45  1  0.122822  0.106890  0.826474  1
  O  O46  1  0.877178  0.606890  0.673526  1
  O  O47  1  0.622822  0.393110  0.173526  1
