# generated using pymatgen
data_Ba2NaCo3F14
_symmetry_space_group_name_H-M   'P 1'
_cell_length_a   5.26765499
_cell_length_b   7.22892930
_cell_length_c   14.52185800
_cell_angle_alpha   91.55899521
_cell_angle_beta   90.12725989
_cell_angle_gamma   111.14000443
_symmetry_Int_Tables_number   1
_chemical_formula_structural   Ba2NaCo3F14
_chemical_formula_sum   'Ba4 Na2 Co6 F28'
_cell_volume   515.53649351
_cell_formula_units_Z   2
loop_
 _symmetry_equiv_pos_site_id
 _symmetry_equiv_pos_as_xyz
  1  'x, y, z'
loop_
 _atom_site_type_symbol
 _atom_site_label
 _atom_site_symmetry_multiplicity
 _atom_site_fract_x
 _atom_site_fract_y
 _atom_site_fract_z
 _atom_site_occupancy
  Ba  Ba0  1  0.159641  0.391303  0.624526  1
  Ba  Ba1  1  0.233791  0.391155  0.124442  1
  Ba  Ba2  1  0.840483  0.607603  0.376879  1
  Ba  Ba3  1  0.767523  0.608508  0.876846  1
  Na  Na4  1  0.425762  0.000086  0.750739  1
  Na  Na5  1  0.575168  0.999443  0.250688  1
  Co  Co6  1  0.113457  0.237168  0.877016  1
  Co  Co7  1  0.888061  0.762419  0.124280  1
  Co  Co8  1  0.123492  0.236818  0.376832  1
  Co  Co9  1  0.876660  0.762152  0.624648  1
  Co  Co10  1  0.500727  0.999784  0.000671  1
  Co  Co11  1  0.499837  0.999317  0.500698  1
  F  F12  1  0.941744  0.978156  0.343208  1
  F  F13  1  0.825108  0.228748  0.454735  1
  F  F14  1  0.174381  0.769974  0.546536  1
  F  F15  1  0.709828  0.500329  0.582980  1
  F  F16  1  0.603021  0.113532  0.613532  1
  F  F17  1  0.489381  0.885371  0.887761  1
  F  F18  1  0.404150  0.228645  0.954787  1
  F  F19  1  0.964153  0.020748  0.158504  1
  F  F20  1  0.365713  0.320534  0.782384  1
  F  F21  1  0.290117  0.498291  0.418746  1
  F  F22  1  0.851458  0.268750  0.800863  1
  F  F23  1  0.207893  0.498554  0.919488  1
  F  F24  1  0.416333  0.267386  0.300880  1
  F  F25  1  0.150271  0.730661  0.200336  1
  F  F26  1  0.512522  0.114371  0.113655  1
  F  F27  1  0.635909  0.678787  0.218874  1
  F  F28  1  0.115156  0.831433  0.020019  1
  F  F29  1  0.058107  0.020747  0.658124  1
  F  F30  1  0.886203  0.168502  0.981328  1
  F  F31  1  0.716156  0.829481  0.520050  1
  F  F32  1  0.597160  0.770888  0.046567  1
  F  F33  1  0.584257  0.731661  0.700709  1
  F  F34  1  0.953791  0.319864  0.281815  1
  F  F35  1  0.282996  0.168773  0.481424  1
  F  F36  1  0.396753  0.885004  0.387763  1
  F  F37  1  0.037283  0.978788  0.842920  1
  F  F38  1  0.047356  0.679607  0.719548  1
  F  F39  1  0.793457  0.501063  0.081749  1
