# generated using pymatgen
data_PrYCBr
_symmetry_space_group_name_H-M   'P 1'
_cell_length_a   3.76721000
_cell_length_b   3.76721088
_cell_length_c   14.68002200
_cell_angle_alpha   90.00000000
_cell_angle_beta   90.00000000
_cell_angle_gamma   120.00000984
_symmetry_Int_Tables_number   1
_chemical_formula_structural   PrYCBr
_chemical_formula_sum   'Pr2 Y2 C2 Br2'
_cell_volume   180.42514253
_cell_formula_units_Z   2
loop_
 _symmetry_equiv_pos_site_id
 _symmetry_equiv_pos_as_xyz
  1  'x, y, z'
loop_
 _atom_site_type_symbol
 _atom_site_label
 _atom_site_symmetry_multiplicity
 _atom_site_fract_x
 _atom_site_fract_y
 _atom_site_fract_z
 _atom_site_occupancy
  Pr  Pr0  1  0.666667  0.333333  0.908734  1
  Pr  Pr1  1  0.333333  0.666667  0.408734  1
  Y  Y2  1  0.333333  0.666667  0.090352  1
  Y  Y3  1  0.666667  0.333333  0.590352  1
  C  C4  1  0.000000  0.000000  0.008738  1
  C  C5  1  0.000000  0.000000  0.508738  1
  Br  Br6  1  0.666667  0.333333  0.242175  1
  Br  Br7  1  0.333333  0.666667  0.742175  1
