# generated using pymatgen
data_Ba4TcRuO10
_symmetry_space_group_name_H-M   'P 1'
_cell_length_a   5.80405800
_cell_length_b   7.45417026
_cell_length_c   11.66226900
_cell_angle_alpha   91.24942440
_cell_angle_beta   90.00000000
_cell_angle_gamma   90.00000000
_symmetry_Int_Tables_number   1
_chemical_formula_structural   Ba4TcRuO10
_chemical_formula_sum   'Ba8 Tc2 Ru2 O20'
_cell_volume   504.44153536
_cell_formula_units_Z   2
loop_
 _symmetry_equiv_pos_site_id
 _symmetry_equiv_pos_as_xyz
  1  'x, y, z'
loop_
 _atom_site_type_symbol
 _atom_site_label
 _atom_site_symmetry_multiplicity
 _atom_site_fract_x
 _atom_site_fract_y
 _atom_site_fract_z
 _atom_site_occupancy
  Ba  Ba0  1  0.750000  0.167769  0.571675  1
  Ba  Ba1  1  0.250000  0.832231  0.428325  1
  Ba  Ba2  1  0.750000  0.679707  0.911545  1
  Ba  Ba3  1  0.250000  0.320293  0.088455  1
  Ba  Ba4  1  0.250000  0.025205  0.781403  1
  Ba  Ba5  1  0.750000  0.974795  0.218597  1
  Ba  Ba6  1  0.250000  0.527441  0.698990  1
  Ba  Ba7  1  0.750000  0.472559  0.301010  1
  Tc  Tc8  1  0.250000  0.821828  0.062221  1
  Tc  Tc9  1  0.750000  0.178172  0.937779  1
  Ru  Ru10  1  0.250000  0.325359  0.433766  1
  Ru  Ru11  1  0.750000  0.674641  0.566234  1
  O  O12  1  0.484702  0.675606  0.110249  1
  O  O13  1  0.984702  0.324394  0.889751  1
  O  O14  1  0.008550  0.172546  0.379018  1
  O  O15  1  0.508550  0.827454  0.620982  1
  O  O16  1  0.515298  0.324394  0.889751  1
  O  O17  1  0.015298  0.675606  0.110249  1
  O  O18  1  0.991450  0.827454  0.620982  1
  O  O19  1  0.491450  0.172546  0.379018  1
  O  O20  1  0.750000  0.270763  0.091466  1
  O  O21  1  0.250000  0.729237  0.908534  1
  O  O22  1  0.750000  0.788842  0.412020  1
  O  O23  1  0.250000  0.211158  0.587980  1
  O  O24  1  0.000000  0.500000  0.500000  1
  O  O25  1  0.500000  0.500000  0.500000  1
  O  O26  1  0.500000  0.000000  0.000000  1
  O  O27  1  0.000000  0.000000  0.000000  1
  O  O28  1  0.250000  0.468157  0.299311  1
  O  O29  1  0.750000  0.531843  0.700689  1
  O  O30  1  0.250000  0.974770  0.187407  1
  O  O31  1  0.750000  0.025230  0.812593  1
