# generated using pymatgen
data_PrEr3(ScPt)4
_symmetry_space_group_name_H-M   'P 1'
_cell_length_a   4.64822600
_cell_length_b   6.98666172
_cell_length_c   8.40300800
_cell_angle_alpha   89.97397906
_cell_angle_beta   90.00000000
_cell_angle_gamma   90.00000000
_symmetry_Int_Tables_number   1
_chemical_formula_structural   PrEr3(ScPt)4
_chemical_formula_sum   'Pr1 Er3 Sc4 Pt4'
_cell_volume   272.89255278
_cell_formula_units_Z   1
loop_
 _symmetry_equiv_pos_site_id
 _symmetry_equiv_pos_as_xyz
  1  'x, y, z'
loop_
 _atom_site_type_symbol
 _atom_site_label
 _atom_site_symmetry_multiplicity
 _atom_site_fract_x
 _atom_site_fract_y
 _atom_site_fract_z
 _atom_site_occupancy
  Pr  Pr0  1  0.750000  0.514944  0.822581  1
  Er  Er1  1  0.250000  0.982411  0.323091  1
  Er  Er2  1  0.750000  0.016400  0.672801  1
  Er  Er3  1  0.250000  0.483161  0.179258  1
  Sc  Sc4  1  0.750000  0.642068  0.423489  1
  Sc  Sc5  1  0.250000  0.356561  0.567894  1
  Sc  Sc6  1  0.750000  0.140769  0.076402  1
  Sc  Sc7  1  0.250000  0.861712  0.926789  1
  Pt  Pt8  1  0.250000  0.239585  0.908523  1
  Pt  Pt9  1  0.750000  0.759059  0.103921  1
  Pt  Pt10  1  0.250000  0.747983  0.593305  1
  Pt  Pt11  1  0.750000  0.255345  0.401944  1
