# generated using pymatgen
data_Y4Ho4Re(B8Os)3
_symmetry_space_group_name_H-M   'P 1'
_cell_length_a   3.66172700
_cell_length_b   9.15417520
_cell_length_c   11.54440200
_cell_angle_alpha   90.08456979
_cell_angle_beta   90.00000000
_cell_angle_gamma   90.00000000
_symmetry_Int_Tables_number   1
_chemical_formula_structural   Y4Ho4Re(B8Os)3
_chemical_formula_sum   'Y4 Ho4 Re1 B24 Os3'
_cell_volume   386.96897815
_cell_formula_units_Z   1
loop_
 _symmetry_equiv_pos_site_id
 _symmetry_equiv_pos_as_xyz
  1  'x, y, z'
loop_
 _atom_site_type_symbol
 _atom_site_label
 _atom_site_symmetry_multiplicity
 _atom_site_fract_x
 _atom_site_fract_y
 _atom_site_fract_z
 _atom_site_occupancy
  Y  Y0  1  0.000000  0.322232  0.414869  1
  Y  Y1  1  0.000000  0.680187  0.588100  1
  Y  Y2  1  0.000000  0.822456  0.083657  1
  Y  Y3  1  0.000000  0.176542  0.913196  1
  Ho  Ho4  1  0.000000  0.943312  0.371888  1
  Ho  Ho5  1  0.000000  0.055906  0.627732  1
  Ho  Ho6  1  0.000000  0.442969  0.127802  1
  Ho  Ho7  1  0.000000  0.556506  0.872746  1
  Re  Re8  1  0.000000  0.862373  0.821233  1
  B  B9  1  0.500000  0.553952  0.432978  1
  B  B10  1  0.500000  0.446161  0.567331  1
  B  B11  1  0.500000  0.053786  0.067532  1
  B  B12  1  0.500000  0.946961  0.932911  1
  B  B13  1  0.500000  0.748420  0.419179  1
  B  B14  1  0.500000  0.251680  0.580687  1
  B  B15  1  0.500000  0.248165  0.080951  1
  B  B16  1  0.500000  0.751494  0.919041  1
  B  B17  1  0.500000  0.790376  0.266303  1
  B  B18  1  0.500000  0.209198  0.732971  1
  B  B19  1  0.500000  0.290812  0.233730  1
  B  B20  1  0.500000  0.708582  0.766285  1
  B  B21  1  0.500000  0.630923  0.185609  1
  B  B22  1  0.500000  0.368641  0.814011  1
  B  B23  1  0.500000  0.131539  0.314544  1
  B  B24  1  0.500000  0.868813  0.685773  1
  B  B25  1  0.500000  0.983548  0.212840  1
  B  B26  1  0.500000  0.017486  0.787065  1
  B  B27  1  0.500000  0.483265  0.287603  1
  B  B28  1  0.500000  0.516720  0.712919  1
  B  B29  1  0.500000  0.605509  0.029903  1
  B  B30  1  0.500000  0.392975  0.970727  1
  B  B31  1  0.500000  0.106885  0.470062  1
  B  B32  1  0.500000  0.893675  0.528913  1
  Os  Os33  1  0.000000  0.637477  0.321314  1
  Os  Os34  1  0.000000  0.362537  0.678244  1
  Os  Os35  1  0.000000  0.137937  0.179350  1
