# generated using pymatgen
data_Rb8Na4Tb3DySb8
_symmetry_space_group_name_H-M   'P 1'
_cell_length_a   11.36494040
_cell_length_b   11.36493951
_cell_length_c   7.49815148
_cell_angle_alpha   89.96064746
_cell_angle_beta   90.03935444
_cell_angle_gamma   98.40365527
_symmetry_Int_Tables_number   1
_chemical_formula_structural   Rb8Na4Tb3DySb8
_chemical_formula_sum   'Rb8 Na4 Tb3 Dy1 Sb8'
_cell_volume   958.07629148
_cell_formula_units_Z   1
loop_
 _symmetry_equiv_pos_site_id
 _symmetry_equiv_pos_as_xyz
  1  'x, y, z'
loop_
 _atom_site_type_symbol
 _atom_site_label
 _atom_site_symmetry_multiplicity
 _atom_site_fract_x
 _atom_site_fract_y
 _atom_site_fract_z
 _atom_site_occupancy
  Rb  Rb0  1  0.070944  0.429269  0.250092  1
  Rb  Rb1  1  0.429269  0.070944  0.749908  1
  Rb  Rb2  1  0.928860  0.570980  0.749894  1
  Rb  Rb3  1  0.570980  0.928860  0.250106  1
  Rb  Rb4  1  0.676406  0.323700  0.215615  1
  Rb  Rb5  1  0.823435  0.176365  0.715518  1
  Rb  Rb6  1  0.323700  0.676406  0.784385  1
  Rb  Rb7  1  0.176365  0.823435  0.284482  1
  Na  Na8  1  0.382639  0.382639  0.000000  1
  Na  Na9  1  0.117405  0.117405  0.500000  1
  Na  Na10  1  0.617304  0.617304  0.000000  1
  Na  Na11  1  0.882525  0.882525  0.500000  1
  Tb  Tb12  1  0.369010  0.369010  0.500000  1
  Tb  Tb13  1  0.869012  0.869012  0.000000  1
  Tb  Tb14  1  0.631298  0.631298  0.500000  1
  Dy  Dy15  1  0.130839  0.130839  0.000000  1
  Sb  Sb16  1  0.846699  0.653065  0.250038  1
  Sb  Sb17  1  0.653065  0.846699  0.749962  1
  Sb  Sb18  1  0.152913  0.346367  0.751014  1
  Sb  Sb19  1  0.346367  0.152913  0.248986  1
  Sb  Sb20  1  0.899741  0.100995  0.211293  1
  Sb  Sb21  1  0.601154  0.399074  0.712291  1
  Sb  Sb22  1  0.100995  0.899741  0.788707  1
  Sb  Sb23  1  0.399074  0.601154  0.287709  1
