# generated using pymatgen
data_Pr5ScPtO12
_symmetry_space_group_name_H-M   'P 1'
_cell_length_a   7.17663257
_cell_length_b   7.17663359
_cell_length_c   7.72091741
_cell_angle_alpha   74.36845741
_cell_angle_beta   74.36845598
_cell_angle_gamma   50.54092687
_symmetry_Int_Tables_number   1
_chemical_formula_structural   Pr5ScPtO12
_chemical_formula_sum   'Pr5 Sc1 Pt1 O12'
_cell_volume   293.07781419
_cell_formula_units_Z   1
loop_
 _symmetry_equiv_pos_site_id
 _symmetry_equiv_pos_as_xyz
  1  'x, y, z'
loop_
 _atom_site_type_symbol
 _atom_site_label
 _atom_site_symmetry_multiplicity
 _atom_site_fract_x
 _atom_site_fract_y
 _atom_site_fract_z
 _atom_site_occupancy
  Pr  Pr0  1  0.308695  0.300652  0.358065  1
  Pr  Pr1  1  0.699348  0.691305  0.641935  1
  Pr  Pr2  1  0.687108  0.697969  0.167111  1
  Pr  Pr3  1  0.302031  0.312892  0.832889  1
  Pr  Pr4  1  0.009407  0.990593  0.500000  1
  Sc  Sc5  1  0.761742  0.238258  0.000000  1
  Pt  Pt6  1  0.246144  0.753856  0.000000  1
  O  O7  1  0.095287  0.596233  0.573431  1
  O  O8  1  0.015392  0.984025  0.183291  1
  O  O9  1  0.403767  0.904713  0.426569  1
  O  O10  1  0.487705  0.513549  0.180940  1
  O  O11  1  0.099850  0.584200  0.081320  1
  O  O12  1  0.905533  0.404197  0.421658  1
  O  O13  1  0.015975  0.984608  0.816709  1
  O  O14  1  0.595803  0.094466  0.578342  1
  O  O15  1  0.486451  0.512295  0.819060  1
  O  O16  1  0.565028  0.101067  0.081679  1
  O  O17  1  0.415800  0.900150  0.918680  1
  O  O18  1  0.898933  0.434972  0.918321  1
