# generated using pymatgen
data_Si(AgSe)4
_symmetry_space_group_name_H-M   'P 1'
_cell_length_a   7.09464000
_cell_length_b   8.00351400
_cell_length_c   16.40801700
_cell_angle_alpha   90.00000000
_cell_angle_beta   90.00000000
_cell_angle_gamma   90.00000000
_symmetry_Int_Tables_number   1
_chemical_formula_structural   Si(AgSe)4
_chemical_formula_sum   'Si4 Ag16 Se16'
_cell_volume   931.68085096
_cell_formula_units_Z   4
loop_
 _symmetry_equiv_pos_site_id
 _symmetry_equiv_pos_as_xyz
  1  'x, y, z'
loop_
 _atom_site_type_symbol
 _atom_site_label
 _atom_site_symmetry_multiplicity
 _atom_site_fract_x
 _atom_site_fract_y
 _atom_site_fract_z
 _atom_site_occupancy
  Si  Si0  1  0.847148  0.750000  0.107559  1
  Si  Si1  1  0.347148  0.250000  0.392441  1
  Si  Si2  1  0.652852  0.750000  0.607559  1
  Si  Si3  1  0.152852  0.250000  0.892441  1
  Ag  Ag4  1  0.500000  0.000000  0.000000  1
  Ag  Ag5  1  0.500000  0.500000  0.000000  1
  Ag  Ag6  1  0.811443  0.250000  0.074516  1
  Ag  Ag7  1  0.385107  0.554740  0.177677  1
  Ag  Ag8  1  0.385107  0.945260  0.177677  1
  Ag  Ag9  1  0.885107  0.054740  0.322323  1
  Ag  Ag10  1  0.885107  0.445260  0.322323  1
  Ag  Ag11  1  0.311443  0.750000  0.425484  1
  Ag  Ag12  1  0.000000  0.000000  0.500000  1
  Ag  Ag13  1  0.000000  0.500000  0.500000  1
  Ag  Ag14  1  0.688557  0.250000  0.574516  1
  Ag  Ag15  1  0.114893  0.554740  0.677677  1
  Ag  Ag16  1  0.114893  0.945260  0.677677  1
  Ag  Ag17  1  0.614893  0.054740  0.822323  1
  Ag  Ag18  1  0.614893  0.445260  0.822323  1
  Ag  Ag19  1  0.188557  0.750000  0.925484  1
  Se  Se20  1  0.274139  0.250000  0.023433  1
  Se  Se21  1  0.171785  0.750000  0.087102  1
  Se  Se22  1  0.750856  0.509457  0.174396  1
  Se  Se23  1  0.750856  0.990543  0.174396  1
  Se  Se24  1  0.250856  0.009457  0.325604  1
  Se  Se25  1  0.250856  0.490543  0.325604  1
  Se  Se26  1  0.671785  0.250000  0.412898  1
  Se  Se27  1  0.774139  0.750000  0.476567  1
  Se  Se28  1  0.225861  0.250000  0.523433  1
  Se  Se29  1  0.328215  0.750000  0.587102  1
  Se  Se30  1  0.749144  0.509457  0.674396  1
  Se  Se31  1  0.749144  0.990543  0.674396  1
  Se  Se32  1  0.249144  0.009457  0.825604  1
  Se  Se33  1  0.249144  0.490543  0.825604  1
  Se  Se34  1  0.828215  0.250000  0.912898  1
  Se  Se35  1  0.725861  0.750000  0.976567  1
