# generated using pymatgen
data_TbHoPa2(CoGe)4
_symmetry_space_group_name_H-M   'P 1'
_cell_length_a   4.30929700
_cell_length_b   7.26493275
_cell_length_c   6.94815507
_cell_angle_alpha   93.09870918
_cell_angle_beta   90.00000000
_cell_angle_gamma   90.00000000
_symmetry_Int_Tables_number   1
_chemical_formula_structural   TbHoPa2(CoGe)4
_chemical_formula_sum   'Tb1 Ho1 Pa2 Co4 Ge4'
_cell_volume   217.20612908
_cell_formula_units_Z   1
loop_
 _symmetry_equiv_pos_site_id
 _symmetry_equiv_pos_as_xyz
  1  'x, y, z'
loop_
 _atom_site_type_symbol
 _atom_site_label
 _atom_site_symmetry_multiplicity
 _atom_site_fract_x
 _atom_site_fract_y
 _atom_site_fract_z
 _atom_site_occupancy
  Tb  Tb0  1  0.750000  0.019248  0.226747  1
  Ho  Ho1  1  0.250000  0.980606  0.772358  1
  Pa  Pa2  1  0.250000  0.489712  0.697887  1
  Pa  Pa3  1  0.750000  0.510249  0.302102  1
  Co  Co4  1  0.750000  0.375423  0.960574  1
  Co  Co5  1  0.250000  0.256222  0.449916  1
  Co  Co6  1  0.750000  0.743871  0.550620  1
  Co  Co7  1  0.250000  0.624909  0.039330  1
  Ge  Ge8  1  0.250000  0.798568  0.387373  1
  Ge  Ge9  1  0.750000  0.719114  0.904706  1
  Ge  Ge10  1  0.250000  0.280959  0.094760  1
  Ge  Ge11  1  0.750000  0.201117  0.613627  1
