# generated using pymatgen
data_Ce7Lu(Si4Mo3)4
_symmetry_space_group_name_H-M   'P 1'
_cell_length_a   6.87987328
_cell_length_b   6.97461999
_cell_length_c   13.02594160
_cell_angle_alpha   89.81332824
_cell_angle_beta   89.95114091
_cell_angle_gamma   89.91894148
_symmetry_Int_Tables_number   1
_chemical_formula_structural   Ce7Lu(Si4Mo3)4
_chemical_formula_sum   'Ce7 Lu1 Si16 Mo12'
_cell_volume   625.03914907
_cell_formula_units_Z   1
loop_
 _symmetry_equiv_pos_site_id
 _symmetry_equiv_pos_as_xyz
  1  'x, y, z'
loop_
 _atom_site_type_symbol
 _atom_site_label
 _atom_site_symmetry_multiplicity
 _atom_site_fract_x
 _atom_site_fract_y
 _atom_site_fract_z
 _atom_site_occupancy
  Ce  Ce0  1  0.495060  0.339513  0.092489  1
  Ce  Ce1  1  0.994828  0.161226  0.407157  1
  Ce  Ce2  1  0.504815  0.660530  0.592699  1
  Ce  Ce3  1  0.003348  0.833857  0.905762  1
  Ce  Ce4  1  0.505063  0.661115  0.908831  1
  Ce  Ce5  1  0.005974  0.839046  0.592579  1
  Ce  Ce6  1  0.494731  0.338502  0.405740  1
  Lu  Lu7  1  0.994436  0.166436  0.094935  1
  Si  Si8  1  0.655525  0.045647  0.547049  1
  Si  Si9  1  0.153584  0.451113  0.954152  1
  Si  Si10  1  0.339165  0.958117  0.047924  1
  Si  Si11  1  0.844626  0.545952  0.452764  1
  Si  Si12  1  0.346425  0.953793  0.451894  1
  Si  Si13  1  0.846527  0.541796  0.047682  1
  Si  Si14  1  0.658449  0.045138  0.954741  1
  Si  Si15  1  0.154608  0.453628  0.547220  1
  Si  Si16  1  0.538000  0.358649  0.751319  1
  Si  Si17  1  0.037950  0.139205  0.750426  1
  Si  Si18  1  0.462269  0.642381  0.250178  1
  Si  Si19  1  0.963344  0.863964  0.247996  1
  Si  Si20  1  0.807917  0.624214  0.749797  1
  Si  Si21  1  0.308408  0.873492  0.750448  1
  Si  Si22  1  0.189838  0.372920  0.248491  1
  Si  Si23  1  0.694955  0.127718  0.247722  1
  Mo  Mo24  1  0.830268  0.334948  0.625940  1
  Mo  Mo25  1  0.329757  0.162650  0.875666  1
  Mo  Mo26  1  0.166820  0.666012  0.125487  1
  Mo  Mo27  1  0.672619  0.838271  0.373023  1
  Mo  Mo28  1  0.167637  0.663771  0.373395  1
  Mo  Mo29  1  0.668303  0.836548  0.124228  1
  Mo  Mo30  1  0.831426  0.334970  0.875374  1
  Mo  Mo31  1  0.332425  0.163336  0.625823  1
  Mo  Mo32  1  0.668643  0.995700  0.751141  1
  Mo  Mo33  1  0.169179  0.501486  0.750345  1
  Mo  Mo34  1  0.331700  0.005407  0.249642  1
  Mo  Mo35  1  0.831379  0.498949  0.249939  1
