# generated using pymatgen
data_Tb3HoCo8(PIr)12
_symmetry_space_group_name_H-M   'P 1'
_cell_length_a   3.87703700
_cell_length_b   10.61479202
_cell_length_c   12.19592602
_cell_angle_alpha   90.00657388
_cell_angle_beta   90.00000000
_cell_angle_gamma   90.00000000
_symmetry_Int_Tables_number   1
_chemical_formula_structural   Tb3HoCo8(PIr)12
_chemical_formula_sum   'Tb3 Ho1 Co8 P12 Ir12'
_cell_volume   501.91042143
_cell_formula_units_Z   1
loop_
 _symmetry_equiv_pos_site_id
 _symmetry_equiv_pos_as_xyz
  1  'x, y, z'
loop_
 _atom_site_type_symbol
 _atom_site_label
 _atom_site_symmetry_multiplicity
 _atom_site_fract_x
 _atom_site_fract_y
 _atom_site_fract_z
 _atom_site_occupancy
  Tb  Tb0  1  0.250000  0.915961  0.210721  1
  Tb  Tb1  1  0.750000  0.416225  0.289233  1
  Tb  Tb2  1  0.750000  0.083925  0.789350  1
  Ho  Ho3  1  0.250000  0.584013  0.710546  1
  Co  Co4  1  0.250000  0.883503  0.697000  1
  Co  Co5  1  0.250000  0.616355  0.196613  1
  Co  Co6  1  0.750000  0.116302  0.303202  1
  Co  Co7  1  0.750000  0.384069  0.802883  1
  Co  Co8  1  0.250000  0.463895  0.932755  1
  Co  Co9  1  0.250000  0.036525  0.433564  1
  Co  Co10  1  0.750000  0.536588  0.065985  1
  Co  Co11  1  0.750000  0.963191  0.566656  1
  P  P12  1  0.250000  0.432386  0.110334  1
  P  P13  1  0.250000  0.067679  0.610772  1
  P  P14  1  0.750000  0.567625  0.888446  1
  P  P15  1  0.750000  0.932196  0.389352  1
  P  P16  1  0.250000  0.274554  0.870532  1
  P  P17  1  0.250000  0.225537  0.370511  1
  P  P18  1  0.750000  0.725337  0.129594  1
  P  P19  1  0.750000  0.774255  0.629941  1
  P  P20  1  0.250000  0.598311  0.376960  1
  P  P21  1  0.250000  0.901742  0.877257  1
  P  P22  1  0.750000  0.402109  0.623255  1
  P  P23  1  0.750000  0.098282  0.122848  1
  Ir  Ir24  1  0.250000  0.723078  0.990525  1
  Ir  Ir25  1  0.250000  0.776768  0.490883  1
  Ir  Ir26  1  0.750000  0.276913  0.009287  1
  Ir  Ir27  1  0.750000  0.223208  0.509573  1
  Ir  Ir28  1  0.250000  0.410428  0.477194  1
  Ir  Ir29  1  0.250000  0.089902  0.977170  1
  Ir  Ir30  1  0.750000  0.589857  0.524130  1
  Ir  Ir31  1  0.750000  0.910064  0.022898  1
  Ir  Ir32  1  0.250000  0.227290  0.178218  1
  Ir  Ir33  1  0.250000  0.272981  0.678321  1
  Ir  Ir34  1  0.750000  0.772102  0.821510  1
  Ir  Ir35  1  0.750000  0.726844  0.321983  1
