# generated using pymatgen
data_Lu10InSnPb4
_symmetry_space_group_name_H-M   'P 1'
_cell_length_a   6.49308904
_cell_length_b   8.82825628
_cell_length_c   8.85987452
_cell_angle_alpha   119.88317726
_cell_angle_beta   90.00351740
_cell_angle_gamma   89.99383663
_symmetry_Int_Tables_number   1
_chemical_formula_structural   Lu10InSnPb4
_chemical_formula_sum   'Lu10 In1 Sn1 Pb4'
_cell_volume   440.34648361
_cell_formula_units_Z   1
loop_
 _symmetry_equiv_pos_site_id
 _symmetry_equiv_pos_as_xyz
  1  'x, y, z'
loop_
 _atom_site_type_symbol
 _atom_site_label
 _atom_site_symmetry_multiplicity
 _atom_site_fract_x
 _atom_site_fract_y
 _atom_site_fract_z
 _atom_site_occupancy
  Lu  Lu0  1  0.750116  0.236343  0.000082  1
  Lu  Lu1  1  0.749969  0.761950  0.768278  1
  Lu  Lu2  1  0.749954  0.993603  0.231718  1
  Lu  Lu3  1  0.250070  0.764944  0.999970  1
  Lu  Lu4  1  0.250039  0.237038  0.233627  1
  Lu  Lu5  1  0.250057  0.003289  0.766306  1
  Lu  Lu6  1  0.501112  0.337365  0.672330  1
  Lu  Lu7  1  0.501082  0.665000  0.327692  1
  Lu  Lu8  1  0.998841  0.664667  0.327244  1
  Lu  Lu9  1  0.998858  0.337411  0.672771  1
  In  In10  1  0.749778  0.600651  0.000044  1
  Sn  Sn11  1  0.250454  0.397517  0.999986  1
  Pb  Pb12  1  0.750105  0.392679  0.393928  1
  Pb  Pb13  1  0.750008  0.998742  0.606059  1
  Pb  Pb14  1  0.249768  0.606124  0.603445  1
  Pb  Pb15  1  0.249787  0.002677  0.396520  1
