# generated using pymatgen
data_PrNd5(GeI3)2
_symmetry_space_group_name_H-M   'P 1'
_cell_length_a   10.86814755
_cell_length_b   10.86814893
_cell_length_c   10.86836222
_cell_angle_alpha   109.45816182
_cell_angle_beta   109.49449933
_cell_angle_gamma   109.46019910
_symmetry_Int_Tables_number   1
_chemical_formula_structural   PrNd5(GeI3)2
_chemical_formula_sum   'Pr2 Nd10 Ge4 I12'
_cell_volume   988.22895689
_cell_formula_units_Z   2
loop_
 _symmetry_equiv_pos_site_id
 _symmetry_equiv_pos_as_xyz
  1  'x, y, z'
loop_
 _atom_site_type_symbol
 _atom_site_label
 _atom_site_symmetry_multiplicity
 _atom_site_fract_x
 _atom_site_fract_y
 _atom_site_fract_z
 _atom_site_occupancy
  Pr  Pr0  1  0.467894  0.483962  0.233987  1
  Pr  Pr1  1  0.749975  0.233906  0.266013  1
  Nd  Nd2  1  0.749711  0.016337  0.483246  1
  Nd  Nd3  1  0.233505  0.466880  0.483303  1
  Nd  Nd4  1  0.266394  0.749879  0.233463  1
  Nd  Nd5  1  0.033090  0.266465  0.016754  1
  Nd  Nd6  1  0.016416  0.032931  0.266537  1
  Nd  Nd7  1  0.483576  0.750202  0.016697  1
  Nd  Nd8  1  0.483268  0.233325  0.466746  1
  Nd  Nd9  1  0.016438  0.483461  0.749900  1
  Nd  Nd10  1  0.266579  0.016522  0.033254  1
  Nd  Nd11  1  0.233561  0.266538  0.750100  1
  Ge  Ge12  1  0.249315  0.249256  0.249983  1
  Ge  Ge13  1  0.499272  0.999332  0.250017  1
  Ge  Ge14  1  0.000684  0.249969  0.500686  1
  Ge  Ge15  1  0.249283  0.499999  0.999314  1
  I  I16  1  0.250030  0.757072  0.742972  1
  I  I17  1  0.514100  0.507058  0.757028  1
  I  I18  1  0.985918  0.742892  0.992972  1
  I  I19  1  0.742899  0.250041  0.757070  1
  I  I20  1  0.992971  0.985829  0.742930  1
  I  I21  1  0.249920  0.992946  0.507028  1
  I  I22  1  0.757655  0.514885  0.508438  1
  I  I23  1  0.506447  0.249217  0.991562  1
  I  I24  1  0.757562  0.743505  0.249905  1
  I  I25  1  0.743000  0.992169  0.985233  1
  I  I26  1  0.993600  0.507657  0.250095  1
  I  I27  1  0.506936  0.757767  0.514767  1
