# generated using pymatgen
data_La8Ho12Si13Rh3
_symmetry_space_group_name_H-M   'P 1'
_cell_length_a   7.40498300
_cell_length_b   8.01025840
_cell_length_c   14.83559500
_cell_angle_alpha   90.00000000
_cell_angle_beta   90.00000000
_cell_angle_gamma   90.11942324
_symmetry_Int_Tables_number   1
_chemical_formula_structural   La8Ho12Si13Rh3
_chemical_formula_sum   'La8 Ho12 Si13 Rh3'
_cell_volume   879.98367906
_cell_formula_units_Z   1
loop_
 _symmetry_equiv_pos_site_id
 _symmetry_equiv_pos_as_xyz
  1  'x, y, z'
loop_
 _atom_site_type_symbol
 _atom_site_label
 _atom_site_symmetry_multiplicity
 _atom_site_fract_x
 _atom_site_fract_y
 _atom_site_fract_z
 _atom_site_occupancy
  La  La0  1  0.006919  0.177751  0.094065  1
  La  La1  1  0.990641  0.822274  0.908989  1
  La  La2  1  0.488971  0.679126  0.907842  1
  La  La3  1  0.990641  0.822274  0.591011  1
  La  La4  1  0.509228  0.324219  0.095548  1
  La  La5  1  0.006919  0.177751  0.405935  1
  La  La6  1  0.509228  0.324219  0.404452  1
  La  La7  1  0.488971  0.679126  0.592158  1
  Ho  Ho8  1  0.156782  0.521669  0.750000  1
  Ho  Ho9  1  0.829322  0.492784  0.250000  1
  Ho  Ho10  1  0.327200  0.011040  0.250000  1
  Ho  Ho11  1  0.672769  0.986427  0.750000  1
  Ho  Ho12  1  0.315704  0.173528  0.628120  1
  Ho  Ho13  1  0.683087  0.829624  0.371220  1
  Ho  Ho14  1  0.184740  0.672114  0.370696  1
  Ho  Ho15  1  0.683087  0.829624  0.128780  1
  Ho  Ho16  1  0.829962  0.318199  0.626275  1
  Ho  Ho17  1  0.315704  0.173528  0.871880  1
  Ho  Ho18  1  0.829962  0.318199  0.873725  1
  Ho  Ho19  1  0.184740  0.672114  0.129304  1
  Si  Si20  1  0.528721  0.391424  0.750000  1
  Si  Si21  1  0.276693  0.871841  0.750000  1
  Si  Si22  1  0.722681  0.128635  0.250000  1
  Si  Si23  1  0.220319  0.374563  0.250000  1
  Si  Si24  1  0.769869  0.613472  0.750000  1
  Si  Si25  1  0.151523  0.469826  0.538432  1
  Si  Si26  1  0.852416  0.531699  0.463209  1
  Si  Si27  1  0.350205  0.971652  0.462414  1
  Si  Si28  1  0.852416  0.531699  0.036791  1
  Si  Si29  1  0.644563  0.033333  0.538583  1
  Si  Si30  1  0.151523  0.469826  0.961568  1
  Si  Si31  1  0.644563  0.033333  0.961417  1
  Si  Si32  1  0.350205  0.971652  0.037586  1
  Rh  Rh33  1  0.023449  0.100474  0.750000  1
  Rh  Rh34  1  0.976433  0.897488  0.250000  1
  Rh  Rh35  1  0.479846  0.603497  0.250000  1
