# generated using pymatgen
data_Mg4Ga3Cu5
_symmetry_space_group_name_H-M   'P 1'
_cell_length_a   5.09518403
_cell_length_b   5.09774098
_cell_length_c   8.13895700
_cell_angle_alpha   90.00000000
_cell_angle_beta   90.00000000
_cell_angle_gamma   120.02360113
_symmetry_Int_Tables_number   1
_chemical_formula_structural   Mg4Ga3Cu5
_chemical_formula_sum   'Mg4 Ga3 Cu5'
_cell_volume   183.03480960
_cell_formula_units_Z   1
loop_
 _symmetry_equiv_pos_site_id
 _symmetry_equiv_pos_as_xyz
  1  'x, y, z'
loop_
 _atom_site_type_symbol
 _atom_site_label
 _atom_site_symmetry_multiplicity
 _atom_site_fract_x
 _atom_site_fract_y
 _atom_site_fract_z
 _atom_site_occupancy
  Mg  Mg0  1  0.329222  0.664603  0.058009  1
  Mg  Mg1  1  0.329222  0.664603  0.441991  1
  Mg  Mg2  1  0.669467  0.334740  0.570115  1
  Mg  Mg3  1  0.669467  0.334740  0.929885  1
  Ga  Ga4  1  0.986067  0.993063  0.995723  1
  Ga  Ga5  1  0.357620  0.178770  0.250000  1
  Ga  Ga6  1  0.986067  0.993063  0.504276  1
  Cu  Cu7  1  0.842793  0.176550  0.250000  1
  Cu  Cu8  1  0.842883  0.666268  0.250000  1
  Cu  Cu9  1  0.168332  0.338311  0.750000  1
  Cu  Cu10  1  0.168362  0.830054  0.750000  1
  Cu  Cu11  1  0.650500  0.825239  0.750000  1
