# generated using pymatgen
data_Pr12Si8(Ir3Rh)3
_symmetry_space_group_name_H-M   'P 1'
_cell_length_a   5.76737157
_cell_length_b   7.81905784
_cell_length_c   15.08113131
_cell_angle_alpha   90.08673531
_cell_angle_beta   89.95811095
_cell_angle_gamma   89.92676529
_symmetry_Int_Tables_number   1
_chemical_formula_structural   Pr12Si8(Ir3Rh)3
_chemical_formula_sum   'Pr12 Si8 Ir9 Rh3'
_cell_volume   680.08831073
_cell_formula_units_Z   1
loop_
 _symmetry_equiv_pos_site_id
 _symmetry_equiv_pos_as_xyz
  1  'x, y, z'
loop_
 _atom_site_type_symbol
 _atom_site_label
 _atom_site_symmetry_multiplicity
 _atom_site_fract_x
 _atom_site_fract_y
 _atom_site_fract_z
 _atom_site_occupancy
  Pr  Pr0  1  0.135430  0.473325  0.890541  1
  Pr  Pr1  1  0.363669  0.975514  0.891083  1
  Pr  Pr2  1  0.603128  0.331468  0.750204  1
  Pr  Pr3  1  0.397650  0.668512  0.249859  1
  Pr  Pr4  1  0.636648  0.024862  0.390339  1
  Pr  Pr5  1  0.864721  0.525193  0.109888  1
  Pr  Pr6  1  0.863448  0.525584  0.390416  1
  Pr  Pr7  1  0.363755  0.974438  0.609169  1
  Pr  Pr8  1  0.896876  0.831086  0.750074  1
  Pr  Pr9  1  0.136625  0.473812  0.609371  1
  Pr  Pr10  1  0.636299  0.025327  0.109753  1
  Pr  Pr11  1  0.102604  0.169026  0.249937  1
  Si  Si12  1  0.373574  0.371040  0.097436  1
  Si  Si13  1  0.624502  0.628883  0.901561  1
  Si  Si14  1  0.873155  0.128182  0.901974  1
  Si  Si15  1  0.370824  0.371793  0.402272  1
  Si  Si16  1  0.873904  0.128287  0.598227  1
  Si  Si17  1  0.626054  0.628600  0.598414  1
  Si  Si18  1  0.129668  0.871953  0.402094  1
  Si  Si19  1  0.128560  0.872075  0.098045  1
  Ir  Ir20  1  0.607820  0.339105  0.960509  1
  Ir  Ir21  1  0.394471  0.661844  0.039415  1
  Ir  Ir22  1  0.570014  0.320231  0.250277  1
  Ir  Ir23  1  0.395185  0.660956  0.461119  1
  Ir  Ir24  1  0.071902  0.179189  0.749664  1
  Ir  Ir25  1  0.104703  0.161272  0.460935  1
  Ir  Ir26  1  0.426772  0.680142  0.749934  1
  Ir  Ir27  1  0.931108  0.820384  0.250247  1
  Ir  Ir28  1  0.104712  0.161078  0.039546  1
  Rh  Rh29  1  0.609346  0.339231  0.537852  1
  Rh  Rh30  1  0.892057  0.838810  0.538017  1
  Rh  Rh31  1  0.890815  0.838797  0.961828  1
