# generated using pymatgen
data_Tb8Tl3Ni
_symmetry_space_group_name_H-M   'P 1'
_cell_length_a   10.55276400
_cell_length_b   10.55276476
_cell_length_c   7.00928100
_cell_angle_alpha   90.00000000
_cell_angle_beta   90.00000000
_cell_angle_gamma   120.00000390
_symmetry_Int_Tables_number   1
_chemical_formula_structural   Tb8Tl3Ni
_chemical_formula_sum   'Tb16 Tl6 Ni2'
_cell_volume   675.98423613
_cell_formula_units_Z   2
loop_
 _symmetry_equiv_pos_site_id
 _symmetry_equiv_pos_as_xyz
  1  'x, y, z'
loop_
 _atom_site_type_symbol
 _atom_site_label
 _atom_site_symmetry_multiplicity
 _atom_site_fract_x
 _atom_site_fract_y
 _atom_site_fract_z
 _atom_site_occupancy
  Tb  Tb0  1  0.466431  0.533569  0.480083  1
  Tb  Tb1  1  0.067136  0.533569  0.480083  1
  Tb  Tb2  1  0.466431  0.932864  0.480083  1
  Tb  Tb3  1  0.533569  0.466431  0.980083  1
  Tb  Tb4  1  0.932864  0.466431  0.980083  1
  Tb  Tb5  1  0.533569  0.067136  0.980083  1
  Tb  Tb6  1  0.823496  0.176504  0.274084  1
  Tb  Tb7  1  0.353007  0.176504  0.274084  1
  Tb  Tb8  1  0.823496  0.646993  0.274084  1
  Tb  Tb9  1  0.176504  0.823496  0.774084  1
  Tb  Tb10  1  0.646993  0.823496  0.774084  1
  Tb  Tb11  1  0.176504  0.353007  0.774084  1
  Tb  Tb12  1  0.333333  0.666667  0.094209  1
  Tb  Tb13  1  0.666667  0.333333  0.594209  1
  Tb  Tb14  1  0.000000  0.000000  0.497171  1
  Tb  Tb15  1  0.000000  0.000000  0.997171  1
  Tl  Tl16  1  0.163113  0.836887  0.236913  1
  Tl  Tl17  1  0.673774  0.836887  0.236913  1
  Tl  Tl18  1  0.163113  0.326226  0.236913  1
  Tl  Tl19  1  0.836887  0.163113  0.736913  1
  Tl  Tl20  1  0.326226  0.163113  0.736913  1
  Tl  Tl21  1  0.836887  0.673774  0.736913  1
  Ni  Ni22  1  0.333333  0.666667  0.707656  1
  Ni  Ni23  1  0.666667  0.333333  0.207656  1
