# generated using pymatgen
data_Nb4Tc3P4Ir
_symmetry_space_group_name_H-M   'P 1'
_cell_length_a   3.80085600
_cell_length_b   6.37407185
_cell_length_c   7.27955088
_cell_angle_alpha   90.02528000
_cell_angle_beta   90.00000000
_cell_angle_gamma   90.00000000
_symmetry_Int_Tables_number   1
_chemical_formula_structural   Nb4Tc3P4Ir
_chemical_formula_sum   'Nb4 Tc3 P4 Ir1'
_cell_volume   176.36114702
_cell_formula_units_Z   1
loop_
 _symmetry_equiv_pos_site_id
 _symmetry_equiv_pos_as_xyz
  1  'x, y, z'
loop_
 _atom_site_type_symbol
 _atom_site_label
 _atom_site_symmetry_multiplicity
 _atom_site_fract_x
 _atom_site_fract_y
 _atom_site_fract_z
 _atom_site_occupancy
  Nb  Nb0  1  0.250000  0.521460  0.670371  1
  Nb  Nb1  1  0.250000  0.026836  0.826390  1
  Nb  Nb2  1  0.750000  0.980257  0.172595  1
  Nb  Nb3  1  0.750000  0.467348  0.326766  1
  Tc  Tc4  1  0.750000  0.356108  0.942135  1
  Tc  Tc5  1  0.250000  0.152442  0.441146  1
  Tc  Tc6  1  0.750000  0.848738  0.556731  1
  P  P7  1  0.250000  0.771511  0.376287  1
  P  P8  1  0.250000  0.268970  0.123715  1
  P  P9  1  0.750000  0.223318  0.629890  1
  P  P10  1  0.750000  0.728831  0.869949  1
  Ir  Ir11  1  0.250000  0.654180  0.064026  1
