# generated using pymatgen
data_Pr5Nd3(ZnRh)8
_symmetry_space_group_name_H-M   'P 1'
_cell_length_a   4.04491700
_cell_length_b   7.34233201
_cell_length_c   16.63525402
_cell_angle_alpha   89.99393443
_cell_angle_beta   90.00000000
_cell_angle_gamma   90.00000000
_symmetry_Int_Tables_number   1
_chemical_formula_structural   Pr5Nd3(ZnRh)8
_chemical_formula_sum   'Pr5 Nd3 Zn8 Rh8'
_cell_volume   494.05246206
_cell_formula_units_Z   1
loop_
 _symmetry_equiv_pos_site_id
 _symmetry_equiv_pos_as_xyz
  1  'x, y, z'
loop_
 _atom_site_type_symbol
 _atom_site_label
 _atom_site_symmetry_multiplicity
 _atom_site_fract_x
 _atom_site_fract_y
 _atom_site_fract_z
 _atom_site_occupancy
  Pr  Pr0  1  0.250000  0.169279  0.939798  1
  Pr  Pr1  1  0.250000  0.669035  0.560306  1
  Pr  Pr2  1  0.750000  0.331013  0.440233  1
  Pr  Pr3  1  0.750000  0.953695  0.282784  1
  Pr  Pr4  1  0.750000  0.830729  0.059755  1
  Nd  Nd5  1  0.750000  0.453391  0.216572  1
  Nd  Nd6  1  0.250000  0.046789  0.716793  1
  Nd  Nd7  1  0.250000  0.546769  0.783159  1
  Zn  Zn8  1  0.750000  0.001999  0.560623  1
  Zn  Zn9  1  0.250000  0.625376  0.349217  1
  Zn  Zn10  1  0.750000  0.373719  0.651195  1
  Zn  Zn11  1  0.250000  0.497937  0.060352  1
  Zn  Zn12  1  0.750000  0.501784  0.939339  1
  Zn  Zn13  1  0.250000  0.998267  0.440168  1
  Zn  Zn14  1  0.250000  0.127486  0.150378  1
  Zn  Zn15  1  0.750000  0.873727  0.848709  1
  Rh  Rh16  1  0.750000  0.756239  0.434676  1
  Rh  Rh17  1  0.250000  0.245236  0.312641  1
  Rh  Rh18  1  0.750000  0.257248  0.812256  1
  Rh  Rh19  1  0.750000  0.757142  0.687875  1
  Rh  Rh20  1  0.250000  0.242157  0.566354  1
  Rh  Rh21  1  0.250000  0.741062  0.186936  1
  Rh  Rh22  1  0.750000  0.257599  0.066051  1
  Rh  Rh23  1  0.250000  0.742323  0.933833  1
