# generated using pymatgen
data_Zr4Tc5B8Ru5
_symmetry_space_group_name_H-M   'P 1'
_cell_length_a   3.08173100
_cell_length_b   8.64897516
_cell_length_c   10.04825153
_cell_angle_alpha   89.87151381
_cell_angle_beta   90.00000000
_cell_angle_gamma   90.00000000
_symmetry_Int_Tables_number   1
_chemical_formula_structural   Zr4Tc5B8Ru5
_chemical_formula_sum   'Zr4 Tc5 B8 Ru5'
_cell_volume   267.82356258
_cell_formula_units_Z   1
loop_
 _symmetry_equiv_pos_site_id
 _symmetry_equiv_pos_as_xyz
  1  'x, y, z'
loop_
 _atom_site_type_symbol
 _atom_site_label
 _atom_site_symmetry_multiplicity
 _atom_site_fract_x
 _atom_site_fract_y
 _atom_site_fract_z
 _atom_site_occupancy
  Zr  Zr0  1  0.500000  0.837765  0.181068  1
  Zr  Zr1  1  0.500000  0.165125  0.817545  1
  Zr  Zr2  1  0.500000  0.659661  0.683646  1
  Zr  Zr3  1  0.500000  0.337096  0.319714  1
  Tc  Tc4  1  0.000000  0.662465  0.954862  1
  Tc  Tc5  1  0.000000  0.339117  0.048666  1
  Tc  Tc6  1  0.000000  0.838161  0.452471  1
  Tc  Tc7  1  0.000000  0.160071  0.544959  1
  Tc  Tc8  1  0.000000  0.409742  0.760410  1
  B  B9  1  0.500000  0.967098  0.586378  1
  B  B10  1  0.500000  0.032868  0.412916  1
  B  B11  1  0.500000  0.849743  0.900306  1
  B  B12  1  0.500000  0.150385  0.098661  1
  B  B13  1  0.500000  0.649567  0.400891  1
  B  B14  1  0.500000  0.349983  0.601860  1
  B  B15  1  0.500000  0.467238  0.913216  1
  B  B16  1  0.500000  0.532753  0.086884  1
  Ru  Ru17  1  0.000000  0.000199  0.999447  1
  Ru  Ru18  1  0.000000  0.591470  0.238737  1
  Ru  Ru19  1  0.000000  0.499965  0.498381  1
  Ru  Ru20  1  0.000000  0.909474  0.739162  1
  Ru  Ru21  1  0.000000  0.090055  0.259821  1
