# generated using pymatgen
data_Ho6Al24Ru3Rh5
_symmetry_space_group_name_H-M   'P 1'
_cell_length_a   8.82933431
_cell_length_b   8.82933521
_cell_length_c   9.50341006
_cell_angle_alpha   89.86377902
_cell_angle_beta   90.13622184
_cell_angle_gamma   120.19020376
_symmetry_Int_Tables_number   1
_chemical_formula_structural   Ho6Al24Ru3Rh5
_chemical_formula_sum   'Ho6 Al24 Ru3 Rh5'
_cell_volume   640.36687959
_cell_formula_units_Z   1
loop_
 _symmetry_equiv_pos_site_id
 _symmetry_equiv_pos_as_xyz
  1  'x, y, z'
loop_
 _atom_site_type_symbol
 _atom_site_label
 _atom_site_symmetry_multiplicity
 _atom_site_fract_x
 _atom_site_fract_y
 _atom_site_fract_z
 _atom_site_occupancy
  Ho  Ho0  1  0.194463  0.385787  0.251050  1
  Ho  Ho1  1  0.805537  0.614213  0.748950  1
  Ho  Ho2  1  0.614213  0.805537  0.251050  1
  Ho  Ho3  1  0.385787  0.194463  0.748950  1
  Ho  Ho4  1  0.192772  0.807228  0.250157  1
  Ho  Ho5  1  0.807228  0.192772  0.749843  1
  Al  Al6  1  0.333431  0.666569  0.029440  1
  Al  Al7  1  0.666569  0.333431  0.970560  1
  Al  Al8  1  0.665541  0.334459  0.525700  1
  Al  Al9  1  0.334459  0.665541  0.474300  1
  Al  Al10  1  0.164611  0.326149  0.576747  1
  Al  Al11  1  0.835389  0.673851  0.423253  1
  Al  Al12  1  0.673851  0.835389  0.576747  1
  Al  Al13  1  0.837051  0.674125  0.075825  1
  Al  Al14  1  0.326149  0.164611  0.423253  1
  Al  Al15  1  0.162949  0.325875  0.924175  1
  Al  Al16  1  0.162104  0.837896  0.577419  1
  Al  Al17  1  0.325875  0.162949  0.075825  1
  Al  Al18  1  0.837896  0.162104  0.422581  1
  Al  Al19  1  0.674125  0.837051  0.924175  1
  Al  Al20  1  0.837654  0.162346  0.076844  1
  Al  Al21  1  0.162346  0.837654  0.923156  1
  Al  Al22  1  0.562184  0.123456  0.249166  1
  Al  Al23  1  0.437816  0.876544  0.750834  1
  Al  Al24  1  0.876544  0.437816  0.249166  1
  Al  Al25  1  0.123456  0.562184  0.750834  1
  Al  Al26  1  0.561932  0.438068  0.250336  1
  Al  Al27  1  0.438068  0.561932  0.749664  1
  Al  Al28  1  0.000656  0.999344  0.249873  1
  Al  Al29  1  0.999344  0.000656  0.750127  1
  Ru  Ru30  1  0.500000  0.500000  0.500000  1
  Ru  Ru31  1  0.000000  0.000000  0.000000  1
  Ru  Ru32  1  0.000000  0.000000  0.500000  1
  Rh  Rh33  1  0.500000  0.000000  0.000000  1
  Rh  Rh34  1  0.000000  0.500000  0.000000  1
  Rh  Rh35  1  0.500000  0.000000  0.500000  1
  Rh  Rh36  1  0.500000  0.500000  0.000000  1
  Rh  Rh37  1  0.000000  0.500000  0.500000  1
