# generated using pymatgen
data_DyEr7(LuRu2)2
_symmetry_space_group_name_H-M   'P 1'
_cell_length_a   6.27178918
_cell_length_b   7.22026923
_cell_length_c   8.37888235
_cell_angle_alpha   96.84564542
_cell_angle_beta   112.05749526
_cell_angle_gamma   89.92266747
_symmetry_Int_Tables_number   1
_chemical_formula_structural   DyEr7(LuRu2)2
_chemical_formula_sum   'Dy1 Er7 Lu2 Ru4'
_cell_volume   348.76218714
_cell_formula_units_Z   1
loop_
 _symmetry_equiv_pos_site_id
 _symmetry_equiv_pos_as_xyz
  1  'x, y, z'
loop_
 _atom_site_type_symbol
 _atom_site_label
 _atom_site_symmetry_multiplicity
 _atom_site_fract_x
 _atom_site_fract_y
 _atom_site_fract_z
 _atom_site_occupancy
  Dy  Dy0  1  0.523205  0.083670  0.814278  1
  Er  Er1  1  0.477363  0.916088  0.185839  1
  Er  Er2  1  0.708221  0.416509  0.186064  1
  Er  Er3  1  0.291472  0.583610  0.814423  1
  Er  Er4  1  0.295922  0.314017  0.433144  1
  Er  Er5  1  0.703894  0.686147  0.566444  1
  Er  Er6  1  0.862755  0.186367  0.565990  1
  Er  Er7  1  0.137183  0.813252  0.433231  1
  Lu  Lu8  1  0.078537  0.250612  0.000479  1
  Lu  Lu9  1  0.921954  0.749382  0.999937  1
  Ru  Ru10  1  0.320904  0.575681  0.218684  1
  Ru  Ru11  1  0.679446  0.424915  0.781127  1
  Ru  Ru12  1  0.100968  0.924345  0.780990  1
  Ru  Ru13  1  0.898176  0.075406  0.219371  1
