# generated using pymatgen
data_Ba2SmThTe8
_symmetry_space_group_name_H-M   'P 1'
_cell_length_a   8.80412654
_cell_length_b   8.80412654
_cell_length_c   10.63900476
_cell_angle_alpha   53.86088166
_cell_angle_beta   53.86088237
_cell_angle_gamma   42.73956953
_symmetry_Int_Tables_number   1
_chemical_formula_structural   Ba2SmThTe8
_chemical_formula_sum   'Ba2 Sm1 Th1 Te8'
_cell_volume   433.13617645
_cell_formula_units_Z   1
loop_
 _symmetry_equiv_pos_site_id
 _symmetry_equiv_pos_as_xyz
  1  'x, y, z'
loop_
 _atom_site_type_symbol
 _atom_site_label
 _atom_site_symmetry_multiplicity
 _atom_site_fract_x
 _atom_site_fract_y
 _atom_site_fract_z
 _atom_site_occupancy
  Ba  Ba0  1  0.901050  0.901050  0.306548  1
  Ba  Ba1  1  0.099989  0.099989  0.693475  1
  Sm  Sm2  1  0.638133  0.638133  0.225811  1
  Th  Th3  1  0.361965  0.361965  0.773764  1
  Te  Te4  1  0.107811  0.606421  0.045044  1
  Te  Te5  1  0.392722  0.894184  0.952888  1
  Te  Te6  1  0.894184  0.392722  0.952888  1
  Te  Te7  1  0.606421  0.107811  0.045044  1
  Te  Te8  1  0.100832  0.100832  0.349439  1
  Te  Te9  1  0.899105  0.899105  0.651774  1
  Te  Te10  1  0.611040  0.611040  0.553526  1
  Te  Te11  1  0.386749  0.386749  0.449798  1
