# generated using pymatgen
data_ErLu3(Hf4Pb5)2
_symmetry_space_group_name_H-M   'P 1'
_cell_length_a   6.02213788
_cell_length_b   9.13315330
_cell_length_c   11.29847591
_cell_angle_alpha   113.86949736
_cell_angle_beta   105.45623555
_cell_angle_gamma   90.00000194
_symmetry_Int_Tables_number   1
_chemical_formula_structural   ErLu3(Hf4Pb5)2
_chemical_formula_sum   'Er1 Lu3 Hf8 Pb10'
_cell_volume   543.61019544
_cell_formula_units_Z   1
loop_
 _symmetry_equiv_pos_site_id
 _symmetry_equiv_pos_as_xyz
  1  'x, y, z'
loop_
 _atom_site_type_symbol
 _atom_site_label
 _atom_site_symmetry_multiplicity
 _atom_site_fract_x
 _atom_site_fract_y
 _atom_site_fract_z
 _atom_site_occupancy
  Er  Er0  1  0.143895  0.253485  0.287791  1
  Lu  Lu1  1  0.856053  0.746533  0.712105  1
  Lu  Lu2  1  0.643976  0.034239  0.287951  1
  Lu  Lu3  1  0.356063  0.965560  0.712126  1
  Hf  Hf4  1  0.562157  0.312138  0.624354  1
  Hf  Hf5  1  0.437846  0.687766  0.375712  1
  Hf  Hf6  1  0.937865  0.687766  0.375712  1
  Hf  Hf7  1  0.062199  0.312138  0.624354  1
  Hf  Hf8  1  0.434039  0.671866  0.868077  1
  Hf  Hf9  1  0.565901  0.328276  0.131802  1
  Hf  Hf10  1  0.934143  0.196262  0.868285  1
  Hf  Hf11  1  0.065957  0.803740  0.131914  1
  Pb  Pb12  1  0.288871  0.591145  0.577742  1
  Pb  Pb13  1  0.711261  0.409279  0.422522  1
  Pb  Pb14  1  0.788737  0.986652  0.577475  1
  Pb  Pb15  1  0.211349  0.012931  0.422697  1
  Pb  Pb16  1  0.250078  0.999832  0.999847  1
  Pb  Pb17  1  0.749769  0.999832  0.999847  1
  Pb  Pb18  1  0.067037  0.461513  0.134074  1
  Pb  Pb19  1  0.932815  0.539090  0.865630  1
  Pb  Pb20  1  0.567188  0.673466  0.134376  1
  Pb  Pb21  1  0.432803  0.326494  0.865606  1
