# generated using pymatgen
data_Eu2ZnGa6Cu
_symmetry_space_group_name_H-M   'P 1'
_cell_length_a   6.17239012
_cell_length_b   6.17238933
_cell_length_c   6.04186400
_cell_angle_alpha   90.00000000
_cell_angle_beta   90.00000000
_cell_angle_gamma   121.59238374
_symmetry_Int_Tables_number   1
_chemical_formula_structural   Eu2ZnGa6Cu
_chemical_formula_sum   'Eu2 Zn1 Ga6 Cu1'
_cell_volume   196.07106865
_cell_formula_units_Z   1
loop_
 _symmetry_equiv_pos_site_id
 _symmetry_equiv_pos_as_xyz
  1  'x, y, z'
loop_
 _atom_site_type_symbol
 _atom_site_label
 _atom_site_symmetry_multiplicity
 _atom_site_fract_x
 _atom_site_fract_y
 _atom_site_fract_z
 _atom_site_occupancy
  Eu  Eu0  1  0.249895  0.750105  0.750000  1
  Eu  Eu1  1  0.745812  0.254188  0.250000  1
  Zn  Zn2  1  0.133865  0.866135  0.250000  1
  Ga  Ga3  1  0.647680  0.352320  0.750000  1
  Ga  Ga4  1  0.362353  0.637647  0.250000  1
  Ga  Ga5  1  0.753348  0.758137  0.992982  1
  Ga  Ga6  1  0.753348  0.758137  0.507018  1
  Ga  Ga7  1  0.241863  0.246652  0.992982  1
  Ga  Ga8  1  0.241863  0.246652  0.507018  1
  Cu  Cu9  1  0.869972  0.130028  0.750000  1
