# generated using pymatgen
data_Nb6SnAu3N2
_symmetry_space_group_name_H-M   'P 1'
_cell_length_a   7.22095439
_cell_length_b   7.22715400
_cell_length_c   7.22332219
_cell_angle_alpha   90.00000000
_cell_angle_beta   89.89939290
_cell_angle_gamma   90.00000000
_symmetry_Int_Tables_number   1
_chemical_formula_structural   Nb6SnAu3N2
_chemical_formula_sum   'Nb12 Sn2 Au6 N4'
_cell_volume   376.96256853
_cell_formula_units_Z   2
loop_
 _symmetry_equiv_pos_site_id
 _symmetry_equiv_pos_as_xyz
  1  'x, y, z'
loop_
 _atom_site_type_symbol
 _atom_site_label
 _atom_site_symmetry_multiplicity
 _atom_site_fract_x
 _atom_site_fract_y
 _atom_site_fract_z
 _atom_site_occupancy
  Nb  Nb0  1  0.783753  0.958054  0.376574  1
  Nb  Nb1  1  0.704247  0.041493  0.873144  1
  Nb  Nb2  1  0.216247  0.458054  0.123426  1
  Nb  Nb3  1  0.295753  0.541493  0.626856  1
  Nb  Nb4  1  0.955250  0.378625  0.788805  1
  Nb  Nb5  1  0.044750  0.878625  0.711195  1
  Nb  Nb6  1  0.461918  0.128151  0.209570  1
  Nb  Nb7  1  0.538082  0.628151  0.290430  1
  Nb  Nb8  1  0.377327  0.786861  0.955647  1
  Nb  Nb9  1  0.871228  0.708384  0.037108  1
  Nb  Nb10  1  0.128772  0.208384  0.462892  1
  Nb  Nb11  1  0.622673  0.286861  0.544353  1
  Sn  Sn12  1  0.931945  0.568100  0.428343  1
  Sn  Sn13  1  0.068055  0.068100  0.071657  1
  Au  Au14  1  0.182313  0.815331  0.315626  1
  Au  Au15  1  0.313048  0.184632  0.818456  1
  Au  Au16  1  0.817687  0.315331  0.184374  1
  Au  Au17  1  0.686952  0.684632  0.681544  1
  Au  Au18  1  0.568000  0.433902  0.933574  1
  Au  Au19  1  0.432000  0.933902  0.566426  1
  N  N20  1  0.872865  0.122104  0.625725  1
  N  N21  1  0.619923  0.874366  0.122670  1
  N  N22  1  0.127135  0.622104  0.874275  1
  N  N23  1  0.380077  0.374366  0.377330  1
