# generated using pymatgen
data_Li3HfScNi9As7
_symmetry_space_group_name_H-M   'P 1'
_cell_length_a   9.46780630
_cell_length_b   9.48226862
_cell_length_c   3.81022400
_cell_angle_alpha   90.00000000
_cell_angle_beta   90.00000000
_cell_angle_gamma   119.75780459
_symmetry_Int_Tables_number   1
_chemical_formula_structural   Li3HfScNi9As7
_chemical_formula_sum   'Li3 Hf1 Sc1 Ni9 As7'
_cell_volume   296.95968793
_cell_formula_units_Z   1
loop_
 _symmetry_equiv_pos_site_id
 _symmetry_equiv_pos_as_xyz
  1  'x, y, z'
loop_
 _atom_site_type_symbol
 _atom_site_label
 _atom_site_symmetry_multiplicity
 _atom_site_fract_x
 _atom_site_fract_y
 _atom_site_fract_z
 _atom_site_occupancy
  Li  Li0  1  0.443118  0.215601  0.500000  1
  Li  Li1  1  0.778385  0.222176  0.500000  1
  Li  Li2  1  0.003106  0.006388  0.500000  1
  Hf  Hf3  1  0.767595  0.554232  0.500000  1
  Sc  Sc4  1  0.324053  0.666600  0.000000  1
  Ni  Ni5  1  0.273436  0.376278  0.500000  1
  Ni  Ni6  1  0.626286  0.899520  0.500000  1
  Ni  Ni7  1  0.108885  0.720868  0.500000  1
  Ni  Ni8  1  0.498049  0.456608  0.000000  1
  Ni  Ni9  1  0.546462  0.037436  0.000000  1
  Ni  Ni10  1  0.956356  0.501133  0.000000  1
  Ni  Ni11  1  0.722421  0.761067  0.000000  1
  Ni  Ni12  1  0.247191  0.966697  0.000000  1
  Ni  Ni13  1  0.042395  0.281151  0.000000  1
  As  As14  1  0.977855  0.767292  0.000000  1
  As  As15  1  0.243744  0.211218  0.000000  1
  As  As16  1  0.794143  0.034298  0.000000  1
  As  As17  1  0.662685  0.324668  0.000000  1
  As  As18  1  0.525253  0.622209  0.500000  1
  As  As19  1  0.382029  0.918804  0.500000  1
  As  As20  1  0.076556  0.455758  0.500000  1
