# generated using pymatgen
data_Tb6P5Cl
_symmetry_space_group_name_H-M   'P 1'
_cell_length_a   4.01202393
_cell_length_b   9.87231018
_cell_length_c   8.02273200
_cell_angle_alpha   90.05309792
_cell_angle_beta   60.00263787
_cell_angle_gamma   89.97688727
_symmetry_Int_Tables_number   1
_chemical_formula_structural   Tb6P5Cl
_chemical_formula_sum   'Tb6 P5 Cl1'
_cell_volume   275.19869067
_cell_formula_units_Z   1
loop_
 _symmetry_equiv_pos_site_id
 _symmetry_equiv_pos_as_xyz
  1  'x, y, z'
loop_
 _atom_site_type_symbol
 _atom_site_label
 _atom_site_symmetry_multiplicity
 _atom_site_fract_x
 _atom_site_fract_y
 _atom_site_fract_z
 _atom_site_occupancy
  Tb  Tb0  1  0.950666  0.891185  0.643144  1
  Tb  Tb1  1  0.259900  0.238699  0.335039  1
  Tb  Tb2  1  0.605538  0.564991  0.989019  1
  Tb  Tb3  1  0.287809  0.247498  0.807512  1
  Tb  Tb4  1  0.605448  0.564974  0.489010  1
  Tb  Tb5  1  0.922883  0.882506  0.170650  1
  P  P6  1  0.272360  0.728705  0.321378  1
  P  P7  1  0.938115  0.401307  0.656786  1
  P  P8  1  0.605135  0.064950  0.489210  1
  P  P9  1  0.941639  0.393553  0.153252  1
  P  P10  1  0.269104  0.736391  0.824904  1
  Cl  Cl11  1  0.604914  0.064974  0.989193  1
