# generated using pymatgen
data_Y8AlCdPt23
_symmetry_space_group_name_H-M   'P 1'
_cell_length_a   8.35529200
_cell_length_b   8.35529200
_cell_length_c   8.40543100
_cell_angle_alpha   90.00000000
_cell_angle_beta   90.00000000
_cell_angle_gamma   90.00000000
_symmetry_Int_Tables_number   1
_chemical_formula_structural   Y8AlCdPt23
_chemical_formula_sum   'Y8 Al1 Cd1 Pt23'
_cell_volume   586.79074003
_cell_formula_units_Z   1
loop_
 _symmetry_equiv_pos_site_id
 _symmetry_equiv_pos_as_xyz
  1  'x, y, z'
loop_
 _atom_site_type_symbol
 _atom_site_label
 _atom_site_symmetry_multiplicity
 _atom_site_fract_x
 _atom_site_fract_y
 _atom_site_fract_z
 _atom_site_occupancy
  Y  Y0  1  0.251275  0.251275  0.251605  1
  Y  Y1  1  0.756263  0.756263  0.749203  1
  Y  Y2  1  0.748725  0.748725  0.251605  1
  Y  Y3  1  0.756263  0.243737  0.749203  1
  Y  Y4  1  0.243737  0.243737  0.749203  1
  Y  Y5  1  0.251275  0.748725  0.251605  1
  Y  Y6  1  0.243737  0.756263  0.749203  1
  Y  Y7  1  0.748725  0.251275  0.251605  1
  Al  Al8  1  0.000000  0.000000  0.001539  1
  Cd  Cd9  1  0.500000  0.500000  0.742632  1
  Pt  Pt10  1  0.261044  0.500000  0.998154  1
  Pt  Pt11  1  0.738956  0.500000  0.998154  1
  Pt  Pt12  1  0.000000  0.261293  0.498773  1
  Pt  Pt13  1  0.500000  0.261044  0.998154  1
  Pt  Pt14  1  0.000000  0.738707  0.498773  1
  Pt  Pt15  1  0.500000  0.738956  0.998154  1
  Pt  Pt16  1  0.500000  0.000000  0.261962  1
  Pt  Pt17  1  0.261293  0.000000  0.498773  1
  Pt  Pt18  1  0.500000  0.000000  0.738142  1
  Pt  Pt19  1  0.738707  0.000000  0.498773  1
  Pt  Pt20  1  0.000000  0.500000  0.261962  1
  Pt  Pt21  1  0.000000  0.500000  0.738142  1
  Pt  Pt22  1  0.252034  0.500000  0.501687  1
  Pt  Pt23  1  0.747966  0.500000  0.501687  1
  Pt  Pt24  1  0.500000  0.252034  0.501687  1
  Pt  Pt25  1  0.500000  0.747966  0.501687  1
  Pt  Pt26  1  0.500000  0.500000  0.254584  1
  Pt  Pt27  1  0.294609  0.000000  0.000763  1
  Pt  Pt28  1  0.705391  0.000000  0.000763  1
  Pt  Pt29  1  0.000000  0.294609  0.000763  1
  Pt  Pt30  1  0.000000  0.705391  0.000763  1
  Pt  Pt31  1  0.000000  0.000000  0.292318  1
  Pt  Pt32  1  0.000000  0.000000  0.707970  1
