# generated using pymatgen
data_La5AlCdRu3
_symmetry_space_group_name_H-M   'P 1'
_cell_length_a   8.76601669
_cell_length_b   8.76601705
_cell_length_c   8.65015689
_cell_angle_alpha   109.62280517
_cell_angle_beta   109.42842225
_cell_angle_gamma   109.89999654
_symmetry_Int_Tables_number   1
_chemical_formula_structural   La5AlCdRu3
_chemical_formula_sum   'La10 Al2 Cd2 Ru6'
_cell_volume   508.26021046
_cell_formula_units_Z   2
loop_
 _symmetry_equiv_pos_site_id
 _symmetry_equiv_pos_as_xyz
  1  'x, y, z'
loop_
 _atom_site_type_symbol
 _atom_site_label
 _atom_site_symmetry_multiplicity
 _atom_site_fract_x
 _atom_site_fract_y
 _atom_site_fract_z
 _atom_site_occupancy
  La  La0  1  0.244307  0.684589  0.436463  1
  La  La1  1  0.748127  0.807845  0.063538  1
  La  La2  1  0.435365  0.248000  0.688724  1
  La  La3  1  0.693745  0.443746  0.250000  1
  La  La4  1  0.059276  0.746640  0.811276  1
  La  La5  1  0.815632  0.065632  0.750000  1
  La  La6  1  0.208032  0.209153  0.206412  1
  La  La7  1  0.502742  0.001621  0.293588  1
  La  La8  1  0.287023  0.500903  0.998988  1
  La  La9  1  0.001914  0.288035  0.501013  1
  Al  Al10  1  0.914941  0.500970  0.001791  1
  Al  Al11  1  0.999177  0.913150  0.498210  1
  Cd  Cd12  1  0.500717  0.001404  0.914309  1
  Cd  Cd13  1  0.587095  0.586407  0.585691  1
  Ru  Ru14  1  0.233540  0.123561  0.864477  1
  Ru  Ru15  1  0.759084  0.369061  0.635522  1
  Ru  Ru16  1  0.896161  0.269302  0.129174  1
  Ru  Ru17  1  0.115682  0.865682  0.250001  1
  Ru  Ru18  1  0.640126  0.766986  0.370825  1
  Ru  Ru19  1  0.357317  0.607317  0.750000  1
