# generated using pymatgen
data_Ba8Cd(Si4Au)3
_symmetry_space_group_name_H-M   'P 1'
_cell_length_a   12.54077878
_cell_length_b   10.96095508
_cell_length_c   8.58667067
_cell_angle_alpha   78.78746434
_cell_angle_beta   59.12092214
_cell_angle_gamma   42.19306240
_symmetry_Int_Tables_number   1
_chemical_formula_structural   Ba8Cd(Si4Au)3
_chemical_formula_sum   'Ba8 Cd1 Si12 Au3'
_cell_volume   644.05662264
_cell_formula_units_Z   1
loop_
 _symmetry_equiv_pos_site_id
 _symmetry_equiv_pos_as_xyz
  1  'x, y, z'
loop_
 _atom_site_type_symbol
 _atom_site_label
 _atom_site_symmetry_multiplicity
 _atom_site_fract_x
 _atom_site_fract_y
 _atom_site_fract_z
 _atom_site_occupancy
  Ba  Ba0  1  0.130265  0.125718  0.367798  1
  Ba  Ba1  1  0.874948  0.871251  0.129250  1
  Ba  Ba2  1  0.129250  0.124551  0.874948  1
  Ba  Ba3  1  0.367798  0.376220  0.130265  1
  Ba  Ba4  1  0.624853  0.624991  0.374630  1
  Ba  Ba5  1  0.374630  0.375526  0.624853  1
  Ba  Ba6  1  0.624820  0.631809  0.873774  1
  Ba  Ba7  1  0.873774  0.869596  0.624820  1
  Cd  Cd8  1  0.833066  0.166934  0.833066  1
  Si  Si9  1  0.334683  0.660666  0.828807  1
  Si  Si10  1  0.187762  0.816477  0.655000  1
  Si  Si11  1  0.828807  0.175843  0.334683  1
  Si  Si12  1  0.655000  0.340761  0.187762  1
  Si  Si13  1  0.912798  0.590601  0.425852  1
  Si  Si14  1  0.069340  0.423109  0.592710  1
  Si  Si15  1  0.425852  0.070749  0.912798  1
  Si  Si16  1  0.911768  0.588232  0.911768  1
  Si  Si17  1  0.657489  0.342511  0.657489  1
  Si  Si18  1  0.336318  0.663682  0.336318  1
  Si  Si19  1  0.587895  0.912105  0.587895  1
  Si  Si20  1  0.592710  0.914842  0.069340  1
  Au  Au21  1  0.083193  0.416807  0.083193  1
  Au  Au22  1  0.166394  0.833606  0.166394  1
  Au  Au23  1  0.416586  0.083414  0.416586  1
