# generated using pymatgen
data_La3DyYSi6P6Ir19
_symmetry_space_group_name_H-M   'P 1'
_cell_length_a   12.79972100
_cell_length_b   12.79972114
_cell_length_c   3.95150100
_cell_angle_alpha   90.00000000
_cell_angle_beta   90.00000000
_cell_angle_gamma   119.99999705
_symmetry_Int_Tables_number   1
_chemical_formula_structural   La3DyYSi6P6Ir19
_chemical_formula_sum   'La3 Dy1 Y1 Si6 P6 Ir19'
_cell_volume   560.65248596
_cell_formula_units_Z   1
loop_
 _symmetry_equiv_pos_site_id
 _symmetry_equiv_pos_as_xyz
  1  'x, y, z'
loop_
 _atom_site_type_symbol
 _atom_site_label
 _atom_site_symmetry_multiplicity
 _atom_site_fract_x
 _atom_site_fract_y
 _atom_site_fract_z
 _atom_site_occupancy
  La  La0  1  0.333386  0.666454  0.500000  1
  La  La1  1  0.000778  0.816974  0.000000  1
  La  La2  1  0.182429  0.184410  0.000000  1
  Dy  Dy3  1  0.667082  0.333509  0.500000  1
  Y  Y4  1  0.813765  0.998632  0.000000  1
  Si  Si5  1  0.000432  0.633223  0.500000  1
  Si  Si6  1  0.366809  0.367518  0.500000  1
  Si  Si7  1  0.635348  0.999428  0.500000  1
  Si  Si8  1  0.521240  0.682290  0.000000  1
  Si  Si9  1  0.318742  0.839051  0.000000  1
  Si  Si10  1  0.159818  0.477600  0.000000  1
  P  P11  1  0.485891  0.180162  0.000000  1
  P  P12  1  0.695054  0.515486  0.000000  1
  P  P13  1  0.820205  0.305214  0.000000  1
  P  P14  1  0.992524  0.176512  0.500000  1
  P  P15  1  0.820639  0.819085  0.500000  1
  P  P16  1  0.183354  0.004335  0.500000  1
  Ir  Ir17  1  0.518874  0.872305  0.000000  1
  Ir  Ir18  1  0.128373  0.645257  0.000000  1
  Ir  Ir19  1  0.354343  0.482691  0.000000  1
  Ir  Ir20  1  0.496361  0.369837  0.000000  1
  Ir  Ir21  1  0.873443  0.504233  0.000000  1
  Ir  Ir22  1  0.631159  0.126160  0.000000  1
  Ir  Ir23  1  0.013545  0.456197  0.500000  1
  Ir  Ir24  1  0.544187  0.558162  0.500000  1
  Ir  Ir25  1  0.444210  0.986702  0.500000  1
  Ir  Ir26  1  0.990920  0.277744  0.000000  1
  Ir  Ir27  1  0.720135  0.714245  0.000000  1
  Ir  Ir28  1  0.288381  0.007128  0.000000  1
  Ir  Ir29  1  0.633252  0.809334  0.500000  1
  Ir  Ir30  1  0.193833  0.823794  0.500000  1
  Ir  Ir31  1  0.175519  0.369384  0.500000  1
  Ir  Ir32  1  0.385732  0.183680  0.500000  1
  Ir  Ir33  1  0.797233  0.614703  0.500000  1
  Ir  Ir34  1  0.815442  0.198590  0.500000  1
  Ir  Ir35  1  0.997563  0.999972  0.500000  1
