# generated using pymatgen
data_Pr2InNiAg
_symmetry_space_group_name_H-M   'P 1'
_cell_length_a   8.07066865
_cell_length_b   8.07066865
_cell_length_c   3.78374700
_cell_angle_alpha   90.00000000
_cell_angle_beta   90.00000000
_cell_angle_gamma   88.00044859
_symmetry_Int_Tables_number   1
_chemical_formula_structural   Pr2InNiAg
_chemical_formula_sum   'Pr4 In2 Ni2 Ag2'
_cell_volume   246.30691337
_cell_formula_units_Z   2
loop_
 _symmetry_equiv_pos_site_id
 _symmetry_equiv_pos_as_xyz
  1  'x, y, z'
loop_
 _atom_site_type_symbol
 _atom_site_label
 _atom_site_symmetry_multiplicity
 _atom_site_fract_x
 _atom_site_fract_y
 _atom_site_fract_z
 _atom_site_occupancy
  Pr  Pr0  1  0.661240  0.161240  0.500000  1
  Pr  Pr1  1  0.338760  0.838760  0.500000  1
  Pr  Pr2  1  0.196820  0.303180  0.500000  1
  Pr  Pr3  1  0.803180  0.696820  0.500000  1
  In  In4  1  0.500000  0.500000  0.000000  1
  In  In5  1  0.000000  0.000000  0.000000  1
  Ni  Ni6  1  0.615715  0.884285  0.000000  1
  Ni  Ni7  1  0.384285  0.115715  0.000000  1
  Ag  Ag8  1  0.123134  0.623134  0.000000  1
  Ag  Ag9  1  0.876866  0.376866  0.000000  1
