# generated using pymatgen
data_Lu4ThSn3C
_symmetry_space_group_name_H-M   'P 1'
_cell_length_a   8.89566153
_cell_length_b   8.89565987
_cell_length_c   6.44597900
_cell_angle_alpha   90.00000000
_cell_angle_beta   90.00000000
_cell_angle_gamma   120.11563307
_symmetry_Int_Tables_number   1
_chemical_formula_structural   Lu4ThSn3C
_chemical_formula_sum   'Lu8 Th2 Sn6 C2'
_cell_volume   441.23374483
_cell_formula_units_Z   2
loop_
 _symmetry_equiv_pos_site_id
 _symmetry_equiv_pos_as_xyz
  1  'x, y, z'
loop_
 _atom_site_type_symbol
 _atom_site_label
 _atom_site_symmetry_multiplicity
 _atom_site_fract_x
 _atom_site_fract_y
 _atom_site_fract_z
 _atom_site_occupancy
  Lu  Lu0  1  0.334127  0.665873  0.500000  1
  Lu  Lu1  1  0.665873  0.334127  0.500000  1
  Lu  Lu2  1  0.665873  0.334127  0.000000  1
  Lu  Lu3  1  0.334127  0.665873  0.000000  1
  Lu  Lu4  1  0.211677  0.998417  0.750000  1
  Lu  Lu5  1  0.788323  0.001583  0.250000  1
  Lu  Lu6  1  0.998417  0.211677  0.750000  1
  Lu  Lu7  1  0.001583  0.788323  0.250000  1
  Th  Th8  1  0.777876  0.777876  0.750000  1
  Th  Th9  1  0.222124  0.222124  0.250000  1
  Sn  Sn10  1  0.590034  0.004443  0.750000  1
  Sn  Sn11  1  0.409966  0.995557  0.250000  1
  Sn  Sn12  1  0.004443  0.590034  0.750000  1
  Sn  Sn13  1  0.995557  0.409966  0.250000  1
  Sn  Sn14  1  0.398313  0.398313  0.750000  1
  Sn  Sn15  1  0.601687  0.601687  0.250000  1
  C  C16  1  0.000000  0.000000  0.500000  1
  C  C17  1  0.000000  0.000000  0.000000  1
