# generated using pymatgen
data_YTm3Sb10
_symmetry_space_group_name_H-M   'P 1'
_cell_length_a   4.20487300
_cell_length_b   13.16092998
_cell_length_c   14.56049143
_cell_angle_alpha   78.44000968
_cell_angle_beta   90.00000000
_cell_angle_gamma   90.00000000
_symmetry_Int_Tables_number   1
_chemical_formula_structural   YTm3Sb10
_chemical_formula_sum   'Y2 Tm6 Sb20'
_cell_volume   789.43329670
_cell_formula_units_Z   2
loop_
 _symmetry_equiv_pos_site_id
 _symmetry_equiv_pos_as_xyz
  1  'x, y, z'
loop_
 _atom_site_type_symbol
 _atom_site_label
 _atom_site_symmetry_multiplicity
 _atom_site_fract_x
 _atom_site_fract_y
 _atom_site_fract_z
 _atom_site_occupancy
  Y  Y0  1  0.250000  0.953778  0.358923  1
  Y  Y1  1  0.750000  0.046222  0.641077  1
  Tm  Tm2  1  0.250000  0.395397  0.770655  1
  Tm  Tm3  1  0.750000  0.604603  0.229345  1
  Tm  Tm4  1  0.250000  0.661432  0.856172  1
  Tm  Tm5  1  0.750000  0.338568  0.143828  1
  Tm  Tm6  1  0.250000  0.668259  0.576309  1
  Tm  Tm7  1  0.750000  0.331741  0.423691  1
  Sb  Sb8  1  0.250000  0.144937  0.778664  1
  Sb  Sb9  1  0.750000  0.855063  0.221336  1
  Sb  Sb10  1  0.250000  0.145734  0.482322  1
  Sb  Sb11  1  0.750000  0.854266  0.517678  1
  Sb  Sb12  1  0.250000  0.153948  0.170116  1
  Sb  Sb13  1  0.750000  0.846052  0.829884  1
  Sb  Sb14  1  0.250000  0.420776  0.975438  1
  Sb  Sb15  1  0.750000  0.579224  0.024562  1
  Sb  Sb16  1  0.750000  0.028783  0.910409  1
  Sb  Sb17  1  0.250000  0.971217  0.089591  1
  Sb  Sb18  1  0.750000  0.141091  0.321948  1
  Sb  Sb19  1  0.250000  0.858909  0.678052  1
  Sb  Sb20  1  0.750000  0.279330  0.936713  1
  Sb  Sb21  1  0.250000  0.720670  0.063287  1
  Sb  Sb22  1  0.750000  0.285910  0.653011  1
  Sb  Sb23  1  0.250000  0.714090  0.346989  1
  Sb  Sb24  1  0.750000  0.576369  0.734405  1
  Sb  Sb25  1  0.250000  0.423631  0.265595  1
  Sb  Sb26  1  0.750000  0.571674  0.447134  1
  Sb  Sb27  1  0.250000  0.428326  0.552866  1
