# generated using pymatgen
data_Dy3Y13MgCo4Ag3
_symmetry_space_group_name_H-M   'P 1'
_cell_length_a   9.46259770
_cell_length_b   9.49251227
_cell_length_c   9.48996431
_cell_angle_alpha   60.32400384
_cell_angle_beta   60.22819396
_cell_angle_gamma   60.24098272
_symmetry_Int_Tables_number   1
_chemical_formula_structural   Dy3Y13MgCo4Ag3
_chemical_formula_sum   'Dy3 Y13 Mg1 Co4 Ag3'
_cell_volume   606.36155176
_cell_formula_units_Z   1
loop_
 _symmetry_equiv_pos_site_id
 _symmetry_equiv_pos_as_xyz
  1  'x, y, z'
loop_
 _atom_site_type_symbol
 _atom_site_label
 _atom_site_symmetry_multiplicity
 _atom_site_fract_x
 _atom_site_fract_y
 _atom_site_fract_z
 _atom_site_occupancy
  Dy  Dy0  1  0.346451  0.344903  0.964048  1
  Dy  Dy1  1  0.346220  0.964321  0.345088  1
  Dy  Dy2  1  0.949919  0.350433  0.350781  1
  Y  Y3  1  0.808952  0.189064  0.189015  1
  Y  Y4  1  0.185144  0.813304  0.813052  1
  Y  Y5  1  0.185598  0.813395  0.186487  1
  Y  Y6  1  0.808623  0.188787  0.811433  1
  Y  Y7  1  0.185592  0.186502  0.813260  1
  Y  Y8  1  0.808424  0.811574  0.188775  1
  Y  Y9  1  0.935556  0.562355  0.562352  1
  Y  Y10  1  0.563289  0.937660  0.937697  1
  Y  Y11  1  0.561937  0.937288  0.563220  1
  Y  Y12  1  0.936659  0.562646  0.938642  1
  Y  Y13  1  0.561857  0.563199  0.937320  1
  Y  Y14  1  0.936669  0.938570  0.562674  1
  Y  Y15  1  0.346275  0.345288  0.345575  1
  Mg  Mg16  1  0.291307  0.569582  0.569492  1
  Co  Co17  1  0.139230  0.143007  0.142986  1
  Co  Co18  1  0.139469  0.143354  0.574844  1
  Co  Co19  1  0.139463  0.574874  0.143323  1
  Co  Co20  1  0.574959  0.141695  0.141731  1
  Ag  Ag21  1  0.582812  0.582980  0.582969  1
  Ag  Ag22  1  0.582788  0.583131  0.252119  1
  Ag  Ag23  1  0.582805  0.252088  0.583115  1
