# generated using pymatgen
data_Tm6ZnNiRh
_symmetry_space_group_name_H-M   'P 1'
_cell_length_a   8.22664653
_cell_length_b   8.22664781
_cell_length_c   8.22664596
_cell_angle_alpha   105.76207805
_cell_angle_beta   110.41870405
_cell_angle_gamma   112.30139349
_symmetry_Int_Tables_number   1
_chemical_formula_structural   Tm6ZnNiRh
_chemical_formula_sum   'Tm12 Zn2 Ni2 Rh2'
_cell_volume   427.13498350
_cell_formula_units_Z   2
loop_
 _symmetry_equiv_pos_site_id
 _symmetry_equiv_pos_as_xyz
  1  'x, y, z'
loop_
 _atom_site_type_symbol
 _atom_site_label
 _atom_site_symmetry_multiplicity
 _atom_site_fract_x
 _atom_site_fract_y
 _atom_site_fract_z
 _atom_site_occupancy
  Tm  Tm0  1  0.691346  0.256878  0.948223  1
  Tm  Tm1  1  0.308654  0.743122  0.051777  1
  Tm  Tm2  1  0.691346  0.743122  0.434468  1
  Tm  Tm3  1  0.308654  0.256878  0.565532  1
  Tm  Tm4  1  0.807894  0.131732  0.323838  1
  Tm  Tm5  1  0.807894  0.484056  0.676162  1
  Tm  Tm6  1  0.192106  0.868268  0.676162  1
  Tm  Tm7  1  0.192106  0.515944  0.323838  1
  Tm  Tm8  1  0.599834  0.779540  0.820296  1
  Tm  Tm9  1  0.959244  0.779540  0.179704  1
  Tm  Tm10  1  0.040756  0.220460  0.820296  1
  Tm  Tm11  1  0.400166  0.220460  0.179704  1
  Zn  Zn12  1  0.500000  0.500000  0.000000  1
  Zn  Zn13  1  0.500000  0.000000  0.500000  1
  Ni  Ni14  1  0.000000  0.118744  0.118744  1
  Ni  Ni15  1  0.000000  0.881256  0.881256  1
  Rh  Rh16  1  0.834705  0.500000  0.334705  1
  Rh  Rh17  1  0.165295  0.500000  0.665295  1
