# generated using pymatgen
data_Dy4ScSn3Se
_symmetry_space_group_name_H-M   'P 1'
_cell_length_a   9.04064800
_cell_length_b   9.04064728
_cell_length_c   6.62577400
_cell_angle_alpha   90.00000000
_cell_angle_beta   90.00000000
_cell_angle_gamma   120.00000264
_symmetry_Int_Tables_number   1
_chemical_formula_structural   Dy4ScSn3Se
_chemical_formula_sum   'Dy8 Sc2 Sn6 Se2'
_cell_volume   468.99296058
_cell_formula_units_Z   2
loop_
 _symmetry_equiv_pos_site_id
 _symmetry_equiv_pos_as_xyz
  1  'x, y, z'
loop_
 _atom_site_type_symbol
 _atom_site_label
 _atom_site_symmetry_multiplicity
 _atom_site_fract_x
 _atom_site_fract_y
 _atom_site_fract_z
 _atom_site_occupancy
  Dy  Dy0  1  0.666667  0.333333  0.000000  1
  Dy  Dy1  1  0.333333  0.666667  0.000000  1
  Dy  Dy2  1  0.745939  0.745939  0.747714  1
  Dy  Dy3  1  0.254061  0.000000  0.747714  1
  Dy  Dy4  1  0.000000  0.254061  0.747714  1
  Dy  Dy5  1  0.254061  0.254061  0.252286  1
  Dy  Dy6  1  0.745939  0.000000  0.252286  1
  Dy  Dy7  1  0.000000  0.745939  0.252286  1
  Sc  Sc8  1  0.333333  0.666667  0.500000  1
  Sc  Sc9  1  0.666667  0.333333  0.500000  1
  Sn  Sn10  1  0.398349  0.398349  0.741604  1
  Sn  Sn11  1  0.601651  0.000000  0.741604  1
  Sn  Sn12  1  0.000000  0.601651  0.741604  1
  Sn  Sn13  1  0.601651  0.601651  0.258396  1
  Sn  Sn14  1  0.398349  0.000000  0.258396  1
  Sn  Sn15  1  0.000000  0.398349  0.258396  1
  Se  Se16  1  0.000000  0.000000  0.000000  1
  Se  Se17  1  0.000000  0.000000  0.500000  1
