# generated using pymatgen
data_Yb2Th(InAu)3
_symmetry_space_group_name_H-M   'P 1'
_cell_length_a   7.76947591
_cell_length_b   7.80067276
_cell_length_c   4.15130200
_cell_angle_alpha   90.00000000
_cell_angle_beta   90.00000000
_cell_angle_gamma   120.13291436
_symmetry_Int_Tables_number   1
_chemical_formula_structural   Yb2Th(InAu)3
_chemical_formula_sum   'Yb2 Th1 In3 Au3'
_cell_volume   217.59831091
_cell_formula_units_Z   1
loop_
 _symmetry_equiv_pos_site_id
 _symmetry_equiv_pos_as_xyz
  1  'x, y, z'
loop_
 _atom_site_type_symbol
 _atom_site_label
 _atom_site_symmetry_multiplicity
 _atom_site_fract_x
 _atom_site_fract_y
 _atom_site_fract_z
 _atom_site_occupancy
  Yb  Yb0  1  0.593364  0.999993  0.500000  1
  Yb  Yb1  1  0.406636  0.406628  0.500000  1
  Th  Th2  1  0.000000  0.589879  0.500000  1
  In  In3  1  0.000000  0.250285  0.000000  1
  In  In4  1  0.262453  0.007335  0.000000  1
  In  In5  1  0.737547  0.744881  0.000000  1
  Au  Au6  1  0.000000  0.997469  0.500000  1
  Au  Au7  1  0.667000  0.335265  0.000000  1
  Au  Au8  1  0.333000  0.668266  0.000000  1
