# generated using pymatgen
data_LiMnPtO4
_symmetry_space_group_name_H-M   'P 1'
_cell_length_a   6.14674513
_cell_length_b   6.14672374
_cell_length_c   8.53971307
_cell_angle_alpha   87.83516359
_cell_angle_beta   87.83510567
_cell_angle_gamma   91.81366429
_symmetry_Int_Tables_number   1
_chemical_formula_structural   LiMnPtO4
_chemical_formula_sum   'Li4 Mn4 Pt4 O16'
_cell_volume   322.01317691
_cell_formula_units_Z   4
loop_
 _symmetry_equiv_pos_site_id
 _symmetry_equiv_pos_as_xyz
  1  'x, y, z'
loop_
 _atom_site_type_symbol
 _atom_site_label
 _atom_site_symmetry_multiplicity
 _atom_site_fract_x
 _atom_site_fract_y
 _atom_site_fract_z
 _atom_site_occupancy
  Li  Li0  1  0.233397  0.516550  0.374992  1
  Li  Li1  1  0.733443  0.016599  0.875007  1
  Li  Li2  1  0.766545  0.483469  0.625007  1
  Li  Li3  1  0.266479  0.983500  0.124992  1
  Mn  Mn4  1  0.499978  0.000219  0.499937  1
  Mn  Mn5  1  0.249852  0.750021  0.749994  1
  Mn  Mn6  1  0.999908  0.500263  0.999925  1
  Mn  Mn7  1  0.749847  0.250063  0.250067  1
  Pt  Pt8  1  0.749986  0.750023  0.249977  1
  Pt  Pt9  1  0.250054  0.249972  0.749947  1
  Pt  Pt10  1  0.999975  0.999936  0.500078  1
  Pt  Pt11  1  0.499980  0.499962  0.000040  1
  O  O12  1  0.036569  0.498667  0.767018  1
  O  O13  1  0.536486  0.998755  0.267312  1
  O  O14  1  0.751302  0.213479  0.482956  1
  O  O15  1  0.251349  0.713520  0.982697  1
  O  O16  1  0.248702  0.786282  0.517152  1
  O  O17  1  0.748718  0.286347  0.017187  1
  O  O18  1  0.963694  0.501360  0.232736  1
  O  O19  1  0.463722  0.001297  0.732904  1
  O  O20  1  0.991300  0.986744  0.260143  1
  O  O21  1  0.491483  0.486636  0.760125  1
  O  O22  1  0.763225  0.758577  0.489908  1
  O  O23  1  0.263245  0.258650  0.989860  1
  O  O24  1  0.236621  0.241239  0.510045  1
  O  O25  1  0.736666  0.741295  0.010076  1
  O  O26  1  0.008790  0.013248  0.739962  1
  O  O27  1  0.508683  0.513330  0.239954  1
