# generated using pymatgen
data_TbPr2Y3(RuO7)2
_symmetry_space_group_name_H-M   'P 1'
_cell_length_a   6.47977338
_cell_length_b   6.47528846
_cell_length_c   7.54159400
_cell_angle_alpha   90.00000000
_cell_angle_beta   90.00000000
_cell_angle_gamma   110.18169841
_symmetry_Int_Tables_number   1
_chemical_formula_structural   TbPr2Y3(RuO7)2
_chemical_formula_sum   'Tb1 Pr2 Y3 Ru2 O14'
_cell_volume   297.00526559
_cell_formula_units_Z   1
loop_
 _symmetry_equiv_pos_site_id
 _symmetry_equiv_pos_as_xyz
  1  'x, y, z'
loop_
 _atom_site_type_symbol
 _atom_site_label
 _atom_site_symmetry_multiplicity
 _atom_site_fract_x
 _atom_site_fract_y
 _atom_site_fract_z
 _atom_site_occupancy
  Tb  Tb0  1  0.481751  0.929895  0.750000  1
  Pr  Pr1  1  0.000057  0.000056  0.500002  1
  Pr  Pr2  1  0.000057  0.000056  0.999998  1
  Y  Y3  1  0.518059  0.068998  0.250000  1
  Y  Y4  1  0.931070  0.482023  0.750000  1
  Y  Y5  1  0.068888  0.517987  0.250000  1
  Ru  Ru6  1  0.500046  0.500010  0.499906  1
  Ru  Ru7  1  0.500046  0.500010  0.000094  1
  O  O8  1  0.587673  0.587638  0.750000  1
  O  O9  1  0.412315  0.412315  0.250000  1
  O  O10  1  0.838471  0.118656  0.750000  1
  O  O11  1  0.162389  0.881947  0.250000  1
  O  O12  1  0.116843  0.837722  0.750000  1
  O  O13  1  0.881819  0.162289  0.250000  1
  O  O14  1  0.440331  0.182698  0.963823  1
  O  O15  1  0.559870  0.817364  0.463613  1
  O  O16  1  0.182899  0.440451  0.963870  1
  O  O17  1  0.817158  0.559685  0.463845  1
  O  O18  1  0.440331  0.182698  0.536177  1
  O  O19  1  0.559870  0.817364  0.036387  1
  O  O20  1  0.817158  0.559685  0.036155  1
  O  O21  1  0.182899  0.440451  0.536130  1
