# generated using pymatgen
data_Ho8Ti10ReSi16Ru
_symmetry_space_group_name_H-M   'P 1'
_cell_length_a   6.98573325
_cell_length_b   6.98573244
_cell_length_c   12.81984153
_cell_angle_alpha   90.04451591
_cell_angle_beta   89.95548505
_cell_angle_gamma   89.86737997
_symmetry_Int_Tables_number   1
_chemical_formula_structural   Ho8Ti10ReSi16Ru
_chemical_formula_sum   'Ho8 Ti10 Re1 Si16 Ru1'
_cell_volume   625.61215250
_cell_formula_units_Z   1
loop_
 _symmetry_equiv_pos_site_id
 _symmetry_equiv_pos_as_xyz
  1  'x, y, z'
loop_
 _atom_site_type_symbol
 _atom_site_label
 _atom_site_symmetry_multiplicity
 _atom_site_fract_x
 _atom_site_fract_y
 _atom_site_fract_z
 _atom_site_occupancy
  Ho  Ho0  1  0.341283  0.001376  0.468242  1
  Ho  Ho1  1  0.498242  0.839862  0.716796  1
  Ho  Ho2  1  0.501898  0.159722  0.216592  1
  Ho  Ho3  1  0.839862  0.498242  0.283204  1
  Ho  Ho4  1  0.159722  0.501898  0.783408  1
  Ho  Ho5  1  0.658601  0.998403  0.968668  1
  Ho  Ho6  1  0.001376  0.341283  0.531758  1
  Ho  Ho7  1  0.998403  0.658601  0.031332  1
  Ti  Ti8  1  0.174027  0.826658  0.249410  1
  Ti  Ti9  1  0.826658  0.174027  0.750590  1
  Ti  Ti10  1  0.150479  0.003024  0.875172  1
  Ti  Ti11  1  0.493091  0.654313  0.126608  1
  Ti  Ti12  1  0.508022  0.349615  0.627103  1
  Ti  Ti13  1  0.654313  0.493091  0.873392  1
  Ti  Ti14  1  0.349615  0.508022  0.372897  1
  Ti  Ti15  1  0.847401  0.993766  0.375690  1
  Ti  Ti16  1  0.003024  0.150479  0.124828  1
  Ti  Ti17  1  0.993766  0.847401  0.624310  1
  Re  Re18  1  0.673003  0.673003  0.500000  1
  Si  Si19  1  0.202531  0.132467  0.684573  1
  Si  Si20  1  0.371640  0.699929  0.934571  1
  Si  Si21  1  0.629980  0.299681  0.434838  1
  Si  Si22  1  0.699929  0.371640  0.065429  1
  Si  Si23  1  0.299681  0.629980  0.565162  1
  Si  Si24  1  0.797175  0.867744  0.184195  1
  Si  Si25  1  0.132467  0.202531  0.315427  1
  Si  Si26  1  0.867744  0.797175  0.815805  1
  Si  Si27  1  0.287671  0.953274  0.064671  1
  Si  Si28  1  0.549173  0.792852  0.317552  1
  Si  Si29  1  0.449730  0.208164  0.818140  1
  Si  Si30  1  0.792852  0.549173  0.682448  1
  Si  Si31  1  0.208164  0.449730  0.181860  1
  Si  Si32  1  0.709812  0.046235  0.565242  1
  Si  Si33  1  0.953274  0.287671  0.935329  1
  Si  Si34  1  0.046235  0.709812  0.434758  1
  Ru  Ru35  1  0.329157  0.329157  0.000000  1
