# generated using pymatgen
data_Y4MnCo3(CuO5)4
_symmetry_space_group_name_H-M   'P 1'
_cell_length_a   5.62327592
_cell_length_b   7.51914142
_cell_length_c   8.40633034
_cell_angle_alpha   89.94088671
_cell_angle_beta   89.92198116
_cell_angle_gamma   89.84286663
_symmetry_Int_Tables_number   1
_chemical_formula_structural   Y4MnCo3(CuO5)4
_chemical_formula_sum   'Y4 Mn1 Co3 Cu4 O20'
_cell_volume   355.43634460
_cell_formula_units_Z   1
loop_
 _symmetry_equiv_pos_site_id
 _symmetry_equiv_pos_as_xyz
  1  'x, y, z'
loop_
 _atom_site_type_symbol
 _atom_site_label
 _atom_site_symmetry_multiplicity
 _atom_site_fract_x
 _atom_site_fract_y
 _atom_site_fract_z
 _atom_site_occupancy
  Y  Y0  1  0.997891  0.648399  0.325079  1
  Y  Y1  1  0.999430  0.351687  0.674856  1
  Y  Y2  1  0.996986  0.151006  0.172930  1
  Y  Y3  1  0.999307  0.848981  0.827150  1
  Mn  Mn4  1  0.261291  0.999610  0.499873  1
  Co  Co5  1  0.258815  0.497565  0.001156  1
  Co  Co6  1  0.743244  0.000420  0.500205  1
  Co  Co7  1  0.739667  0.502439  0.998778  1
  Cu  Cu8  1  0.500376  0.928301  0.152052  1
  Cu  Cu9  1  0.499777  0.071646  0.847906  1
  Cu  Cu10  1  0.499842  0.429243  0.347370  1
  Cu  Cu11  1  0.499059  0.570740  0.652611  1
  O  O12  1  0.271050  0.500388  0.499583  1
  O  O13  1  0.727751  0.000362  0.999894  1
  O  O14  1  0.727790  0.499585  0.500372  1
  O  O15  1  0.272312  0.999634  0.000133  1
  O  O16  1  0.003322  0.660732  0.050848  1
  O  O17  1  0.994402  0.339173  0.949114  1
  O  O18  1  0.000228  0.163867  0.447346  1
  O  O19  1  0.000613  0.836184  0.552680  1
  O  O20  1  0.506317  0.646867  0.059051  1
  O  O21  1  0.492393  0.353158  0.940932  1
  O  O22  1  0.504745  0.151330  0.437839  1
  O  O23  1  0.506296  0.848715  0.562252  1
  O  O24  1  0.242259  0.903214  0.287445  1
  O  O25  1  0.241159  0.095557  0.712841  1
  O  O26  1  0.757591  0.407218  0.209249  1
  O  O27  1  0.756679  0.591571  0.790642  1
  O  O28  1  0.757584  0.092986  0.709024  1
  O  O29  1  0.758560  0.908161  0.290754  1
  O  O30  1  0.241195  0.593337  0.790534  1
  O  O31  1  0.242071  0.407927  0.209499  1
