# generated using pymatgen
data_Ce8Si16TcMo11
_symmetry_space_group_name_H-M   'P 1'
_cell_length_a   6.91274053
_cell_length_b   6.97479831
_cell_length_c   13.01601900
_cell_angle_alpha   90.00000000
_cell_angle_beta   90.00000000
_cell_angle_gamma   89.96955591
_symmetry_Int_Tables_number   1
_chemical_formula_structural   Ce8Si16TcMo11
_chemical_formula_sum   'Ce8 Si16 Tc1 Mo11'
_cell_volume   627.56688999
_cell_formula_units_Z   1
loop_
 _symmetry_equiv_pos_site_id
 _symmetry_equiv_pos_as_xyz
  1  'x, y, z'
loop_
 _atom_site_type_symbol
 _atom_site_label
 _atom_site_symmetry_multiplicity
 _atom_site_fract_x
 _atom_site_fract_y
 _atom_site_fract_z
 _atom_site_occupancy
  Ce  Ce0  1  0.006772  0.160367  0.092033  1
  Ce  Ce1  1  0.505829  0.339204  0.407487  1
  Ce  Ce2  1  0.494470  0.660336  0.906401  1
  Ce  Ce3  1  0.993824  0.838910  0.593378  1
  Ce  Ce4  1  0.993824  0.838910  0.906622  1
  Ce  Ce5  1  0.494470  0.660336  0.593599  1
  Ce  Ce6  1  0.505829  0.339204  0.092513  1
  Ce  Ce7  1  0.006772  0.160367  0.407967  1
  Si  Si8  1  0.810124  0.374448  0.250000  1
  Si  Si9  1  0.309406  0.125636  0.250000  1
  Si  Si10  1  0.688968  0.879038  0.750000  1
  Si  Si11  1  0.191299  0.624209  0.750000  1
  Si  Si12  1  0.039402  0.859038  0.250000  1
  Si  Si13  1  0.538488  0.641382  0.250000  1
  Si  Si14  1  0.458302  0.353446  0.750000  1
  Si  Si15  1  0.962496  0.140129  0.750000  1
  Si  Si16  1  0.845286  0.455264  0.952999  1
  Si  Si17  1  0.345660  0.046311  0.548883  1
  Si  Si18  1  0.654698  0.954485  0.046868  1
  Si  Si19  1  0.154942  0.545829  0.453071  1
  Si  Si20  1  0.154942  0.545829  0.046929  1
  Si  Si21  1  0.654698  0.954485  0.453132  1
  Si  Si22  1  0.345660  0.046311  0.951117  1
  Si  Si23  1  0.845286  0.455264  0.547001  1
  Tc  Tc24  1  0.330697  0.990337  0.750000  1
  Mo  Mo25  1  0.669109  0.002829  0.250000  1
  Mo  Mo26  1  0.169470  0.497311  0.250000  1
  Mo  Mo27  1  0.829762  0.504112  0.750000  1
  Mo  Mo28  1  0.831106  0.664320  0.125531  1
  Mo  Mo29  1  0.331589  0.836665  0.375335  1
  Mo  Mo30  1  0.670803  0.166193  0.874853  1
  Mo  Mo31  1  0.166260  0.336157  0.625081  1
  Mo  Mo32  1  0.166260  0.336157  0.874919  1
  Mo  Mo33  1  0.670803  0.166193  0.625147  1
  Mo  Mo34  1  0.331589  0.836665  0.124665  1
  Mo  Mo35  1  0.831106  0.664320  0.374469  1
