# generated using pymatgen
data_K6SiWS8
_symmetry_space_group_name_H-M   'P 1'
_cell_length_a   9.16869200
_cell_length_b   9.24971500
_cell_length_c   10.86855900
_cell_angle_alpha   90.00000000
_cell_angle_beta   90.00000000
_cell_angle_gamma   90.00000000
_symmetry_Int_Tables_number   1
_chemical_formula_structural   K6SiWS8
_chemical_formula_sum   'K12 Si2 W2 S16'
_cell_volume   921.73844670
_cell_formula_units_Z   2
loop_
 _symmetry_equiv_pos_site_id
 _symmetry_equiv_pos_as_xyz
  1  'x, y, z'
loop_
 _atom_site_type_symbol
 _atom_site_label
 _atom_site_symmetry_multiplicity
 _atom_site_fract_x
 _atom_site_fract_y
 _atom_site_fract_z
 _atom_site_occupancy
  K  K0  1  0.026692  0.799561  0.449909  1
  K  K1  1  0.473308  0.299561  0.550091  1
  K  K2  1  0.571351  0.710673  0.039831  1
  K  K3  1  0.928649  0.210673  0.960169  1
  K  K4  1  0.928649  0.210673  0.539831  1
  K  K5  1  0.571351  0.710673  0.460169  1
  K  K6  1  0.473308  0.299561  0.949909  1
  K  K7  1  0.026692  0.799561  0.050091  1
  K  K8  1  0.130972  0.584035  0.750000  1
  K  K9  1  0.369028  0.084035  0.250000  1
  K  K10  1  0.646621  0.909936  0.750000  1
  K  K11  1  0.853379  0.409936  0.250000  1
  Si  Si12  1  0.776716  0.982732  0.250000  1
  Si  Si13  1  0.723284  0.482732  0.750000  1
  W  W14  1  0.281705  0.515419  0.250000  1
  W  W15  1  0.218295  0.015419  0.750000  1
  S  S16  1  0.796071  0.750113  0.250000  1
  S  S17  1  0.703929  0.250113  0.750000  1
  S  S18  1  0.300390  0.753365  0.250000  1
  S  S19  1  0.199610  0.253365  0.750000  1
  S  S20  1  0.997014  0.920904  0.750000  1
  S  S21  1  0.502986  0.420904  0.250000  1
  S  S22  1  0.507391  0.577218  0.750000  1
  S  S23  1  0.992609  0.077218  0.250000  1
  S  S24  1  0.333283  0.946044  0.581907  1
  S  S25  1  0.166717  0.446044  0.418093  1
  S  S26  1  0.836961  0.546861  0.913782  1
  S  S27  1  0.663039  0.046861  0.086218  1
  S  S28  1  0.663039  0.046861  0.413782  1
  S  S29  1  0.836961  0.546861  0.586218  1
  S  S30  1  0.166717  0.446044  0.081907  1
  S  S31  1  0.333283  0.946044  0.918093  1
