# generated using pymatgen
data_Dy3HoB16IrRh3
_symmetry_space_group_name_H-M   'P 1'
_cell_length_a   3.57224100
_cell_length_b   5.96922981
_cell_length_c   11.57083011
_cell_angle_alpha   89.96233010
_cell_angle_beta   90.00000000
_cell_angle_gamma   90.00000000
_symmetry_Int_Tables_number   1
_chemical_formula_structural   Dy3HoB16IrRh3
_chemical_formula_sum   'Dy3 Ho1 B16 Ir1 Rh3'
_cell_volume   246.73086030
_cell_formula_units_Z   1
loop_
 _symmetry_equiv_pos_site_id
 _symmetry_equiv_pos_as_xyz
  1  'x, y, z'
loop_
 _atom_site_type_symbol
 _atom_site_label
 _atom_site_symmetry_multiplicity
 _atom_site_fract_x
 _atom_site_fract_y
 _atom_site_fract_z
 _atom_site_occupancy
  Dy  Dy0  1  0.500000  0.369050  0.147984  1
  Dy  Dy1  1  0.500000  0.630804  0.851557  1
  Dy  Dy2  1  0.500000  0.131466  0.649088  1
  Ho  Ho3  1  0.500000  0.869004  0.351152  1
  B  B4  1  0.000000  0.112062  0.046658  1
  B  B5  1  0.000000  0.887676  0.953239  1
  B  B6  1  0.000000  0.387879  0.546514  1
  B  B7  1  0.000000  0.612284  0.452798  1
  B  B8  1  0.000000  0.135763  0.469467  1
  B  B9  1  0.000000  0.863971  0.530346  1
  B  B10  1  0.000000  0.363878  0.969338  1
  B  B11  1  0.000000  0.635862  0.030267  1
  B  B12  1  0.000000  0.022207  0.192949  1
  B  B13  1  0.000000  0.977179  0.806934  1
  B  B14  1  0.000000  0.476028  0.692947  1
  B  B15  1  0.000000  0.523742  0.306953  1
  B  B16  1  0.000000  0.209151  0.312468  1
  B  B17  1  0.000000  0.790630  0.687618  1
  B  B18  1  0.000000  0.289843  0.812778  1
  B  B19  1  0.000000  0.710219  0.187266  1
  Ir  Ir20  1  0.500000  0.358185  0.404988  1
  Rh  Rh21  1  0.500000  0.643929  0.595800  1
  Rh  Rh22  1  0.500000  0.140699  0.905509  1
  Rh  Rh23  1  0.500000  0.858490  0.095381  1
