# generated using pymatgen
data_CePrIr4
_symmetry_space_group_name_H-M   'P 1'
_cell_length_a   5.42630117
_cell_length_b   5.42630053
_cell_length_c   5.42630200
_cell_angle_alpha   60.00000321
_cell_angle_beta   60.00000713
_cell_angle_gamma   60.00000435
_symmetry_Int_Tables_number   1
_chemical_formula_structural   CePrIr4
_chemical_formula_sum   'Ce1 Pr1 Ir4'
_cell_volume   112.97874550
_cell_formula_units_Z   1
loop_
 _symmetry_equiv_pos_site_id
 _symmetry_equiv_pos_as_xyz
  1  'x, y, z'
loop_
 _atom_site_type_symbol
 _atom_site_label
 _atom_site_symmetry_multiplicity
 _atom_site_fract_x
 _atom_site_fract_y
 _atom_site_fract_z
 _atom_site_occupancy
  Ce  Ce0  1  0.250000  0.250000  0.250000  1
  Pr  Pr1  1  0.000000  0.000000  0.000000  1
  Ir  Ir2  1  0.624987  0.624987  0.125039  1
  Ir  Ir3  1  0.624987  0.125039  0.624987  1
  Ir  Ir4  1  0.125039  0.624987  0.624987  1
  Ir  Ir5  1  0.624987  0.624987  0.624987  1
