# generated using pymatgen
data_Y4Ho4Re(B8Ru)3
_symmetry_space_group_name_H-M   'P 1'
_cell_length_a   3.66799000
_cell_length_b   9.14480076
_cell_length_c   11.53762200
_cell_angle_alpha   90.12882247
_cell_angle_beta   90.00000000
_cell_angle_gamma   90.00000000
_symmetry_Int_Tables_number   1
_chemical_formula_structural   Y4Ho4Re(B8Ru)3
_chemical_formula_sum   'Y4 Ho4 Re1 B24 Ru3'
_cell_volume   387.00591215
_cell_formula_units_Z   1
loop_
 _symmetry_equiv_pos_site_id
 _symmetry_equiv_pos_as_xyz
  1  'x, y, z'
loop_
 _atom_site_type_symbol
 _atom_site_label
 _atom_site_symmetry_multiplicity
 _atom_site_fract_x
 _atom_site_fract_y
 _atom_site_fract_z
 _atom_site_occupancy
  Y  Y0  1  0.000000  0.322881  0.415076  1
  Y  Y1  1  0.000000  0.680105  0.587946  1
  Y  Y2  1  0.000000  0.822565  0.083491  1
  Y  Y3  1  0.000000  0.176365  0.913476  1
  Ho  Ho4  1  0.000000  0.942997  0.371003  1
  Ho  Ho5  1  0.000000  0.056616  0.627775  1
  Ho  Ho6  1  0.000000  0.442516  0.128615  1
  Ho  Ho7  1  0.000000  0.555988  0.872431  1
  Re  Re8  1  0.000000  0.862278  0.821011  1
  B  B9  1  0.500000  0.554274  0.432984  1
  B  B10  1  0.500000  0.446052  0.567389  1
  B  B11  1  0.500000  0.053953  0.067769  1
  B  B12  1  0.500000  0.946930  0.932955  1
  B  B13  1  0.500000  0.748484  0.419121  1
  B  B14  1  0.500000  0.251899  0.580668  1
  B  B15  1  0.500000  0.248225  0.081076  1
  B  B16  1  0.500000  0.751143  0.919012  1
  B  B17  1  0.500000  0.790115  0.266052  1
  B  B18  1  0.500000  0.209409  0.732962  1
  B  B19  1  0.500000  0.290558  0.234049  1
  B  B20  1  0.500000  0.708515  0.766088  1
  B  B21  1  0.500000  0.630748  0.185466  1
  B  B22  1  0.500000  0.368571  0.814218  1
  B  B23  1  0.500000  0.131557  0.314712  1
  B  B24  1  0.500000  0.869009  0.685538  1
  B  B25  1  0.500000  0.983767  0.212641  1
  B  B26  1  0.500000  0.017604  0.787130  1
  B  B27  1  0.500000  0.483541  0.287891  1
  B  B28  1  0.500000  0.516391  0.712812  1
  B  B29  1  0.500000  0.605145  0.029914  1
  B  B30  1  0.500000  0.392712  0.970971  1
  B  B31  1  0.500000  0.107039  0.469905  1
  B  B32  1  0.500000  0.893889  0.528635  1
  Ru  Ru33  1  0.000000  0.637856  0.320973  1
  Ru  Ru34  1  0.000000  0.362241  0.678660  1
  Ru  Ru35  1  0.000000  0.138054  0.179583  1
