# generated using pymatgen
data_Mg4Al3SiPt4
_symmetry_space_group_name_H-M   'P 1'
_cell_length_a   6.51927731
_cell_length_b   4.06888400
_cell_length_c   7.68489474
_cell_angle_alpha   90.00000000
_cell_angle_beta   89.58951140
_cell_angle_gamma   90.00000000
_symmetry_Int_Tables_number   1
_chemical_formula_structural   Mg4Al3SiPt4
_chemical_formula_sum   'Mg4 Al3 Si1 Pt4'
_cell_volume   203.84569367
_cell_formula_units_Z   1
loop_
 _symmetry_equiv_pos_site_id
 _symmetry_equiv_pos_as_xyz
  1  'x, y, z'
loop_
 _atom_site_type_symbol
 _atom_site_label
 _atom_site_symmetry_multiplicity
 _atom_site_fract_x
 _atom_site_fract_y
 _atom_site_fract_z
 _atom_site_occupancy
  Mg  Mg0  1  0.972749  0.750000  0.165998  1
  Mg  Mg1  1  0.468019  0.750000  0.331775  1
  Mg  Mg2  1  0.528968  0.250001  0.667256  1
  Mg  Mg3  1  0.028037  0.250001  0.831992  1
  Al  Al4  1  0.650109  0.250001  0.054130  1
  Al  Al5  1  0.150198  0.250001  0.445230  1
  Al  Al6  1  0.856724  0.750000  0.554119  1
  Si  Si7  1  0.351044  0.750000  0.948298  1
  Pt  Pt8  1  0.274533  0.250001  0.126191  1
  Pt  Pt9  1  0.774374  0.250001  0.365701  1
  Pt  Pt10  1  0.229305  0.750000  0.643768  1
  Pt  Pt11  1  0.715943  0.750000  0.865542  1
