# generated using pymatgen
data_Dy3Mg2ZnPt3
_symmetry_space_group_name_H-M   'P 1'
_cell_length_a   7.32405500
_cell_length_b   7.33838981
_cell_length_c   4.01286700
_cell_angle_alpha   90.00000000
_cell_angle_beta   90.00000000
_cell_angle_gamma   119.93539857
_symmetry_Int_Tables_number   1
_chemical_formula_structural   Dy3Mg2ZnPt3
_chemical_formula_sum   'Dy3 Mg2 Zn1 Pt3'
_cell_volume   186.90465385
_cell_formula_units_Z   1
loop_
 _symmetry_equiv_pos_site_id
 _symmetry_equiv_pos_as_xyz
  1  'x, y, z'
loop_
 _atom_site_type_symbol
 _atom_site_label
 _atom_site_symmetry_multiplicity
 _atom_site_fract_x
 _atom_site_fract_y
 _atom_site_fract_z
 _atom_site_occupancy
  Dy  Dy0  1  0.421001  0.000000  0.500001  1
  Dy  Dy1  1  0.991378  0.397857  0.500001  1
  Dy  Dy2  1  0.593521  0.602144  0.500001  1
  Mg  Mg3  1  0.246318  0.245292  0.000000  1
  Mg  Mg4  1  0.001026  0.754709  0.000000  1
  Zn  Zn5  1  0.749792  0.000000  0.000000  1
  Pt  Pt6  1  0.666711  0.333800  0.000000  1
  Pt  Pt7  1  0.332910  0.666200  0.000000  1
  Pt  Pt8  1  0.997344  0.000000  0.500001  1
