# generated using pymatgen
data_Ho2Ga3SnPt3
_symmetry_space_group_name_H-M   'P 1'
_cell_length_a   6.77772057
_cell_length_b   6.77772015
_cell_length_c   4.18540100
_cell_angle_alpha   90.00000000
_cell_angle_beta   90.00000000
_cell_angle_gamma   115.97824718
_symmetry_Int_Tables_number   1
_chemical_formula_structural   Ho2Ga3SnPt3
_chemical_formula_sum   'Ho2 Ga3 Sn1 Pt3'
_cell_volume   172.84026905
_cell_formula_units_Z   1
loop_
 _symmetry_equiv_pos_site_id
 _symmetry_equiv_pos_as_xyz
  1  'x, y, z'
loop_
 _atom_site_type_symbol
 _atom_site_label
 _atom_site_symmetry_multiplicity
 _atom_site_fract_x
 _atom_site_fract_y
 _atom_site_fract_z
 _atom_site_occupancy
  Ho  Ho0  1  0.423076  0.002834  0.500000  1
  Ho  Ho1  1  0.002834  0.423076  0.500000  1
  Ga  Ga2  1  0.751559  0.016468  0.000000  1
  Ga  Ga3  1  0.016468  0.751559  0.000000  1
  Ga  Ga4  1  0.224933  0.224933  0.000000  1
  Sn  Sn5  1  0.595826  0.595826  0.500000  1
  Pt  Pt6  1  0.349512  0.654088  0.000000  1
  Pt  Pt7  1  0.654088  0.349512  0.000000  1
  Pt  Pt8  1  0.981705  0.981705  0.500000  1
