# generated using pymatgen
data_Li14(Ca2Al3)3
_symmetry_space_group_name_H-M   'P 1'
_cell_length_a   9.40624300
_cell_length_b   9.60466051
_cell_length_c   9.56516294
_cell_angle_alpha   120.73882776
_cell_angle_beta   90.00000000
_cell_angle_gamma   119.31895476
_symmetry_Int_Tables_number   1
_chemical_formula_structural   Li14(Ca2Al3)3
_chemical_formula_sum   'Li14 Ca6 Al9'
_cell_volume   610.42056403
_cell_formula_units_Z   1
loop_
 _symmetry_equiv_pos_site_id
 _symmetry_equiv_pos_as_xyz
  1  'x, y, z'
loop_
 _atom_site_type_symbol
 _atom_site_label
 _atom_site_symmetry_multiplicity
 _atom_site_fract_x
 _atom_site_fract_y
 _atom_site_fract_z
 _atom_site_occupancy
  Li  Li0  1  0.523213  0.348328  0.173658  1
  Li  Li1  1  0.825115  0.348328  0.173658  1
  Li  Li2  1  0.133623  0.754209  0.372752  1
  Li  Li3  1  0.620588  0.754209  0.372752  1
  Li  Li4  1  0.617614  0.235228  0.374851  1
  Li  Li5  1  0.825997  0.651994  0.474615  1
  Li  Li6  1  0.173043  0.346086  0.522234  1
  Li  Li7  1  0.377042  0.754083  0.623342  1
  Li  Li8  1  0.377474  0.243940  0.622185  1
  Li  Li9  1  0.866466  0.243940  0.622185  1
  Li  Li10  1  0.174843  0.656194  0.831549  1
  Li  Li11  1  0.481351  0.656194  0.831549  1
  Li  Li12  1  0.171892  0.343785  0.828901  1
  Li  Li13  1  0.624490  0.248980  0.870194  1
  Ca  Ca14  1  0.791358  0.003210  0.214821  1
  Ca  Ca15  1  0.214690  0.429378  0.217102  1
  Ca  Ca16  1  0.211853  0.003210  0.214822  1
  Ca  Ca17  1  0.782328  0.995897  0.780454  1
  Ca  Ca18  1  0.213568  0.995897  0.780454  1
  Ca  Ca19  1  0.784464  0.568929  0.780469  1
  Al  Al20  1  0.498082  0.996164  0.006888  1
  Al  Al21  1  0.003082  0.505286  0.003204  1
  Al  Al22  1  0.502204  0.505286  0.003204  1
  Al  Al23  1  0.380134  0.760268  0.136988  1
  Al  Al24  1  0.830811  0.661620  0.171990  1
  Al  Al25  1  0.498705  0.997411  0.497959  1
  Al  Al26  1  0.997369  0.994737  0.493491  1
  Al  Al27  1  0.000787  0.498605  0.501865  1
  Al  Al28  1  0.497818  0.498605  0.501865  1
