# generated using pymatgen
data_Al3V12Zn3(GaN2)2
_symmetry_space_group_name_H-M   'P 1'
_cell_length_a   6.59750536
_cell_length_b   6.59750433
_cell_length_c   6.59750541
_cell_angle_alpha   90.10437342
_cell_angle_beta   89.89562501
_cell_angle_gamma   89.89562420
_symmetry_Int_Tables_number   1
_chemical_formula_structural   Al3V12Zn3(GaN2)2
_chemical_formula_sum   'Al3 V12 Zn3 Ga2 N4'
_cell_volume   287.16864972
_cell_formula_units_Z   1
loop_
 _symmetry_equiv_pos_site_id
 _symmetry_equiv_pos_as_xyz
  1  'x, y, z'
loop_
 _atom_site_type_symbol
 _atom_site_label
 _atom_site_symmetry_multiplicity
 _atom_site_fract_x
 _atom_site_fract_y
 _atom_site_fract_z
 _atom_site_occupancy
  Al  Al0  1  0.318064  0.173461  0.821279  1
  Al  Al1  1  0.826539  0.321279  0.181936  1
  Al  Al2  1  0.678721  0.681936  0.673461  1
  V  V3  1  0.790589  0.960390  0.375384  1
  V  V4  1  0.708979  0.041059  0.876382  1
  V  V5  1  0.209812  0.460153  0.122777  1
  V  V6  1  0.291945  0.538444  0.627004  1
  V  V7  1  0.958941  0.376382  0.791021  1
  V  V8  1  0.039610  0.875384  0.709411  1
  V  V9  1  0.461556  0.127004  0.208055  1
  V  V10  1  0.539847  0.622777  0.290188  1
  V  V11  1  0.377223  0.790188  0.960153  1
  V  V12  1  0.872996  0.708055  0.038444  1
  V  V13  1  0.124616  0.209411  0.460390  1
  V  V14  1  0.623618  0.291021  0.541059  1
  Zn  Zn15  1  0.429308  0.929976  0.568988  1
  Zn  Zn16  1  0.931012  0.570692  0.429976  1
  Zn  Zn17  1  0.070024  0.068988  0.070692  1
  Ga  Ga18  1  0.178271  0.821729  0.321729  1
  Ga  Ga19  1  0.571375  0.428625  0.928625  1
  N  N20  1  0.873884  0.126116  0.626116  1
  N  N21  1  0.625360  0.874991  0.127299  1
  N  N22  1  0.125009  0.627299  0.874640  1
  N  N23  1  0.372701  0.374640  0.374991  1
