# generated using pymatgen
data_Gd3DyLuRe2C7
_symmetry_space_group_name_H-M   'P 1'
_cell_length_a   8.30698268
_cell_length_b   8.37689071
_cell_length_c   3.44233400
_cell_angle_alpha   90.00000000
_cell_angle_beta   90.00000000
_cell_angle_gamma   122.86194310
_symmetry_Int_Tables_number   1
_chemical_formula_structural   Gd3DyLuRe2C7
_chemical_formula_sum   'Gd3 Dy1 Lu1 Re2 C7'
_cell_volume   201.20943747
_cell_formula_units_Z   1
loop_
 _symmetry_equiv_pos_site_id
 _symmetry_equiv_pos_as_xyz
  1  'x, y, z'
loop_
 _atom_site_type_symbol
 _atom_site_label
 _atom_site_symmetry_multiplicity
 _atom_site_fract_x
 _atom_site_fract_y
 _atom_site_fract_z
 _atom_site_occupancy
  Gd  Gd0  1  0.328667  0.072221  0.500000  1
  Gd  Gd1  1  0.671835  0.927423  0.500000  1
  Gd  Gd2  1  0.071654  0.336082  0.500000  1
  Dy  Dy3  1  0.500738  0.501727  0.000000  1
  Lu  Lu4  1  0.922109  0.657857  0.500000  1
  Re  Re5  1  0.286669  0.715823  0.000000  1
  Re  Re6  1  0.711724  0.287603  0.000000  1
  C  C7  1  0.167010  0.170786  0.000000  1
  C  C8  1  0.837378  0.822640  0.000000  1
  C  C9  1  0.002274  0.997286  0.000000  1
  C  C10  1  0.373829  0.630396  0.500000  1
  C  C11  1  0.625804  0.373132  0.500000  1
  C  C12  1  0.501267  0.001743  0.000000  1
  C  C13  1  0.999042  0.505280  0.000000  1
