# generated using pymatgen
data_Sr2In3SnPd2
_symmetry_space_group_name_H-M   'P 1'
_cell_length_a   6.08750749
_cell_length_b   6.08750728
_cell_length_c   7.88679934
_cell_angle_alpha   90.30738782
_cell_angle_beta   89.69261321
_cell_angle_gamma   135.67985001
_symmetry_Int_Tables_number   1
_chemical_formula_structural   Sr2In3SnPd2
_chemical_formula_sum   'Sr2 In3 Sn1 Pd2'
_cell_volume   204.19386985
_cell_formula_units_Z   1
loop_
 _symmetry_equiv_pos_site_id
 _symmetry_equiv_pos_as_xyz
  1  'x, y, z'
loop_
 _atom_site_type_symbol
 _atom_site_label
 _atom_site_symmetry_multiplicity
 _atom_site_fract_x
 _atom_site_fract_y
 _atom_site_fract_z
 _atom_site_occupancy
  Sr  Sr0  1  0.938942  0.061058  0.747962  1
  Sr  Sr1  1  0.061903  0.938097  0.249624  1
  In  In2  1  0.348824  0.651176  0.054381  1
  In  In3  1  0.349002  0.650998  0.447303  1
  In  In4  1  0.650665  0.349335  0.553943  1
  Sn  Sn5  1  0.650973  0.349027  0.945013  1
  Pd  Pd6  1  0.219019  0.780981  0.753905  1
  Pd  Pd7  1  0.780673  0.219327  0.247867  1
