# generated using pymatgen
data_AcTe28
_symmetry_space_group_name_H-M   'P 1'
_cell_length_a   9.08853504
_cell_length_b   12.24228402
_cell_length_c   11.91207600
_cell_angle_alpha   120.47990032
_cell_angle_beta   96.76170775
_cell_angle_gamma   97.05482280
_symmetry_Int_Tables_number   1
_chemical_formula_structural   AcTe28
_chemical_formula_sum   'Ac1 Te28'
_cell_volume   1108.18345095
_cell_formula_units_Z   1
loop_
 _symmetry_equiv_pos_site_id
 _symmetry_equiv_pos_as_xyz
  1  'x, y, z'
loop_
 _atom_site_type_symbol
 _atom_site_label
 _atom_site_symmetry_multiplicity
 _atom_site_fract_x
 _atom_site_fract_y
 _atom_site_fract_z
 _atom_site_occupancy
  Ac  Ac0  1  0.500000  0.000000  0.000000  1
  Te  Te1  1  0.191590  0.088295  0.416167  1
  Te  Te2  1  0.646856  0.097444  0.427573  1
  Te  Te3  1  0.300591  0.329775  0.810503  1
  Te  Te4  1  0.816568  0.363912  0.848179  1
  Te  Te5  1  0.255558  0.691891  0.793951  1
  Te  Te6  1  0.717423  0.554057  0.690964  1
  Te  Te7  1  0.353144  0.902556  0.572427  1
  Te  Te8  1  0.808410  0.911705  0.583833  1
  Te  Te9  1  0.183432  0.636088  0.151821  1
  Te  Te10  1  0.699409  0.670225  0.189497  1
  Te  Te11  1  0.282577  0.445943  0.309036  1
  Te  Te12  1  0.744442  0.308109  0.206049  1
  Te  Te13  1  0.652824  0.090375  0.790266  1
  Te  Te14  1  0.202940  0.027227  0.791318  1
  Te  Te15  1  0.943314  0.635535  0.943135  1
  Te  Te16  1  0.479511  0.687754  0.009869  1
  Te  Te17  1  0.476186  0.272858  0.299446  1
  Te  Te18  1  0.007928  0.206215  0.302532  1
  Te  Te19  1  0.797060  0.972773  0.208682  1
  Te  Te20  1  0.347176  0.909625  0.209734  1
  Te  Te21  1  0.520489  0.312246  0.990131  1
  Te  Te22  1  0.056686  0.364465  0.056865  1
  Te  Te23  1  0.992072  0.793785  0.697468  1
  Te  Te24  1  0.523814  0.727142  0.700554  1
  Te  Te25  1  0.913942  0.302829  0.603741  1
  Te  Te26  1  0.432398  0.313004  0.599537  1
  Te  Te27  1  0.567602  0.686996  0.400463  1
  Te  Te28  1  0.086058  0.697171  0.396259  1
