# generated using pymatgen
data_DyYZr2(Al3Rh)6
_symmetry_space_group_name_H-M   'P 1'
_cell_length_a   7.52661901
_cell_length_b   7.50458331
_cell_length_c   9.36897000
_cell_angle_alpha   90.00000000
_cell_angle_beta   90.00000000
_cell_angle_gamma   119.69245768
_symmetry_Int_Tables_number   1
_chemical_formula_structural   DyYZr2(Al3Rh)6
_chemical_formula_sum   'Dy1 Y1 Zr2 Al18 Rh6'
_cell_volume   459.71275124
_cell_formula_units_Z   1
loop_
 _symmetry_equiv_pos_site_id
 _symmetry_equiv_pos_as_xyz
  1  'x, y, z'
loop_
 _atom_site_type_symbol
 _atom_site_label
 _atom_site_symmetry_multiplicity
 _atom_site_fract_x
 _atom_site_fract_y
 _atom_site_fract_z
 _atom_site_occupancy
  Dy  Dy0  1  0.329767  0.005799  0.250000  1
  Y  Y1  1  0.670228  0.994192  0.750000  1
  Zr  Zr2  1  0.994702  0.670531  0.750000  1
  Zr  Zr3  1  0.005294  0.329477  0.250000  1
  Al  Al4  1  0.124524  0.122653  0.750000  1
  Al  Al5  1  0.875511  0.877341  0.250000  1
  Al  Al6  1  0.999450  0.337416  0.574713  1
  Al  Al7  1  0.000587  0.662622  0.425253  1
  Al  Al8  1  0.000587  0.662622  0.074747  1
  Al  Al9  1  0.331518  0.997759  0.921530  1
  Al  Al10  1  0.999450  0.337416  0.925287  1
  Al  Al11  1  0.668439  0.002241  0.078533  1
  Al  Al12  1  0.668439  0.002241  0.421467  1
  Al  Al13  1  0.331518  0.997759  0.578470  1
  Al  Al14  1  0.330838  0.333469  0.055478  1
  Al  Al15  1  0.669163  0.666497  0.944550  1
  Al  Al16  1  0.669163  0.666497  0.555450  1
  Al  Al17  1  0.330838  0.333469  0.444522  1
  Al  Al18  1  0.333268  0.548372  0.750000  1
  Al  Al19  1  0.666677  0.451584  0.250000  1
  Al  Al20  1  0.555937  0.344387  0.750000  1
  Al  Al21  1  0.444074  0.655660  0.250000  1
  Rh  Rh22  1  0.672074  0.327500  0.499366  1
  Rh  Rh23  1  0.327908  0.672511  0.500615  1
  Rh  Rh24  1  0.327908  0.672511  0.999385  1
  Rh  Rh25  1  0.672074  0.327500  0.000634  1
  Rh  Rh26  1  0.000033  0.999988  0.499987  1
  Rh  Rh27  1  0.000033  0.999988  0.000013  1
