# generated using pymatgen
data_Y4Ho2Co13P12Ru5
_symmetry_space_group_name_H-M   'P 1'
_cell_length_a   3.76866700
_cell_length_b   10.58126438
_cell_length_c   12.36526612
_cell_angle_alpha   90.30011494
_cell_angle_beta   90.00000000
_cell_angle_gamma   90.00000000
_symmetry_Int_Tables_number   1
_chemical_formula_structural   Y4Ho2Co13P12Ru5
_chemical_formula_sum   'Y4 Ho2 Co13 P12 Ru5'
_cell_volume   493.08619136
_cell_formula_units_Z   1
loop_
 _symmetry_equiv_pos_site_id
 _symmetry_equiv_pos_as_xyz
  1  'x, y, z'
loop_
 _atom_site_type_symbol
 _atom_site_label
 _atom_site_symmetry_multiplicity
 _atom_site_fract_x
 _atom_site_fract_y
 _atom_site_fract_z
 _atom_site_occupancy
  Y  Y0  1  0.000000  0.502463  0.526773  1
  Y  Y1  1  0.500000  0.995342  0.477268  1
  Y  Y2  1  0.500000  0.818842  0.202575  1
  Y  Y3  1  0.000000  0.682496  0.796005  1
  Ho  Ho4  1  0.500000  0.183478  0.201327  1
  Ho  Ho5  1  0.000000  0.316690  0.798661  1
  Co  Co6  1  0.000000  0.499980  0.985347  1
  Co  Co7  1  0.500000  0.000020  0.014082  1
  Co  Co8  1  0.000000  0.798312  0.574101  1
  Co  Co9  1  0.500000  0.877517  0.712250  1
  Co  Co10  1  0.500000  0.117463  0.715885  1
  Co  Co11  1  0.000000  0.621888  0.285665  1
  Co  Co12  1  0.000000  0.381403  0.283813  1
  Co  Co13  1  0.500000  0.332486  0.989819  1
  Co  Co14  1  0.500000  0.667644  0.989805  1
  Co  Co15  1  0.000000  0.167207  0.009269  1
  Co  Co16  1  0.000000  0.832713  0.009649  1
  Co  Co17  1  0.500000  0.499049  0.705352  1
  Co  Co18  1  0.000000  0.001995  0.294523  1
  P  P19  1  0.500000  0.311698  0.622801  1
  P  P20  1  0.500000  0.689449  0.620903  1
  P  P21  1  0.000000  0.187807  0.377810  1
  P  P22  1  0.000000  0.816050  0.381280  1
  P  P23  1  0.500000  0.499492  0.882409  1
  P  P24  1  0.000000  0.000998  0.117155  1
  P  P25  1  0.500000  0.846278  0.895254  1
  P  P26  1  0.500000  0.152685  0.895240  1
  P  P27  1  0.000000  0.653571  0.104223  1
  P  P28  1  0.000000  0.346925  0.103826  1
  P  P29  1  0.500000  0.500536  0.342733  1
  P  P30  1  0.000000  0.996143  0.655385  1
  Ru  Ru31  1  0.500000  0.298469  0.426617  1
  Ru  Ru32  1  0.500000  0.704025  0.429716  1
  Ru  Ru33  1  0.000000  0.200337  0.573721  1
  Ru  Ru34  1  0.500000  0.501139  0.155241  1
  Ru  Ru35  1  0.000000  0.997414  0.843514  1
