# generated using pymatgen
data_CaPa3(Al3Ir)6
_symmetry_space_group_name_H-M   'P 1'
_cell_length_a   7.61568221
_cell_length_b   7.61800027
_cell_length_c   9.38396300
_cell_angle_alpha   90.00000000
_cell_angle_beta   90.00000000
_cell_angle_gamma   119.62135436
_symmetry_Int_Tables_number   1
_chemical_formula_structural   CaPa3(Al3Ir)6
_chemical_formula_sum   'Ca1 Pa3 Al18 Ir6'
_cell_volume   473.27236543
_cell_formula_units_Z   1
loop_
 _symmetry_equiv_pos_site_id
 _symmetry_equiv_pos_as_xyz
  1  'x, y, z'
loop_
 _atom_site_type_symbol
 _atom_site_label
 _atom_site_symmetry_multiplicity
 _atom_site_fract_x
 _atom_site_fract_y
 _atom_site_fract_z
 _atom_site_occupancy
  Ca  Ca0  1  0.329103  0.005729  0.750000  1
  Pa  Pa1  1  0.996119  0.670311  0.250000  1
  Pa  Pa2  1  0.001083  0.328508  0.750000  1
  Pa  Pa3  1  0.672968  0.997511  0.250000  1
  Al  Al4  1  0.132730  0.131191  0.250000  1
  Al  Al5  1  0.871354  0.873697  0.750000  1
  Al  Al6  1  0.004680  0.335618  0.075430  1
  Al  Al7  1  0.001396  0.668888  0.921782  1
  Al  Al8  1  0.001396  0.668888  0.578218  1
  Al  Al9  1  0.335587  0.003639  0.427991  1
  Al  Al10  1  0.004680  0.335618  0.424570  1
  Al  Al11  1  0.660114  0.996255  0.578087  1
  Al  Al12  1  0.660114  0.996255  0.921913  1
  Al  Al13  1  0.335587  0.003639  0.072009  1
  Al  Al14  1  0.334283  0.331752  0.556421  1
  Al  Al15  1  0.663762  0.663602  0.449270  1
  Al  Al16  1  0.663762  0.663602  0.050730  1
  Al  Al17  1  0.334283  0.331752  0.943579  1
  Al  Al18  1  0.342345  0.547365  0.250000  1
  Al  Al19  1  0.661196  0.451065  0.750000  1
  Al  Al20  1  0.546125  0.340348  0.250000  1
  Al  Al21  1  0.448081  0.655684  0.750000  1
  Ir  Ir22  1  0.676559  0.329388  0.002184  1
  Ir  Ir23  1  0.327205  0.671675  0.002739  1
  Ir  Ir24  1  0.327205  0.671675  0.497261  1
  Ir  Ir25  1  0.676559  0.329388  0.497816  1
  Ir  Ir26  1  0.995861  0.998477  0.003343  1
  Ir  Ir27  1  0.995861  0.998477  0.496657  1
