# generated using pymatgen
data_Sm(SnRh2)2
_symmetry_space_group_name_H-M   'P 1'
_cell_length_a   4.41520800
_cell_length_b   9.77480700
_cell_length_c   11.90505700
_cell_angle_alpha   90.00000000
_cell_angle_beta   90.00000000
_cell_angle_gamma   90.00000000
_symmetry_Int_Tables_number   1
_chemical_formula_structural   Sm(SnRh2)2
_chemical_formula_sum   'Sm4 Sn8 Rh16'
_cell_volume   513.79614120
_cell_formula_units_Z   4
loop_
 _symmetry_equiv_pos_site_id
 _symmetry_equiv_pos_as_xyz
  1  'x, y, z'
loop_
 _atom_site_type_symbol
 _atom_site_label
 _atom_site_symmetry_multiplicity
 _atom_site_fract_x
 _atom_site_fract_y
 _atom_site_fract_z
 _atom_site_occupancy
  Sm  Sm0  1  0.250000  0.151745  0.827101  1
  Sm  Sm1  1  0.250000  0.348255  0.327101  1
  Sm  Sm2  1  0.750000  0.848255  0.172899  1
  Sm  Sm3  1  0.750000  0.651745  0.672899  1
  Sn  Sn4  1  0.250000  0.414010  0.637545  1
  Sn  Sn5  1  0.250000  0.085990  0.137545  1
  Sn  Sn6  1  0.750000  0.585990  0.362455  1
  Sn  Sn7  1  0.750000  0.914010  0.862455  1
  Sn  Sn8  1  0.250000  0.615993  0.063091  1
  Sn  Sn9  1  0.250000  0.884007  0.563091  1
  Sn  Sn10  1  0.750000  0.384007  0.936909  1
  Sn  Sn11  1  0.750000  0.115993  0.436909  1
  Rh  Rh12  1  0.250000  0.618739  0.495734  1
  Rh  Rh13  1  0.250000  0.881261  0.995734  1
  Rh  Rh14  1  0.750000  0.381261  0.504266  1
  Rh  Rh15  1  0.750000  0.118739  0.004266  1
  Rh  Rh16  1  0.250000  0.708891  0.275177  1
  Rh  Rh17  1  0.250000  0.791109  0.775177  1
  Rh  Rh18  1  0.750000  0.291109  0.724823  1
  Rh  Rh19  1  0.750000  0.208891  0.224823  1
  Rh  Rh20  1  0.250000  0.167286  0.564240  1
  Rh  Rh21  1  0.250000  0.332714  0.064240  1
  Rh  Rh22  1  0.750000  0.832714  0.435760  1
  Rh  Rh23  1  0.750000  0.667286  0.935760  1
  Rh  Rh24  1  0.250000  0.994542  0.344963  1
  Rh  Rh25  1  0.250000  0.505458  0.844963  1
  Rh  Rh26  1  0.750000  0.005458  0.655037  1
  Rh  Rh27  1  0.750000  0.494542  0.155037  1
