# generated using pymatgen
data_Th4Al3(Ga5Ir2)3
_symmetry_space_group_name_H-M   'P 1'
_cell_length_a   7.70900975
_cell_length_b   7.70900964
_cell_length_c   9.47905852
_cell_angle_alpha   89.97889642
_cell_angle_beta   89.97889760
_cell_angle_gamma   119.70088377
_symmetry_Int_Tables_number   1
_chemical_formula_structural   Th4Al3(Ga5Ir2)3
_chemical_formula_sum   'Th4 Al3 Ga15 Ir6'
_cell_volume   489.32119972
_cell_formula_units_Z   1
loop_
 _symmetry_equiv_pos_site_id
 _symmetry_equiv_pos_as_xyz
  1  'x, y, z'
loop_
 _atom_site_type_symbol
 _atom_site_label
 _atom_site_symmetry_multiplicity
 _atom_site_fract_x
 _atom_site_fract_y
 _atom_site_fract_z
 _atom_site_occupancy
  Th  Th0  1  0.998945  0.670292  0.250004  1
  Th  Th1  1  0.000910  0.330382  0.749011  1
  Th  Th2  1  0.670292  0.998945  0.250004  1
  Th  Th3  1  0.330382  0.000910  0.749011  1
  Al  Al4  1  0.661279  0.661279  0.450799  1
  Al  Al5  1  0.665843  0.665843  0.049377  1
  Al  Al6  1  0.334246  0.334246  0.951261  1
  Ga  Ga7  1  0.132898  0.132898  0.249277  1
  Ga  Ga8  1  0.868167  0.868167  0.749159  1
  Ga  Ga9  1  0.003714  0.335551  0.077911  1
  Ga  Ga10  1  0.996238  0.664781  0.921708  1
  Ga  Ga11  1  0.995320  0.664673  0.577737  1
  Ga  Ga12  1  0.335608  0.005850  0.420358  1
  Ga  Ga13  1  0.005850  0.335608  0.420358  1
  Ga  Ga14  1  0.664673  0.995320  0.577737  1
  Ga  Ga15  1  0.664781  0.996238  0.921708  1
  Ga  Ga16  1  0.335551  0.003714  0.077911  1
  Ga  Ga17  1  0.332596  0.332596  0.563163  1
  Ga  Ga18  1  0.350557  0.548811  0.249929  1
  Ga  Ga19  1  0.654319  0.453224  0.750094  1
  Ga  Ga20  1  0.548811  0.350557  0.249929  1
  Ga  Ga21  1  0.453224  0.654319  0.750094  1
  Ir  Ir22  1  0.668983  0.329610  0.999502  1
  Ir  Ir23  1  0.329610  0.668983  0.999502  1
  Ir  Ir24  1  0.329059  0.672781  0.499171  1
  Ir  Ir25  1  0.672781  0.329059  0.499171  1
  Ir  Ir26  1  0.000414  0.000414  0.999078  1
  Ir  Ir27  1  0.994948  0.994948  0.497034  1
