# generated using pymatgen
data_LaTm3(Rh2O7)2
_symmetry_space_group_name_H-M   'P 1'
_cell_length_a   7.27302096
_cell_length_b   7.27302083
_cell_length_c   7.27302071
_cell_angle_alpha   59.15111048
_cell_angle_beta   59.15111484
_cell_angle_gamma   59.15111165
_symmetry_Int_Tables_number   1
_chemical_formula_structural   LaTm3(Rh2O7)2
_chemical_formula_sum   'La1 Tm3 Rh4 O14'
_cell_volume   266.77501081
_cell_formula_units_Z   1
loop_
 _symmetry_equiv_pos_site_id
 _symmetry_equiv_pos_as_xyz
  1  'x, y, z'
loop_
 _atom_site_type_symbol
 _atom_site_label
 _atom_site_symmetry_multiplicity
 _atom_site_fract_x
 _atom_site_fract_y
 _atom_site_fract_z
 _atom_site_occupancy
  La  La0  1  0.125000  0.125000  0.125000  1
  Tm  Tm1  1  0.625000  0.125000  0.125000  1
  Tm  Tm2  1  0.125000  0.625000  0.125000  1
  Tm  Tm3  1  0.125000  0.125000  0.625000  1
  Rh  Rh4  1  0.625000  0.625000  0.125000  1
  Rh  Rh5  1  0.625000  0.625000  0.625000  1
  Rh  Rh6  1  0.625000  0.125000  0.625000  1
  Rh  Rh7  1  0.125000  0.625000  0.625000  1
  O  O8  1  0.697623  0.288797  0.288797  1
  O  O9  1  0.712408  0.712408  0.288529  1
  O  O10  1  0.288797  0.697623  0.288797  1
  O  O11  1  0.994994  0.994994  0.994994  1
  O  O12  1  0.712408  0.288529  0.712408  1
  O  O13  1  0.961471  0.537592  0.537592  1
  O  O14  1  0.288529  0.712408  0.712408  1
  O  O15  1  0.537592  0.961471  0.537592  1
  O  O16  1  0.255006  0.255006  0.255006  1
  O  O17  1  0.961203  0.552377  0.961203  1
  O  O18  1  0.537592  0.537592  0.961471  1
  O  O19  1  0.961203  0.961203  0.552377  1
  O  O20  1  0.552377  0.961203  0.961203  1
  O  O21  1  0.288797  0.288797  0.697623  1
