# generated using pymatgen
data_LiY2MgPt2
_symmetry_space_group_name_H-M   'P 1'
_cell_length_a   4.09735400
_cell_length_b   7.05698900
_cell_length_c   8.64874100
_cell_angle_alpha   90.00000000
_cell_angle_beta   90.00000000
_cell_angle_gamma   90.00000000
_symmetry_Int_Tables_number   1
_chemical_formula_structural   LiY2MgPt2
_chemical_formula_sum   'Li2 Y4 Mg2 Pt4'
_cell_volume   250.07819126
_cell_formula_units_Z   2
loop_
 _symmetry_equiv_pos_site_id
 _symmetry_equiv_pos_as_xyz
  1  'x, y, z'
loop_
 _atom_site_type_symbol
 _atom_site_label
 _atom_site_symmetry_multiplicity
 _atom_site_fract_x
 _atom_site_fract_y
 _atom_site_fract_z
 _atom_site_occupancy
  Li  Li0  1  0.250000  0.133094  0.940242  1
  Li  Li1  1  0.250000  0.633094  0.559758  1
  Y  Y2  1  0.250000  0.042289  0.323792  1
  Y  Y3  1  0.250000  0.542289  0.176208  1
  Y  Y4  1  0.750000  0.952841  0.678630  1
  Y  Y5  1  0.750000  0.452841  0.821370  1
  Mg  Mg6  1  0.750000  0.873829  0.056523  1
  Mg  Mg7  1  0.750000  0.373829  0.443477  1
  Pt  Pt8  1  0.250000  0.245074  0.624116  1
  Pt  Pt9  1  0.250000  0.745074  0.875884  1
  Pt  Pt10  1  0.750000  0.752871  0.371798  1
  Pt  Pt11  1  0.750000  0.252871  0.128202  1
