# generated using pymatgen
data_Tm2Th(Ni3As2)3
_symmetry_space_group_name_H-M   'P 1'
_cell_length_a   3.94635600
_cell_length_b   10.83879500
_cell_length_c   12.80028500
_cell_angle_alpha   90.00000000
_cell_angle_beta   90.00000000
_cell_angle_gamma   90.00000000
_symmetry_Int_Tables_number   1
_chemical_formula_structural   Tm2Th(Ni3As2)3
_chemical_formula_sum   'Tm4 Th2 Ni18 As12'
_cell_volume   547.51610963
_cell_formula_units_Z   2
loop_
 _symmetry_equiv_pos_site_id
 _symmetry_equiv_pos_as_xyz
  1  'x, y, z'
loop_
 _atom_site_type_symbol
 _atom_site_label
 _atom_site_symmetry_multiplicity
 _atom_site_fract_x
 _atom_site_fract_y
 _atom_site_fract_z
 _atom_site_occupancy
  Tm  Tm0  1  0.500000  0.814789  0.205395  1
  Tm  Tm1  1  0.500000  0.185211  0.205395  1
  Tm  Tm2  1  0.000000  0.685211  0.794605  1
  Tm  Tm3  1  0.000000  0.314789  0.794605  1
  Th  Th4  1  0.000000  0.500000  0.523336  1
  Th  Th5  1  0.500000  0.000000  0.476664  1
  Ni  Ni6  1  0.500000  0.500000  0.150887  1
  Ni  Ni7  1  0.000000  0.000000  0.849113  1
  Ni  Ni8  1  0.500000  0.500000  0.698258  1
  Ni  Ni9  1  0.000000  0.000000  0.301742  1
  Ni  Ni10  1  0.000000  0.500000  0.979136  1
  Ni  Ni11  1  0.500000  0.000000  0.020864  1
  Ni  Ni12  1  0.500000  0.332875  0.996015  1
  Ni  Ni13  1  0.500000  0.667125  0.996015  1
  Ni  Ni14  1  0.000000  0.167125  0.003985  1
  Ni  Ni15  1  0.000000  0.832875  0.003985  1
  Ni  Ni16  1  0.500000  0.302392  0.428037  1
  Ni  Ni17  1  0.500000  0.697608  0.428037  1
  Ni  Ni18  1  0.000000  0.197608  0.571963  1
  Ni  Ni19  1  0.000000  0.802392  0.571963  1
  Ni  Ni20  1  0.500000  0.880873  0.712191  1
  Ni  Ni21  1  0.500000  0.119127  0.712191  1
  Ni  Ni22  1  0.000000  0.619127  0.287809  1
  Ni  Ni23  1  0.000000  0.380873  0.287809  1
  As  As24  1  0.500000  0.500000  0.875070  1
  As  As25  1  0.000000  0.000000  0.124930  1
  As  As26  1  0.500000  0.500000  0.338092  1
  As  As27  1  0.000000  0.000000  0.661908  1
  As  As28  1  0.500000  0.308206  0.617144  1
  As  As29  1  0.500000  0.691794  0.617144  1
  As  As30  1  0.000000  0.191794  0.382856  1
  As  As31  1  0.000000  0.808206  0.382856  1
  As  As32  1  0.500000  0.847695  0.892691  1
  As  As33  1  0.500000  0.152305  0.892691  1
  As  As34  1  0.000000  0.652305  0.107309  1
  As  As35  1  0.000000  0.347695  0.107309  1
