# generated using pymatgen
data_Tb3ErPd4F28
_symmetry_space_group_name_H-M   'P 1'
_cell_length_a   5.52348298
_cell_length_b   8.85151074
_cell_length_c   11.94697907
_cell_angle_alpha   62.46994261
_cell_angle_beta   89.95557582
_cell_angle_gamma   89.99278806
_symmetry_Int_Tables_number   1
_chemical_formula_structural   Tb3ErPd4F28
_chemical_formula_sum   'Tb3 Er1 Pd4 F28'
_cell_volume   517.96286562
_cell_formula_units_Z   1
loop_
 _symmetry_equiv_pos_site_id
 _symmetry_equiv_pos_as_xyz
  1  'x, y, z'
loop_
 _atom_site_type_symbol
 _atom_site_label
 _atom_site_symmetry_multiplicity
 _atom_site_fract_x
 _atom_site_fract_y
 _atom_site_fract_z
 _atom_site_occupancy
  Tb  Tb0  1  0.761575  0.812345  0.764592  1
  Tb  Tb1  1  0.261452  0.187459  0.735300  1
  Tb  Tb2  1  0.238821  0.185813  0.235464  1
  Er  Er3  1  0.737978  0.812723  0.264410  1
  Pd  Pd4  1  0.757805  0.271105  0.957876  1
  Pd  Pd5  1  0.258636  0.728190  0.541391  1
  Pd  Pd6  1  0.240779  0.728215  0.044140  1
  Pd  Pd7  1  0.741751  0.273616  0.456549  1
  F  F8  1  0.434321  0.702742  0.917758  1
  F  F9  1  0.933408  0.298122  0.583731  1
  F  F10  1  0.566032  0.297008  0.084540  1
  F  F11  1  0.064715  0.702425  0.415315  1
  F  F12  1  0.440435  0.279452  0.539974  1
  F  F13  1  0.941321  0.721395  0.959898  1
  F  F14  1  0.560256  0.722603  0.457220  1
  F  F15  1  0.059196  0.277652  0.040884  1
  F  F16  1  0.775013  0.518657  0.859730  1
  F  F17  1  0.276482  0.481015  0.639755  1
  F  F18  1  0.224157  0.480667  0.141468  1
  F  F19  1  0.725305  0.521680  0.358621  1
  F  F20  1  0.753129  0.023734  0.049794  1
  F  F21  1  0.252978  0.975352  0.450567  1
  F  F22  1  0.245678  0.975283  0.951917  1
  F  F23  1  0.746275  0.026451  0.548152  1
  F  F24  1  0.966259  0.723699  0.633893  1
  F  F25  1  0.464594  0.275967  0.866072  1
  F  F26  1  0.034655  0.276396  0.365032  1
  F  F27  1  0.532912  0.724756  0.136861  1
  F  F28  1  0.051169  0.746010  0.175832  1
  F  F29  1  0.555901  0.255935  0.324254  1
  F  F30  1  0.943631  0.254382  0.825122  1
  F  F31  1  0.445581  0.745329  0.673838  1
  F  F32  1  0.416430  0.966970  0.232409  1
  F  F33  1  0.911966  0.027164  0.267781  1
  F  F34  1  0.589585  0.031758  0.768307  1
  F  F35  1  0.089818  0.967927  0.731554  1
