# generated using pymatgen
data_K2LiGaBi2
_symmetry_space_group_name_H-M   'P 1'
_cell_length_a   10.87415656
_cell_length_b   10.87415571
_cell_length_c   6.80055700
_cell_angle_alpha   90.00000000
_cell_angle_beta   90.00000000
_cell_angle_gamma   100.89770957
_symmetry_Int_Tables_number   1
_chemical_formula_structural   K2LiGaBi2
_chemical_formula_sum   'K8 Li4 Ga4 Bi8'
_cell_volume   789.64553623
_cell_formula_units_Z   4
loop_
 _symmetry_equiv_pos_site_id
 _symmetry_equiv_pos_as_xyz
  1  'x, y, z'
loop_
 _atom_site_type_symbol
 _atom_site_label
 _atom_site_symmetry_multiplicity
 _atom_site_fract_x
 _atom_site_fract_y
 _atom_site_fract_z
 _atom_site_occupancy
  K  K0  1  0.079748  0.420252  0.750000  1
  K  K1  1  0.669003  0.330997  0.778717  1
  K  K2  1  0.330997  0.669003  0.221283  1
  K  K3  1  0.579748  0.920252  0.750000  1
  K  K4  1  0.420252  0.079748  0.250000  1
  K  K5  1  0.920252  0.579748  0.250000  1
  K  K6  1  0.830997  0.169003  0.278717  1
  K  K7  1  0.169003  0.830997  0.721283  1
  Li  Li8  1  0.119571  0.119571  0.500000  1
  Li  Li9  1  0.880429  0.880429  0.500000  1
  Li  Li10  1  0.380429  0.380429  0.000000  1
  Li  Li11  1  0.619571  0.619571  0.000000  1
  Ga  Ga12  1  0.867845  0.867845  0.000000  1
  Ga  Ga13  1  0.367845  0.367845  0.500000  1
  Ga  Ga14  1  0.632155  0.632155  0.500000  1
  Ga  Ga15  1  0.132155  0.132155  0.000000  1
  Bi  Bi16  1  0.849234  0.650766  0.750000  1
  Bi  Bi17  1  0.097763  0.902237  0.217001  1
  Bi  Bi18  1  0.402237  0.597763  0.717001  1
  Bi  Bi19  1  0.597763  0.402237  0.282999  1
  Bi  Bi20  1  0.650766  0.849234  0.250000  1
  Bi  Bi21  1  0.150766  0.349234  0.250000  1
  Bi  Bi22  1  0.349234  0.150766  0.750000  1
  Bi  Bi23  1  0.902237  0.097763  0.782999  1
