# generated using pymatgen
data_CsYSc(H6Ir)2
_symmetry_space_group_name_H-M   'P 1'
_cell_length_a   4.90641700
_cell_length_b   4.90641832
_cell_length_c   9.71631900
_cell_angle_alpha   90.00000000
_cell_angle_beta   90.00000000
_cell_angle_gamma   119.99999784
_symmetry_Int_Tables_number   1
_chemical_formula_structural   CsYSc(H6Ir)2
_chemical_formula_sum   'Cs1 Y1 Sc1 H12 Ir2'
_cell_volume   202.56361355
_cell_formula_units_Z   1
loop_
 _symmetry_equiv_pos_site_id
 _symmetry_equiv_pos_as_xyz
  1  'x, y, z'
loop_
 _atom_site_type_symbol
 _atom_site_label
 _atom_site_symmetry_multiplicity
 _atom_site_fract_x
 _atom_site_fract_y
 _atom_site_fract_z
 _atom_site_occupancy
  Cs  Cs0  1  0.000000  0.000000  0.003380  1
  Y  Y1  1  0.333333  0.666667  0.614985  1
  Sc  Sc2  1  0.666667  0.333333  0.375614  1
  H  H3  1  0.163664  0.836336  0.400400  1
  H  H4  1  0.672671  0.836336  0.400400  1
  H  H5  1  0.163664  0.327329  0.400400  1
  H  H6  1  0.832487  0.167513  0.594548  1
  H  H7  1  0.335026  0.167513  0.594548  1
  H  H8  1  0.832487  0.664974  0.594548  1
  H  H9  1  0.510667  0.021334  0.798660  1
  H  H10  1  0.510667  0.489333  0.798660  1
  H  H11  1  0.978666  0.489333  0.798660  1
  H  H12  1  0.496684  0.993366  0.208024  1
  H  H13  1  0.496684  0.503316  0.208024  1
  H  H14  1  0.006634  0.503316  0.208024  1
  Ir  Ir15  1  0.666667  0.333333  0.692112  1
  Ir  Ir16  1  0.333333  0.666667  0.309009  1
