# generated using pymatgen
data_Nd3Dy2P12Ir11Ru8
_symmetry_space_group_name_H-M   'P 1'
_cell_length_a   12.68916143
_cell_length_b   12.65867552
_cell_length_c   4.00254200
_cell_angle_alpha   90.00000000
_cell_angle_beta   90.00000000
_cell_angle_gamma   120.01458890
_symmetry_Int_Tables_number   1
_chemical_formula_structural   Nd3Dy2P12Ir11Ru8
_chemical_formula_sum   'Nd3 Dy2 P12 Ir11 Ru8'
_cell_volume   556.70337796
_cell_formula_units_Z   1
loop_
 _symmetry_equiv_pos_site_id
 _symmetry_equiv_pos_as_xyz
  1  'x, y, z'
loop_
 _atom_site_type_symbol
 _atom_site_label
 _atom_site_symmetry_multiplicity
 _atom_site_fract_x
 _atom_site_fract_y
 _atom_site_fract_z
 _atom_site_occupancy
  Nd  Nd0  1  0.812673  0.000901  0.500000  1
  Nd  Nd1  1  0.184830  0.186411  0.500000  1
  Nd  Nd2  1  0.999143  0.813454  0.500000  1
  Dy  Dy3  1  0.667008  0.331366  0.000000  1
  Dy  Dy4  1  0.334597  0.669076  0.000000  1
  P  P5  1  0.631534  0.998670  0.000000  1
  P  P6  1  0.365391  0.365648  0.000000  1
  P  P7  1  0.000504  0.633993  0.000000  1
  P  P8  1  0.689490  0.516910  0.500000  1
  P  P9  1  0.828590  0.306926  0.500000  1
  P  P10  1  0.316522  0.832973  0.500000  1
  P  P11  1  0.518475  0.692034  0.500000  1
  P  P12  1  0.181322  0.000056  0.000000  1
  P  P13  1  0.816587  0.816750  0.000000  1
  P  P14  1  0.997093  0.183839  0.000000  1
  P  P15  1  0.480590  0.168699  0.500000  1
  P  P16  1  0.171880  0.483041  0.500000  1
  Ir  Ir17  1  0.620792  0.800144  0.000000  1
  Ir  Ir18  1  0.183366  0.380523  0.000000  1
  Ir  Ir19  1  0.377915  0.181484  0.000000  1
  Ir  Ir20  1  0.195474  0.818629  0.000000  1
  Ir  Ir21  1  0.802397  0.619410  0.000000  1
  Ir  Ir22  1  0.870411  0.506080  0.500000  1
  Ir  Ir23  1  0.492853  0.361163  0.500000  1
  Ir  Ir24  1  0.636218  0.129538  0.500000  1
  Ir  Ir25  1  0.132874  0.640245  0.500000  1
  Ir  Ir26  1  0.363685  0.493111  0.500000  1
  Ir  Ir27  1  0.998823  0.000258  0.000000  1
  Ru  Ru28  1  0.510684  0.871840  0.500000  1
  Ru  Ru29  1  0.709433  0.707926  0.500000  1
  Ru  Ru30  1  0.002383  0.291957  0.500000  1
  Ru  Ru31  1  0.450087  0.998806  0.000000  1
  Ru  Ru32  1  0.547229  0.544867  0.000000  1
  Ru  Ru33  1  0.002299  0.454680  0.000000  1
  Ru  Ru34  1  0.818212  0.198773  0.000000  1
  Ru  Ru35  1  0.288636  0.999814  0.500000  1
