# generated using pymatgen
data_Y3HoScSi3H
_symmetry_space_group_name_H-M   'P 1'
_cell_length_a   8.38137500
_cell_length_b   8.38137467
_cell_length_c   6.11789200
_cell_angle_alpha   90.00000000
_cell_angle_beta   90.00000000
_cell_angle_gamma   120.00000525
_symmetry_Int_Tables_number   1
_chemical_formula_structural   Y3HoScSi3H
_chemical_formula_sum   'Y6 Ho2 Sc2 Si6 H2'
_cell_volume   372.18849345
_cell_formula_units_Z   2
loop_
 _symmetry_equiv_pos_site_id
 _symmetry_equiv_pos_as_xyz
  1  'x, y, z'
loop_
 _atom_site_type_symbol
 _atom_site_label
 _atom_site_symmetry_multiplicity
 _atom_site_fract_x
 _atom_site_fract_y
 _atom_site_fract_z
 _atom_site_occupancy
  Y  Y0  1  0.748211  0.748211  0.754523  1
  Y  Y1  1  0.251789  0.000000  0.754523  1
  Y  Y2  1  0.000000  0.251789  0.754523  1
  Y  Y3  1  0.251789  0.251789  0.245477  1
  Y  Y4  1  0.748211  0.000000  0.245477  1
  Y  Y5  1  0.000000  0.748211  0.245477  1
  Ho  Ho6  1  0.333333  0.666667  0.500000  1
  Ho  Ho7  1  0.666667  0.333333  0.500000  1
  Sc  Sc8  1  0.666667  0.333333  0.000000  1
  Sc  Sc9  1  0.333333  0.666667  0.000000  1
  Si  Si10  1  0.392195  0.392195  0.763957  1
  Si  Si11  1  0.607805  0.000000  0.763957  1
  Si  Si12  1  0.000000  0.607805  0.763957  1
  Si  Si13  1  0.607805  0.607805  0.236043  1
  Si  Si14  1  0.392195  0.000000  0.236043  1
  Si  Si15  1  0.000000  0.392195  0.236043  1
  H  H16  1  0.000000  0.000000  0.500000  1
  H  H17  1  0.000000  0.000000  0.000000  1
