# generated using pymatgen
data_Ho3Sc2TlSb2
_symmetry_space_group_name_H-M   'P 1'
_cell_length_a   8.76029200
_cell_length_b   8.76404322
_cell_length_c   6.20162400
_cell_angle_alpha   90.00000000
_cell_angle_beta   90.00000000
_cell_angle_gamma   120.01415827
_symmetry_Int_Tables_number   1
_chemical_formula_structural   Ho3Sc2TlSb2
_chemical_formula_sum   'Ho6 Sc4 Tl2 Sb4'
_cell_volume   412.28466238
_cell_formula_units_Z   2
loop_
 _symmetry_equiv_pos_site_id
 _symmetry_equiv_pos_as_xyz
  1  'x, y, z'
loop_
 _atom_site_type_symbol
 _atom_site_label
 _atom_site_symmetry_multiplicity
 _atom_site_fract_x
 _atom_site_fract_y
 _atom_site_fract_z
 _atom_site_occupancy
  Ho  Ho0  1  0.756660  0.997789  0.750000  1
  Ho  Ho1  1  0.756660  0.758871  0.250000  1
  Ho  Ho2  1  0.001929  0.243973  0.250000  1
  Ho  Ho3  1  0.001929  0.757957  0.750000  1
  Ho  Ho4  1  0.241750  0.237782  0.750000  1
  Ho  Ho5  1  0.241750  0.003967  0.250000  1
  Sc  Sc6  1  0.334287  0.667144  0.000000  1
  Sc  Sc7  1  0.664423  0.332211  0.500000  1
  Sc  Sc8  1  0.664423  0.332211  0.000000  1
  Sc  Sc9  1  0.334287  0.667144  0.500000  1
  Tl  Tl10  1  0.398371  0.998092  0.750000  1
  Tl  Tl11  1  0.398371  0.400279  0.250000  1
  Sb  Sb12  1  0.999778  0.605037  0.250000  1
  Sb  Sb13  1  0.999778  0.394741  0.750000  1
  Sb  Sb14  1  0.602801  0.602257  0.750000  1
  Sb  Sb15  1  0.602801  0.000544  0.250000  1
