# generated using pymatgen
data_LuSc4BRh7Au8
_symmetry_space_group_name_H-M   'P 1'
_cell_length_a   4.08254600
_cell_length_b   4.08254600
_cell_length_c   20.91397900
_cell_angle_alpha   90.00000000
_cell_angle_beta   90.00000000
_cell_angle_gamma   90.00000000
_symmetry_Int_Tables_number   1
_chemical_formula_structural   LuSc4BRh7Au8
_chemical_formula_sum   'Lu1 Sc4 B1 Rh7 Au8'
_cell_volume   348.57709104
_cell_formula_units_Z   1
loop_
 _symmetry_equiv_pos_site_id
 _symmetry_equiv_pos_as_xyz
  1  'x, y, z'
loop_
 _atom_site_type_symbol
 _atom_site_label
 _atom_site_symmetry_multiplicity
 _atom_site_fract_x
 _atom_site_fract_y
 _atom_site_fract_z
 _atom_site_occupancy
  Lu  Lu0  1  0.000000  0.000000  0.907508  1
  Sc  Sc1  1  0.000000  0.000000  0.094930  1
  Sc  Sc2  1  0.000000  0.000000  0.297692  1
  Sc  Sc3  1  0.000000  0.000000  0.499282  1
  Sc  Sc4  1  0.000000  0.000000  0.700713  1
  B  B5  1  0.500000  0.500000  0.997294  1
  Rh  Rh6  1  0.500000  0.500000  0.898055  1
  Rh  Rh7  1  0.500000  0.500000  0.101189  1
  Rh  Rh8  1  0.500000  0.500000  0.299550  1
  Rh  Rh9  1  0.500000  0.500000  0.499260  1
  Rh  Rh10  1  0.500000  0.500000  0.699670  1
  Rh  Rh11  1  0.500000  0.000000  0.005072  1
  Rh  Rh12  1  0.000000  0.500000  0.005072  1
  Au  Au13  1  0.500000  0.000000  0.199238  1
  Au  Au14  1  0.500000  0.000000  0.399031  1
  Au  Au15  1  0.500000  0.000000  0.599687  1
  Au  Au16  1  0.500000  0.000000  0.799400  1
  Au  Au17  1  0.000000  0.500000  0.199238  1
  Au  Au18  1  0.000000  0.500000  0.399031  1
  Au  Au19  1  0.000000  0.500000  0.599687  1
  Au  Au20  1  0.000000  0.500000  0.799400  1
