# generated using pymatgen
data_Nd8Ta11Si16W
_symmetry_space_group_name_H-M   'P 1'
_cell_length_a   7.15335635
_cell_length_b   7.15365797
_cell_length_c   13.28082200
_cell_angle_alpha   89.93176076
_cell_angle_beta   89.89794117
_cell_angle_gamma   90.02858373
_symmetry_Int_Tables_number   1
_chemical_formula_structural   Nd8Ta11Si16W
_chemical_formula_sum   'Nd8 Ta11 Si16 W1'
_cell_volume   679.61340520
_cell_formula_units_Z   1
loop_
 _symmetry_equiv_pos_site_id
 _symmetry_equiv_pos_as_xyz
  1  'x, y, z'
loop_
 _atom_site_type_symbol
 _atom_site_label
 _atom_site_symmetry_multiplicity
 _atom_site_fract_x
 _atom_site_fract_y
 _atom_site_fract_z
 _atom_site_occupancy
  Nd  Nd0  1  0.996391  0.338409  0.219457  1
  Nd  Nd1  1  0.004595  0.662117  0.717192  1
  Nd  Nd2  1  0.161244  0.496354  0.467708  1
  Nd  Nd3  1  0.503047  0.839074  0.032720  1
  Nd  Nd4  1  0.838054  0.504606  0.968244  1
  Nd  Nd5  1  0.496044  0.160789  0.530850  1
  Nd  Nd6  1  0.338421  0.996468  0.781446  1
  Nd  Nd7  1  0.661789  0.003640  0.282157  1
  Ta  Ta8  1  0.170344  0.170454  0.000804  1
  Ta  Ta9  1  0.830896  0.830602  0.499471  1
  Ta  Ta10  1  0.328761  0.670372  0.250711  1
  Ta  Ta11  1  0.670525  0.329603  0.750248  1
  Ta  Ta12  1  0.842764  0.010318  0.874826  1
  Ta  Ta13  1  0.508525  0.658207  0.624173  1
  Ta  Ta14  1  0.342905  0.490226  0.874467  1
  Ta  Ta15  1  0.488309  0.341328  0.125892  1
  Ta  Ta16  1  0.656736  0.509894  0.374877  1
  Ta  Ta17  1  0.990969  0.157335  0.624647  1
  Ta  Ta18  1  0.008804  0.843956  0.124418  1
  Si  Si19  1  0.290029  0.041301  0.188579  1
  Si  Si20  1  0.709359  0.957084  0.685805  1
  Si  Si21  1  0.454931  0.791195  0.435602  1
  Si  Si22  1  0.208775  0.543260  0.064178  1
  Si  Si23  1  0.542480  0.208644  0.936558  1
  Si  Si24  1  0.790287  0.456438  0.563456  1
  Si  Si25  1  0.043107  0.291916  0.813881  1
  Si  Si26  1  0.959156  0.712266  0.313773  1
  Si  Si27  1  0.371422  0.295415  0.315932  1
  Si  Si28  1  0.628508  0.701881  0.814019  1
  Si  Si29  1  0.200979  0.872631  0.562691  1
  Si  Si30  1  0.128655  0.799164  0.935729  1
  Si  Si31  1  0.798581  0.129045  0.064951  1
  Si  Si32  1  0.875407  0.198436  0.434827  1
  Si  Si33  1  0.299670  0.371428  0.684679  1
  Si  Si34  1  0.701605  0.627488  0.185931  1
  W  W35  1  0.157927  0.988664  0.375102  1
