# generated using pymatgen
data_Dy3AgHg4Ir
_symmetry_space_group_name_H-M   'P 1'
_cell_length_a   8.02448500
_cell_length_b   8.02448587
_cell_length_c   3.81929800
_cell_angle_alpha   90.00000000
_cell_angle_beta   90.00000000
_cell_angle_gamma   120.00000878
_symmetry_Int_Tables_number   1
_chemical_formula_structural   Dy3AgHg4Ir
_chemical_formula_sum   'Dy3 Ag1 Hg4 Ir1'
_cell_volume   212.98475805
_cell_formula_units_Z   1
loop_
 _symmetry_equiv_pos_site_id
 _symmetry_equiv_pos_as_xyz
  1  'x, y, z'
loop_
 _atom_site_type_symbol
 _atom_site_label
 _atom_site_symmetry_multiplicity
 _atom_site_fract_x
 _atom_site_fract_y
 _atom_site_fract_z
 _atom_site_occupancy
  Dy  Dy0  1  0.047839  0.291888  0.500000  1
  Dy  Dy1  1  0.708112  0.755950  0.500000  1
  Dy  Dy2  1  0.244050  0.952161  0.500000  1
  Ag  Ag3  1  0.666667  0.333333  0.500000  1
  Hg  Hg4  1  0.665296  0.061396  0.000000  1
  Hg  Hg5  1  0.938604  0.603901  0.000000  1
  Hg  Hg6  1  0.396099  0.334704  0.000000  1
  Hg  Hg7  1  0.333333  0.666667  0.000000  1
  Ir  Ir8  1  0.000000  0.000000  0.000000  1
