# generated using pymatgen
data_TbLu(NbS2)8
_symmetry_space_group_name_H-M   'P 1'
_cell_length_a   6.66855300
_cell_length_b   6.66855435
_cell_length_c   13.45023000
_cell_angle_alpha   90.00000000
_cell_angle_beta   90.00000000
_cell_angle_gamma   120.00000817
_symmetry_Int_Tables_number   1
_chemical_formula_structural   TbLu(NbS2)8
_chemical_formula_sum   'Tb1 Lu1 Nb8 S16'
_cell_volume   517.99266411
_cell_formula_units_Z   1
loop_
 _symmetry_equiv_pos_site_id
 _symmetry_equiv_pos_as_xyz
  1  'x, y, z'
loop_
 _atom_site_type_symbol
 _atom_site_label
 _atom_site_symmetry_multiplicity
 _atom_site_fract_x
 _atom_site_fract_y
 _atom_site_fract_z
 _atom_site_occupancy
  Tb  Tb0  1  0.000000  0.000000  0.000000  1
  Lu  Lu1  1  0.000000  0.000000  0.500000  1
  Nb  Nb2  1  0.000000  0.000000  0.252874  1
  Nb  Nb3  1  0.000000  0.000000  0.747126  1
  Nb  Nb4  1  0.504868  0.009737  0.253771  1
  Nb  Nb5  1  0.495132  0.990263  0.746229  1
  Nb  Nb6  1  0.990263  0.495132  0.253771  1
  Nb  Nb7  1  0.009737  0.504868  0.746229  1
  Nb  Nb8  1  0.504868  0.495132  0.253771  1
  Nb  Nb9  1  0.495132  0.504868  0.746229  1
  S  S10  1  0.333333  0.666667  0.626530  1
  S  S11  1  0.666667  0.333333  0.373470  1
  S  S12  1  0.666667  0.333333  0.133807  1
  S  S13  1  0.333333  0.666667  0.866193  1
  S  S14  1  0.170042  0.340083  0.136974  1
  S  S15  1  0.829958  0.659917  0.863026  1
  S  S16  1  0.659917  0.829958  0.136974  1
  S  S17  1  0.830840  0.661680  0.630009  1
  S  S18  1  0.340083  0.170042  0.863026  1
  S  S19  1  0.169160  0.338320  0.369991  1
  S  S20  1  0.170042  0.829958  0.136974  1
  S  S21  1  0.338320  0.169160  0.630009  1
  S  S22  1  0.829958  0.170042  0.863026  1
  S  S23  1  0.661680  0.830840  0.369991  1
  S  S24  1  0.830840  0.169160  0.630009  1
  S  S25  1  0.169160  0.830840  0.369991  1
