# generated using pymatgen
data_Rb2LiRh3F12
_symmetry_space_group_name_H-M   'P 1'
_cell_length_a   7.45574877
_cell_length_b   7.45574875
_cell_length_c   7.45574921
_cell_angle_alpha   58.96719114
_cell_angle_beta   58.96718815
_cell_angle_gamma   58.96718497
_symmetry_Int_Tables_number   1
_chemical_formula_structural   Rb2LiRh3F12
_chemical_formula_sum   'Rb2 Li1 Rh3 F12'
_cell_volume   286.15600161
_cell_formula_units_Z   1
loop_
 _symmetry_equiv_pos_site_id
 _symmetry_equiv_pos_as_xyz
  1  'x, y, z'
loop_
 _atom_site_type_symbol
 _atom_site_label
 _atom_site_symmetry_multiplicity
 _atom_site_fract_x
 _atom_site_fract_y
 _atom_site_fract_z
 _atom_site_occupancy
  Rb  Rb0  1  0.361294  0.361294  0.361294  1
  Rb  Rb1  1  0.638706  0.638706  0.638706  1
  Li  Li2  1  0.000000  0.000000  0.000000  1
  Rh  Rh3  1  0.500000  0.000000  0.000000  1
  Rh  Rh4  1  0.000000  0.000000  0.500000  1
  Rh  Rh5  1  0.000000  0.500000  0.000000  1
  F  F6  1  0.917471  0.329805  0.329805  1
  F  F7  1  0.335047  0.922580  0.922580  1
  F  F8  1  0.329805  0.329805  0.917471  1
  F  F9  1  0.922580  0.922580  0.335047  1
  F  F10  1  0.922580  0.335047  0.922580  1
  F  F11  1  0.329805  0.917471  0.329805  1
  F  F12  1  0.082529  0.670195  0.670195  1
  F  F13  1  0.664953  0.077420  0.077420  1
  F  F14  1  0.670195  0.670195  0.082529  1
  F  F15  1  0.077420  0.077420  0.664953  1
  F  F16  1  0.077420  0.664953  0.077420  1
  F  F17  1  0.670195  0.082529  0.670195  1
