# generated using pymatgen
data_Nd8Sc12Si15Rh
_symmetry_space_group_name_H-M   'P 1'
_cell_length_a   7.24490334
_cell_length_b   7.49514691
_cell_length_c   14.21259722
_cell_angle_alpha   90.03299227
_cell_angle_beta   89.85948494
_cell_angle_gamma   90.28592947
_symmetry_Int_Tables_number   1
_chemical_formula_structural   Nd8Sc12Si15Rh
_chemical_formula_sum   'Nd8 Sc12 Si15 Rh1'
_cell_volume   771.75492692
_cell_formula_units_Z   1
loop_
 _symmetry_equiv_pos_site_id
 _symmetry_equiv_pos_as_xyz
  1  'x, y, z'
loop_
 _atom_site_type_symbol
 _atom_site_label
 _atom_site_symmetry_multiplicity
 _atom_site_fract_x
 _atom_site_fract_y
 _atom_site_fract_z
 _atom_site_occupancy
  Nd  Nd0  1  0.012460  0.172653  0.097282  1
  Nd  Nd1  1  0.987707  0.827284  0.902637  1
  Nd  Nd2  1  0.486296  0.674078  0.902538  1
  Nd  Nd3  1  0.989713  0.823131  0.595781  1
  Nd  Nd4  1  0.512813  0.327157  0.096327  1
  Nd  Nd5  1  0.011252  0.179119  0.404319  1
  Nd  Nd6  1  0.509190  0.326095  0.402291  1
  Nd  Nd7  1  0.484591  0.668119  0.598577  1
  Sc  Sc8  1  0.161977  0.497589  0.745707  1
  Sc  Sc9  1  0.838864  0.500659  0.251984  1
  Sc  Sc10  1  0.339618  0.996922  0.250323  1
  Sc  Sc11  1  0.662276  0.999927  0.749010  1
  Sc  Sc12  1  0.331963  0.184753  0.622445  1
  Sc  Sc13  1  0.668749  0.824404  0.373482  1
  Sc  Sc14  1  0.168725  0.666308  0.376656  1
  Sc  Sc15  1  0.671727  0.824938  0.126655  1
  Sc  Sc16  1  0.834827  0.328111  0.623311  1
  Sc  Sc17  1  0.328816  0.176306  0.875204  1
  Sc  Sc18  1  0.831481  0.322134  0.874991  1
  Sc  Sc19  1  0.169831  0.676590  0.125671  1
  Si  Si20  1  0.035334  0.121174  0.749768  1
  Si  Si21  1  0.968727  0.876990  0.251857  1
  Si  Si22  1  0.465443  0.621024  0.248580  1
  Si  Si23  1  0.539043  0.377622  0.752592  1
  Si  Si24  1  0.287285  0.885155  0.750069  1
  Si  Si25  1  0.711974  0.121317  0.249709  1
  Si  Si26  1  0.214088  0.378441  0.248573  1
  Si  Si27  1  0.785629  0.618645  0.751813  1
  Si  Si28  1  0.840143  0.540309  0.458680  1
  Si  Si29  1  0.349182  0.961377  0.460438  1
  Si  Si30  1  0.848708  0.537646  0.039263  1
  Si  Si31  1  0.651620  0.036098  0.539359  1
  Si  Si32  1  0.150577  0.463709  0.960817  1
  Si  Si33  1  0.652292  0.036122  0.960957  1
  Si  Si34  1  0.348574  0.963010  0.039623  1
  Rh  Rh35  1  0.148505  0.465085  0.542710  1
