# generated using pymatgen
data_Ac7NpO14
_symmetry_space_group_name_H-M   'P 1'
_cell_length_a   7.18947131
_cell_length_b   7.21108742
_cell_length_c   8.19706200
_cell_angle_alpha   107.10759417
_cell_angle_beta   87.99460086
_cell_angle_gamma   102.76285146
_symmetry_Int_Tables_number   1
_chemical_formula_structural   Ac7NpO14
_chemical_formula_sum   'Ac7 Np1 O14'
_cell_volume   395.92430323
_cell_formula_units_Z   1
loop_
 _symmetry_equiv_pos_site_id
 _symmetry_equiv_pos_as_xyz
  1  'x, y, z'
loop_
 _atom_site_type_symbol
 _atom_site_label
 _atom_site_symmetry_multiplicity
 _atom_site_fract_x
 _atom_site_fract_y
 _atom_site_fract_z
 _atom_site_occupancy
  Ac  Ac0  1  0.000000  0.000000  0.500000  1
  Ac  Ac1  1  0.466016  0.001316  0.262081  1
  Ac  Ac2  1  0.533984  0.998684  0.737919  1
  Ac  Ac3  1  0.278645  0.532985  0.874809  1
  Ac  Ac4  1  0.721355  0.467015  0.125191  1
  Ac  Ac5  1  0.747669  0.480557  0.607034  1
  Ac  Ac6  1  0.252331  0.519443  0.392966  1
  Np  Np7  1  0.000000  0.000000  0.000000  1
  O  O8  1  0.453158  0.642179  0.162981  1
  O  O9  1  0.546842  0.357821  0.837019  1
  O  O10  1  0.264427  0.932546  0.938066  1
  O  O11  1  0.735573  0.067454  0.061934  1
  O  O12  1  0.302527  0.901492  0.501440  1
  O  O13  1  0.697473  0.098508  0.498560  1
  O  O14  1  0.534226  0.358751  0.342363  1
  O  O15  1  0.465774  0.641249  0.657637  1
  O  O16  1  0.928523  0.716290  0.993817  1
  O  O17  1  0.071477  0.283710  0.006183  1
  O  O18  1  0.073478  0.376804  0.617798  1
  O  O19  1  0.926522  0.623196  0.382202  1
  O  O20  1  0.881870  0.905490  0.757204  1
  O  O21  1  0.118130  0.094510  0.242796  1
