# generated using pymatgen
data_Ho2ReB2Ru5
_symmetry_space_group_name_H-M   'P 1'
_cell_length_a   9.61061200
_cell_length_b   9.61061200
_cell_length_c   3.08875400
_cell_angle_alpha   90.00000000
_cell_angle_beta   90.00000000
_cell_angle_gamma   90.00000000
_symmetry_Int_Tables_number   1
_chemical_formula_structural   Ho2ReB2Ru5
_chemical_formula_sum   'Ho4 Re2 B4 Ru10'
_cell_volume   285.28925134
_cell_formula_units_Z   2
loop_
 _symmetry_equiv_pos_site_id
 _symmetry_equiv_pos_as_xyz
  1  'x, y, z'
loop_
 _atom_site_type_symbol
 _atom_site_label
 _atom_site_symmetry_multiplicity
 _atom_site_fract_x
 _atom_site_fract_y
 _atom_site_fract_z
 _atom_site_occupancy
  Ho  Ho0  1  0.675391  0.175391  0.000000  1
  Ho  Ho1  1  0.324609  0.824609  0.000000  1
  Ho  Ho2  1  0.175391  0.324609  0.000000  1
  Ho  Ho3  1  0.824609  0.675391  0.000000  1
  Re  Re4  1  0.000000  0.000000  0.000000  1
  Re  Re5  1  0.500000  0.500000  0.000000  1
  B  B6  1  0.120023  0.620023  0.000000  1
  B  B7  1  0.879977  0.379977  0.000000  1
  B  B8  1  0.620023  0.879977  0.000000  1
  B  B9  1  0.379977  0.120023  0.000000  1
  Ru  Ru10  1  0.216376  0.069785  0.500000  1
  Ru  Ru11  1  0.783624  0.930215  0.500000  1
  Ru  Ru12  1  0.069785  0.783624  0.500000  1
  Ru  Ru13  1  0.716376  0.430215  0.500000  1
  Ru  Ru14  1  0.930215  0.216376  0.500000  1
  Ru  Ru15  1  0.283624  0.569785  0.500000  1
  Ru  Ru16  1  0.569785  0.716376  0.500000  1
  Ru  Ru17  1  0.430215  0.283624  0.500000  1
  Ru  Ru18  1  0.500000  0.000000  0.500000  1
  Ru  Ru19  1  0.000000  0.500000  0.500000  1
