# generated using pymatgen
data_YPu3O12
_symmetry_space_group_name_H-M   'P 1'
_cell_length_a   6.98893037
_cell_length_b   7.09985225
_cell_length_c   6.97910300
_cell_angle_alpha   109.78355703
_cell_angle_beta   109.45790458
_cell_angle_gamma   109.72728257
_symmetry_Int_Tables_number   1
_chemical_formula_structural   YPu3O12
_chemical_formula_sum   'Y1 Pu3 O12'
_cell_volume   264.74243824
_cell_formula_units_Z   1
loop_
 _symmetry_equiv_pos_site_id
 _symmetry_equiv_pos_as_xyz
  1  'x, y, z'
loop_
 _atom_site_type_symbol
 _atom_site_label
 _atom_site_symmetry_multiplicity
 _atom_site_fract_x
 _atom_site_fract_y
 _atom_site_fract_z
 _atom_site_occupancy
  Y  Y0  1  0.499935  0.996503  0.996583  1
  Pu  Pu1  1  0.500033  0.496617  0.496573  1
  Pu  Pu2  1  0.999930  0.496576  0.996647  1
  Pu  Pu3  1  0.000030  0.996666  0.496618  1
  O  O4  1  0.232578  0.400339  0.215392  1
  O  O5  1  0.767548  0.592918  0.777805  1
  O  O6  1  0.183543  0.998039  0.766391  1
  O  O7  1  0.816518  0.995275  0.226831  1
  O  O8  1  0.280193  0.196118  0.522700  1
  O  O9  1  0.719857  0.797179  0.470502  1
  O  O10  1  0.730407  0.240463  0.925251  1
  O  O11  1  0.269419  0.752645  0.067971  1
  O  O12  1  0.006519  0.683199  0.269683  1
  O  O13  1  0.993357  0.309951  0.723597  1
  O  O14  1  0.577091  0.302444  0.315631  1
  O  O15  1  0.423041  0.690792  0.677545  1
