# generated using pymatgen
data_Li6Nb6Ir11Ru
_symmetry_space_group_name_H-M   'P 1'
_cell_length_a   4.37596202
_cell_length_b   6.14754202
_cell_length_c   13.10060903
_cell_angle_alpha   90.00005393
_cell_angle_beta   89.99256401
_cell_angle_gamma   89.99151158
_symmetry_Int_Tables_number   1
_chemical_formula_structural   Li6Nb6Ir11Ru
_chemical_formula_sum   'Li6 Nb6 Ir11 Ru1'
_cell_volume   352.42485297
_cell_formula_units_Z   1
loop_
 _symmetry_equiv_pos_site_id
 _symmetry_equiv_pos_as_xyz
  1  'x, y, z'
loop_
 _atom_site_type_symbol
 _atom_site_label
 _atom_site_symmetry_multiplicity
 _atom_site_fract_x
 _atom_site_fract_y
 _atom_site_fract_z
 _atom_site_occupancy
  Li  Li0  1  0.999992  0.500455  0.000001  1
  Li  Li1  1  0.499844  0.999779  0.166430  1
  Li  Li2  1  0.999880  0.500130  0.333236  1
  Li  Li3  1  0.499998  0.999838  0.500000  1
  Li  Li4  1  0.000141  0.500133  0.666763  1
  Li  Li5  1  0.500132  0.999781  0.833569  1
  Nb  Nb6  1  0.000020  0.004862  0.000000  1
  Nb  Nb7  1  0.499848  0.497662  0.164220  1
  Nb  Nb8  1  0.999899  0.999871  0.333033  1
  Nb  Nb9  1  0.500000  0.500129  0.500000  1
  Nb  Nb10  1  0.000161  0.999869  0.666967  1
  Nb  Nb11  1  0.500086  0.497659  0.835781  1
  Ir  Ir12  1  0.499918  0.752207  0.000000  1
  Ir  Ir13  1  0.999738  0.250580  0.166845  1
  Ir  Ir14  1  0.999921  0.749144  0.166913  1
  Ir  Ir15  1  0.499953  0.249409  0.333558  1
  Ir  Ir16  1  0.499816  0.750104  0.333303  1
  Ir  Ir17  1  0.999959  0.250908  0.500000  1
  Ir  Ir18  1  0.000022  0.748997  0.500000  1
  Ir  Ir19  1  0.500217  0.249408  0.666442  1
  Ir  Ir20  1  0.500078  0.750103  0.666698  1
  Ir  Ir21  1  0.999996  0.250582  0.833155  1
  Ir  Ir22  1  0.000181  0.749141  0.833087  1
  Ru  Ru23  1  0.500204  0.249254  0.000000  1
