# generated using pymatgen
data_Ta2NbP
_symmetry_space_group_name_H-M   'P 1'
_cell_length_a   10.25077800
_cell_length_b   10.25077800
_cell_length_c   5.04806600
_cell_angle_alpha   90.00000000
_cell_angle_beta   90.00000000
_cell_angle_gamma   90.00000000
_symmetry_Int_Tables_number   1
_chemical_formula_structural   Ta2NbP
_chemical_formula_sum   'Ta16 Nb8 P8'
_cell_volume   530.44294879
_cell_formula_units_Z   8
loop_
 _symmetry_equiv_pos_site_id
 _symmetry_equiv_pos_as_xyz
  1  'x, y, z'
loop_
 _atom_site_type_symbol
 _atom_site_label
 _atom_site_symmetry_multiplicity
 _atom_site_fract_x
 _atom_site_fract_y
 _atom_site_fract_z
 _atom_site_occupancy
  Ta  Ta0  1  0.907502  0.592498  0.500000  1
  Ta  Ta1  1  0.907502  0.407502  0.000000  1
  Ta  Ta2  1  0.592498  0.092498  0.500000  1
  Ta  Ta3  1  0.799649  0.299649  0.500000  1
  Ta  Ta4  1  0.092498  0.407502  0.500000  1
  Ta  Ta5  1  0.092498  0.592498  0.000000  1
  Ta  Ta6  1  0.200351  0.299649  0.000000  1
  Ta  Ta7  1  0.299649  0.799649  0.000000  1
  Ta  Ta8  1  0.299649  0.200351  0.500000  1
  Ta  Ta9  1  0.700351  0.200351  0.000000  1
  Ta  Ta10  1  0.592498  0.907502  0.000000  1
  Ta  Ta11  1  0.700351  0.799649  0.500000  1
  Ta  Ta12  1  0.200351  0.700351  0.500000  1
  Ta  Ta13  1  0.407502  0.092498  0.000000  1
  Ta  Ta14  1  0.407502  0.907502  0.500000  1
  Ta  Ta15  1  0.799649  0.700351  0.000000  1
  Nb  Nb16  1  0.500000  0.645868  0.250000  1
  Nb  Nb17  1  0.854132  0.000000  0.750000  1
  Nb  Nb18  1  0.645868  0.500000  0.750000  1
  Nb  Nb19  1  0.000000  0.854132  0.250000  1
  Nb  Nb20  1  0.354132  0.500000  0.750000  1
  Nb  Nb21  1  0.000000  0.145868  0.250000  1
  Nb  Nb22  1  0.500000  0.354132  0.250000  1
  Nb  Nb23  1  0.145868  0.000000  0.750000  1
  P  P24  1  0.000000  0.792195  0.750000  1
  P  P25  1  0.500000  0.292195  0.750000  1
  P  P26  1  0.207805  0.000000  0.250000  1
  P  P27  1  0.792195  0.000000  0.250000  1
  P  P28  1  0.000000  0.207805  0.750000  1
  P  P29  1  0.707805  0.500000  0.250000  1
  P  P30  1  0.292195  0.500000  0.250000  1
  P  P31  1  0.500000  0.707805  0.750000  1
