# generated using pymatgen
data_Pr3Si2(SnAu2)3
_symmetry_space_group_name_H-M   'P 1'
_cell_length_a   4.48832200
_cell_length_b   10.25088700
_cell_length_c   13.49415400
_cell_angle_alpha   90.00000000
_cell_angle_beta   90.00000000
_cell_angle_gamma   90.00000000
_symmetry_Int_Tables_number   1
_chemical_formula_structural   Pr3Si2(SnAu2)3
_chemical_formula_sum   'Pr6 Si4 Sn6 Au12'
_cell_volume   620.85633190
_cell_formula_units_Z   2
loop_
 _symmetry_equiv_pos_site_id
 _symmetry_equiv_pos_as_xyz
  1  'x, y, z'
loop_
 _atom_site_type_symbol
 _atom_site_label
 _atom_site_symmetry_multiplicity
 _atom_site_fract_x
 _atom_site_fract_y
 _atom_site_fract_z
 _atom_site_occupancy
  Pr  Pr0  1  0.000000  0.735414  0.811712  1
  Pr  Pr1  1  0.000000  0.735414  0.188288  1
  Pr  Pr2  1  0.500000  0.264586  0.688288  1
  Pr  Pr3  1  0.500000  0.264586  0.311712  1
  Pr  Pr4  1  0.000000  0.734426  0.500000  1
  Pr  Pr5  1  0.500000  0.265574  0.000000  1
  Si  Si6  1  0.000000  0.381696  0.840228  1
  Si  Si7  1  0.000000  0.381696  0.159772  1
  Si  Si8  1  0.500000  0.618304  0.659772  1
  Si  Si9  1  0.500000  0.618304  0.340228  1
  Sn  Sn10  1  0.000000  0.021539  0.356228  1
  Sn  Sn11  1  0.000000  0.021539  0.643772  1
  Sn  Sn12  1  0.500000  0.978461  0.143772  1
  Sn  Sn13  1  0.500000  0.978461  0.856228  1
  Sn  Sn14  1  0.000000  0.287307  0.500000  1
  Sn  Sn15  1  0.500000  0.712693  0.000000  1
  Au  Au16  1  0.000000  0.143515  0.840079  1
  Au  Au17  1  0.000000  0.143515  0.159921  1
  Au  Au18  1  0.500000  0.856485  0.659921  1
  Au  Au19  1  0.500000  0.856485  0.340079  1
  Au  Au20  1  0.000000  0.508632  0.000000  1
  Au  Au21  1  0.500000  0.491368  0.500000  1
  Au  Au22  1  0.000000  0.491061  0.339020  1
  Au  Au23  1  0.000000  0.491061  0.660980  1
  Au  Au24  1  0.500000  0.508939  0.160980  1
  Au  Au25  1  0.500000  0.508939  0.839020  1
  Au  Au26  1  0.000000  0.941956  0.000000  1
  Au  Au27  1  0.500000  0.058044  0.500000  1
