# generated using pymatgen
data_EuB2IrRh
_symmetry_space_group_name_H-M   'P 1'
_cell_length_a   7.13466072
_cell_length_b   6.16570474
_cell_length_c   5.60872666
_cell_angle_alpha   74.42502529
_cell_angle_beta   56.35198222
_cell_angle_gamma   49.22299566
_symmetry_Int_Tables_number   1
_chemical_formula_structural   EuB2IrRh
_chemical_formula_sum   'Eu2 B4 Ir2 Rh2'
_cell_volume   153.81798194
_cell_formula_units_Z   2
loop_
 _symmetry_equiv_pos_site_id
 _symmetry_equiv_pos_as_xyz
  1  'x, y, z'
loop_
 _atom_site_type_symbol
 _atom_site_label
 _atom_site_symmetry_multiplicity
 _atom_site_fract_x
 _atom_site_fract_y
 _atom_site_fract_z
 _atom_site_occupancy
  Eu  Eu0  1  0.749026  0.749026  0.750974  1
  Eu  Eu1  1  0.499026  0.499026  0.500974  1
  B  B2  1  0.068216  0.430387  0.080739  1
  B  B3  1  0.829342  0.169261  0.819613  1
  B  B4  1  0.430387  0.068216  0.420658  1
  B  B5  1  0.169261  0.829342  0.181784  1
  Ir  Ir6  1  0.870383  0.870383  0.129617  1
  Ir  Ir7  1  0.120383  0.120383  0.379617  1
  Rh  Rh8  1  0.381988  0.381988  0.118012  1
  Rh  Rh9  1  0.131988  0.131988  0.868012  1
