# generated using pymatgen
data_SmSc(NbS2)8
_symmetry_space_group_name_H-M   'P 1'
_cell_length_a   6.66981800
_cell_length_b   6.66981815
_cell_length_c   13.56803100
_cell_angle_alpha   90.00000000
_cell_angle_beta   90.00000000
_cell_angle_gamma   119.99999926
_symmetry_Int_Tables_number   1
_chemical_formula_structural   SmSc(NbS2)8
_chemical_formula_sum   'Sm1 Sc1 Nb8 S16'
_cell_volume   522.72760886
_cell_formula_units_Z   1
loop_
 _symmetry_equiv_pos_site_id
 _symmetry_equiv_pos_as_xyz
  1  'x, y, z'
loop_
 _atom_site_type_symbol
 _atom_site_label
 _atom_site_symmetry_multiplicity
 _atom_site_fract_x
 _atom_site_fract_y
 _atom_site_fract_z
 _atom_site_occupancy
  Sm  Sm0  1  0.000000  0.000000  0.000000  1
  Sc  Sc1  1  0.000000  0.000000  0.500000  1
  Nb  Nb2  1  0.990561  0.495281  0.260753  1
  Nb  Nb3  1  0.009439  0.504719  0.739247  1
  Nb  Nb4  1  0.495281  0.504719  0.739247  1
  Nb  Nb5  1  0.504719  0.009439  0.260753  1
  Nb  Nb6  1  0.000000  0.000000  0.740157  1
  Nb  Nb7  1  0.000000  0.000000  0.259843  1
  Nb  Nb8  1  0.504719  0.495281  0.260753  1
  Nb  Nb9  1  0.495281  0.990561  0.739247  1
  S  S10  1  0.333333  0.666667  0.621267  1
  S  S11  1  0.666667  0.333333  0.141519  1
  S  S12  1  0.666667  0.333333  0.378733  1
  S  S13  1  0.333333  0.666667  0.858481  1
  S  S14  1  0.168041  0.336083  0.376676  1
  S  S15  1  0.830607  0.169393  0.855547  1
  S  S16  1  0.338786  0.169393  0.855547  1
  S  S17  1  0.663917  0.831959  0.376676  1
  S  S18  1  0.168041  0.831959  0.376676  1
  S  S19  1  0.830607  0.661214  0.855547  1
  S  S20  1  0.169393  0.338786  0.144453  1
  S  S21  1  0.831959  0.168041  0.623324  1
  S  S22  1  0.336083  0.168041  0.623324  1
  S  S23  1  0.661214  0.830607  0.144453  1
  S  S24  1  0.169393  0.830607  0.144453  1
  S  S25  1  0.831959  0.663917  0.623324  1
