# generated using pymatgen
data_Ce2Y5Tm3(Al2Ru3)2
_symmetry_space_group_name_H-M   'P 1'
_cell_length_a   8.43895215
_cell_length_b   8.35301208
_cell_length_c   8.32833541
_cell_angle_alpha   109.89070226
_cell_angle_beta   109.41236914
_cell_angle_gamma   110.24258783
_symmetry_Int_Tables_number   1
_chemical_formula_structural   Ce2Y5Tm3(Al2Ru3)2
_chemical_formula_sum   'Ce2 Y5 Tm3 Al4 Ru6'
_cell_volume   445.48369083
_cell_formula_units_Z   1
loop_
 _symmetry_equiv_pos_site_id
 _symmetry_equiv_pos_as_xyz
  1  'x, y, z'
loop_
 _atom_site_type_symbol
 _atom_site_label
 _atom_site_symmetry_multiplicity
 _atom_site_fract_x
 _atom_site_fract_y
 _atom_site_fract_z
 _atom_site_occupancy
  Ce  Ce0  1  0.943786  0.250387  0.194734  1
  Ce  Ce1  1  0.197041  0.941870  0.251519  1
  Y  Y2  1  0.780140  0.785444  0.776937  1
  Y  Y3  1  0.316581  0.566572  0.753707  1
  Y  Y4  1  0.751370  0.317159  0.568328  1
  Y  Y5  1  0.566917  0.747419  0.312981  1
  Y  Y6  1  0.722202  0.502349  0.000099  1
  Tm  Tm7  1  0.000264  0.718381  0.506954  1
  Tm  Tm8  1  0.500292  0.992869  0.714458  1
  Tm  Tm9  1  0.253599  0.185264  0.930851  1
  Al  Al10  1  0.414221  0.410549  0.407588  1
  Al  Al11  1  0.093088  0.492554  0.997429  1
  Al  Al12  1  0.998415  0.089432  0.504289  1
  Al  Al13  1  0.502342  0.010897  0.092157  1
  Ru  Ru14  1  0.869704  0.118904  0.743309  1
  Ru  Ru15  1  0.755731  0.906567  0.125092  1
  Ru  Ru16  1  0.128253  0.764104  0.907713  1
  Ru  Ru17  1  0.223706  0.594513  0.365548  1
  Ru  Ru18  1  0.357223  0.219544  0.594255  1
  Ru  Ru19  1  0.625124  0.385223  0.252053  1
