# generated using pymatgen
data_Ce6CuSb8Pt4Rh
_symmetry_space_group_name_H-M   'P 1'
_cell_length_a   8.50218524
_cell_length_b   8.50190555
_cell_length_c   8.50367349
_cell_angle_alpha   109.41482195
_cell_angle_beta   109.23477724
_cell_angle_gamma   109.76786650
_symmetry_Int_Tables_number   1
_chemical_formula_structural   Ce6CuSb8Pt4Rh
_chemical_formula_sum   'Ce6 Cu1 Sb8 Pt4 Rh1'
_cell_volume   473.15543602
_cell_formula_units_Z   1
loop_
 _symmetry_equiv_pos_site_id
 _symmetry_equiv_pos_as_xyz
  1  'x, y, z'
loop_
 _atom_site_type_symbol
 _atom_site_label
 _atom_site_symmetry_multiplicity
 _atom_site_fract_x
 _atom_site_fract_y
 _atom_site_fract_z
 _atom_site_occupancy
  Ce  Ce0  1  0.876081  0.251871  0.128153  1
  Ce  Ce1  1  0.623775  0.747943  0.371925  1
  Ce  Ce2  1  0.253290  0.125532  0.873515  1
  Ce  Ce3  1  0.744288  0.374788  0.623739  1
  Ce  Ce4  1  0.127329  0.878453  0.253815  1
  Ce  Ce5  1  0.375231  0.621434  0.748802  1
  Cu  Cu6  1  0.874584  0.124660  0.749771  1
  Sb  Sb7  1  0.667862  0.497194  0.995677  1
  Sb  Sb8  1  0.506663  0.006661  0.669982  1
  Sb  Sb9  1  0.999912  0.670775  0.500860  1
  Sb  Sb10  1  0.834703  0.838069  0.829882  1
  Sb  Sb11  1  0.500564  0.999637  0.170555  1
  Sb  Sb12  1  0.162189  0.492263  0.996673  1
  Sb  Sb13  1  0.998807  0.166786  0.505153  1
  Sb  Sb14  1  0.329460  0.328652  0.331529  1
  Pt  Pt15  1  0.125839  0.748901  0.875507  1
  Pt  Pt16  1  0.251339  0.626324  0.376775  1
  Pt  Pt17  1  0.749787  0.874477  0.123446  1
  Pt  Pt18  1  0.625132  0.375257  0.249717  1
  Rh  Rh19  1  0.373168  0.250324  0.624521  1
