# generated using pymatgen
data_Pr2NiRuI
_symmetry_space_group_name_H-M   'P 1'
_cell_length_a   4.18075000
_cell_length_b   4.18075025
_cell_length_c   17.72652100
_cell_angle_alpha   90.00000000
_cell_angle_beta   90.00000000
_cell_angle_gamma   119.99999799
_symmetry_Int_Tables_number   1
_chemical_formula_structural   Pr2NiRuI
_chemical_formula_sum   'Pr4 Ni2 Ru2 I2'
_cell_volume   268.32588673
_cell_formula_units_Z   2
loop_
 _symmetry_equiv_pos_site_id
 _symmetry_equiv_pos_as_xyz
  1  'x, y, z'
loop_
 _atom_site_type_symbol
 _atom_site_label
 _atom_site_symmetry_multiplicity
 _atom_site_fract_x
 _atom_site_fract_y
 _atom_site_fract_z
 _atom_site_occupancy
  Pr  Pr0  1  0.000000  0.000000  0.605953  1
  Pr  Pr1  1  0.000000  0.000000  0.393907  1
  Pr  Pr2  1  0.000000  0.000000  0.105953  1
  Pr  Pr3  1  0.000000  0.000000  0.893907  1
  Ni  Ni4  1  0.666667  0.333333  0.999422  1
  Ni  Ni5  1  0.333333  0.666667  0.499422  1
  Ru  Ru6  1  0.666667  0.333333  0.500733  1
  Ru  Ru7  1  0.333333  0.666667  0.000733  1
  I  I8  1  0.666667  0.333333  0.249985  1
  I  I9  1  0.333333  0.666667  0.749985  1
