# generated using pymatgen
data_DyCdGa3Ni
_symmetry_space_group_name_H-M   'P 1'
_cell_length_a   4.19472873
_cell_length_b   6.55789300
_cell_length_c   8.10846659
_cell_angle_alpha   90.00000000
_cell_angle_beta   104.99077535
_cell_angle_gamma   90.00000000
_symmetry_Int_Tables_number   1
_chemical_formula_structural   DyCdGa3Ni
_chemical_formula_sum   'Dy2 Cd2 Ga6 Ni2'
_cell_volume   215.46138461
_cell_formula_units_Z   2
loop_
 _symmetry_equiv_pos_site_id
 _symmetry_equiv_pos_as_xyz
  1  'x, y, z'
loop_
 _atom_site_type_symbol
 _atom_site_label
 _atom_site_symmetry_multiplicity
 _atom_site_fract_x
 _atom_site_fract_y
 _atom_site_fract_z
 _atom_site_occupancy
  Dy  Dy0  1  0.372654  0.750000  0.745309  1
  Dy  Dy1  1  0.627346  0.250000  0.254691  1
  Cd  Cd2  1  0.000000  0.500000  0.000000  1
  Cd  Cd3  1  0.000000  0.000000  0.000000  1
  Ga  Ga4  1  0.571892  0.750000  0.143786  1
  Ga  Ga5  1  0.428108  0.250000  0.856214  1
  Ga  Ga6  1  0.187000  0.550573  0.374000  1
  Ga  Ga7  1  0.813000  0.449427  0.626000  1
  Ga  Ga8  1  0.187000  0.949427  0.374000  1
  Ga  Ga9  1  0.813000  0.050573  0.626000  1
  Ni  Ni10  1  0.722373  0.750000  0.444746  1
  Ni  Ni11  1  0.277627  0.250000  0.555254  1
