# generated using pymatgen
data_Mn19Al2Zn(B4Rh9)4
_symmetry_space_group_name_H-M   'P 1'
_cell_length_a   17.90656481
_cell_length_b   17.90656481
_cell_length_c   2.92137800
_cell_angle_alpha   90.00000000
_cell_angle_beta   90.00000000
_cell_angle_gamma   89.94843990
_symmetry_Int_Tables_number   1
_chemical_formula_structural   Mn19Al2Zn(B4Rh9)4
_chemical_formula_sum   'Mn19 Al2 Zn1 B16 Rh36'
_cell_volume   936.72505471
_cell_formula_units_Z   1
loop_
 _symmetry_equiv_pos_site_id
 _symmetry_equiv_pos_as_xyz
  1  'x, y, z'
loop_
 _atom_site_type_symbol
 _atom_site_label
 _atom_site_symmetry_multiplicity
 _atom_site_fract_x
 _atom_site_fract_y
 _atom_site_fract_z
 _atom_site_occupancy
  Mn  Mn0  1  0.552062  0.051959  0.000000  1
  Mn  Mn1  1  0.448041  0.947938  0.000000  1
  Mn  Mn2  1  0.051774  0.448226  0.000000  1
  Mn  Mn3  1  0.947435  0.552565  0.000000  1
  Mn  Mn4  1  0.031553  0.187867  0.000000  1
  Mn  Mn5  1  0.969089  0.813121  0.000000  1
  Mn  Mn6  1  0.187762  0.968442  0.000000  1
  Mn  Mn7  1  0.531558  0.312238  0.000000  1
  Mn  Mn8  1  0.811966  0.031424  0.000000  1
  Mn  Mn9  1  0.468576  0.688034  0.000000  1
  Mn  Mn10  1  0.686879  0.530911  0.000000  1
  Mn  Mn11  1  0.312133  0.468447  0.000000  1
  Mn  Mn12  1  0.208420  0.708323  0.000000  1
  Mn  Mn13  1  0.791677  0.291580  0.000000  1
  Mn  Mn14  1  0.709047  0.790953  0.000000  1
  Mn  Mn15  1  0.291682  0.208318  0.000000  1
  Mn  Mn16  1  0.669225  0.169208  0.000000  1
  Mn  Mn17  1  0.330792  0.830775  0.000000  1
  Mn  Mn18  1  0.168994  0.331006  0.000000  1
  Al  Al19  1  0.999910  0.999812  0.000000  1
  Al  Al20  1  0.500188  0.500090  0.000000  1
  Zn  Zn21  1  0.831308  0.668692  0.000000  1
  B  B22  1  0.334327  0.039089  0.000000  1
  B  B23  1  0.665652  0.960716  0.000000  1
  B  B24  1  0.037878  0.665530  0.000000  1
  B  B25  1  0.834470  0.462122  0.000000  1
  B  B26  1  0.960910  0.334551  0.000000  1
  B  B27  1  0.165449  0.539090  0.000000  1
  B  B28  1  0.539284  0.834348  0.000000  1
  B  B29  1  0.460911  0.165673  0.000000  1
  B  B30  1  0.166572  0.123525  0.000000  1
  B  B31  1  0.833167  0.875217  0.000000  1
  B  B32  1  0.123410  0.833108  0.000000  1
  B  B33  1  0.666892  0.376590  0.000000  1
  B  B34  1  0.876589  0.166650  0.000000  1
  B  B35  1  0.333350  0.623411  0.000000  1
  B  B36  1  0.624783  0.666833  0.000000  1
  B  B37  1  0.376475  0.333428  0.000000  1
  Rh  Rh38  1  0.253867  0.086134  0.500000  1
  Rh  Rh39  1  0.746041  0.913389  0.500000  1
  Rh  Rh40  1  0.086337  0.745721  0.500000  1
  Rh  Rh41  1  0.754279  0.413663  0.500000  1
  Rh  Rh42  1  0.913670  0.254078  0.500000  1
  Rh  Rh43  1  0.245922  0.586330  0.500000  1
  Rh  Rh44  1  0.586611  0.753959  0.500000  1
  Rh  Rh45  1  0.413866  0.246133  0.500000  1
  Rh  Rh46  1  0.047557  0.324877  0.500000  1
  Rh  Rh47  1  0.951888  0.676182  0.500000  1
  Rh  Rh48  1  0.325082  0.952353  0.500000  1
  Rh  Rh49  1  0.547647  0.174918  0.500000  1
  Rh  Rh50  1  0.675222  0.047646  0.500000  1
  Rh  Rh51  1  0.452354  0.824778  0.500000  1
  Rh  Rh52  1  0.823818  0.548112  0.500000  1
  Rh  Rh53  1  0.175123  0.452443  0.500000  1
  Rh  Rh54  1  0.161963  0.210773  0.500000  1
  Rh  Rh55  1  0.839073  0.788653  0.500000  1
  Rh  Rh56  1  0.210662  0.838134  0.500000  1
  Rh  Rh57  1  0.661866  0.289338  0.500000  1
  Rh  Rh58  1  0.789319  0.161912  0.500000  1
  Rh  Rh59  1  0.338088  0.710681  0.500000  1
  Rh  Rh60  1  0.711347  0.660927  0.500000  1
  Rh  Rh61  1  0.289227  0.338037  0.500000  1
  Rh  Rh62  1  0.097039  0.067943  0.500000  1
  Rh  Rh63  1  0.902618  0.932011  0.500000  1
  Rh  Rh64  1  0.067726  0.902697  0.500000  1
  Rh  Rh65  1  0.597303  0.432274  0.500000  1
  Rh  Rh66  1  0.932167  0.097094  0.500000  1
  Rh  Rh67  1  0.402906  0.567833  0.500000  1
  Rh  Rh68  1  0.567989  0.597382  0.500000  1
  Rh  Rh69  1  0.432057  0.402961  0.500000  1
  Rh  Rh70  1  0.082954  0.583495  0.500000  1
  Rh  Rh71  1  0.916505  0.417046  0.500000  1
  Rh  Rh72  1  0.583404  0.916596  0.500000  1
  Rh  Rh73  1  0.416316  0.083684  0.500000  1
