# generated using pymatgen
data_Li3Y4Si8Rh
_symmetry_space_group_name_H-M   'P 1'
_cell_length_a   3.81716600
_cell_length_b   7.48634040
_cell_length_c   10.10492557
_cell_angle_alpha   90.07317906
_cell_angle_beta   90.00000000
_cell_angle_gamma   90.00000000
_symmetry_Int_Tables_number   1
_chemical_formula_structural   Li3Y4Si8Rh
_chemical_formula_sum   'Li3 Y4 Si8 Rh1'
_cell_volume   288.76422126
_cell_formula_units_Z   1
loop_
 _symmetry_equiv_pos_site_id
 _symmetry_equiv_pos_as_xyz
  1  'x, y, z'
loop_
 _atom_site_type_symbol
 _atom_site_label
 _atom_site_symmetry_multiplicity
 _atom_site_fract_x
 _atom_site_fract_y
 _atom_site_fract_z
 _atom_site_occupancy
  Li  Li0  1  0.250000  0.490783  0.109415  1
  Li  Li1  1  0.750000  0.008742  0.605465  1
  Li  Li2  1  0.750000  0.504306  0.891374  1
  Y  Y3  1  0.250000  0.137988  0.866245  1
  Y  Y4  1  0.250000  0.642574  0.628195  1
  Y  Y5  1  0.750000  0.861254  0.135171  1
  Y  Y6  1  0.750000  0.369582  0.367546  1
  Si  Si7  1  0.250000  0.216842  0.564322  1
  Si  Si8  1  0.250000  0.730917  0.928782  1
  Si  Si9  1  0.750000  0.786281  0.431817  1
  Si  Si10  1  0.750000  0.262727  0.073752  1
  Si  Si11  1  0.250000  0.664099  0.321356  1
  Si  Si12  1  0.250000  0.154339  0.191612  1
  Si  Si13  1  0.750000  0.338514  0.674803  1
  Si  Si14  1  0.750000  0.843204  0.817400  1
  Rh  Rh15  1  0.250000  0.987846  0.392744  1
