# generated using pymatgen
data_BaLiPd5O11
_symmetry_space_group_name_H-M   'P 1'
_cell_length_a   6.05111800
_cell_length_b   6.05111858
_cell_length_c   13.88281700
_cell_angle_alpha   90.00000000
_cell_angle_beta   90.00000000
_cell_angle_gamma   120.00000777
_symmetry_Int_Tables_number   1
_chemical_formula_structural   BaLiPd5O11
_chemical_formula_sum   'Ba2 Li2 Pd10 O22'
_cell_volume   440.22984529
_cell_formula_units_Z   2
loop_
 _symmetry_equiv_pos_site_id
 _symmetry_equiv_pos_as_xyz
  1  'x, y, z'
loop_
 _atom_site_type_symbol
 _atom_site_label
 _atom_site_symmetry_multiplicity
 _atom_site_fract_x
 _atom_site_fract_y
 _atom_site_fract_z
 _atom_site_occupancy
  Ba  Ba0  1  0.333333  0.666667  0.750000  1
  Ba  Ba1  1  0.666667  0.333333  0.250000  1
  Li  Li2  1  0.333333  0.666667  0.250000  1
  Li  Li3  1  0.666667  0.333333  0.750000  1
  Pd  Pd4  1  0.500000  0.000000  0.000000  1
  Pd  Pd5  1  0.000000  0.500000  0.000000  1
  Pd  Pd6  1  0.500000  0.000000  0.500000  1
  Pd  Pd7  1  0.500000  0.500000  0.000000  1
  Pd  Pd8  1  0.000000  0.500000  0.500000  1
  Pd  Pd9  1  0.500000  0.500000  0.500000  1
  Pd  Pd10  1  0.000000  0.000000  0.151413  1
  Pd  Pd11  1  0.000000  0.000000  0.848587  1
  Pd  Pd12  1  0.000000  0.000000  0.651413  1
  Pd  Pd13  1  0.000000  0.000000  0.348587  1
  O  O14  1  0.145604  0.291208  0.250000  1
  O  O15  1  0.854396  0.708792  0.750000  1
  O  O16  1  0.708792  0.854396  0.250000  1
  O  O17  1  0.291208  0.145604  0.750000  1
  O  O18  1  0.145604  0.854396  0.250000  1
  O  O19  1  0.854396  0.145604  0.750000  1
  O  O20  1  0.175521  0.351043  0.583209  1
  O  O21  1  0.824479  0.648957  0.416791  1
  O  O22  1  0.648957  0.824479  0.583209  1
  O  O23  1  0.824479  0.648957  0.083209  1
  O  O24  1  0.351043  0.175521  0.416791  1
  O  O25  1  0.175521  0.351043  0.916791  1
  O  O26  1  0.175521  0.824479  0.583209  1
  O  O27  1  0.351043  0.175521  0.083209  1
  O  O28  1  0.824479  0.175521  0.416791  1
  O  O29  1  0.648957  0.824479  0.916791  1
  O  O30  1  0.824479  0.175521  0.083209  1
  O  O31  1  0.175521  0.824479  0.916791  1
  O  O32  1  0.333333  0.666667  0.074747  1
  O  O33  1  0.666667  0.333333  0.925253  1
  O  O34  1  0.666667  0.333333  0.574747  1
  O  O35  1  0.333333  0.666667  0.425253  1
