# generated using pymatgen
data_Sc4In2Pt3Au
_symmetry_space_group_name_H-M   'P 1'
_cell_length_a   7.58076231
_cell_length_b   7.58076231
_cell_length_c   6.89742000
_cell_angle_alpha   90.00000000
_cell_angle_beta   90.00000000
_cell_angle_gamma   90.22267541
_symmetry_Int_Tables_number   1
_chemical_formula_structural   Sc4In2Pt3Au
_chemical_formula_sum   'Sc8 In4 Pt6 Au2'
_cell_volume   396.37764413
_cell_formula_units_Z   2
loop_
 _symmetry_equiv_pos_site_id
 _symmetry_equiv_pos_as_xyz
  1  'x, y, z'
loop_
 _atom_site_type_symbol
 _atom_site_label
 _atom_site_symmetry_multiplicity
 _atom_site_fract_x
 _atom_site_fract_y
 _atom_site_fract_z
 _atom_site_occupancy
  Sc  Sc0  1  0.149621  0.169959  0.000000  1
  Sc  Sc1  1  0.830041  0.850379  0.000000  1
  Sc  Sc2  1  0.658925  0.341075  0.500000  1
  Sc  Sc3  1  0.355722  0.644278  0.500000  1
  Sc  Sc4  1  0.679671  0.320329  0.000000  1
  Sc  Sc5  1  0.332018  0.667982  0.000000  1
  Sc  Sc6  1  0.807785  0.822623  0.500000  1
  Sc  Sc7  1  0.177377  0.192215  0.500000  1
  In  In8  1  0.500228  0.001748  0.250372  1
  In  In9  1  0.500228  0.001748  0.749628  1
  In  In10  1  0.998252  0.499772  0.250372  1
  In  In11  1  0.998252  0.499772  0.749628  1
  Pt  Pt12  1  0.369834  0.366875  0.228057  1
  Pt  Pt13  1  0.633125  0.630166  0.771943  1
  Pt  Pt14  1  0.633125  0.630166  0.228057  1
  Pt  Pt15  1  0.870379  0.129621  0.727475  1
  Pt  Pt16  1  0.870379  0.129621  0.272525  1
  Pt  Pt17  1  0.369834  0.366875  0.771943  1
  Au  Au18  1  0.132602  0.867398  0.273373  1
  Au  Au19  1  0.132602  0.867398  0.726627  1
