# generated using pymatgen
data_Dy8Ti11Si16Hg
_symmetry_space_group_name_H-M   'P 1'
_cell_length_a   7.08744006
_cell_length_b   7.08744006
_cell_length_c   12.93821480
_cell_angle_alpha   89.88660535
_cell_angle_beta   90.11339465
_cell_angle_gamma   89.57570310
_symmetry_Int_Tables_number   1
_chemical_formula_structural   Dy8Ti11Si16Hg
_chemical_formula_sum   'Dy8 Ti11 Si16 Hg1'
_cell_volume   649.88951825
_cell_formula_units_Z   1
loop_
 _symmetry_equiv_pos_site_id
 _symmetry_equiv_pos_as_xyz
  1  'x, y, z'
loop_
 _atom_site_type_symbol
 _atom_site_label
 _atom_site_symmetry_multiplicity
 _atom_site_fract_x
 _atom_site_fract_y
 _atom_site_fract_z
 _atom_site_occupancy
  Dy  Dy0  1  0.997641  0.658939  0.033071  1
  Dy  Dy1  1  0.999716  0.342818  0.531423  1
  Dy  Dy2  1  0.658939  0.997641  0.966929  1
  Dy  Dy3  1  0.160605  0.502129  0.783932  1
  Dy  Dy4  1  0.842301  0.498784  0.285119  1
  Dy  Dy5  1  0.502129  0.160605  0.216068  1
  Dy  Dy6  1  0.498784  0.842301  0.714881  1
  Dy  Dy7  1  0.342818  0.999716  0.468577  1
  Ti  Ti8  1  0.349791  0.504742  0.376199  1
  Ti  Ti9  1  0.852524  0.991293  0.377163  1
  Ti  Ti10  1  0.008591  0.150794  0.125406  1
  Ti  Ti11  1  0.991293  0.852524  0.622837  1
  Ti  Ti12  1  0.504742  0.349791  0.623801  1
  Ti  Ti13  1  0.150794  0.008591  0.874594  1
  Ti  Ti14  1  0.826373  0.173390  0.750492  1
  Ti  Ti15  1  0.173390  0.826373  0.249508  1
  Ti  Ti16  1  0.327044  0.327044  0.000000  1
  Ti  Ti17  1  0.492487  0.648904  0.124657  1
  Ti  Ti18  1  0.648904  0.492487  0.875343  1
  Si  Si19  1  0.067128  0.714093  0.432459  1
  Si  Si20  1  0.952248  0.290447  0.935820  1
  Si  Si21  1  0.714093  0.067128  0.567541  1
  Si  Si22  1  0.208902  0.453703  0.185269  1
  Si  Si23  1  0.794508  0.541178  0.694365  1
  Si  Si24  1  0.453703  0.208902  0.814731  1
  Si  Si25  1  0.541178  0.794508  0.305635  1
  Si  Si26  1  0.290447  0.952248  0.064180  1
  Si  Si27  1  0.798171  0.868512  0.184406  1
  Si  Si28  1  0.275713  0.625664  0.572329  1
  Si  Si29  1  0.705600  0.369036  0.066973  1
  Si  Si30  1  0.625664  0.275713  0.427671  1
  Si  Si31  1  0.369036  0.705600  0.933027  1
  Si  Si32  1  0.132413  0.201724  0.316807  1
  Si  Si33  1  0.201724  0.132413  0.683193  1
  Si  Si34  1  0.868512  0.798171  0.815594  1
  Hg  Hg35  1  0.672094  0.672094  0.500000  1
