# generated using pymatgen
data_Er4ReB12Ru
_symmetry_space_group_name_H-M   'P 1'
_cell_length_a   3.64607800
_cell_length_b   9.11174298
_cell_length_c   11.49030090
_cell_angle_alpha   90.20781138
_cell_angle_beta   90.00000000
_cell_angle_gamma   90.00000000
_symmetry_Int_Tables_number   1
_chemical_formula_structural   Er4ReB12Ru
_chemical_formula_sum   'Er8 Re2 B24 Ru2'
_cell_volume   381.72970902
_cell_formula_units_Z   2
loop_
 _symmetry_equiv_pos_site_id
 _symmetry_equiv_pos_as_xyz
  1  'x, y, z'
loop_
 _atom_site_type_symbol
 _atom_site_label
 _atom_site_symmetry_multiplicity
 _atom_site_fract_x
 _atom_site_fract_y
 _atom_site_fract_z
 _atom_site_occupancy
  Er  Er0  1  0.000000  0.320977  0.412556  1
  Er  Er1  1  0.000000  0.679023  0.587444  1
  Er  Er2  1  0.000000  0.824560  0.084571  1
  Er  Er3  1  0.000000  0.175440  0.915429  1
  Er  Er4  1  0.000000  0.943103  0.370610  1
  Er  Er5  1  0.000000  0.056897  0.629390  1
  Er  Er6  1  0.000000  0.443153  0.129233  1
  Er  Er7  1  0.000000  0.556847  0.870767  1
  Re  Re8  1  0.000000  0.138789  0.179614  1
  Re  Re9  1  0.000000  0.861211  0.820386  1
  B  B10  1  0.500000  0.553954  0.433291  1
  B  B11  1  0.500000  0.446046  0.566709  1
  B  B12  1  0.500000  0.053199  0.066476  1
  B  B13  1  0.500000  0.946801  0.933524  1
  B  B14  1  0.500000  0.749156  0.419195  1
  B  B15  1  0.500000  0.250844  0.580805  1
  B  B16  1  0.500000  0.249603  0.080569  1
  B  B17  1  0.500000  0.750397  0.919431  1
  B  B18  1  0.500000  0.791280  0.265641  1
  B  B19  1  0.500000  0.208720  0.734359  1
  B  B20  1  0.500000  0.292467  0.234991  1
  B  B21  1  0.500000  0.707533  0.765009  1
  B  B22  1  0.500000  0.631069  0.185686  1
  B  B23  1  0.500000  0.368931  0.814314  1
  B  B24  1  0.500000  0.131404  0.315212  1
  B  B25  1  0.500000  0.868596  0.684788  1
  B  B26  1  0.500000  0.982310  0.212354  1
  B  B27  1  0.500000  0.017690  0.787646  1
  B  B28  1  0.500000  0.483106  0.288158  1
  B  B29  1  0.500000  0.516894  0.711842  1
  B  B30  1  0.500000  0.602660  0.028593  1
  B  B31  1  0.500000  0.397340  0.971407  1
  B  B32  1  0.500000  0.103224  0.471594  1
  B  B33  1  0.500000  0.896776  0.528406  1
  Ru  Ru34  1  0.000000  0.638132  0.321558  1
  Ru  Ru35  1  0.000000  0.361868  0.678442  1
