# generated using pymatgen
data_Ta6NiS12
_symmetry_space_group_name_H-M   'P 1'
_cell_length_a   5.77247848
_cell_length_b   5.77247914
_cell_length_c   12.76501933
_cell_angle_alpha   85.70196779
_cell_angle_beta   85.70196944
_cell_angle_gamma   120.00745504
_symmetry_Int_Tables_number   1
_chemical_formula_structural   Ta6NiS12
_chemical_formula_sum   'Ta6 Ni1 S12'
_cell_volume   364.17391145
_cell_formula_units_Z   1
loop_
 _symmetry_equiv_pos_site_id
 _symmetry_equiv_pos_as_xyz
  1  'x, y, z'
loop_
 _atom_site_type_symbol
 _atom_site_label
 _atom_site_symmetry_multiplicity
 _atom_site_fract_x
 _atom_site_fract_y
 _atom_site_fract_z
 _atom_site_occupancy
  Ta  Ta0  1  0.078809  0.078809  0.761830  1
  Ta  Ta1  1  0.410568  0.743926  0.766803  1
  Ta  Ta2  1  0.743926  0.410568  0.766803  1
  Ta  Ta3  1  0.256074  0.589432  0.233197  1
  Ta  Ta4  1  0.589432  0.256074  0.233197  1
  Ta  Ta5  1  0.921191  0.921191  0.238170  1
  Ni  Ni6  1  0.000000  0.000000  0.000000  1
  S  S7  1  0.296262  0.296262  0.110896  1
  S  S8  1  0.630450  0.963281  0.110923  1
  S  S9  1  0.963281  0.630450  0.110923  1
  S  S10  1  0.036719  0.369550  0.889077  1
  S  S11  1  0.369550  0.036719  0.889077  1
  S  S12  1  0.703738  0.703738  0.889104  1
  S  S13  1  0.215913  0.215913  0.359392  1
  S  S14  1  0.546020  0.880978  0.359377  1
  S  S15  1  0.880978  0.546020  0.359377  1
  S  S16  1  0.119022  0.453980  0.640623  1
  S  S17  1  0.453980  0.119022  0.640623  1
  S  S18  1  0.784087  0.784087  0.640608  1
