# generated using pymatgen
data_Ba6Sr2HoUSe12
_symmetry_space_group_name_H-M   'P 1'
_cell_length_a   8.97742923
_cell_length_b   8.97742842
_cell_length_c   8.97742912
_cell_angle_alpha   90.85850245
_cell_angle_beta   90.85850571
_cell_angle_gamma   90.85850522
_symmetry_Int_Tables_number   1
_chemical_formula_structural   Ba6Sr2HoUSe12
_chemical_formula_sum   'Ba6 Sr2 Ho1 U1 Se12'
_cell_volume   723.28285297
_cell_formula_units_Z   1
loop_
 _symmetry_equiv_pos_site_id
 _symmetry_equiv_pos_as_xyz
  1  'x, y, z'
loop_
 _atom_site_type_symbol
 _atom_site_label
 _atom_site_symmetry_multiplicity
 _atom_site_fract_x
 _atom_site_fract_y
 _atom_site_fract_z
 _atom_site_occupancy
  Ba  Ba0  1  0.870846  0.621749  0.258243  1
  Ba  Ba1  1  0.258243  0.870846  0.621749  1
  Ba  Ba2  1  0.621749  0.258243  0.870846  1
  Ba  Ba3  1  0.741757  0.129154  0.378251  1
  Ba  Ba4  1  0.378251  0.741757  0.129154  1
  Ba  Ba5  1  0.129154  0.378251  0.741757  1
  Sr  Sr6  1  0.255053  0.255053  0.255053  1
  Sr  Sr7  1  0.744947  0.744947  0.744947  1
  Ho  Ho8  1  0.500000  0.500000  0.500000  1
  U  U9  1  0.000000  0.000000  0.000000  1
  Se  Se10  1  0.198860  0.556482  0.413701  1
  Se  Se11  1  0.413701  0.198860  0.556482  1
  Se  Se12  1  0.556482  0.413701  0.198860  1
  Se  Se13  1  0.922906  0.050653  0.705544  1
  Se  Se14  1  0.705544  0.922906  0.050653  1
  Se  Se15  1  0.050653  0.705544  0.922906  1
  Se  Se16  1  0.801140  0.443518  0.586299  1
  Se  Se17  1  0.586299  0.801140  0.443518  1
  Se  Se18  1  0.443518  0.586299  0.801140  1
  Se  Se19  1  0.077094  0.949347  0.294456  1
  Se  Se20  1  0.294456  0.077094  0.949347  1
  Se  Se21  1  0.949347  0.294456  0.077094  1
