# generated using pymatgen
data_Tb2MnFe2Co9P7
_symmetry_space_group_name_H-M   'P 1'
_cell_length_a   3.62037700
_cell_length_b   9.04507373
_cell_length_c   9.04177587
_cell_angle_alpha   120.06962733
_cell_angle_beta   90.00000000
_cell_angle_gamma   90.00000000
_symmetry_Int_Tables_number   1
_chemical_formula_structural   Tb2MnFe2Co9P7
_chemical_formula_sum   'Tb2 Mn1 Fe2 Co9 P7'
_cell_volume   256.23894871
_cell_formula_units_Z   1
loop_
 _symmetry_equiv_pos_site_id
 _symmetry_equiv_pos_as_xyz
  1  'x, y, z'
loop_
 _atom_site_type_symbol
 _atom_site_label
 _atom_site_symmetry_multiplicity
 _atom_site_fract_x
 _atom_site_fract_y
 _atom_site_fract_z
 _atom_site_occupancy
  Tb  Tb0  1  0.000000  0.668523  0.335581  1
  Tb  Tb1  1  0.500000  0.333750  0.666039  1
  Mn  Mn2  1  0.500000  0.119256  0.901342  1
  Fe  Fe3  1  0.500000  0.092963  0.217421  1
  Fe  Fe4  1  0.500000  0.781052  0.877069  1
  Co  Co5  1  0.000000  0.371975  0.940454  1
  Co  Co6  1  0.000000  0.059653  0.429909  1
  Co  Co7  1  0.000000  0.569164  0.628823  1
  Co  Co8  1  0.000000  0.883364  0.726794  1
  Co  Co9  1  0.000000  0.274399  0.156711  1
  Co  Co10  1  0.000000  0.842490  0.118081  1
  Co  Co11  1  0.500000  0.949905  0.564855  1
  Co  Co12  1  0.500000  0.433846  0.384459  1
  Co  Co13  1  0.500000  0.615696  0.049556  1
  P  P14  1  0.000000  0.111529  0.700190  1
  P  P15  1  0.000000  0.296624  0.408126  1
  P  P16  1  0.000000  0.591504  0.887772  1
  P  P17  1  0.500000  0.709975  0.599703  1
  P  P18  1  0.500000  0.406989  0.115691  1
  P  P19  1  0.500000  0.888818  0.289339  1
  P  P20  1  0.000000  0.998526  0.002081  1
