# generated using pymatgen
data_SmRe3Si2Os
_symmetry_space_group_name_H-M   'P 1'
_cell_length_a   7.37810856
_cell_length_b   7.37811019
_cell_length_c   4.06228200
_cell_angle_alpha   90.00000000
_cell_angle_beta   90.00000000
_cell_angle_gamma   147.96780990
_symmetry_Int_Tables_number   1
_chemical_formula_structural   SmRe3Si2Os
_chemical_formula_sum   'Sm1 Re3 Si2 Os1'
_cell_volume   117.28978403
_cell_formula_units_Z   1
loop_
 _symmetry_equiv_pos_site_id
 _symmetry_equiv_pos_as_xyz
  1  'x, y, z'
loop_
 _atom_site_type_symbol
 _atom_site_label
 _atom_site_symmetry_multiplicity
 _atom_site_fract_x
 _atom_site_fract_y
 _atom_site_fract_z
 _atom_site_occupancy
  Sm  Sm0  1  0.000845  0.999155  0.000000  1
  Re  Re1  1  0.306117  0.693883  0.000000  1
  Re  Re2  1  0.812402  0.187598  0.500000  1
  Re  Re3  1  0.694728  0.305272  0.000000  1
  Si  Si4  1  0.414148  0.585852  0.500000  1
  Si  Si5  1  0.587470  0.412530  0.500000  1
  Os  Os6  1  0.184292  0.815708  0.500000  1
