# generated using pymatgen
data_TbDy4Tc6P12Ir13
_symmetry_space_group_name_H-M   'P 1'
_cell_length_a   12.65947800
_cell_length_b   12.66100983
_cell_length_c   3.99132400
_cell_angle_alpha   90.00000000
_cell_angle_beta   90.00000000
_cell_angle_gamma   119.99502761
_symmetry_Int_Tables_number   1
_chemical_formula_structural   TbDy4Tc6P12Ir13
_chemical_formula_sum   'Tb1 Dy4 Tc6 P12 Ir13'
_cell_volume   554.05581560
_cell_formula_units_Z   1
loop_
 _symmetry_equiv_pos_site_id
 _symmetry_equiv_pos_as_xyz
  1  'x, y, z'
loop_
 _atom_site_type_symbol
 _atom_site_label
 _atom_site_symmetry_multiplicity
 _atom_site_fract_x
 _atom_site_fract_y
 _atom_site_fract_z
 _atom_site_occupancy
  Tb  Tb0  1  0.000279  0.812205  0.000000  1
  Dy  Dy1  1  0.333361  0.666643  0.500000  1
  Dy  Dy2  1  0.666669  0.333331  0.500000  1
  Dy  Dy3  1  0.187841  0.188134  0.000000  1
  Dy  Dy4  1  0.811875  0.999716  0.000000  1
  Tc  Tc5  1  0.990444  0.446585  0.500000  1
  Tc  Tc6  1  0.553389  0.543847  0.500000  1
  Tc  Tc7  1  0.456178  0.009567  0.500000  1
  Tc  Tc8  1  0.620371  0.799218  0.500000  1
  Tc  Tc9  1  0.200937  0.821152  0.500000  1
  Tc  Tc10  1  0.178835  0.379622  0.500000  1
  P  P11  1  0.006975  0.638366  0.500000  1
  P  P12  1  0.361477  0.368469  0.500000  1
  P  P13  1  0.631527  0.993004  0.500000  1
  P  P14  1  0.521320  0.694008  0.000000  1
  P  P15  1  0.305997  0.827325  0.000000  1
  P  P16  1  0.172673  0.478657  0.000000  1
  P  P17  1  0.482310  0.168130  0.000000  1
  P  P18  1  0.685837  0.517718  0.000000  1
  P  P19  1  0.831882  0.314172  0.000000  1
  P  P20  1  0.003845  0.182583  0.500000  1
  P  P21  1  0.817360  0.821264  0.500000  1
  P  P22  1  0.178826  0.996259  0.500000  1
  Ir  Ir23  1  0.506719  0.874569  0.000000  1
  Ir  Ir24  1  0.125413  0.632127  0.000000  1
  Ir  Ir25  1  0.367845  0.493282  0.000000  1
  Ir  Ir26  1  0.493718  0.357974  0.000000  1
  Ir  Ir27  1  0.864279  0.506278  0.000000  1
  Ir  Ir28  1  0.642043  0.135746  0.000000  1
  Ir  Ir29  1  0.995157  0.281601  0.000000  1
  Ir  Ir30  1  0.718295  0.713518  0.000000  1
  Ir  Ir31  1  0.286531  0.004928  0.000000  1
  Ir  Ir32  1  0.374043  0.185072  0.500000  1
  Ir  Ir33  1  0.810822  0.625789  0.500000  1
  Ir  Ir34  1  0.814937  0.188973  0.500000  1
  Ir  Ir35  1  0.999987  0.000171  0.500000  1
