# generated using pymatgen
data_Sm2Er8In3Hg5Pd4
_symmetry_space_group_name_H-M   'P 1'
_cell_length_a   3.62650800
_cell_length_b   7.94559954
_cell_length_c   18.38862197
_cell_angle_alpha   89.80329840
_cell_angle_beta   90.00000000
_cell_angle_gamma   90.00000000
_symmetry_Int_Tables_number   1
_chemical_formula_structural   Sm2Er8In3Hg5Pd4
_chemical_formula_sum   'Sm2 Er8 In3 Hg5 Pd4'
_cell_volume   529.86097937
_cell_formula_units_Z   1
loop_
 _symmetry_equiv_pos_site_id
 _symmetry_equiv_pos_as_xyz
  1  'x, y, z'
loop_
 _atom_site_type_symbol
 _atom_site_label
 _atom_site_symmetry_multiplicity
 _atom_site_fract_x
 _atom_site_fract_y
 _atom_site_fract_z
 _atom_site_occupancy
  Sm  Sm0  1  0.000000  0.497256  0.501484  1
  Sm  Sm1  1  0.000000  0.002113  0.000693  1
  Er  Er2  1  0.000000  0.746965  0.285333  1
  Er  Er3  1  0.000000  0.262937  0.712264  1
  Er  Er4  1  0.000000  0.750399  0.782309  1
  Er  Er5  1  0.000000  0.248615  0.215618  1
  Er  Er6  1  0.000000  0.613935  0.083680  1
  Er  Er7  1  0.000000  0.386117  0.915707  1
  Er  Er8  1  0.000000  0.880897  0.585677  1
  Er  Er9  1  0.000000  0.110382  0.417051  1
  In  In10  1  0.500000  0.420263  0.349051  1
  In  In11  1  0.500000  0.921557  0.152587  1
  In  In12  1  0.500000  0.078414  0.847397  1
  Hg  Hg13  1  0.500000  0.708308  0.932033  1
  Hg  Hg14  1  0.500000  0.294066  0.068487  1
  Hg  Hg15  1  0.500000  0.790561  0.432362  1
  Hg  Hg16  1  0.500000  0.199351  0.566095  1
  Hg  Hg17  1  0.500000  0.579873  0.649993  1
  Pd  Pd18  1  0.500000  0.538891  0.198173  1
  Pd  Pd19  1  0.500000  0.462490  0.803402  1
  Pd  Pd20  1  0.500000  0.969817  0.697603  1
  Pd  Pd21  1  0.500000  0.036792  0.303001  1
