# generated using pymatgen
data_Sm8MgSc10Si16Ag
_symmetry_space_group_name_H-M   'P 1'
_cell_length_a   7.08798469
_cell_length_b   7.48786597
_cell_length_c   14.14562900
_cell_angle_alpha   90.00000000
_cell_angle_beta   90.00000000
_cell_angle_gamma   89.79351396
_symmetry_Int_Tables_number   1
_chemical_formula_structural   Sm8MgSc10Si16Ag
_chemical_formula_sum   'Sm8 Mg1 Sc10 Si16 Ag1'
_cell_volume   750.75853092
_cell_formula_units_Z   1
loop_
 _symmetry_equiv_pos_site_id
 _symmetry_equiv_pos_as_xyz
  1  'x, y, z'
loop_
 _atom_site_type_symbol
 _atom_site_label
 _atom_site_symmetry_multiplicity
 _atom_site_fract_x
 _atom_site_fract_y
 _atom_site_fract_z
 _atom_site_occupancy
  Sm  Sm0  1  0.009902  0.176449  0.097769  1
  Sm  Sm1  1  0.990906  0.818180  0.899907  1
  Sm  Sm2  1  0.482648  0.673032  0.900195  1
  Sm  Sm3  1  0.990906  0.818180  0.600093  1
  Sm  Sm4  1  0.514593  0.326097  0.097266  1
  Sm  Sm5  1  0.009902  0.176449  0.402231  1
  Sm  Sm6  1  0.514593  0.326097  0.402734  1
  Sm  Sm7  1  0.482648  0.673032  0.599805  1
  Mg  Mg8  1  0.842416  0.497081  0.250000  1
  Sc  Sc9  1  0.340917  0.000374  0.250000  1
  Sc  Sc10  1  0.658647  0.001442  0.750000  1
  Sc  Sc11  1  0.326146  0.184083  0.625635  1
  Sc  Sc12  1  0.672289  0.819454  0.375924  1
  Sc  Sc13  1  0.168189  0.677559  0.374431  1
  Sc  Sc14  1  0.672289  0.819454  0.124076  1
  Sc  Sc15  1  0.834925  0.325272  0.626203  1
  Sc  Sc16  1  0.326146  0.184083  0.874365  1
  Sc  Sc17  1  0.834925  0.325272  0.873797  1
  Sc  Sc18  1  0.168189  0.677559  0.125569  1
  Si  Si19  1  0.030262  0.106816  0.750000  1
  Si  Si20  1  0.968299  0.890958  0.250000  1
  Si  Si21  1  0.460910  0.621836  0.250000  1
  Si  Si22  1  0.539970  0.380343  0.750000  1
  Si  Si23  1  0.290630  0.894476  0.750000  1
  Si  Si24  1  0.709389  0.110096  0.250000  1
  Si  Si25  1  0.221631  0.377149  0.250000  1
  Si  Si26  1  0.778508  0.622443  0.750000  1
  Si  Si27  1  0.157416  0.459243  0.531373  1
  Si  Si28  1  0.844468  0.538765  0.466106  1
  Si  Si29  1  0.345988  0.965827  0.461718  1
  Si  Si30  1  0.844468  0.538765  0.033894  1
  Si  Si31  1  0.655115  0.033575  0.540091  1
  Si  Si32  1  0.157416  0.459243  0.968627  1
  Si  Si33  1  0.655115  0.033575  0.959909  1
  Si  Si34  1  0.345988  0.965827  0.038282  1
  Ag  Ag35  1  0.153251  0.501912  0.750000  1
