# generated using pymatgen
data_Dy3YAl14(Ga2Ir3)2
_symmetry_space_group_name_H-M   'P 1'
_cell_length_a   7.54063170
_cell_length_b   7.54027146
_cell_length_c   9.55954200
_cell_angle_alpha   90.00000000
_cell_angle_beta   90.00000000
_cell_angle_gamma   119.53541938
_symmetry_Int_Tables_number   1
_chemical_formula_structural   Dy3YAl14(Ga2Ir3)2
_chemical_formula_sum   'Dy3 Y1 Al14 Ga4 Ir6'
_cell_volume   472.90789838
_cell_formula_units_Z   1
loop_
 _symmetry_equiv_pos_site_id
 _symmetry_equiv_pos_as_xyz
  1  'x, y, z'
loop_
 _atom_site_type_symbol
 _atom_site_label
 _atom_site_symmetry_multiplicity
 _atom_site_fract_x
 _atom_site_fract_y
 _atom_site_fract_z
 _atom_site_occupancy
  Dy  Dy0  1  0.002708  0.327145  0.250000  1
  Dy  Dy1  1  0.669734  0.993403  0.750000  1
  Dy  Dy2  1  0.330261  0.006592  0.250000  1
  Y  Y3  1  0.997234  0.672759  0.750000  1
  Al  Al4  1  0.001279  0.334767  0.572561  1
  Al  Al5  1  0.998731  0.665169  0.427273  1
  Al  Al6  1  0.998731  0.665169  0.072727  1
  Al  Al7  1  0.335348  0.002042  0.927297  1
  Al  Al8  1  0.001279  0.334767  0.927439  1
  Al  Al9  1  0.664711  0.998028  0.072783  1
  Al  Al10  1  0.664711  0.998028  0.427217  1
  Al  Al11  1  0.335348  0.002042  0.572703  1
  Al  Al12  1  0.333817  0.334183  0.054179  1
  Al  Al13  1  0.666115  0.665812  0.945915  1
  Al  Al14  1  0.666115  0.665812  0.554085  1
  Al  Al15  1  0.333817  0.334183  0.445821  1
  Al  Al16  1  0.548574  0.338678  0.750000  1
  Al  Al17  1  0.451315  0.661193  0.250000  1
  Ga  Ga18  1  0.129825  0.130675  0.750000  1
  Ga  Ga19  1  0.870170  0.869471  0.250000  1
  Ga  Ga20  1  0.338371  0.545803  0.750000  1
  Ga  Ga21  1  0.661777  0.454211  0.250000  1
  Ir  Ir22  1  0.671234  0.327970  0.502506  1
  Ir  Ir23  1  0.328775  0.671996  0.497436  1
  Ir  Ir24  1  0.328775  0.671996  0.002564  1
  Ir  Ir25  1  0.671234  0.327970  0.997494  1
  Ir  Ir26  1  0.000006  0.000068  0.499958  1
  Ir  Ir27  1  0.000006  0.000068  0.000042  1
