# generated using pymatgen
data_Dy5ThCoTe2
_symmetry_space_group_name_H-M   'P 1'
_cell_length_a   8.48925555
_cell_length_b   8.44977988
_cell_length_c   3.85138000
_cell_angle_alpha   90.00000000
_cell_angle_beta   90.00000000
_cell_angle_gamma   119.84629374
_symmetry_Int_Tables_number   1
_chemical_formula_structural   Dy5ThCoTe2
_chemical_formula_sum   'Dy5 Th1 Co1 Te2'
_cell_volume   239.62525007
_cell_formula_units_Z   1
loop_
 _symmetry_equiv_pos_site_id
 _symmetry_equiv_pos_as_xyz
  1  'x, y, z'
loop_
 _atom_site_type_symbol
 _atom_site_label
 _atom_site_symmetry_multiplicity
 _atom_site_fract_x
 _atom_site_fract_y
 _atom_site_fract_z
 _atom_site_occupancy
  Dy  Dy0  1  0.000000  0.418804  0.500000  1
  Dy  Dy1  1  0.602738  0.596406  0.500000  1
  Dy  Dy2  1  0.397262  0.993668  0.500000  1
  Dy  Dy3  1  0.236219  0.241146  0.000000  1
  Dy  Dy4  1  0.763781  0.004927  0.000000  1
  Th  Th5  1  0.000000  0.768746  0.000000  1
  Co  Co6  1  0.000000  0.986621  0.500000  1
  Te  Te7  1  0.344964  0.667323  0.000000  1
  Te  Te8  1  0.655036  0.322359  0.000000  1
