# generated using pymatgen
data_Lu4TlCo
_symmetry_space_group_name_H-M   'P 1'
_cell_length_a   9.38505967
_cell_length_b   9.38505901
_cell_length_c   9.38506000
_cell_angle_alpha   59.99999652
_cell_angle_beta   59.99999885
_cell_angle_gamma   59.99999283
_symmetry_Int_Tables_number   1
_chemical_formula_structural   Lu4TlCo
_chemical_formula_sum   'Lu16 Tl4 Co4'
_cell_volume   584.51554160
_cell_formula_units_Z   4
loop_
 _symmetry_equiv_pos_site_id
 _symmetry_equiv_pos_as_xyz
  1  'x, y, z'
loop_
 _atom_site_type_symbol
 _atom_site_label
 _atom_site_symmetry_multiplicity
 _atom_site_fract_x
 _atom_site_fract_y
 _atom_site_fract_z
 _atom_site_occupancy
  Lu  Lu0  1  0.437379  0.437379  0.062621  1
  Lu  Lu1  1  0.596001  0.596001  0.596001  1
  Lu  Lu2  1  0.190969  0.809031  0.809031  1
  Lu  Lu3  1  0.062621  0.062621  0.437379  1
  Lu  Lu4  1  0.437379  0.062621  0.062621  1
  Lu  Lu5  1  0.809031  0.190969  0.809031  1
  Lu  Lu6  1  0.437379  0.062621  0.437379  1
  Lu  Lu7  1  0.596001  0.211996  0.596001  1
  Lu  Lu8  1  0.809031  0.809031  0.190969  1
  Lu  Lu9  1  0.211996  0.596001  0.596001  1
  Lu  Lu10  1  0.809031  0.190969  0.190969  1
  Lu  Lu11  1  0.062621  0.437379  0.437379  1
  Lu  Lu12  1  0.190969  0.809031  0.190969  1
  Lu  Lu13  1  0.596001  0.596001  0.211996  1
  Lu  Lu14  1  0.190969  0.190969  0.809031  1
  Lu  Lu15  1  0.062621  0.437379  0.062621  1
  Tl  Tl16  1  0.835742  0.835742  0.492773  1
  Tl  Tl17  1  0.835742  0.835742  0.835742  1
  Tl  Tl18  1  0.492773  0.835742  0.835742  1
  Tl  Tl19  1  0.835742  0.492773  0.835742  1
  Co  Co20  1  0.390807  0.390807  0.390807  1
  Co  Co21  1  0.827579  0.390807  0.390807  1
  Co  Co22  1  0.390807  0.827579  0.390807  1
  Co  Co23  1  0.390807  0.390807  0.827579  1
