# generated using pymatgen
data_GaSiPPd6
_symmetry_space_group_name_H-M   'P 1'
_cell_length_a   6.71360700
_cell_length_b   6.71360830
_cell_length_c   3.36007300
_cell_angle_alpha   90.00000000
_cell_angle_beta   90.00000000
_cell_angle_gamma   119.99998868
_symmetry_Int_Tables_number   1
_chemical_formula_structural   GaSiPPd6
_chemical_formula_sum   'Ga1 Si1 P1 Pd6'
_cell_volume   131.15694977
_cell_formula_units_Z   1
loop_
 _symmetry_equiv_pos_site_id
 _symmetry_equiv_pos_as_xyz
  1  'x, y, z'
loop_
 _atom_site_type_symbol
 _atom_site_label
 _atom_site_symmetry_multiplicity
 _atom_site_fract_x
 _atom_site_fract_y
 _atom_site_fract_z
 _atom_site_occupancy
  Ga  Ga0  1  0.666667  0.333333  0.500000  1
  Si  Si1  1  0.333333  0.666667  0.500000  1
  P  P2  1  0.000000  0.000000  0.000000  1
  Pd  Pd3  1  0.002751  0.260656  0.500000  1
  Pd  Pd4  1  0.257905  0.997249  0.500000  1
  Pd  Pd5  1  0.739344  0.742095  0.500000  1
  Pd  Pd6  1  0.593661  0.982527  0.000000  1
  Pd  Pd7  1  0.388866  0.406339  0.000000  1
  Pd  Pd8  1  0.017473  0.611134  0.000000  1
