# generated using pymatgen
data_LiHo2Co9As7Rh2
_symmetry_space_group_name_H-M   'P 1'
_cell_length_a   9.43079788
_cell_length_b   9.43034253
_cell_length_c   3.77638800
_cell_angle_alpha   90.00138124
_cell_angle_beta   89.99825047
_cell_angle_gamma   120.35604219
_symmetry_Int_Tables_number   1
_chemical_formula_structural   LiHo2Co9As7Rh2
_chemical_formula_sum   'Li1 Ho2 Co9 As7 Rh2'
_cell_volume   289.81029712
_cell_formula_units_Z   1
loop_
 _symmetry_equiv_pos_site_id
 _symmetry_equiv_pos_as_xyz
  1  'x, y, z'
loop_
 _atom_site_type_symbol
 _atom_site_label
 _atom_site_symmetry_multiplicity
 _atom_site_fract_x
 _atom_site_fract_y
 _atom_site_fract_z
 _atom_site_occupancy
  Li  Li0  1  0.889832  0.107712  0.761880  1
  Ho  Ho1  1  0.339296  0.672277  0.261874  1
  Ho  Ho2  1  0.666741  0.334417  0.761838  1
  Co  Co3  1  0.429780  0.371118  0.261955  1
  Co  Co4  1  0.940348  0.567192  0.261904  1
  Co  Co5  1  0.621778  0.056644  0.261820  1
  Co  Co6  1  0.559619  0.615549  0.761902  1
  Co  Co7  1  0.048157  0.434005  0.761850  1
  Co  Co8  1  0.381261  0.944869  0.761879  1
  Co  Co9  1  0.158032  0.875601  0.261949  1
  Co  Co10  1  0.717747  0.837919  0.261878  1
  Co  Co11  1  0.122559  0.281970  0.261914  1
  As  As12  1  0.000668  0.997765  0.261944  1
  As  As13  1  0.412645  0.113299  0.261881  1
  As  As14  1  0.699663  0.585647  0.261872  1
  As  As15  1  0.882164  0.295464  0.261815  1
  As  As16  1  0.598477  0.890567  0.761964  1
  As  As17  1  0.288156  0.412037  0.761903  1
  As  As18  1  0.119446  0.706935  0.761971  1
  Rh  Rh19  1  0.225715  0.126684  0.762059  1
  Rh  Rh20  1  0.897916  0.772325  0.761947  1
