# generated using pymatgen
data_Ba4DyMoO8
_symmetry_space_group_name_H-M   'P 1'
_cell_length_a   7.44688100
_cell_length_b   7.44687902
_cell_length_c   5.97814100
_cell_angle_alpha   90.00000000
_cell_angle_beta   90.00000000
_cell_angle_gamma   132.87266710
_symmetry_Int_Tables_number   1
_chemical_formula_structural   Ba4DyMoO8
_chemical_formula_sum   'Ba4 Dy1 Mo1 O8'
_cell_volume   242.96312241
_cell_formula_units_Z   1
loop_
 _symmetry_equiv_pos_site_id
 _symmetry_equiv_pos_as_xyz
  1  'x, y, z'
loop_
 _atom_site_type_symbol
 _atom_site_label
 _atom_site_symmetry_multiplicity
 _atom_site_fract_x
 _atom_site_fract_y
 _atom_site_fract_z
 _atom_site_occupancy
  Ba  Ba0  1  0.355194  0.644806  0.000000  1
  Ba  Ba1  1  0.856081  0.143919  0.500000  1
  Ba  Ba2  1  0.143919  0.856081  0.500000  1
  Ba  Ba3  1  0.644806  0.355194  0.000000  1
  Dy  Dy4  1  0.000000  0.000000  0.000000  1
  Mo  Mo5  1  0.500000  0.500000  0.500000  1
  O  O6  1  0.258466  0.258466  0.734518  1
  O  O7  1  0.741534  0.741534  0.265482  1
  O  O8  1  0.741534  0.741534  0.734518  1
  O  O9  1  0.258466  0.258466  0.265482  1
  O  O10  1  0.166802  0.833198  0.000000  1
  O  O11  1  0.646010  0.353990  0.500000  1
  O  O12  1  0.353990  0.646010  0.500000  1
  O  O13  1  0.833198  0.166802  0.000000  1
