# generated using pymatgen
data_Rb2Se(OF2)2
_symmetry_space_group_name_H-M   'P 1'
_cell_length_a   6.26148316
_cell_length_b   6.26148367
_cell_length_c   8.61126900
_cell_angle_alpha   90.00000000
_cell_angle_beta   90.00000000
_cell_angle_gamma   87.48329307
_symmetry_Int_Tables_number   1
_chemical_formula_structural   Rb2Se(OF2)2
_chemical_formula_sum   'Rb4 Se2 O4 F8'
_cell_volume   337.28927241
_cell_formula_units_Z   2
loop_
 _symmetry_equiv_pos_site_id
 _symmetry_equiv_pos_as_xyz
  1  'x, y, z'
loop_
 _atom_site_type_symbol
 _atom_site_label
 _atom_site_symmetry_multiplicity
 _atom_site_fract_x
 _atom_site_fract_y
 _atom_site_fract_z
 _atom_site_occupancy
  Rb  Rb0  1  0.750992  0.249008  0.500000  1
  Rb  Rb1  1  0.750992  0.249008  0.000000  1
  Rb  Rb2  1  0.249008  0.750992  0.500000  1
  Rb  Rb3  1  0.249008  0.750992  0.000000  1
  Se  Se4  1  0.252874  0.252874  0.250000  1
  Se  Se5  1  0.747126  0.747126  0.750000  1
  O  O6  1  0.068109  0.068109  0.250000  1
  O  O7  1  0.931891  0.931891  0.750000  1
  O  O8  1  0.437517  0.437517  0.250000  1
  O  O9  1  0.562483  0.562483  0.750000  1
  F  F10  1  0.252900  0.252900  0.470111  1
  F  F11  1  0.747100  0.747100  0.529889  1
  F  F12  1  0.252900  0.252900  0.029889  1
  F  F13  1  0.747100  0.747100  0.970111  1
  F  F14  1  0.033861  0.471695  0.250000  1
  F  F15  1  0.528305  0.966139  0.750000  1
  F  F16  1  0.966139  0.528305  0.750000  1
  F  F17  1  0.471695  0.033861  0.250000  1
