# generated using pymatgen
data_Cu3SiSe4
_symmetry_space_group_name_H-M   'P 1'
_cell_length_a   6.75775158
_cell_length_b   6.75775127
_cell_length_c   6.75775092
_cell_angle_alpha   131.62763497
_cell_angle_beta   131.62762737
_cell_angle_gamma   70.81777840
_symmetry_Int_Tables_number   1
_chemical_formula_structural   Cu3SiSe4
_chemical_formula_sum   'Cu3 Si1 Se4'
_cell_volume   168.88181035
_cell_formula_units_Z   1
loop_
 _symmetry_equiv_pos_site_id
 _symmetry_equiv_pos_as_xyz
  1  'x, y, z'
loop_
 _atom_site_type_symbol
 _atom_site_label
 _atom_site_symmetry_multiplicity
 _atom_site_fract_x
 _atom_site_fract_y
 _atom_site_fract_z
 _atom_site_occupancy
  Cu  Cu0  1  0.500000  0.500000  0.000000  1
  Cu  Cu1  1  0.750000  0.250000  0.500000  1
  Cu  Cu2  1  0.250000  0.750000  0.500000  1
  Si  Si3  1  0.000000  0.000000  0.000000  1
  Se  Se4  1  0.120108  0.633614  0.000000  1
  Se  Se5  1  0.633614  0.120108  0.000000  1
  Se  Se6  1  0.879892  0.879892  0.513507  1
  Se  Se7  1  0.366386  0.366386  0.486493  1
