# generated using pymatgen
data_Ti8Al14GaRu7
_symmetry_space_group_name_H-M   'P 1'
_cell_length_a   8.64873928
_cell_length_b   8.64873950
_cell_length_c   8.64873903
_cell_angle_alpha   120.10602102
_cell_angle_beta   120.01271732
_cell_angle_gamma   89.89722187
_symmetry_Int_Tables_number   1
_chemical_formula_structural   Ti8Al14GaRu7
_chemical_formula_sum   'Ti8 Al14 Ga1 Ru7'
_cell_volume   457.03808795
_cell_formula_units_Z   1
loop_
 _symmetry_equiv_pos_site_id
 _symmetry_equiv_pos_as_xyz
  1  'x, y, z'
loop_
 _atom_site_type_symbol
 _atom_site_label
 _atom_site_symmetry_multiplicity
 _atom_site_fract_x
 _atom_site_fract_y
 _atom_site_fract_z
 _atom_site_occupancy
  Ti  Ti0  1  0.790559  0.282899  0.065844  1
  Ti  Ti1  1  0.217056  0.282899  0.492340  1
  Ti  Ti2  1  0.213593  0.713593  0.500000  1
  Ti  Ti3  1  0.217056  0.724716  0.934156  1
  Ti  Ti4  1  0.790559  0.724716  0.507660  1
  Ti  Ti5  1  0.778549  0.278549  0.500000  1
  Ti  Ti6  1  0.378925  0.121204  0.742279  1
  Ti  Ti7  1  0.378925  0.636647  0.257721  1
  Al  Al8  1  0.156990  0.343520  0.186529  1
  Al  Al9  1  0.156990  0.970461  0.813471  1
  Al  Al10  1  0.153499  0.346302  0.807196  1
  Al  Al11  1  0.539106  0.346302  0.192804  1
  Al  Al12  1  0.845359  0.653310  0.807952  1
  Al  Al13  1  0.845359  0.037407  0.192048  1
  Al  Al14  1  0.842535  0.654701  0.187833  1
  Al  Al15  1  0.466869  0.654701  0.812167  1
  Al  Al16  1  0.379708  0.121843  0.257864  1
  Al  Al17  1  0.863980  0.121843  0.742136  1
  Al  Al18  1  0.619318  0.875790  0.256472  1
  Al  Al19  1  0.619318  0.362846  0.743528  1
  Al  Al20  1  0.620052  0.877753  0.742299  1
  Al  Al21  1  0.135453  0.877753  0.257701  1
  Ga  Ga22  1  0.996129  0.496129  0.500000  1
  Ru  Ru23  1  0.999501  0.999217  0.500368  1
  Ru  Ru24  1  0.498849  0.999217  0.999716  1
  Ru  Ru25  1  0.498234  0.498234  0.000000  1
  Ru  Ru26  1  0.498849  0.499133  0.499632  1
  Ru  Ru27  1  0.999501  0.499133  0.000284  1
  Ru  Ru28  1  0.000171  0.000171  0.000000  1
  Ru  Ru29  1  0.499009  0.999009  0.500000  1
