# generated using pymatgen
data_Ho2ErTm(B6Ru)2
_symmetry_space_group_name_H-M   'P 1'
_cell_length_a   3.63667000
_cell_length_b   9.09829306
_cell_length_c   11.47441108
_cell_angle_alpha   90.01337396
_cell_angle_beta   90.00000000
_cell_angle_gamma   90.00000000
_symmetry_Int_Tables_number   1
_chemical_formula_structural   Ho2ErTm(B6Ru)2
_chemical_formula_sum   'Ho4 Er2 Tm2 B24 Ru4'
_cell_volume   379.65944492
_cell_formula_units_Z   2
loop_
 _symmetry_equiv_pos_site_id
 _symmetry_equiv_pos_as_xyz
  1  'x, y, z'
loop_
 _atom_site_type_symbol
 _atom_site_label
 _atom_site_symmetry_multiplicity
 _atom_site_fract_x
 _atom_site_fract_y
 _atom_site_fract_z
 _atom_site_occupancy
  Ho  Ho0  1  0.000000  0.322072  0.414262  1
  Ho  Ho1  1  0.000000  0.677928  0.585738  1
  Ho  Ho2  1  0.000000  0.821700  0.085628  1
  Ho  Ho3  1  0.000000  0.178300  0.914372  1
  Er  Er4  1  0.000000  0.943546  0.372165  1
  Er  Er5  1  0.000000  0.056454  0.627835  1
  Tm  Tm6  1  0.000000  0.443541  0.127607  1
  Tm  Tm7  1  0.000000  0.556459  0.872393  1
  B  B8  1  0.500000  0.553946  0.433024  1
  B  B9  1  0.500000  0.446054  0.566976  1
  B  B10  1  0.500000  0.054274  0.066755  1
  B  B11  1  0.500000  0.945726  0.933245  1
  B  B12  1  0.500000  0.748341  0.419523  1
  B  B13  1  0.500000  0.251659  0.580477  1
  B  B14  1  0.500000  0.249056  0.080272  1
  B  B15  1  0.500000  0.750944  0.919728  1
  B  B16  1  0.500000  0.790893  0.265484  1
  B  B17  1  0.500000  0.209107  0.734516  1
  B  B18  1  0.500000  0.291468  0.234087  1
  B  B19  1  0.500000  0.708532  0.765913  1
  B  B20  1  0.500000  0.630807  0.184381  1
  B  B21  1  0.500000  0.369193  0.815619  1
  B  B22  1  0.500000  0.131441  0.315218  1
  B  B23  1  0.500000  0.868559  0.684782  1
  B  B24  1  0.500000  0.983039  0.212708  1
  B  B25  1  0.500000  0.016961  0.787292  1
  B  B26  1  0.500000  0.482639  0.286833  1
  B  B27  1  0.500000  0.517361  0.713167  1
  B  B28  1  0.500000  0.605275  0.029016  1
  B  B29  1  0.500000  0.394725  0.970984  1
  B  B30  1  0.500000  0.106624  0.470676  1
  B  B31  1  0.500000  0.893376  0.529324  1
  Ru  Ru32  1  0.000000  0.637327  0.320561  1
  Ru  Ru33  1  0.000000  0.362673  0.679439  1
  Ru  Ru34  1  0.000000  0.138302  0.179059  1
  Ru  Ru35  1  0.000000  0.861698  0.820941  1
