# generated using pymatgen
data_Tb6NbCo17Si11P
_symmetry_space_group_name_H-M   'P 1'
_cell_length_a   3.79229700
_cell_length_b   10.77424441
_cell_length_c   12.47651348
_cell_angle_alpha   90.03171379
_cell_angle_beta   90.00000000
_cell_angle_gamma   90.00000000
_symmetry_Int_Tables_number   1
_chemical_formula_structural   Tb6NbCo17Si11P
_chemical_formula_sum   'Tb6 Nb1 Co17 Si11 P1'
_cell_volume   509.77946747
_cell_formula_units_Z   1
loop_
 _symmetry_equiv_pos_site_id
 _symmetry_equiv_pos_as_xyz
  1  'x, y, z'
loop_
 _atom_site_type_symbol
 _atom_site_label
 _atom_site_symmetry_multiplicity
 _atom_site_fract_x
 _atom_site_fract_y
 _atom_site_fract_z
 _atom_site_occupancy
  Tb  Tb0  1  0.000000  0.499670  0.528493  1
  Tb  Tb1  1  0.500000  0.999961  0.473973  1
  Tb  Tb2  1  0.500000  0.821317  0.207588  1
  Tb  Tb3  1  0.500000  0.181081  0.205678  1
  Tb  Tb4  1  0.000000  0.681905  0.797246  1
  Tb  Tb5  1  0.000000  0.317478  0.796193  1
  Nb  Nb6  1  0.500000  0.497835  0.146250  1
  Co  Co7  1  0.000000  0.002067  0.846557  1
  Co  Co8  1  0.500000  0.499915  0.697966  1
  Co  Co9  1  0.000000  0.000188  0.301894  1
  Co  Co10  1  0.000000  0.496482  0.986019  1
  Co  Co11  1  0.500000  0.000973  0.015698  1
  Co  Co12  1  0.500000  0.325323  0.993230  1
  Co  Co13  1  0.500000  0.673065  0.992117  1
  Co  Co14  1  0.000000  0.166651  0.003674  1
  Co  Co15  1  0.000000  0.836866  0.000829  1
  Co  Co16  1  0.500000  0.299548  0.432236  1
  Co  Co17  1  0.500000  0.700346  0.433112  1
  Co  Co18  1  0.000000  0.197457  0.571534  1
  Co  Co19  1  0.000000  0.802629  0.572055  1
  Co  Co20  1  0.500000  0.884094  0.707403  1
  Co  Co21  1  0.500000  0.116284  0.707125  1
  Co  Co22  1  0.000000  0.618660  0.292949  1
  Co  Co23  1  0.000000  0.379756  0.290600  1
  Si  Si24  1  0.500000  0.499649  0.885417  1
  Si  Si25  1  0.000000  0.999919  0.115117  1
  Si  Si26  1  0.500000  0.500188  0.350021  1
  Si  Si27  1  0.000000  0.000052  0.661690  1
  Si  Si28  1  0.500000  0.302681  0.615072  1
  Si  Si29  1  0.500000  0.697447  0.615651  1
  Si  Si30  1  0.000000  0.196388  0.387286  1
  Si  Si31  1  0.000000  0.803220  0.387773  1
  Si  Si32  1  0.500000  0.855743  0.890780  1
  Si  Si33  1  0.500000  0.144605  0.890352  1
  Si  Si34  1  0.000000  0.661147  0.100455  1
  P  P35  1  0.000000  0.339407  0.099974  1
