# generated using pymatgen
data_SrCa5Co2(SeO3)8
_symmetry_space_group_name_H-M   'P 1'
_cell_length_a   12.80576857
_cell_length_b   7.73928386
_cell_length_c   7.71959317
_cell_angle_alpha   90.40147475
_cell_angle_beta   107.41516469
_cell_angle_gamma   107.46166405
_symmetry_Int_Tables_number   1
_chemical_formula_structural   SrCa5Co2(SeO3)8
_chemical_formula_sum   'Sr1 Ca5 Co2 Se8 O24'
_cell_volume   692.40905736
_cell_formula_units_Z   1
loop_
 _symmetry_equiv_pos_site_id
 _symmetry_equiv_pos_as_xyz
  1  'x, y, z'
loop_
 _atom_site_type_symbol
 _atom_site_label
 _atom_site_symmetry_multiplicity
 _atom_site_fract_x
 _atom_site_fract_y
 _atom_site_fract_z
 _atom_site_occupancy
  Sr  Sr0  1  0.898464  0.449232  0.199231  1
  Ca  Ca1  1  0.254497  0.627247  0.377248  1
  Ca  Ca2  1  0.396847  0.198424  0.448424  1
  Ca  Ca3  1  0.601724  0.800862  0.550863  1
  Ca  Ca4  1  0.747661  0.373831  0.623831  1
  Ca  Ca5  1  0.103734  0.551867  0.801867  1
  Co  Co6  1  0.747717  0.873858  0.123858  1
  Co  Co7  1  0.254406  0.127203  0.877203  1
  Se  Se8  1  0.382239  0.512919  0.109456  1
  Se  Se9  1  0.123274  0.892161  0.129317  1
  Se  Se10  1  0.611151  0.122299  0.229535  1
  Se  Se11  1  0.123274  0.231111  0.493957  1
  Se  Se12  1  0.881373  0.773024  0.518069  1
  Se  Se13  1  0.382239  0.869318  0.772784  1
  Se  Se14  1  0.881373  0.108348  0.863303  1
  Se  Se15  1  0.611151  0.488852  0.881616  1
  O  O16  1  0.250217  0.543478  0.070816  1
  O  O17  1  0.848811  0.103407  0.069159  1
  O  O18  1  0.350812  0.275721  0.115208  1
  O  O19  1  0.067983  0.661844  0.129536  1
  O  O20  1  0.648657  0.921466  0.262817  1
  O  O21  1  0.848811  0.745403  0.279652  1
  O  O22  1  0.253932  0.929654  0.295172  1
  O  O23  1  0.741054  0.289248  0.321688  1
  O  O24  1  0.438563  0.579371  0.339250  1
  O  O25  1  0.556040  0.124794  0.405851  1
  O  O26  1  0.067983  0.406138  0.438447  1
  O  O27  1  0.253932  0.324278  0.458761  1
  O  O28  1  0.749483  0.677767  0.548462  1
  O  O29  1  0.937575  0.597970  0.574136  1
  O  O30  1  0.438563  0.859193  0.599313  1
  O  O31  1  0.556040  0.431246  0.650189  1
  O  O32  1  0.250217  0.706739  0.679401  1
  O  O33  1  0.749483  0.071716  0.701023  1
  O  O34  1  0.156310  0.265138  0.731925  1
  O  O35  1  0.350812  0.075091  0.735605  1
  O  O36  1  0.937575  0.339605  0.863438  1
  O  O37  1  0.648657  0.727192  0.885839  1
  O  O38  1  0.156310  0.891171  0.924385  1
  O  O39  1  0.741054  0.451806  0.919366  1
