# generated using pymatgen
data_Er20Co3Bi8Pt
_symmetry_space_group_name_H-M   'P 1'
_cell_length_a   7.94149281
_cell_length_b   8.89152800
_cell_length_c   12.35237944
_cell_angle_alpha   90.00000000
_cell_angle_beta   90.11462398
_cell_angle_gamma   90.00000000
_symmetry_Int_Tables_number   1
_chemical_formula_structural   Er20Co3Bi8Pt
_chemical_formula_sum   'Er20 Co3 Bi8 Pt1'
_cell_volume   872.22454165
_cell_formula_units_Z   1
loop_
 _symmetry_equiv_pos_site_id
 _symmetry_equiv_pos_as_xyz
  1  'x, y, z'
loop_
 _atom_site_type_symbol
 _atom_site_label
 _atom_site_symmetry_multiplicity
 _atom_site_fract_x
 _atom_site_fract_y
 _atom_site_fract_z
 _atom_site_occupancy
  Er  Er0  1  0.653210  0.750000  0.698061  1
  Er  Er1  1  0.346062  0.250000  0.301621  1
  Er  Er2  1  0.156294  0.250000  0.799067  1
  Er  Er3  1  0.837417  0.750000  0.210701  1
  Er  Er4  1  0.126891  0.750000  0.804448  1
  Er  Er5  1  0.881806  0.250000  0.187220  1
  Er  Er6  1  0.616462  0.250000  0.687794  1
  Er  Er7  1  0.381188  0.750000  0.312190  1
  Er  Er8  1  0.552033  0.750000  0.998608  1
  Er  Er9  1  0.447400  0.250000  0.001360  1
  Er  Er10  1  0.055400  0.250000  0.503000  1
  Er  Er11  1  0.947684  0.750000  0.499151  1
  Er  Er12  1  0.824397  0.451385  0.933255  1
  Er  Er13  1  0.174802  0.531588  0.066032  1
  Er  Er14  1  0.327080  0.538508  0.562685  1
  Er  Er15  1  0.174802  0.968412  0.066032  1
  Er  Er16  1  0.674151  0.462599  0.436743  1
  Er  Er17  1  0.824397  0.048615  0.933255  1
  Er  Er18  1  0.674151  0.037401  0.436743  1
  Er  Er19  1  0.327080  0.961492  0.562685  1
  Co  Co20  1  0.066096  0.250000  0.007281  1
  Co  Co21  1  0.434937  0.250000  0.508103  1
  Co  Co22  1  0.567152  0.750000  0.490490  1
  Bi  Bi23  1  0.931446  0.009011  0.673169  1
  Bi  Bi24  1  0.067624  0.992087  0.327340  1
  Bi  Bi25  1  0.432403  0.990979  0.826716  1
  Bi  Bi26  1  0.067624  0.507913  0.327340  1
  Bi  Bi27  1  0.567267  0.009791  0.173499  1
  Bi  Bi28  1  0.931446  0.490989  0.673169  1
  Bi  Bi29  1  0.567267  0.490209  0.173499  1
  Bi  Bi30  1  0.432403  0.509021  0.826716  1
  Pt  Pt31  1  0.931627  0.750000  0.992028  1
