# generated using pymatgen
data_Er13Th3(InOs)4
_symmetry_space_group_name_H-M   'P 1'
_cell_length_a   9.74670879
_cell_length_b   9.79928673
_cell_length_c   9.79928700
_cell_angle_alpha   60.00000247
_cell_angle_beta   59.82139515
_cell_angle_gamma   59.82139466
_symmetry_Int_Tables_number   1
_chemical_formula_structural   Er13Th3(InOs)4
_chemical_formula_sum   'Er13 Th3 In4 Os4'
_cell_volume   660.01563760
_cell_formula_units_Z   1
loop_
 _symmetry_equiv_pos_site_id
 _symmetry_equiv_pos_as_xyz
  1  'x, y, z'
loop_
 _atom_site_type_symbol
 _atom_site_label
 _atom_site_symmetry_multiplicity
 _atom_site_fract_x
 _atom_site_fract_y
 _atom_site_fract_z
 _atom_site_occupancy
  Er  Er0  1  0.200718  0.599760  0.599760  1
  Er  Er1  1  0.061413  0.440423  0.440423  1
  Er  Er2  1  0.437627  0.060784  0.060784  1
  Er  Er3  1  0.437627  0.060784  0.440803  1
  Er  Er4  1  0.061413  0.440423  0.057740  1
  Er  Er5  1  0.437627  0.440803  0.060784  1
  Er  Er6  1  0.061413  0.057740  0.440423  1
  Er  Er7  1  0.191095  0.808534  0.808534  1
  Er  Er8  1  0.809564  0.190507  0.190507  1
  Er  Er9  1  0.809564  0.190507  0.809423  1
  Er  Er10  1  0.191095  0.808534  0.191838  1
  Er  Er11  1  0.809564  0.809423  0.190507  1
  Er  Er12  1  0.191095  0.191838  0.808534  1
  Th  Th13  1  0.596196  0.597410  0.597410  1
  Th  Th14  1  0.596196  0.597410  0.208986  1
  Th  Th15  1  0.596196  0.208986  0.597410  1
  In  In16  1  0.836070  0.833358  0.833358  1
  In  In17  1  0.836070  0.833358  0.497212  1
  In  In18  1  0.836070  0.497212  0.833358  1
  In  In19  1  0.497087  0.834304  0.834304  1
  Os  Os20  1  0.393399  0.389743  0.389743  1
  Os  Os21  1  0.393399  0.389743  0.827117  1
  Os  Os22  1  0.393399  0.827117  0.389743  1
  Os  Os23  1  0.826104  0.391298  0.391298  1
