# generated using pymatgen
data_Mg2Ta3Nb(SbRh)6
_symmetry_space_group_name_H-M   'P 1'
_cell_length_a   7.62965170
_cell_length_b   7.62164710
_cell_length_c   7.62161006
_cell_angle_alpha   119.92254600
_cell_angle_beta   99.65515323
_cell_angle_gamma   99.66123043
_symmetry_Int_Tables_number   1
_chemical_formula_structural   Mg2Ta3Nb(SbRh)6
_chemical_formula_sum   'Mg2 Ta3 Nb1 Sb6 Rh6'
_cell_volume   361.90663873
_cell_formula_units_Z   1
loop_
 _symmetry_equiv_pos_site_id
 _symmetry_equiv_pos_as_xyz
  1  'x, y, z'
loop_
 _atom_site_type_symbol
 _atom_site_label
 _atom_site_symmetry_multiplicity
 _atom_site_fract_x
 _atom_site_fract_y
 _atom_site_fract_z
 _atom_site_occupancy
  Mg  Mg0  1  0.003587  0.836947  0.667348  1
  Mg  Mg1  1  0.503571  0.667396  0.836883  1
  Ta  Ta2  1  0.498865  0.331198  0.165087  1
  Ta  Ta3  1  0.998550  0.164889  0.331037  1
  Ta  Ta4  1  0.498969  0.000837  0.498786  1
  Nb  Nb5  1  0.998895  0.499048  0.000759  1
  Sb  Sb6  1  0.255502  0.908869  0.070945  1
  Sb  Sb7  1  0.746785  0.748941  0.254638  1
  Sb  Sb8  1  0.247447  0.586615  0.429149  1
  Sb  Sb9  1  0.747620  0.429390  0.586800  1
  Sb  Sb10  1  0.246632  0.254791  0.749153  1
  Sb  Sb11  1  0.755687  0.071142  0.909009  1
  Rh  Rh12  1  0.369822  0.621892  0.140173  1
  Rh  Rh13  1  0.866657  0.440319  0.275289  1
  Rh  Rh14  1  0.367760  0.273851  0.440829  1
  Rh  Rh15  1  0.866546  0.136981  0.618777  1
  Rh  Rh16  1  0.388747  0.980227  0.794594  1
  Rh  Rh17  1  0.888360  0.796668  0.980745  1
