# generated using pymatgen
data_TbNdHo2(NiP)4
_symmetry_space_group_name_H-M   'P 1'
_cell_length_a   3.91809400
_cell_length_b   3.91809492
_cell_length_c   15.65357800
_cell_angle_alpha   90.00000000
_cell_angle_beta   90.00000000
_cell_angle_gamma   119.99999224
_symmetry_Int_Tables_number   1
_chemical_formula_structural   TbNdHo2(NiP)4
_chemical_formula_sum   'Tb1 Nd1 Ho2 Ni4 P4'
_cell_volume   208.11054728
_cell_formula_units_Z   1
loop_
 _symmetry_equiv_pos_site_id
 _symmetry_equiv_pos_as_xyz
  1  'x, y, z'
loop_
 _atom_site_type_symbol
 _atom_site_label
 _atom_site_symmetry_multiplicity
 _atom_site_fract_x
 _atom_site_fract_y
 _atom_site_fract_z
 _atom_site_occupancy
  Tb  Tb0  1  0.000000  0.000000  0.500000  1
  Nd  Nd1  1  0.000000  0.000000  0.000000  1
  Ho  Ho2  1  0.000000  0.000000  0.253651  1
  Ho  Ho3  1  0.000000  0.000000  0.746349  1
  Ni  Ni4  1  0.333333  0.666667  0.371992  1
  Ni  Ni5  1  0.666667  0.333333  0.628008  1
  Ni  Ni6  1  0.666667  0.333333  0.865659  1
  Ni  Ni7  1  0.333333  0.666667  0.134341  1
  P  P8  1  0.333333  0.666667  0.869791  1
  P  P9  1  0.666667  0.333333  0.130209  1
  P  P10  1  0.666667  0.333333  0.378438  1
  P  P11  1  0.333333  0.666667  0.621562  1
