# generated using pymatgen
data_Dy5Er5(SiSn3)2
_symmetry_space_group_name_H-M   'P 1'
_cell_length_a   9.18709103
_cell_length_b   9.18571428
_cell_length_c   6.42349900
_cell_angle_alpha   90.00000000
_cell_angle_beta   90.00000000
_cell_angle_gamma   119.99504093
_symmetry_Int_Tables_number   1
_chemical_formula_structural   Dy5Er5(SiSn3)2
_chemical_formula_sum   'Dy5 Er5 Si2 Sn6'
_cell_volume   469.47767475
_cell_formula_units_Z   1
loop_
 _symmetry_equiv_pos_site_id
 _symmetry_equiv_pos_as_xyz
  1  'x, y, z'
loop_
 _atom_site_type_symbol
 _atom_site_label
 _atom_site_symmetry_multiplicity
 _atom_site_fract_x
 _atom_site_fract_y
 _atom_site_fract_z
 _atom_site_occupancy
  Dy  Dy0  1  0.746973  0.746885  0.750000  1
  Dy  Dy1  1  0.253027  0.999912  0.750000  1
  Dy  Dy2  1  0.000000  0.253031  0.750000  1
  Dy  Dy3  1  0.253120  0.253089  0.250000  1
  Dy  Dy4  1  0.746880  0.999969  0.250000  1
  Er  Er5  1  0.666771  0.333475  0.000016  1
  Er  Er6  1  0.333229  0.666705  0.000016  1
  Er  Er7  1  0.333229  0.666705  0.499984  1
  Er  Er8  1  0.666771  0.333475  0.499984  1
  Er  Er9  1  0.000000  0.747344  0.250000  1
  Si  Si10  1  0.000000  0.999601  0.000488  1
  Si  Si11  1  0.000000  0.999601  0.499512  1
  Sn  Sn12  1  0.391713  0.391722  0.750000  1
  Sn  Sn13  1  0.608287  0.000009  0.750000  1
  Sn  Sn14  1  0.000000  0.608251  0.750000  1
  Sn  Sn15  1  0.608724  0.608451  0.250000  1
  Sn  Sn16  1  0.391276  0.999727  0.250000  1
  Sn  Sn17  1  0.000000  0.392047  0.250000  1
