# generated using pymatgen
data_CaPa(GaIr)2
_symmetry_space_group_name_H-M   'P 1'
_cell_length_a   4.16181300
_cell_length_b   7.06463106
_cell_length_c   8.06224248
_cell_angle_alpha   89.92542135
_cell_angle_beta   90.00000000
_cell_angle_gamma   90.00000000
_symmetry_Int_Tables_number   1
_chemical_formula_structural   CaPa(GaIr)2
_chemical_formula_sum   'Ca2 Pa2 Ga4 Ir4'
_cell_volume   237.04321913
_cell_formula_units_Z   2
loop_
 _symmetry_equiv_pos_site_id
 _symmetry_equiv_pos_as_xyz
  1  'x, y, z'
loop_
 _atom_site_type_symbol
 _atom_site_label
 _atom_site_symmetry_multiplicity
 _atom_site_fract_x
 _atom_site_fract_y
 _atom_site_fract_z
 _atom_site_occupancy
  Ca  Ca0  1  0.750000  0.968233  0.685128  1
  Ca  Ca1  1  0.250000  0.031784  0.314860  1
  Pa  Pa2  1  0.250000  0.530001  0.190497  1
  Pa  Pa3  1  0.750000  0.469993  0.809482  1
  Ga  Ga4  1  0.250000  0.658300  0.564339  1
  Ga  Ga5  1  0.750000  0.341639  0.435587  1
  Ga  Ga6  1  0.750000  0.863214  0.066518  1
  Ga  Ga7  1  0.250000  0.136851  0.933538  1
  Ir  Ir8  1  0.250000  0.736134  0.894187  1
  Ir  Ir9  1  0.750000  0.263948  0.105933  1
  Ir  Ir10  1  0.750000  0.711918  0.367126  1
  Ir  Ir11  1  0.250000  0.287982  0.632806  1
