# generated using pymatgen
data_LaPr3(SCl)4
_symmetry_space_group_name_H-M   'P 1'
_cell_length_a   6.95059004
_cell_length_b   6.99951424
_cell_length_c   6.87424100
_cell_angle_alpha   79.37614077
_cell_angle_beta   90.00623193
_cell_angle_gamma   89.98729057
_symmetry_Int_Tables_number   1
_chemical_formula_structural   LaPr3(SCl)4
_chemical_formula_sum   'La1 Pr3 S4 Cl4'
_cell_volume   328.70429830
_cell_formula_units_Z   1
loop_
 _symmetry_equiv_pos_site_id
 _symmetry_equiv_pos_as_xyz
  1  'x, y, z'
loop_
 _atom_site_type_symbol
 _atom_site_label
 _atom_site_symmetry_multiplicity
 _atom_site_fract_x
 _atom_site_fract_y
 _atom_site_fract_z
 _atom_site_occupancy
  La  La0  1  0.542520  0.292665  0.308524  1
  Pr  Pr1  1  0.957209  0.791833  0.310271  1
  Pr  Pr2  1  0.042201  0.207236  0.690220  1
  Pr  Pr3  1  0.456650  0.708340  0.690957  1
  S  S4  1  0.742725  0.987978  0.562218  1
  S  S5  1  0.256684  0.009720  0.439424  1
  S  S6  1  0.241563  0.511438  0.439229  1
  S  S7  1  0.757927  0.489756  0.562759  1
  Cl  Cl8  1  0.646377  0.681570  0.070097  1
  Cl  Cl9  1  0.353405  0.321194  0.926230  1
  Cl  Cl10  1  0.146295  0.820789  0.929421  1
  Cl  Cl11  1  0.856443  0.177483  0.070649  1
