# generated using pymatgen
data_SrMnP2Rh
_symmetry_space_group_name_H-M   'P 1'
_cell_length_a   6.36684745
_cell_length_b   6.36684744
_cell_length_c   6.36684816
_cell_angle_alpha   143.71670025
_cell_angle_beta   143.71670004
_cell_angle_gamma   52.25113824
_symmetry_Int_Tables_number   1
_chemical_formula_structural   SrMnP2Rh
_chemical_formula_sum   'Sr1 Mn1 P2 Rh1'
_cell_volume   89.86158157
_cell_formula_units_Z   1
loop_
 _symmetry_equiv_pos_site_id
 _symmetry_equiv_pos_as_xyz
  1  'x, y, z'
loop_
 _atom_site_type_symbol
 _atom_site_label
 _atom_site_symmetry_multiplicity
 _atom_site_fract_x
 _atom_site_fract_y
 _atom_site_fract_z
 _atom_site_occupancy
  Sr  Sr0  1  0.000000  0.000000  0.000000  1
  Mn  Mn1  1  0.250000  0.750000  0.500000  1
  P  P2  1  0.648734  0.648734  0.000000  1
  P  P3  1  0.351266  0.351266  0.000000  1
  Rh  Rh4  1  0.750000  0.250000  0.500000  1
