# generated using pymatgen
data_Ho5Tm11(NiAg)4
_symmetry_space_group_name_H-M   'P 1'
_cell_length_a   9.36023648
_cell_length_b   9.36462507
_cell_length_c   9.36331920
_cell_angle_alpha   60.00184432
_cell_angle_beta   60.00871810
_cell_angle_gamma   60.01321758
_symmetry_Int_Tables_number   1
_chemical_formula_structural   Ho5Tm11(NiAg)4
_chemical_formula_sum   'Ho5 Tm11 Ni4 Ag4'
_cell_volume   580.45703239
_cell_formula_units_Z   1
loop_
 _symmetry_equiv_pos_site_id
 _symmetry_equiv_pos_as_xyz
  1  'x, y, z'
loop_
 _atom_site_type_symbol
 _atom_site_label
 _atom_site_symmetry_multiplicity
 _atom_site_fract_x
 _atom_site_fract_y
 _atom_site_fract_z
 _atom_site_occupancy
  Ho  Ho0  1  0.349803  0.350854  0.350904  1
  Ho  Ho1  1  0.350643  0.350523  0.948251  1
  Ho  Ho2  1  0.350621  0.948258  0.350554  1
  Ho  Ho3  1  0.948401  0.350883  0.350937  1
  Ho  Ho4  1  0.811679  0.188321  0.188278  1
  Tm  Tm5  1  0.188240  0.811762  0.811744  1
  Tm  Tm6  1  0.188634  0.811376  0.188025  1
  Tm  Tm7  1  0.811979  0.188035  0.811362  1
  Tm  Tm8  1  0.188613  0.188052  0.811364  1
  Tm  Tm9  1  0.811972  0.811369  0.188012  1
  Tm  Tm10  1  0.935568  0.564447  0.564433  1
  Tm  Tm11  1  0.564338  0.935647  0.935681  1
  Tm  Tm12  1  0.564207  0.935313  0.564782  1
  Tm  Tm13  1  0.935709  0.564762  0.935348  1
  Tm  Tm14  1  0.564192  0.564784  0.935334  1
  Tm  Tm15  1  0.935720  0.935323  0.564762  1
  Ni  Ni16  1  0.143331  0.142437  0.142470  1
  Ni  Ni17  1  0.142486  0.142694  0.572345  1
  Ni  Ni18  1  0.142435  0.572405  0.142710  1
  Ni  Ni19  1  0.571734  0.142407  0.142457  1
  Ag  Ag20  1  0.582146  0.582307  0.582276  1
  Ag  Ag21  1  0.582128  0.582516  0.253220  1
  Ag  Ag22  1  0.582143  0.253224  0.582485  1
  Ag  Ag23  1  0.253281  0.582301  0.582269  1
