# generated using pymatgen
data_Ti2GaAsRu4
_symmetry_space_group_name_H-M   'P 1'
_cell_length_a   7.35243340
_cell_length_b   7.35243447
_cell_length_c   7.35243400
_cell_angle_alpha   33.58261680
_cell_angle_beta   33.58260428
_cell_angle_gamma   33.58261923
_symmetry_Int_Tables_number   1
_chemical_formula_structural   Ti2GaAsRu4
_chemical_formula_sum   'Ti2 Ga1 As1 Ru4'
_cell_volume   108.32348089
_cell_formula_units_Z   1
loop_
 _symmetry_equiv_pos_site_id
 _symmetry_equiv_pos_as_xyz
  1  'x, y, z'
loop_
 _atom_site_type_symbol
 _atom_site_label
 _atom_site_symmetry_multiplicity
 _atom_site_fract_x
 _atom_site_fract_y
 _atom_site_fract_z
 _atom_site_occupancy
  Ti  Ti0  1  0.252224  0.252224  0.252224  1
  Ti  Ti1  1  0.747776  0.747776  0.747776  1
  Ga  Ga2  1  0.000000  0.000000  0.000000  1
  As  As3  1  0.500000  0.500000  0.500000  1
  Ru  Ru4  1  0.376364  0.376364  0.376364  1
  Ru  Ru5  1  0.873625  0.873625  0.873625  1
  Ru  Ru6  1  0.623636  0.623636  0.623636  1
  Ru  Ru7  1  0.126375  0.126375  0.126375  1
