# generated using pymatgen
data_LaSm5Co16(TcP6)2
_symmetry_space_group_name_H-M   'P 1'
_cell_length_a   3.76932200
_cell_length_b   10.68008900
_cell_length_c   12.38648200
_cell_angle_alpha   90.00000000
_cell_angle_beta   90.00000000
_cell_angle_gamma   90.00000000
_symmetry_Int_Tables_number   1
_chemical_formula_structural   LaSm5Co16(TcP6)2
_chemical_formula_sum   'La1 Sm5 Co16 Tc2 P12'
_cell_volume   498.63882093
_cell_formula_units_Z   1
loop_
 _symmetry_equiv_pos_site_id
 _symmetry_equiv_pos_as_xyz
  1  'x, y, z'
loop_
 _atom_site_type_symbol
 _atom_site_label
 _atom_site_symmetry_multiplicity
 _atom_site_fract_x
 _atom_site_fract_y
 _atom_site_fract_z
 _atom_site_occupancy
  La  La0  1  0.000000  0.500000  0.525254  1
  Sm  Sm1  1  0.500000  0.000000  0.477106  1
  Sm  Sm2  1  0.500000  0.817349  0.205371  1
  Sm  Sm3  1  0.500000  0.182651  0.205371  1
  Sm  Sm4  1  0.000000  0.683138  0.795219  1
  Sm  Sm5  1  0.000000  0.316862  0.795219  1
  Co  Co6  1  0.500000  0.500000  0.704471  1
  Co  Co7  1  0.000000  0.000000  0.295629  1
  Co  Co8  1  0.000000  0.500000  0.987684  1
  Co  Co9  1  0.500000  0.000000  0.012334  1
  Co  Co10  1  0.500000  0.331971  0.991098  1
  Co  Co11  1  0.500000  0.668029  0.991098  1
  Co  Co12  1  0.000000  0.167562  0.008657  1
  Co  Co13  1  0.000000  0.832438  0.008657  1
  Co  Co14  1  0.500000  0.293901  0.430100  1
  Co  Co15  1  0.500000  0.706099  0.430100  1
  Co  Co16  1  0.000000  0.200892  0.570093  1
  Co  Co17  1  0.000000  0.799108  0.570093  1
  Co  Co18  1  0.500000  0.881441  0.710119  1
  Co  Co19  1  0.500000  0.118559  0.710119  1
  Co  Co20  1  0.000000  0.619525  0.289560  1
  Co  Co21  1  0.000000  0.380475  0.289560  1
  Tc  Tc22  1  0.500000  0.500000  0.153788  1
  Tc  Tc23  1  0.000000  0.000000  0.844911  1
  P  P24  1  0.500000  0.500000  0.884321  1
  P  P25  1  0.000000  0.000000  0.115946  1
  P  P26  1  0.500000  0.500000  0.342308  1
  P  P27  1  0.000000  0.000000  0.654875  1
  P  P28  1  0.500000  0.304112  0.615994  1
  P  P29  1  0.500000  0.695888  0.615994  1
  P  P30  1  0.000000  0.190655  0.384729  1
  P  P31  1  0.000000  0.809345  0.384729  1
  P  P32  1  0.500000  0.847659  0.894789  1
  P  P33  1  0.500000  0.152341  0.894789  1
  P  P34  1  0.000000  0.652990  0.104956  1
  P  P35  1  0.000000  0.347010  0.104956  1
