# generated using pymatgen
data_Tb4Co8P12Ir11Ru
_symmetry_space_group_name_H-M   'P 1'
_cell_length_a   3.87627600
_cell_length_b   10.61777922
_cell_length_c   12.21906055
_cell_angle_alpha   90.07409742
_cell_angle_beta   90.00000000
_cell_angle_gamma   90.00000000
_symmetry_Int_Tables_number   1
_chemical_formula_structural   Tb4Co8P12Ir11Ru
_chemical_formula_sum   'Tb4 Co8 P12 Ir11 Ru1'
_cell_volume   502.90486484
_cell_formula_units_Z   1
loop_
 _symmetry_equiv_pos_site_id
 _symmetry_equiv_pos_as_xyz
  1  'x, y, z'
loop_
 _atom_site_type_symbol
 _atom_site_label
 _atom_site_symmetry_multiplicity
 _atom_site_fract_x
 _atom_site_fract_y
 _atom_site_fract_z
 _atom_site_occupancy
  Tb  Tb0  1  0.250000  0.585180  0.711443  1
  Tb  Tb1  1  0.250000  0.914360  0.209591  1
  Tb  Tb2  1  0.750000  0.415268  0.289176  1
  Tb  Tb3  1  0.750000  0.084351  0.789914  1
  Co  Co4  1  0.250000  0.884237  0.697109  1
  Co  Co5  1  0.250000  0.616396  0.197680  1
  Co  Co6  1  0.750000  0.116294  0.302900  1
  Co  Co7  1  0.750000  0.384316  0.803051  1
  Co  Co8  1  0.250000  0.463596  0.933154  1
  Co  Co9  1  0.250000  0.036013  0.433489  1
  Co  Co10  1  0.750000  0.535951  0.066544  1
  Co  Co11  1  0.750000  0.963631  0.566130  1
  P  P12  1  0.250000  0.433117  0.110381  1
  P  P13  1  0.250000  0.067693  0.610879  1
  P  P14  1  0.750000  0.569600  0.890444  1
  P  P15  1  0.750000  0.932305  0.389060  1
  P  P16  1  0.250000  0.274907  0.870299  1
  P  P17  1  0.250000  0.225219  0.370324  1
  P  P18  1  0.750000  0.725657  0.128033  1
  P  P19  1  0.750000  0.774959  0.630000  1
  P  P20  1  0.250000  0.598165  0.377389  1
  P  P21  1  0.250000  0.899181  0.879901  1
  P  P22  1  0.750000  0.402044  0.622782  1
  P  P23  1  0.750000  0.097767  0.122061  1
  Ir  Ir24  1  0.250000  0.777024  0.490799  1
  Ir  Ir25  1  0.750000  0.276985  0.009360  1
  Ir  Ir26  1  0.750000  0.223002  0.509267  1
  Ir  Ir27  1  0.250000  0.410208  0.477428  1
  Ir  Ir28  1  0.250000  0.090438  0.977312  1
  Ir  Ir29  1  0.750000  0.590074  0.522634  1
  Ir  Ir30  1  0.750000  0.909812  0.021286  1
  Ir  Ir31  1  0.250000  0.227407  0.178454  1
  Ir  Ir32  1  0.250000  0.273040  0.678185  1
  Ir  Ir33  1  0.750000  0.774229  0.821397  1
  Ir  Ir34  1  0.750000  0.727511  0.321290  1
  Ru  Ru35  1  0.250000  0.720065  0.990854  1
