# generated using pymatgen
data_Li3TbDy4(P3Ir4)4
_symmetry_space_group_name_H-M   'P 1'
_cell_length_a   12.69894100
_cell_length_b   12.69878303
_cell_length_c   3.97788000
_cell_angle_alpha   90.00000000
_cell_angle_beta   90.00000000
_cell_angle_gamma   119.99958673
_symmetry_Int_Tables_number   1
_chemical_formula_structural   Li3TbDy4(P3Ir4)4
_chemical_formula_sum   'Li3 Tb1 Dy4 P12 Ir16'
_cell_volume   555.53794295
_cell_formula_units_Z   1
loop_
 _symmetry_equiv_pos_site_id
 _symmetry_equiv_pos_as_xyz
  1  'x, y, z'
loop_
 _atom_site_type_symbol
 _atom_site_label
 _atom_site_symmetry_multiplicity
 _atom_site_fract_x
 _atom_site_fract_y
 _atom_site_fract_z
 _atom_site_occupancy
  Li  Li0  1  0.000000  0.441924  0.500000  1
  Li  Li1  1  0.558012  0.558016  0.500000  1
  Li  Li2  1  0.441988  0.000004  0.500000  1
  Tb  Tb3  1  0.000000  0.809111  0.000000  1
  Dy  Dy4  1  0.333335  0.666655  0.500000  1
  Dy  Dy5  1  0.666665  0.333320  0.500000  1
  Dy  Dy6  1  0.191031  0.191041  0.000000  1
  Dy  Dy7  1  0.808969  0.000009  0.000000  1
  P  P8  1  0.000000  0.629746  0.500000  1
  P  P9  1  0.370063  0.370050  0.500000  1
  P  P10  1  0.629937  0.999987  0.500000  1
  P  P11  1  0.516329  0.687338  0.000000  1
  P  P12  1  0.312655  0.829037  0.000000  1
  P  P13  1  0.170972  0.483592  0.000000  1
  P  P14  1  0.483671  0.171009  0.000000  1
  P  P15  1  0.687345  0.516383  0.000000  1
  P  P16  1  0.829028  0.312620  0.000000  1
  P  P17  1  0.000000  0.179694  0.500000  1
  P  P18  1  0.820264  0.820384  0.500000  1
  P  P19  1  0.179736  0.000120  0.500000  1
  Ir  Ir20  1  0.509671  0.868422  0.000000  1
  Ir  Ir21  1  0.131578  0.641179  0.000000  1
  Ir  Ir22  1  0.358755  0.490313  0.000000  1
  Ir  Ir23  1  0.490329  0.358750  0.000000  1
  Ir  Ir24  1  0.868422  0.509600  0.000000  1
  Ir  Ir25  1  0.641245  0.131557  0.000000  1
  Ir  Ir26  1  0.000000  0.280349  0.000000  1
  Ir  Ir27  1  0.719462  0.719608  0.000000  1
  Ir  Ir28  1  0.280538  0.000146  0.000000  1
  Ir  Ir29  1  0.626940  0.807253  0.500000  1
  Ir  Ir30  1  0.193177  0.819793  0.500000  1
  Ir  Ir31  1  0.180281  0.373044  0.500000  1
  Ir  Ir32  1  0.373060  0.180313  0.500000  1
  Ir  Ir33  1  0.806823  0.626616  0.500000  1
  Ir  Ir34  1  0.819719  0.192763  0.500000  1
  Ir  Ir35  1  0.000000  0.000256  0.500000  1
