# generated using pymatgen
data_DyY9Ir3Ru
_symmetry_space_group_name_H-M   'P 1'
_cell_length_a   6.49263523
_cell_length_b   7.26531130
_cell_length_c   8.58954082
_cell_angle_alpha   96.63511662
_cell_angle_beta   112.41668210
_cell_angle_gamma   89.97280770
_symmetry_Int_Tables_number   1
_chemical_formula_structural   DyY9Ir3Ru
_chemical_formula_sum   'Dy1 Y9 Ir3 Ru1'
_cell_volume   371.63200355
_cell_formula_units_Z   1
loop_
 _symmetry_equiv_pos_site_id
 _symmetry_equiv_pos_as_xyz
  1  'x, y, z'
loop_
 _atom_site_type_symbol
 _atom_site_label
 _atom_site_symmetry_multiplicity
 _atom_site_fract_x
 _atom_site_fract_y
 _atom_site_fract_z
 _atom_site_occupancy
  Dy  Dy0  1  0.572220  0.749176  0.999568  1
  Y  Y1  1  0.790896  0.085505  0.814921  1
  Y  Y2  1  0.975870  0.416177  0.183753  1
  Y  Y3  1  0.208520  0.916258  0.184380  1
  Y  Y4  1  0.022045  0.583467  0.814878  1
  Y  Y5  1  0.212110  0.183568  0.561405  1
  Y  Y6  1  0.649578  0.316068  0.439246  1
  Y  Y7  1  0.788771  0.816011  0.438679  1
  Y  Y8  1  0.351583  0.683284  0.562529  1
  Y  Y9  1  0.427589  0.249919  0.000028  1
  Ir  Ir10  1  0.823718  0.072942  0.220735  1
  Ir  Ir11  1  0.396931  0.575201  0.220698  1
  Ir  Ir12  1  0.175245  0.925337  0.778900  1
  Ru  Ru13  1  0.604926  0.427087  0.780281  1
