# generated using pymatgen
data_Gd3Ge3Pd
_symmetry_space_group_name_H-M   'P 1'
_cell_length_a   5.77333544
_cell_length_b   5.77333471
_cell_length_c   13.88632200
_cell_angle_alpha   71.40675219
_cell_angle_beta   71.40675462
_cell_angle_gamma   44.05836285
_symmetry_Int_Tables_number   1
_chemical_formula_structural   Gd3Ge3Pd
_chemical_formula_sum   'Gd6 Ge6 Pd2'
_cell_volume   302.22345243
_cell_formula_units_Z   2
loop_
 _symmetry_equiv_pos_site_id
 _symmetry_equiv_pos_as_xyz
  1  'x, y, z'
loop_
 _atom_site_type_symbol
 _atom_site_label
 _atom_site_symmetry_multiplicity
 _atom_site_fract_x
 _atom_site_fract_y
 _atom_site_fract_z
 _atom_site_occupancy
  Gd  Gd0  1  0.469047  0.469047  0.380028  1
  Gd  Gd1  1  0.603105  0.603105  0.077269  1
  Gd  Gd2  1  0.741982  0.741982  0.772753  1
  Gd  Gd3  1  0.530953  0.530953  0.619972  1
  Gd  Gd4  1  0.396895  0.396895  0.922731  1
  Gd  Gd5  1  0.258018  0.258018  0.227247  1
  Ge  Ge6  1  0.872752  0.872752  0.547660  1
  Ge  Ge7  1  0.966978  0.966978  0.231433  1
  Ge  Ge8  1  0.882617  0.882617  0.075476  1
  Ge  Ge9  1  0.117383  0.117383  0.924524  1
  Ge  Ge10  1  0.127248  0.127248  0.452340  1
  Ge  Ge11  1  0.033022  0.033022  0.768567  1
  Pd  Pd12  1  0.755973  0.755973  0.397931  1
  Pd  Pd13  1  0.244027  0.244027  0.602069  1
