# generated using pymatgen
data_Ba12PtRh
_symmetry_space_group_name_H-M   'P 1'
_cell_length_a   7.84771105
_cell_length_b   7.84723189
_cell_length_c   14.96340204
_cell_angle_alpha   89.99746652
_cell_angle_beta   90.00376739
_cell_angle_gamma   120.00438288
_symmetry_Int_Tables_number   1
_chemical_formula_structural   Ba12PtRh
_chemical_formula_sum   'Ba12 Pt1 Rh1'
_cell_volume   797.99704717
_cell_formula_units_Z   1
loop_
 _symmetry_equiv_pos_site_id
 _symmetry_equiv_pos_as_xyz
  1  'x, y, z'
loop_
 _atom_site_type_symbol
 _atom_site_label
 _atom_site_symmetry_multiplicity
 _atom_site_fract_x
 _atom_site_fract_y
 _atom_site_fract_z
 _atom_site_occupancy
  Ba  Ba0  1  0.667744  0.006980  0.119139  1
  Ba  Ba1  1  0.992978  0.660746  0.119144  1
  Ba  Ba2  1  0.339279  0.332137  0.119139  1
  Ba  Ba3  1  0.013579  0.345571  0.382075  1
  Ba  Ba4  1  0.654407  0.668126  0.382095  1
  Ba  Ba5  1  0.331834  0.986456  0.382134  1
  Ba  Ba6  1  0.013549  0.668079  0.617907  1
  Ba  Ba7  1  0.654456  0.986423  0.617900  1
  Ba  Ba8  1  0.331875  0.345578  0.617904  1
  Ba  Ba9  1  0.339311  0.007025  0.880837  1
  Ba  Ba10  1  0.667855  0.660691  0.880859  1
  Ba  Ba11  1  0.993020  0.332159  0.880901  1
  Pt  Pt12  1  0.666708  0.333285  0.999985  1
  Rh  Rh13  1  0.333385  0.666722  0.500037  1
