# generated using pymatgen
data_Ho3Co7NiP6Ru
_symmetry_space_group_name_H-M   'P 1'
_cell_length_a   3.71899200
_cell_length_b   10.48538600
_cell_length_c   12.23380700
_cell_angle_alpha   90.00000000
_cell_angle_beta   90.00000000
_cell_angle_gamma   90.00000000
_symmetry_Int_Tables_number   1
_chemical_formula_structural   Ho3Co7NiP6Ru
_chemical_formula_sum   'Ho6 Co14 Ni2 P12 Ru2'
_cell_volume   477.05811936
_cell_formula_units_Z   2
loop_
 _symmetry_equiv_pos_site_id
 _symmetry_equiv_pos_as_xyz
  1  'x, y, z'
loop_
 _atom_site_type_symbol
 _atom_site_label
 _atom_site_symmetry_multiplicity
 _atom_site_fract_x
 _atom_site_fract_y
 _atom_site_fract_z
 _atom_site_occupancy
  Ho  Ho0  1  0.000000  0.500000  0.523716  1
  Ho  Ho1  1  0.500000  0.000000  0.476284  1
  Ho  Ho2  1  0.500000  0.815613  0.206780  1
  Ho  Ho3  1  0.500000  0.184387  0.206780  1
  Ho  Ho4  1  0.000000  0.684387  0.793220  1
  Ho  Ho5  1  0.000000  0.315613  0.793220  1
  Co  Co6  1  0.000000  0.500000  0.986224  1
  Co  Co7  1  0.500000  0.000000  0.013776  1
  Co  Co8  1  0.500000  0.299458  0.430963  1
  Co  Co9  1  0.500000  0.700542  0.430963  1
  Co  Co10  1  0.000000  0.200542  0.569037  1
  Co  Co11  1  0.000000  0.799458  0.569037  1
  Co  Co12  1  0.500000  0.879113  0.708577  1
  Co  Co13  1  0.500000  0.120887  0.708577  1
  Co  Co14  1  0.000000  0.620887  0.291423  1
  Co  Co15  1  0.000000  0.379113  0.291423  1
  Co  Co16  1  0.500000  0.332355  0.990206  1
  Co  Co17  1  0.500000  0.667645  0.990206  1
  Co  Co18  1  0.000000  0.167645  0.009794  1
  Co  Co19  1  0.000000  0.832355  0.009794  1
  Ni  Ni20  1  0.500000  0.500000  0.703798  1
  Ni  Ni21  1  0.000000  0.000000  0.296202  1
  P  P22  1  0.500000  0.310554  0.615509  1
  P  P23  1  0.500000  0.689446  0.615509  1
  P  P24  1  0.000000  0.189446  0.384491  1
  P  P25  1  0.000000  0.810554  0.384491  1
  P  P26  1  0.500000  0.500000  0.882292  1
  P  P27  1  0.000000  0.000000  0.117708  1
  P  P28  1  0.500000  0.846616  0.893306  1
  P  P29  1  0.500000  0.153384  0.893306  1
  P  P30  1  0.000000  0.653384  0.106694  1
  P  P31  1  0.000000  0.346616  0.106694  1
  P  P32  1  0.500000  0.500000  0.350100  1
  P  P33  1  0.000000  0.000000  0.649900  1
  Ru  Ru34  1  0.500000  0.500000  0.158912  1
  Ru  Ru35  1  0.000000  0.000000  0.841088  1
