# generated using pymatgen
data_Ho3Ti2(Co2Si5)2
_symmetry_space_group_name_H-M   'P 1'
_cell_length_a   12.06165100
_cell_length_b   12.06165100
_cell_length_c   3.96035900
_cell_angle_alpha   90.00000000
_cell_angle_beta   90.00000000
_cell_angle_gamma   90.00000000
_symmetry_Int_Tables_number   1
_chemical_formula_structural   Ho3Ti2(Co2Si5)2
_chemical_formula_sum   'Ho6 Ti4 Co8 Si20'
_cell_volume   576.16659094
_cell_formula_units_Z   2
loop_
 _symmetry_equiv_pos_site_id
 _symmetry_equiv_pos_as_xyz
  1  'x, y, z'
loop_
 _atom_site_type_symbol
 _atom_site_label
 _atom_site_symmetry_multiplicity
 _atom_site_fract_x
 _atom_site_fract_y
 _atom_site_fract_z
 _atom_site_occupancy
  Ho  Ho0  1  0.000000  0.000000  0.000000  1
  Ho  Ho1  1  0.500000  0.500000  0.000000  1
  Ho  Ho2  1  0.886273  0.386273  0.500000  1
  Ho  Ho3  1  0.386273  0.113727  0.500000  1
  Ho  Ho4  1  0.613727  0.886273  0.500000  1
  Ho  Ho5  1  0.113727  0.613727  0.500000  1
  Ti  Ti6  1  0.674016  0.174016  0.500000  1
  Ti  Ti7  1  0.174016  0.325984  0.500000  1
  Ti  Ti8  1  0.825984  0.674016  0.500000  1
  Ti  Ti9  1  0.325984  0.825984  0.500000  1
  Co  Co10  1  0.522750  0.253523  0.000000  1
  Co  Co11  1  0.253523  0.477250  0.000000  1
  Co  Co12  1  0.746477  0.522750  0.000000  1
  Co  Co13  1  0.477250  0.746477  0.000000  1
  Co  Co14  1  0.977250  0.753523  0.000000  1
  Co  Co15  1  0.022750  0.246477  0.000000  1
  Co  Co16  1  0.753523  0.022750  0.000000  1
  Co  Co17  1  0.246477  0.977250  0.000000  1
  Si  Si18  1  0.570889  0.070889  0.000000  1
  Si  Si19  1  0.070889  0.429111  0.000000  1
  Si  Si20  1  0.929111  0.570889  0.000000  1
  Si  Si21  1  0.429111  0.929111  0.000000  1
  Si  Si22  1  0.195430  0.161496  0.000000  1
  Si  Si23  1  0.161496  0.804570  0.000000  1
  Si  Si24  1  0.838504  0.195430  0.000000  1
  Si  Si25  1  0.804570  0.838504  0.000000  1
  Si  Si26  1  0.304570  0.661496  0.000000  1
  Si  Si27  1  0.695430  0.338504  0.000000  1
  Si  Si28  1  0.661496  0.695430  0.000000  1
  Si  Si29  1  0.338504  0.304570  0.000000  1
  Si  Si30  1  0.013656  0.167594  0.500000  1
  Si  Si31  1  0.167594  0.986344  0.500000  1
  Si  Si32  1  0.832406  0.013656  0.500000  1
  Si  Si33  1  0.986344  0.832406  0.500000  1
  Si  Si34  1  0.486344  0.667594  0.500000  1
  Si  Si35  1  0.513656  0.332406  0.500000  1
  Si  Si36  1  0.667594  0.513656  0.500000  1
  Si  Si37  1  0.332406  0.486344  0.500000  1
