# generated using pymatgen
data_CePrHo4(SiPd5)2
_symmetry_space_group_name_H-M   'P 1'
_cell_length_a   8.29170933
_cell_length_b   8.29170845
_cell_length_c   8.29170853
_cell_angle_alpha   128.09795163
_cell_angle_beta   126.00516024
_cell_angle_gamma   78.17834853
_symmetry_Int_Tables_number   1
_chemical_formula_structural   CePrHo4(SiPd5)2
_chemical_formula_sum   'Ce1 Pr1 Ho4 Si2 Pd10'
_cell_volume   351.58865872
_cell_formula_units_Z   1
loop_
 _symmetry_equiv_pos_site_id
 _symmetry_equiv_pos_as_xyz
  1  'x, y, z'
loop_
 _atom_site_type_symbol
 _atom_site_label
 _atom_site_symmetry_multiplicity
 _atom_site_fract_x
 _atom_site_fract_y
 _atom_site_fract_z
 _atom_site_occupancy
  Ce  Ce0  1  0.618287  0.750000  0.868287  1
  Pr  Pr1  1  0.382310  0.250000  0.132310  1
  Ho  Ho2  1  0.223388  0.449213  0.774176  1
  Ho  Ho3  1  0.776283  0.549838  0.226445  1
  Ho  Ho4  1  0.824963  0.050787  0.774176  1
  Ho  Ho5  1  0.176607  0.950162  0.226445  1
  Si  Si6  1  0.786808  0.250000  0.536808  1
  Si  Si7  1  0.218376  0.750000  0.468376  1
  Pd  Pd8  1  0.162441  0.400551  0.358352  1
  Pd  Pd9  1  0.833562  0.186571  0.231200  1
  Pd  Pd10  1  0.457801  0.099449  0.761889  1
  Pd  Pd11  1  0.544629  0.313429  0.646992  1
  Pd  Pd12  1  0.998055  0.504430  0.002486  1
  Pd  Pd13  1  0.998055  0.995570  0.493625  1
  Pd  Pd14  1  0.457801  0.695912  0.358352  1
  Pd  Pd15  1  0.544629  0.897637  0.231200  1
  Pd  Pd16  1  0.162441  0.804088  0.761889  1
  Pd  Pd17  1  0.833562  0.602363  0.646992  1
