# generated using pymatgen
data_LaYbTh2(Ga3Rh)6
_symmetry_space_group_name_H-M   'P 1'
_cell_length_a   7.66153357
_cell_length_b   7.68792553
_cell_length_c   9.55881800
_cell_angle_alpha   90.00000000
_cell_angle_beta   90.00000000
_cell_angle_gamma   119.41791297
_symmetry_Int_Tables_number   1
_chemical_formula_structural   LaYbTh2(Ga3Rh)6
_chemical_formula_sum   'La1 Yb1 Th2 Ga18 Rh6'
_cell_volume   490.43029091
_cell_formula_units_Z   1
loop_
 _symmetry_equiv_pos_site_id
 _symmetry_equiv_pos_as_xyz
  1  'x, y, z'
loop_
 _atom_site_type_symbol
 _atom_site_label
 _atom_site_symmetry_multiplicity
 _atom_site_fract_x
 _atom_site_fract_y
 _atom_site_fract_z
 _atom_site_occupancy
  La  La0  1  0.998839  0.671165  0.250000  1
  Yb  Yb1  1  0.327567  0.002323  0.750000  1
  Th  Th2  1  0.999535  0.329566  0.750000  1
  Th  Th3  1  0.669804  0.997079  0.250000  1
  Ga  Ga4  1  0.132031  0.128358  0.250000  1
  Ga  Ga5  1  0.873703  0.872674  0.750000  1
  Ga  Ga6  1  0.007551  0.337037  0.080310  1
  Ga  Ga7  1  0.002499  0.672552  0.916667  1
  Ga  Ga8  1  0.002499  0.672552  0.583333  1
  Ga  Ga9  1  0.333996  0.004157  0.429212  1
  Ga  Ga10  1  0.007551  0.337037  0.419690  1
  Ga  Ga11  1  0.655499  0.994500  0.584519  1
  Ga  Ga12  1  0.655499  0.994500  0.915481  1
  Ga  Ga13  1  0.333996  0.004157  0.070788  1
  Ga  Ga14  1  0.335448  0.329209  0.564216  1
  Ga  Ga15  1  0.665570  0.663866  0.446165  1
  Ga  Ga16  1  0.665570  0.663866  0.053835  1
  Ga  Ga17  1  0.335448  0.329209  0.935784  1
  Ga  Ga18  1  0.343268  0.544682  0.250000  1
  Ga  Ga19  1  0.656240  0.449895  0.750000  1
  Ga  Ga20  1  0.544446  0.336746  0.250000  1
  Ga  Ga21  1  0.452336  0.661092  0.750000  1
  Rh  Rh22  1  0.674633  0.329057  0.999260  1
  Rh  Rh23  1  0.329096  0.669352  0.999738  1
  Rh  Rh24  1  0.329096  0.669352  0.500262  1
  Rh  Rh25  1  0.674633  0.329057  0.500740  1
  Rh  Rh26  1  0.996824  0.003479  0.998728  1
  Rh  Rh27  1  0.996824  0.003479  0.501272  1
