# generated using pymatgen
data_Sr15Tm5Bi16
_symmetry_space_group_name_H-M   'P 1'
_cell_length_a   8.75256673
_cell_length_b   8.77666337
_cell_length_c   16.72875000
_cell_angle_alpha   90.23601454
_cell_angle_beta   90.82609621
_cell_angle_gamma   89.63906967
_symmetry_Int_Tables_number   1
_chemical_formula_structural   Sr15Tm5Bi16
_chemical_formula_sum   'Sr15 Tm5 Bi16'
_cell_volume   1284.90517616
_cell_formula_units_Z   1
loop_
 _symmetry_equiv_pos_site_id
 _symmetry_equiv_pos_as_xyz
  1  'x, y, z'
loop_
 _atom_site_type_symbol
 _atom_site_label
 _atom_site_symmetry_multiplicity
 _atom_site_fract_x
 _atom_site_fract_y
 _atom_site_fract_z
 _atom_site_occupancy
  Sr  Sr0  1  0.377939  0.850149  0.380803  1
  Sr  Sr1  1  0.632680  0.147755  0.884600  1
  Sr  Sr2  1  0.125185  0.351706  0.616190  1
  Sr  Sr3  1  0.128421  0.352649  0.882356  1
  Sr  Sr4  1  0.623716  0.149499  0.616621  1
  Sr  Sr5  1  0.369410  0.853920  0.116654  1
  Sr  Sr6  1  0.876324  0.648539  0.383617  1
  Sr  Sr7  1  0.044699  0.171819  0.096951  1
  Sr  Sr8  1  0.553400  0.331769  0.397821  1
  Sr  Sr9  1  0.453115  0.673666  0.902060  1
  Sr  Sr10  1  0.947719  0.832270  0.601032  1
  Sr  Sr11  1  0.959932  0.824885  0.905162  1
  Sr  Sr12  1  0.447145  0.668531  0.601612  1
  Sr  Sr13  1  0.539793  0.328216  0.098561  1
  Sr  Sr14  1  0.054440  0.169476  0.396318  1
  Tm  Tm15  1  0.868629  0.646172  0.121957  1
  Tm  Tm16  1  0.719143  0.997453  0.249697  1
  Tm  Tm17  1  0.216309  0.501582  0.249475  1
  Tm  Tm18  1  0.781065  0.498853  0.749574  1
  Tm  Tm19  1  0.282110  0.002683  0.750017  1
  Bi  Bi20  1  0.060837  0.853610  0.244657  1
  Bi  Bi21  1  0.573369  0.636223  0.243891  1
  Bi  Bi22  1  0.434183  0.364592  0.751708  1
  Bi  Bi23  1  0.932426  0.138542  0.750504  1
  Bi  Bi24  1  0.861913  0.347866  0.245291  1
  Bi  Bi25  1  0.361999  0.158868  0.248312  1
  Bi  Bi26  1  0.639537  0.841384  0.752072  1
  Bi  Bi27  1  0.137972  0.659266  0.751388  1
  Bi  Bi28  1  0.779896  0.476722  0.956084  1
  Bi  Bi29  1  0.274978  0.019402  0.556042  1
  Bi  Bi30  1  0.727778  0.955795  0.057014  1
  Bi  Bi31  1  0.226981  0.520628  0.441837  1
  Bi  Bi32  1  0.201621  0.533130  0.057137  1
  Bi  Bi33  1  0.727096  0.982386  0.441207  1
  Bi  Bi34  1  0.283332  0.029448  0.944724  1
  Bi  Bi35  1  0.774906  0.480549  0.557054  1
