# generated using pymatgen
data_K3Ho3(PSe4)4
_symmetry_space_group_name_H-M   'P 1'
_cell_length_a   10.44068196
_cell_length_b   10.44068125
_cell_length_c   15.41652700
_cell_angle_alpha   90.87553219
_cell_angle_beta   90.87553213
_cell_angle_gamma   71.99305688
_symmetry_Int_Tables_number   1
_chemical_formula_structural   K3Ho3(PSe4)4
_chemical_formula_sum   'K6 Ho6 P8 Se32'
_cell_volume   1597.92356778
_cell_formula_units_Z   2
loop_
 _symmetry_equiv_pos_site_id
 _symmetry_equiv_pos_as_xyz
  1  'x, y, z'
loop_
 _atom_site_type_symbol
 _atom_site_label
 _atom_site_symmetry_multiplicity
 _atom_site_fract_x
 _atom_site_fract_y
 _atom_site_fract_z
 _atom_site_occupancy
  K  K0  1  0.000000  0.000000  0.000000  1
  K  K1  1  0.971008  0.609501  0.163205  1
  K  K2  1  0.390499  0.028992  0.336795  1
  K  K3  1  0.000000  0.000000  0.500000  1
  K  K4  1  0.609501  0.971008  0.663205  1
  K  K5  1  0.028992  0.390499  0.836795  1
  Ho  Ho6  1  0.512929  0.747299  0.010850  1
  Ho  Ho7  1  0.749079  0.250920  0.250000  1
  Ho  Ho8  1  0.252701  0.487071  0.489150  1
  Ho  Ho9  1  0.747299  0.512929  0.510850  1
  Ho  Ho10  1  0.250921  0.749080  0.750000  1
  Ho  Ho11  1  0.487071  0.252701  0.989150  1
  P  P12  1  0.761400  0.398172  0.024437  1
  P  P13  1  0.665719  0.961774  0.138124  1
  P  P14  1  0.038226  0.334281  0.361875  1
  P  P15  1  0.601828  0.238600  0.475563  1
  P  P16  1  0.398173  0.761401  0.524437  1
  P  P17  1  0.961774  0.665719  0.638125  1
  P  P18  1  0.334281  0.038226  0.861875  1
  P  P19  1  0.238600  0.601828  0.975564  1
  Se  Se20  1  0.322031  0.055380  0.005674  1
  Se  Se21  1  0.213018  0.412566  0.025694  1
  Se  Se22  1  0.262541  0.735686  0.084401  1
  Se  Se23  1  0.574090  0.460266  0.105476  1
  Se  Se24  1  0.926648  0.290606  0.114408  1
  Se  Se25  1  0.523752  0.167680  0.171030  1
  Se  Se26  1  0.592267  0.798475  0.185574  1
  Se  Se27  1  0.860821  0.960257  0.198178  1
  Se  Se28  1  0.039743  0.139179  0.301821  1
  Se  Se29  1  0.201524  0.407732  0.314426  1
  Se  Se30  1  0.832320  0.476248  0.328970  1
  Se  Se31  1  0.709394  0.073352  0.385592  1
  Se  Se32  1  0.539734  0.425910  0.394525  1
  Se  Se33  1  0.264313  0.737458  0.415598  1
  Se  Se34  1  0.587434  0.786982  0.474306  1
  Se  Se35  1  0.944620  0.677969  0.494325  1
  Se  Se36  1  0.055380  0.322032  0.505674  1
  Se  Se37  1  0.412566  0.213018  0.525694  1
  Se  Se38  1  0.735686  0.262542  0.584401  1
  Se  Se39  1  0.460267  0.574091  0.605475  1
  Se  Se40  1  0.290606  0.926648  0.614407  1
  Se  Se41  1  0.167680  0.523751  0.671030  1
  Se  Se42  1  0.798476  0.592268  0.685574  1
  Se  Se43  1  0.960256  0.860820  0.698179  1
  Se  Se44  1  0.139179  0.039743  0.801821  1
  Se  Se45  1  0.407732  0.201524  0.814426  1
  Se  Se46  1  0.476249  0.832320  0.828969  1
  Se  Se47  1  0.073351  0.709394  0.885592  1
  Se  Se48  1  0.425910  0.539734  0.894525  1
  Se  Se49  1  0.737459  0.264314  0.915599  1
  Se  Se50  1  0.786982  0.587434  0.974306  1
  Se  Se51  1  0.677969  0.944620  0.994325  1
