# generated using pymatgen
data_Sm2Gd3Bi3O14
_symmetry_space_group_name_H-M   'P 1'
_cell_length_a   6.63575620
_cell_length_b   6.67609612
_cell_length_c   7.81310100
_cell_angle_alpha   106.75708958
_cell_angle_beta   89.67130382
_cell_angle_gamma   98.57553031
_symmetry_Int_Tables_number   1
_chemical_formula_structural   Sm2Gd3Bi3O14
_chemical_formula_sum   'Sm2 Gd3 Bi3 O14'
_cell_volume   327.47057415
_cell_formula_units_Z   1
loop_
 _symmetry_equiv_pos_site_id
 _symmetry_equiv_pos_as_xyz
  1  'x, y, z'
loop_
 _atom_site_type_symbol
 _atom_site_label
 _atom_site_symmetry_multiplicity
 _atom_site_fract_x
 _atom_site_fract_y
 _atom_site_fract_z
 _atom_site_occupancy
  Sm  Sm0  1  0.740069  0.460078  0.113706  1
  Sm  Sm1  1  0.747407  0.482418  0.619538  1
  Gd  Gd2  1  0.460344  0.007762  0.254300  1
  Gd  Gd3  1  0.536761  0.999643  0.750133  1
  Gd  Gd4  1  0.269663  0.533967  0.882321  1
  Bi  Bi5  1  0.994433  0.000101  0.500752  1
  Bi  Bi6  1  0.999971  0.995646  0.997080  1
  Bi  Bi7  1  0.281592  0.534117  0.388709  1
  O  O8  1  0.447995  0.651268  0.168493  1
  O  O9  1  0.554451  0.354307  0.834984  1
  O  O10  1  0.300991  0.922065  0.951988  1
  O  O11  1  0.700767  0.073598  0.050554  1
  O  O12  1  0.295394  0.930198  0.515758  1
  O  O13  1  0.700387  0.084187  0.491356  1
  O  O14  1  0.547227  0.362918  0.344515  1
  O  O15  1  0.456640  0.641028  0.656068  1
  O  O16  1  0.928211  0.662606  0.947052  1
  O  O17  1  0.071180  0.322006  0.026894  1
  O  O18  1  0.069798  0.336461  0.628112  1
  O  O19  1  0.907575  0.667283  0.382943  1
  O  O20  1  0.874248  0.902651  0.726104  1
  O  O21  1  0.114897  0.075693  0.268642  1
