# generated using pymatgen
data_Tm12Si12RuRh3
_symmetry_space_group_name_H-M   'P 1'
_cell_length_a   4.19990000
_cell_length_b   10.57668902
_cell_length_c   12.19464909
_cell_angle_alpha   90.03646144
_cell_angle_beta   90.00000000
_cell_angle_gamma   90.00000000
_symmetry_Int_Tables_number   1
_chemical_formula_structural   Tm12Si12RuRh3
_chemical_formula_sum   'Tm12 Si12 Ru1 Rh3'
_cell_volume   541.69883922
_cell_formula_units_Z   1
loop_
 _symmetry_equiv_pos_site_id
 _symmetry_equiv_pos_as_xyz
  1  'x, y, z'
loop_
 _atom_site_type_symbol
 _atom_site_label
 _atom_site_symmetry_multiplicity
 _atom_site_fract_x
 _atom_site_fract_y
 _atom_site_fract_z
 _atom_site_occupancy
  Tm  Tm0  1  0.250000  0.878240  0.019804  1
  Tm  Tm1  1  0.250000  0.620073  0.520984  1
  Tm  Tm2  1  0.750000  0.120467  0.979625  1
  Tm  Tm3  1  0.750000  0.378744  0.480302  1
  Tm  Tm4  1  0.250000  0.920627  0.603868  1
  Tm  Tm5  1  0.250000  0.579817  0.104428  1
  Tm  Tm6  1  0.750000  0.079277  0.395907  1
  Tm  Tm7  1  0.750000  0.420861  0.896110  1
  Tm  Tm8  1  0.250000  0.661241  0.799196  1
  Tm  Tm9  1  0.250000  0.839106  0.300017  1
  Tm  Tm10  1  0.750000  0.339921  0.199481  1
  Tm  Tm11  1  0.750000  0.160108  0.700020  1
  Si  Si12  1  0.250000  0.014325  0.822136  1
  Si  Si13  1  0.250000  0.485727  0.321839  1
  Si  Si14  1  0.750000  0.985608  0.178242  1
  Si  Si15  1  0.750000  0.512299  0.679524  1
  Si  Si16  1  0.250000  0.249659  0.840648  1
  Si  Si17  1  0.250000  0.251295  0.341915  1
  Si  Si18  1  0.750000  0.751298  0.158064  1
  Si  Si19  1  0.750000  0.749593  0.657765  1
  Si  Si20  1  0.250000  0.200224  0.544097  1
  Si  Si21  1  0.250000  0.301372  0.042437  1
  Si  Si22  1  0.750000  0.802097  0.457052  1
  Si  Si23  1  0.750000  0.697079  0.956742  1
  Ru  Ru24  1  0.250000  0.391854  0.679622  1
  Rh  Rh25  1  0.250000  0.108628  0.180506  1
  Rh  Rh26  1  0.750000  0.609362  0.319819  1
  Rh  Rh27  1  0.750000  0.891094  0.819846  1
