# generated using pymatgen
data_Ho20Ir7Os4Au
_symmetry_space_group_name_H-M   'P 1'
_cell_length_a   10.83420508
_cell_length_b   10.83420508
_cell_length_c   6.41542925
_cell_angle_alpha   90.05059899
_cell_angle_beta   90.05059899
_cell_angle_gamma   89.69239318
_symmetry_Int_Tables_number   1
_chemical_formula_structural   Ho20Ir7Os4Au
_chemical_formula_sum   'Ho20 Ir7 Os4 Au1'
_cell_volume   753.03164722
_cell_formula_units_Z   1
loop_
 _symmetry_equiv_pos_site_id
 _symmetry_equiv_pos_as_xyz
  1  'x, y, z'
loop_
 _atom_site_type_symbol
 _atom_site_label
 _atom_site_symmetry_multiplicity
 _atom_site_fract_x
 _atom_site_fract_y
 _atom_site_fract_z
 _atom_site_occupancy
  Ho  Ho0  1  0.292663  0.085405  0.376383  1
  Ho  Ho1  1  0.294966  0.913516  0.876631  1
  Ho  Ho2  1  0.701833  0.083205  0.864224  1
  Ho  Ho3  1  0.703258  0.907134  0.380241  1
  Ho  Ho4  1  0.585859  0.793322  0.877885  1
  Ho  Ho5  1  0.577820  0.207110  0.377733  1
  Ho  Ho6  1  0.412675  0.793142  0.377471  1
  Ho  Ho7  1  0.413246  0.206204  0.878327  1
  Ho  Ho8  1  0.206678  0.414141  0.622115  1
  Ho  Ho9  1  0.206858  0.587325  0.122529  1
  Ho  Ho10  1  0.792890  0.422180  0.122267  1
  Ho  Ho11  1  0.793796  0.586754  0.621673  1
  Ho  Ho12  1  0.914595  0.707337  0.123617  1
  Ho  Ho13  1  0.916795  0.298167  0.635776  1
  Ho  Ho14  1  0.086484  0.705034  0.623369  1
  Ho  Ho15  1  0.092866  0.296742  0.119759  1
  Ho  Ho16  1  0.003695  0.995535  0.503445  1
  Ho  Ho17  1  0.004465  0.996305  0.996555  1
  Ho  Ho18  1  0.499492  0.500300  0.999314  1
  Ho  Ho19  1  0.499700  0.500508  0.500686  1
  Ir  Ir20  1  0.849045  0.849429  0.750366  1
  Ir  Ir21  1  0.150571  0.150955  0.749634  1
  Ir  Ir22  1  0.152352  0.847648  0.250000  1
  Ir  Ir23  1  0.652960  0.347040  0.750000  1
  Ir  Ir24  1  0.651772  0.651747  0.250022  1
  Ir  Ir25  1  0.348253  0.348228  0.249978  1
  Ir  Ir26  1  0.347929  0.652071  0.750000  1
  Os  Os27  1  0.500607  0.999736  0.125115  1
  Os  Os28  1  0.499663  0.999400  0.622565  1
  Os  Os29  1  0.000600  0.500337  0.877435  1
  Os  Os30  1  0.000264  0.499393  0.374885  1
  Au  Au31  1  0.845352  0.154648  0.250000  1
