# generated using pymatgen
data_Bi3(As3Pd10)2
_symmetry_space_group_name_H-M   'P 1'
_cell_length_a   8.91493596
_cell_length_b   8.91493528
_cell_length_c   8.91493600
_cell_angle_alpha   59.99999731
_cell_angle_beta   59.99999984
_cell_angle_gamma   59.99999951
_symmetry_Int_Tables_number   1
_chemical_formula_structural   Bi3(As3Pd10)2
_chemical_formula_sum   'Bi3 As6 Pd20'
_cell_volume   501.00221170
_cell_formula_units_Z   1
loop_
 _symmetry_equiv_pos_site_id
 _symmetry_equiv_pos_as_xyz
  1  'x, y, z'
loop_
 _atom_site_type_symbol
 _atom_site_label
 _atom_site_symmetry_multiplicity
 _atom_site_fract_x
 _atom_site_fract_y
 _atom_site_fract_z
 _atom_site_occupancy
  Bi  Bi0  1  0.250000  0.250000  0.250000  1
  Bi  Bi1  1  0.750000  0.750000  0.750000  1
  Bi  Bi2  1  0.000000  0.000000  0.000000  1
  As  As3  1  0.732432  0.732432  0.267568  1
  As  As4  1  0.267568  0.267568  0.732432  1
  As  As5  1  0.267568  0.732432  0.732432  1
  As  As6  1  0.732432  0.267568  0.732432  1
  As  As7  1  0.267568  0.732432  0.267568  1
  As  As8  1  0.732432  0.267568  0.267568  1
  Pd  Pd9  1  0.618990  0.618990  0.618990  1
  Pd  Pd10  1  0.381010  0.856968  0.381010  1
  Pd  Pd11  1  0.653495  0.346505  0.000000  1
  Pd  Pd12  1  0.000000  0.346505  0.653495  1
  Pd  Pd13  1  0.653495  0.000000  0.000000  1
  Pd  Pd14  1  0.618990  0.618990  0.143032  1
  Pd  Pd15  1  0.000000  0.000000  0.653495  1
  Pd  Pd16  1  0.000000  0.346505  0.000000  1
  Pd  Pd17  1  0.653495  0.000000  0.346505  1
  Pd  Pd18  1  0.346505  0.000000  0.000000  1
  Pd  Pd19  1  0.000000  0.653495  0.000000  1
  Pd  Pd20  1  0.346505  0.000000  0.653495  1
  Pd  Pd21  1  0.000000  0.653495  0.346505  1
  Pd  Pd22  1  0.346505  0.653495  0.000000  1
  Pd  Pd23  1  0.143032  0.618990  0.618990  1
  Pd  Pd24  1  0.381010  0.381010  0.381010  1
  Pd  Pd25  1  0.856968  0.381010  0.381010  1
  Pd  Pd26  1  0.381010  0.381010  0.856968  1
  Pd  Pd27  1  0.618990  0.143032  0.618990  1
  Pd  Pd28  1  0.000000  0.000000  0.346505  1
