# generated using pymatgen
data_LuTh3Zn4Ru3Rh
_symmetry_space_group_name_H-M   'P 1'
_cell_length_a   3.99658500
_cell_length_b   7.03700260
_cell_length_c   8.42054224
_cell_angle_alpha   90.28118438
_cell_angle_beta   90.00000000
_cell_angle_gamma   90.00000000
_symmetry_Int_Tables_number   1
_chemical_formula_structural   LuTh3Zn4Ru3Rh
_chemical_formula_sum   'Lu1 Th3 Zn4 Ru3 Rh1'
_cell_volume   236.81630145
_cell_formula_units_Z   1
loop_
 _symmetry_equiv_pos_site_id
 _symmetry_equiv_pos_as_xyz
  1  'x, y, z'
loop_
 _atom_site_type_symbol
 _atom_site_label
 _atom_site_symmetry_multiplicity
 _atom_site_fract_x
 _atom_site_fract_y
 _atom_site_fract_z
 _atom_site_occupancy
  Lu  Lu0  1  0.250000  0.046360  0.314146  1
  Th  Th1  1  0.250000  0.539932  0.187109  1
  Th  Th2  1  0.750000  0.461058  0.814113  1
  Th  Th3  1  0.750000  0.960870  0.682322  1
  Zn  Zn4  1  0.250000  0.624655  0.553256  1
  Zn  Zn5  1  0.750000  0.356636  0.441325  1
  Zn  Zn6  1  0.750000  0.882251  0.062927  1
  Zn  Zn7  1  0.250000  0.126335  0.949948  1
  Ru  Ru8  1  0.250000  0.746970  0.865955  1
  Ru  Ru9  1  0.750000  0.265148  0.129472  1
  Ru  Ru10  1  0.250000  0.239005  0.633602  1
  Rh  Rh11  1  0.750000  0.750779  0.365822  1
