# generated using pymatgen
data_Na2Hg(CO3)2
_symmetry_space_group_name_H-M   'P 1'
_cell_length_a   5.97413250
_cell_length_b   7.09932576
_cell_length_c   9.87701400
_cell_angle_alpha   97.31052842
_cell_angle_beta   72.39662722
_cell_angle_gamma   114.88216613
_symmetry_Int_Tables_number   1
_chemical_formula_structural   Na2Hg(CO3)2
_chemical_formula_sum   'Na4 Hg2 C4 O12'
_cell_volume   362.22663332
_cell_formula_units_Z   2
loop_
 _symmetry_equiv_pos_site_id
 _symmetry_equiv_pos_as_xyz
  1  'x, y, z'
loop_
 _atom_site_type_symbol
 _atom_site_label
 _atom_site_symmetry_multiplicity
 _atom_site_fract_x
 _atom_site_fract_y
 _atom_site_fract_z
 _atom_site_occupancy
  Na  Na0  1  0.717375  0.416416  0.140336  1
  Na  Na1  1  0.107712  0.916415  0.359664  1
  Na  Na2  1  0.550962  0.083585  0.640336  1
  Na  Na3  1  0.441295  0.583586  0.859665  1
  Hg  Hg4  1  0.970925  0.000000  0.000000  1
  Hg  Hg5  1  0.220926  0.500001  0.500000  1
  C  C6  1  0.167442  0.474518  0.218483  1
  C  C7  1  0.635926  0.974519  0.281518  1
  C  C8  1  0.942925  0.025481  0.718483  1
  C  C9  1  0.911407  0.525481  0.781517  1
  O  O10  1  0.197891  0.429493  0.086597  1
  O  O11  1  0.555268  0.054232  0.207435  1
  O  O12  1  0.844307  0.929537  0.216732  1
  O  O13  1  0.311038  0.429536  0.283268  1
  O  O14  1  0.012701  0.554231  0.292565  1
  O  O15  1  0.534486  0.929494  0.413403  1
  O  O16  1  0.018396  0.070507  0.586597  1
  O  O17  1  0.751035  0.445769  0.707435  1
  O  O18  1  0.164771  0.570464  0.716732  1
  O  O19  1  0.131503  0.070463  0.783268  1
  O  O20  1  0.708470  0.945768  0.792566  1
  O  O21  1  0.854993  0.570506  0.913403  1
