# generated using pymatgen
data_LuScB6Os
_symmetry_space_group_name_H-M   'P 1'
_cell_length_a   3.54309800
_cell_length_b   8.92086000
_cell_length_c   11.27692400
_cell_angle_alpha   90.00000000
_cell_angle_beta   90.00000000
_cell_angle_gamma   90.00000000
_symmetry_Int_Tables_number   1
_chemical_formula_structural   LuScB6Os
_chemical_formula_sum   'Lu4 Sc4 B24 Os4'
_cell_volume   356.43516360
_cell_formula_units_Z   4
loop_
 _symmetry_equiv_pos_site_id
 _symmetry_equiv_pos_as_xyz
  1  'x, y, z'
loop_
 _atom_site_type_symbol
 _atom_site_label
 _atom_site_symmetry_multiplicity
 _atom_site_fract_x
 _atom_site_fract_y
 _atom_site_fract_z
 _atom_site_occupancy
  Lu  Lu0  1  0.500000  0.319466  0.413857  1
  Lu  Lu1  1  0.500000  0.680534  0.586143  1
  Lu  Lu2  1  0.500000  0.180534  0.913857  1
  Lu  Lu3  1  0.500000  0.819466  0.086143  1
  Sc  Sc4  1  0.500000  0.445344  0.125557  1
  Sc  Sc5  1  0.500000  0.554656  0.874443  1
  Sc  Sc6  1  0.500000  0.054656  0.625557  1
  Sc  Sc7  1  0.500000  0.945344  0.374443  1
  B  B8  1  0.000000  0.101443  0.472397  1
  B  B9  1  0.000000  0.898557  0.527603  1
  B  B10  1  0.000000  0.398557  0.972397  1
  B  B11  1  0.000000  0.601443  0.027603  1
  B  B12  1  0.000000  0.130140  0.317569  1
  B  B13  1  0.000000  0.869860  0.682431  1
  B  B14  1  0.000000  0.369860  0.817569  1
  B  B15  1  0.000000  0.630140  0.182431  1
  B  B16  1  0.000000  0.054487  0.065988  1
  B  B17  1  0.000000  0.945513  0.934012  1
  B  B18  1  0.000000  0.445513  0.565988  1
  B  B19  1  0.000000  0.554487  0.434012  1
  B  B20  1  0.000000  0.481569  0.285966  1
  B  B21  1  0.000000  0.518431  0.714034  1
  B  B22  1  0.000000  0.018431  0.785966  1
  B  B23  1  0.000000  0.981569  0.214034  1
  B  B24  1  0.000000  0.252827  0.079976  1
  B  B25  1  0.000000  0.747173  0.920024  1
  B  B26  1  0.000000  0.247173  0.579976  1
  B  B27  1  0.000000  0.752827  0.420024  1
  B  B28  1  0.000000  0.294294  0.234835  1
  B  B29  1  0.000000  0.705706  0.765165  1
  B  B30  1  0.000000  0.205706  0.734835  1
  B  B31  1  0.000000  0.794294  0.265165  1
  Os  Os32  1  0.500000  0.139684  0.180546  1
  Os  Os33  1  0.500000  0.860316  0.819454  1
  Os  Os34  1  0.500000  0.360316  0.680546  1
  Os  Os35  1  0.500000  0.639684  0.319454  1
