# generated using pymatgen
data_LaHg3(Ir2O7)2
_symmetry_space_group_name_H-M   'P 1'
_cell_length_a   7.31474835
_cell_length_b   7.40324751
_cell_length_c   7.31474900
_cell_angle_alpha   60.39465839
_cell_angle_beta   60.00000160
_cell_angle_gamma   60.39465787
_symmetry_Int_Tables_number   1
_chemical_formula_structural   LaHg3(Ir2O7)2
_chemical_formula_sum   'La1 Hg3 Ir4 O14'
_cell_volume   281.75470570
_cell_formula_units_Z   1
loop_
 _symmetry_equiv_pos_site_id
 _symmetry_equiv_pos_as_xyz
  1  'x, y, z'
loop_
 _atom_site_type_symbol
 _atom_site_label
 _atom_site_symmetry_multiplicity
 _atom_site_fract_x
 _atom_site_fract_y
 _atom_site_fract_z
 _atom_site_occupancy
  La  La0  1  0.625000  0.125000  0.625000  1
  Hg  Hg1  1  0.625000  0.625000  0.125000  1
  Hg  Hg2  1  0.125000  0.625000  0.625000  1
  Hg  Hg3  1  0.625000  0.625000  0.625000  1
  Ir  Ir4  1  0.125000  0.125000  0.625000  1
  Ir  Ir5  1  0.125000  0.625000  0.125000  1
  Ir  Ir6  1  0.625000  0.125000  0.125000  1
  Ir  Ir7  1  0.125000  0.125000  0.125000  1
  O  O8  1  0.757539  0.727383  0.757539  1
  O  O9  1  0.492461  0.522617  0.492461  1
  O  O10  1  0.056191  0.442702  0.056191  1
  O  O11  1  0.799957  0.196507  0.799957  1
  O  O12  1  0.046422  0.053493  0.450043  1
  O  O13  1  0.450043  0.053493  0.046422  1
  O  O14  1  0.056191  0.442702  0.444915  1
  O  O15  1  0.444915  0.442702  0.056191  1
  O  O16  1  0.450043  0.053493  0.450043  1
  O  O17  1  0.193809  0.807298  0.805085  1
  O  O18  1  0.799957  0.196507  0.203578  1
  O  O19  1  0.193809  0.807298  0.193809  1
  O  O20  1  0.805085  0.807298  0.193809  1
  O  O21  1  0.203578  0.196507  0.799957  1
