# generated using pymatgen
data_Ca3Yb(BrO3)8
_symmetry_space_group_name_H-M   'P 1'
_cell_length_a   5.82866122
_cell_length_b   11.36869228
_cell_length_c   11.47583400
_cell_angle_alpha   119.44755216
_cell_angle_beta   90.11244552
_cell_angle_gamma   89.89732471
_symmetry_Int_Tables_number   1
_chemical_formula_structural   Ca3Yb(BrO3)8
_chemical_formula_sum   'Ca3 Yb1 Br8 O24'
_cell_volume   662.19211914
_cell_formula_units_Z   1
loop_
 _symmetry_equiv_pos_site_id
 _symmetry_equiv_pos_as_xyz
  1  'x, y, z'
loop_
 _atom_site_type_symbol
 _atom_site_label
 _atom_site_symmetry_multiplicity
 _atom_site_fract_x
 _atom_site_fract_y
 _atom_site_fract_z
 _atom_site_occupancy
  Ca  Ca0  1  0.643011  0.234266  0.490708  1
  Ca  Ca1  1  0.138754  0.266205  0.008746  1
  Ca  Ca2  1  0.638406  0.733774  0.991539  1
  Yb  Yb3  1  0.147579  0.765260  0.509327  1
  Br  Br4  1  0.271626  0.419530  0.352307  1
  Br  Br5  1  0.772947  0.583541  0.647275  1
  Br  Br6  1  0.268173  0.917298  0.850433  1
  Br  Br7  1  0.765175  0.082446  0.146296  1
  Br  Br8  1  0.784107  0.081925  0.689393  1
  Br  Br9  1  0.282858  0.913026  0.309926  1
  Br  Br10  1  0.281824  0.412663  0.804626  1
  Br  Br11  1  0.785783  0.589485  0.197932  1
  O  O12  1  0.421997  0.884461  0.954939  1
  O  O13  1  0.923289  0.112856  0.041817  1
  O  O14  1  0.372587  0.812036  0.696364  1
  O  O15  1  0.866618  0.189907  0.300482  1
  O  O16  1  0.372527  0.313372  0.197479  1
  O  O17  1  0.869640  0.689560  0.803114  1
  O  O18  1  0.915683  0.213491  0.817611  1
  O  O19  1  0.417337  0.782854  0.181414  1
  O  O20  1  0.929754  0.943864  0.665719  1
  O  O21  1  0.421312  0.052588  0.332895  1
  O  O22  1  0.364274  0.070829  0.883643  1
  O  O23  1  0.859917  0.930054  0.117416  1
  O  O24  1  0.417401  0.281090  0.678396  1
  O  O25  1  0.925347  0.719489  0.323927  1
  O  O26  1  0.346284  0.398815  0.940559  1
  O  O27  1  0.848888  0.603421  0.062108  1
  O  O28  1  0.424754  0.551058  0.827788  1
  O  O29  1  0.927179  0.449845  0.173554  1
  O  O30  1  0.368071  0.572779  0.384668  1
  O  O31  1  0.866991  0.430352  0.616437  1
  O  O32  1  0.427637  0.386507  0.456033  1
  O  O33  1  0.936308  0.616465  0.546194  1
  O  O34  1  0.851297  0.098170  0.555194  1
  O  O35  1  0.354267  0.896720  0.443741  1
