# generated using pymatgen
data_Tm2(CuP)3
_symmetry_space_group_name_H-M   'P 1'
_cell_length_a   3.80717000
_cell_length_b   10.61885500
_cell_length_c   12.90992100
_cell_angle_alpha   90.00000000
_cell_angle_beta   90.00000000
_cell_angle_gamma   90.00000000
_symmetry_Int_Tables_number   1
_chemical_formula_structural   Tm2(CuP)3
_chemical_formula_sum   'Tm8 Cu12 P12'
_cell_volume   521.91952592
_cell_formula_units_Z   4
loop_
 _symmetry_equiv_pos_site_id
 _symmetry_equiv_pos_as_xyz
  1  'x, y, z'
loop_
 _atom_site_type_symbol
 _atom_site_label
 _atom_site_symmetry_multiplicity
 _atom_site_fract_x
 _atom_site_fract_y
 _atom_site_fract_z
 _atom_site_occupancy
  Tm  Tm0  1  0.250000  0.930819  0.791788  1
  Tm  Tm1  1  0.750000  0.430819  0.708212  1
  Tm  Tm2  1  0.250000  0.569181  0.291788  1
  Tm  Tm3  1  0.750000  0.069181  0.208212  1
  Tm  Tm4  1  0.250000  0.840338  0.503618  1
  Tm  Tm5  1  0.750000  0.340338  0.996382  1
  Tm  Tm6  1  0.250000  0.659662  0.003618  1
  Tm  Tm7  1  0.750000  0.159662  0.496382  1
  Cu  Cu8  1  0.250000  0.405798  0.513593  1
  Cu  Cu9  1  0.750000  0.905798  0.986407  1
  Cu  Cu10  1  0.250000  0.094202  0.013593  1
  Cu  Cu11  1  0.750000  0.594202  0.486407  1
  Cu  Cu12  1  0.250000  0.272064  0.331599  1
  Cu  Cu13  1  0.750000  0.772064  0.168401  1
  Cu  Cu14  1  0.250000  0.227936  0.831599  1
  Cu  Cu15  1  0.750000  0.727936  0.668401  1
  Cu  Cu16  1  0.250000  0.859787  0.282227  1
  Cu  Cu17  1  0.750000  0.359787  0.217773  1
  Cu  Cu18  1  0.250000  0.640213  0.782227  1
  Cu  Cu19  1  0.750000  0.140213  0.717773  1
  P  P20  1  0.250000  0.244019  0.641515  1
  P  P21  1  0.750000  0.744019  0.858485  1
  P  P22  1  0.250000  0.255981  0.141515  1
  P  P23  1  0.750000  0.755981  0.358485  1
  P  P24  1  0.250000  0.605188  0.602795  1
  P  P25  1  0.750000  0.105188  0.897205  1
  P  P26  1  0.250000  0.894812  0.102795  1
  P  P27  1  0.750000  0.394812  0.397205  1
  P  P28  1  0.250000  0.056390  0.370044  1
  P  P29  1  0.750000  0.556390  0.129956  1
  P  P30  1  0.250000  0.443610  0.870044  1
  P  P31  1  0.750000  0.943610  0.629956  1
