# generated using pymatgen
data_PrNd(SiRh2)2
_symmetry_space_group_name_H-M   'P 1'
_cell_length_a   9.14295192
_cell_length_b   9.14295165
_cell_length_c   4.16690500
_cell_angle_alpha   90.00000000
_cell_angle_beta   90.00000000
_cell_angle_gamma   154.44082286
_symmetry_Int_Tables_number   1
_chemical_formula_structural   PrNd(SiRh2)2
_chemical_formula_sum   'Pr1 Nd1 Si2 Rh4'
_cell_volume   150.28304135
_cell_formula_units_Z   1
loop_
 _symmetry_equiv_pos_site_id
 _symmetry_equiv_pos_as_xyz
  1  'x, y, z'
loop_
 _atom_site_type_symbol
 _atom_site_label
 _atom_site_symmetry_multiplicity
 _atom_site_fract_x
 _atom_site_fract_y
 _atom_site_fract_z
 _atom_site_occupancy
  Pr  Pr0  1  0.098467  0.901533  0.750000  1
  Nd  Nd1  1  0.901505  0.098495  0.250000  1
  Si  Si2  1  0.321182  0.678818  0.750000  1
  Si  Si3  1  0.679024  0.320976  0.250000  1
  Rh  Rh4  1  0.546279  0.453721  0.250000  1
  Rh  Rh5  1  0.453054  0.546946  0.750000  1
  Rh  Rh6  1  0.250175  0.749825  0.250000  1
  Rh  Rh7  1  0.750315  0.249685  0.750000  1
