# generated using pymatgen
data_NpCuI6
_symmetry_space_group_name_H-M   'P 1'
_cell_length_a   7.97860768
_cell_length_b   7.97860863
_cell_length_c   6.98265416
_cell_angle_alpha   84.22650668
_cell_angle_beta   84.22650117
_cell_angle_gamma   121.24298638
_symmetry_Int_Tables_number   1
_chemical_formula_structural   NpCuI6
_chemical_formula_sum   'Np1 Cu1 I6'
_cell_volume   371.96341594
_cell_formula_units_Z   1
loop_
 _symmetry_equiv_pos_site_id
 _symmetry_equiv_pos_as_xyz
  1  'x, y, z'
loop_
 _atom_site_type_symbol
 _atom_site_label
 _atom_site_symmetry_multiplicity
 _atom_site_fract_x
 _atom_site_fract_y
 _atom_site_fract_z
 _atom_site_occupancy
  Np  Np0  1  0.990472  0.009528  0.000000  1
  Cu  Cu1  1  0.914930  0.085070  0.500000  1
  I  I2  1  0.255777  0.268270  0.250377  1
  I  I3  1  0.731730  0.744223  0.749623  1
  I  I4  1  0.013089  0.346549  0.734556  1
  I  I5  1  0.344914  0.070362  0.767965  1
  I  I6  1  0.929638  0.655086  0.232035  1
  I  I7  1  0.653451  0.986911  0.265444  1
