# generated using pymatgen
data_Dy4Al15(Co2Si)3
_symmetry_space_group_name_H-M   'P 1'
_cell_length_a   7.35567795
_cell_length_b   7.29240767
_cell_length_c   9.28476606
_cell_angle_alpha   89.99854886
_cell_angle_beta   89.94719931
_cell_angle_gamma   119.63755465
_symmetry_Int_Tables_number   1
_chemical_formula_structural   Dy4Al15(Co2Si)3
_chemical_formula_sum   'Dy4 Al15 Co6 Si3'
_cell_volume   432.88205441
_cell_formula_units_Z   1
loop_
 _symmetry_equiv_pos_site_id
 _symmetry_equiv_pos_as_xyz
  1  'x, y, z'
loop_
 _atom_site_type_symbol
 _atom_site_label
 _atom_site_symmetry_multiplicity
 _atom_site_fract_x
 _atom_site_fract_y
 _atom_site_fract_z
 _atom_site_occupancy
  Dy  Dy0  1  0.991578  0.662540  0.747603  1
  Dy  Dy1  1  0.009130  0.344095  0.253085  1
  Dy  Dy2  1  0.676420  0.002812  0.747958  1
  Dy  Dy3  1  0.318566  0.990085  0.249804  1
  Al  Al4  1  0.124469  0.122987  0.749871  1
  Al  Al5  1  0.876458  0.875617  0.249278  1
  Al  Al6  1  0.336489  0.998438  0.928280  1
  Al  Al7  1  0.000894  0.331716  0.935075  1
  Al  Al8  1  0.666547  0.005170  0.071479  1
  Al  Al9  1  0.665108  0.003277  0.426592  1
  Al  Al10  1  0.336145  0.998468  0.572022  1
  Al  Al11  1  0.332736  0.330061  0.049423  1
  Al  Al12  1  0.666026  0.669036  0.953118  1
  Al  Al13  1  0.665146  0.668483  0.548336  1
  Al  Al14  1  0.332886  0.330322  0.451194  1
  Al  Al15  1  0.336921  0.554637  0.750070  1
  Al  Al16  1  0.662538  0.444916  0.250397  1
  Al  Al17  1  0.549897  0.342232  0.750622  1
  Al  Al18  1  0.453940  0.658978  0.249789  1
  Co  Co19  1  0.692071  0.340663  0.502352  1
  Co  Co20  1  0.307650  0.659793  0.496664  1
  Co  Co21  1  0.318100  0.669001  0.003904  1
  Co  Co22  1  0.681269  0.339270  0.999578  1
  Co  Co23  1  0.999801  0.999655  0.499591  1
  Co  Co24  1  0.001378  0.991504  0.000480  1
  Si  Si25  1  0.001398  0.330387  0.567040  1
  Si  Si26  1  0.997581  0.670190  0.437009  1
  Si  Si27  1  0.998859  0.665669  0.059388  1
