# generated using pymatgen
data_Y7Ho3Hg3Ru
_symmetry_space_group_name_H-M   'P 1'
_cell_length_a   9.65405602
_cell_length_b   9.65584049
_cell_length_c   9.65067301
_cell_angle_alpha   90.00521429
_cell_angle_beta   89.99608833
_cell_angle_gamma   119.98711756
_symmetry_Int_Tables_number   1
_chemical_formula_structural   Y7Ho3Hg3Ru
_chemical_formula_sum   'Y14 Ho6 Hg6 Ru2'
_cell_volume   779.19200912
_cell_formula_units_Z   2
loop_
 _symmetry_equiv_pos_site_id
 _symmetry_equiv_pos_as_xyz
  1  'x, y, z'
loop_
 _atom_site_type_symbol
 _atom_site_label
 _atom_site_symmetry_multiplicity
 _atom_site_fract_x
 _atom_site_fract_y
 _atom_site_fract_z
 _atom_site_occupancy
  Y  Y0  1  0.000000  0.000000  0.500000  1
  Y  Y1  1  0.000000  0.000000  0.000000  1
  Y  Y2  1  0.790184  0.209792  0.939357  1
  Y  Y3  1  0.790184  0.580384  0.939333  1
  Y  Y4  1  0.419616  0.209807  0.939354  1
  Y  Y5  1  0.209816  0.790208  0.060643  1
  Y  Y6  1  0.209816  0.419616  0.060667  1
  Y  Y7  1  0.580384  0.790193  0.060646  1
  Y  Y8  1  0.541050  0.458928  0.251507  1
  Y  Y9  1  0.541022  0.082052  0.251511  1
  Y  Y10  1  0.917901  0.458945  0.251517  1
  Y  Y11  1  0.458950  0.541072  0.748493  1
  Y  Y12  1  0.458978  0.917948  0.748489  1
  Y  Y13  1  0.082099  0.541055  0.748483  1
  Ho  Ho14  1  0.210363  0.789664  0.439971  1
  Ho  Ho15  1  0.210329  0.420652  0.439893  1
  Ho  Ho16  1  0.579311  0.789670  0.439954  1
  Ho  Ho17  1  0.789637  0.210336  0.560029  1
  Ho  Ho18  1  0.789671  0.579348  0.560107  1
  Ho  Ho19  1  0.420689  0.210330  0.560046  1
  Hg  Hg20  1  0.881364  0.118885  0.250179  1
  Hg  Hg21  1  0.881220  0.762498  0.250171  1
  Hg  Hg22  1  0.237504  0.118900  0.250167  1
  Hg  Hg23  1  0.118636  0.881115  0.749821  1
  Hg  Hg24  1  0.118780  0.237502  0.749829  1
  Hg  Hg25  1  0.762496  0.881100  0.749833  1
  Ru  Ru26  1  0.333354  0.666697  0.252765  1
  Ru  Ru27  1  0.666646  0.333303  0.747235  1
