# generated using pymatgen
data_LuNb8SnS16
_symmetry_space_group_name_H-M   'P 1'
_cell_length_a   6.69334200
_cell_length_b   6.69334319
_cell_length_c   13.94151500
_cell_angle_alpha   90.00000000
_cell_angle_beta   90.00000000
_cell_angle_gamma   120.00000402
_symmetry_Int_Tables_number   1
_chemical_formula_structural   LuNb8SnS16
_chemical_formula_sum   'Lu1 Nb8 Sn1 S16'
_cell_volume   540.91209624
_cell_formula_units_Z   1
loop_
 _symmetry_equiv_pos_site_id
 _symmetry_equiv_pos_as_xyz
  1  'x, y, z'
loop_
 _atom_site_type_symbol
 _atom_site_label
 _atom_site_symmetry_multiplicity
 _atom_site_fract_x
 _atom_site_fract_y
 _atom_site_fract_z
 _atom_site_occupancy
  Lu  Lu0  1  0.000000  0.000000  0.500000  1
  Nb  Nb1  1  0.000000  0.000000  0.257961  1
  Nb  Nb2  1  0.000000  0.000000  0.742039  1
  Nb  Nb3  1  0.504394  0.008788  0.258037  1
  Nb  Nb4  1  0.495606  0.991212  0.741963  1
  Nb  Nb5  1  0.991212  0.495606  0.258037  1
  Nb  Nb6  1  0.008788  0.504394  0.741963  1
  Nb  Nb7  1  0.504394  0.495606  0.258037  1
  Nb  Nb8  1  0.495606  0.504394  0.741963  1
  Sn  Sn9  1  0.000000  0.000000  0.000000  1
  S  S10  1  0.333333  0.666667  0.627158  1
  S  S11  1  0.666667  0.333333  0.372842  1
  S  S12  1  0.666667  0.333333  0.144301  1
  S  S13  1  0.333333  0.666667  0.855699  1
  S  S14  1  0.168187  0.336373  0.146211  1
  S  S15  1  0.831813  0.663627  0.853789  1
  S  S16  1  0.663627  0.831813  0.146211  1
  S  S17  1  0.831944  0.663888  0.629369  1
  S  S18  1  0.336373  0.168187  0.853789  1
  S  S19  1  0.168056  0.336112  0.370631  1
  S  S20  1  0.168187  0.831813  0.146211  1
  S  S21  1  0.336112  0.168056  0.629369  1
  S  S22  1  0.831813  0.168187  0.853789  1
  S  S23  1  0.663888  0.831944  0.370631  1
  S  S24  1  0.831944  0.168056  0.629369  1
  S  S25  1  0.168056  0.831944  0.370631  1
