# generated using pymatgen
data_Ca10CoRe3N14
_symmetry_space_group_name_H-M   'P 1'
_cell_length_a   6.27640272
_cell_length_b   8.91896736
_cell_length_c   9.14039900
_cell_angle_alpha   113.89819709
_cell_angle_beta   98.63486345
_cell_angle_gamma   89.68268266
_symmetry_Int_Tables_number   1
_chemical_formula_structural   Ca10CoRe3N14
_chemical_formula_sum   'Ca10 Co1 Re3 N14'
_cell_volume   461.63515076
_cell_formula_units_Z   1
loop_
 _symmetry_equiv_pos_site_id
 _symmetry_equiv_pos_as_xyz
  1  'x, y, z'
loop_
 _atom_site_type_symbol
 _atom_site_label
 _atom_site_symmetry_multiplicity
 _atom_site_fract_x
 _atom_site_fract_y
 _atom_site_fract_z
 _atom_site_occupancy
  Ca  Ca0  1  0.858708  0.573845  0.338968  1
  Ca  Ca1  1  0.258887  0.981370  0.545585  1
  Ca  Ca2  1  0.684131  0.407511  0.836812  1
  Ca  Ca3  1  0.294033  0.576926  0.132029  1
  Ca  Ca4  1  0.393799  0.788544  0.913966  1
  Ca  Ca5  1  0.616483  0.213919  0.113110  1
  Ca  Ca6  1  0.162799  0.388168  0.645043  1
  Ca  Ca7  1  0.885160  0.834550  0.754309  1
  Ca  Ca8  1  0.141941  0.162364  0.263508  1
  Ca  Ca9  1  0.729237  0.054548  0.454107  1
  Co  Co10  1  0.602970  0.369411  0.474095  1
  Re  Re11  1  0.423225  0.637806  0.523159  1
  Re  Re12  1  0.126066  0.212027  0.918866  1
  Re  Re13  1  0.867633  0.780385  0.080258  1
  N  N14  1  0.529556  0.572681  0.691488  1
  N  N15  1  0.445838  0.461721  0.322744  1
  N  N16  1  0.147607  0.706387  0.564244  1
  N  N17  1  0.859912  0.294074  0.404063  1
  N  N18  1  0.404651  0.193663  0.500468  1
  N  N19  1  0.590377  0.812464  0.533951  1
  N  N20  1  0.967697  0.129905  0.712537  1
  N  N21  1  0.029949  0.861274  0.283577  1
  N  N22  1  0.234482  0.049477  0.980005  1
  N  N23  1  0.753933  0.943385  0.022835  1
  N  N24  1  0.363511  0.329870  0.916924  1
  N  N25  1  0.962344  0.348895  0.067294  1
  N  N26  1  0.034941  0.655768  0.926427  1
  N  N27  1  0.630127  0.659065  0.079632  1
