# generated using pymatgen
data_Pr8P14Ir5Rh11
_symmetry_space_group_name_H-M   'P 1'
_cell_length_a   3.99885900
_cell_length_b   12.89495720
_cell_length_c   13.27149476
_cell_angle_alpha   80.76717108
_cell_angle_beta   90.00000000
_cell_angle_gamma   90.00000000
_symmetry_Int_Tables_number   1
_chemical_formula_structural   Pr8P14Ir5Rh11
_chemical_formula_sum   'Pr8 P14 Ir5 Rh11'
_cell_volume   675.48011268
_cell_formula_units_Z   1
loop_
 _symmetry_equiv_pos_site_id
 _symmetry_equiv_pos_as_xyz
  1  'x, y, z'
loop_
 _atom_site_type_symbol
 _atom_site_label
 _atom_site_symmetry_multiplicity
 _atom_site_fract_x
 _atom_site_fract_y
 _atom_site_fract_z
 _atom_site_occupancy
  Pr  Pr0  1  0.750000  0.791062  0.562144  1
  Pr  Pr1  1  0.250000  0.208958  0.437725  1
  Pr  Pr2  1  0.750000  0.482779  0.706937  1
  Pr  Pr3  1  0.250000  0.517373  0.293244  1
  Pr  Pr4  1  0.750000  0.722277  0.897532  1
  Pr  Pr5  1  0.250000  0.103550  0.788287  1
  Pr  Pr6  1  0.750000  0.896923  0.211918  1
  Pr  Pr7  1  0.250000  0.277887  0.102597  1
  P  P8  1  0.250000  0.909567  0.409478  1
  P  P9  1  0.750000  0.474022  0.127700  1
  P  P10  1  0.250000  0.525947  0.872431  1
  P  P11  1  0.750000  0.090526  0.590523  1
  P  P12  1  0.250000  0.740906  0.080649  1
  P  P13  1  0.750000  0.257753  0.919324  1
  P  P14  1  0.750000  0.155691  0.281120  1
  P  P15  1  0.250000  0.844292  0.718721  1
  P  P16  1  0.250000  0.051041  0.098363  1
  P  P17  1  0.750000  0.949932  0.900822  1
  P  P18  1  0.250000  0.314083  0.689098  1
  P  P19  1  0.750000  0.686195  0.310887  1
  P  P20  1  0.250000  0.608272  0.560985  1
  P  P21  1  0.750000  0.391906  0.438981  1
  Ir  Ir22  1  0.750000  0.083588  0.002606  1
  Ir  Ir23  1  0.250000  0.728594  0.394036  1
  Ir  Ir24  1  0.750000  0.271617  0.605919  1
  Ir  Ir25  1  0.250000  0.341953  0.859925  1
  Ir  Ir26  1  0.750000  0.657571  0.140319  1
  Rh  Rh27  1  0.250000  0.988218  0.576155  1
  Rh  Rh28  1  0.750000  0.011701  0.423911  1
  Rh  Rh29  1  0.250000  0.663135  0.730065  1
  Rh  Rh30  1  0.750000  0.336908  0.270015  1
  Rh  Rh31  1  0.250000  0.551391  0.046658  1
  Rh  Rh32  1  0.750000  0.448474  0.953481  1
  Rh  Rh33  1  0.250000  0.061035  0.273256  1
  Rh  Rh34  1  0.750000  0.939123  0.726612  1
  Rh  Rh35  1  0.250000  0.424237  0.528069  1
  Rh  Rh36  1  0.750000  0.575755  0.471803  1
  Rh  Rh37  1  0.250000  0.915758  0.997701  1
