# generated using pymatgen
data_SmY4(CoO6)2
_symmetry_space_group_name_H-M   'P 1'
_cell_length_a   6.77197831
_cell_length_b   6.77197936
_cell_length_c   7.21414100
_cell_angle_alpha   74.57177110
_cell_angle_beta   74.57175988
_cell_angle_gamma   50.46446609
_symmetry_Int_Tables_number   1
_chemical_formula_structural   SmY4(CoO6)2
_chemical_formula_sum   'Sm1 Y4 Co2 O12'
_cell_volume   243.86891053
_cell_formula_units_Z   1
loop_
 _symmetry_equiv_pos_site_id
 _symmetry_equiv_pos_as_xyz
  1  'x, y, z'
loop_
 _atom_site_type_symbol
 _atom_site_label
 _atom_site_symmetry_multiplicity
 _atom_site_fract_x
 _atom_site_fract_y
 _atom_site_fract_z
 _atom_site_occupancy
  Sm  Sm0  1  0.000000  0.000000  0.000000  1
  Y  Y1  1  0.693001  0.693001  0.663746  1
  Y  Y2  1  0.693595  0.693595  0.144352  1
  Y  Y3  1  0.306405  0.306405  0.855648  1
  Y  Y4  1  0.306999  0.306999  0.336254  1
  Co  Co5  1  0.244198  0.755802  0.500000  1
  Co  Co6  1  0.755802  0.244198  0.500000  1
  O  O7  1  0.407266  0.903266  0.921253  1
  O  O8  1  0.583760  0.100065  0.577501  1
  O  O9  1  0.899935  0.416240  0.422499  1
  O  O10  1  0.096734  0.592734  0.078747  1
  O  O11  1  0.000697  0.000697  0.331368  1
  O  O12  1  0.500033  0.500033  0.674687  1
  O  O13  1  0.903266  0.407266  0.921253  1
  O  O14  1  0.100065  0.583760  0.577501  1
  O  O15  1  0.416240  0.899935  0.422499  1
  O  O16  1  0.592734  0.096734  0.078747  1
  O  O17  1  0.499967  0.499967  0.325313  1
  O  O18  1  0.999303  0.999303  0.668632  1
