# generated using pymatgen
data_Tm6Zr4Al12Co7
_symmetry_space_group_name_H-M   'P 1'
_cell_length_a   8.88893566
_cell_length_b   8.88893507
_cell_length_c   8.88893600
_cell_angle_alpha   59.99999656
_cell_angle_beta   59.99999875
_cell_angle_gamma   60.00000127
_symmetry_Int_Tables_number   1
_chemical_formula_structural   Tm6Zr4Al12Co7
_chemical_formula_sum   'Tm6 Zr4 Al12 Co7'
_cell_volume   496.63150567
_cell_formula_units_Z   1
loop_
 _symmetry_equiv_pos_site_id
 _symmetry_equiv_pos_as_xyz
  1  'x, y, z'
loop_
 _atom_site_type_symbol
 _atom_site_label
 _atom_site_symmetry_multiplicity
 _atom_site_fract_x
 _atom_site_fract_y
 _atom_site_fract_z
 _atom_site_occupancy
  Tm  Tm0  1  0.699087  0.699087  0.300913  1
  Tm  Tm1  1  0.300913  0.699087  0.300913  1
  Tm  Tm2  1  0.699087  0.300913  0.300913  1
  Tm  Tm3  1  0.300913  0.300913  0.699087  1
  Tm  Tm4  1  0.699087  0.300913  0.699087  1
  Tm  Tm5  1  0.300913  0.699087  0.699087  1
  Zr  Zr6  1  0.882569  0.882569  0.352290  1
  Zr  Zr7  1  0.882569  0.352290  0.882569  1
  Zr  Zr8  1  0.352290  0.882569  0.882569  1
  Zr  Zr9  1  0.882569  0.882569  0.882569  1
  Al  Al10  1  0.121571  0.121571  0.635288  1
  Al  Al11  1  0.121571  0.635288  0.121571  1
  Al  Al12  1  0.635288  0.121571  0.121571  1
  Al  Al13  1  0.121571  0.121571  0.121571  1
  Al  Al14  1  0.667998  0.667998  0.996010  1
  Al  Al15  1  0.667998  0.996010  0.667998  1
  Al  Al16  1  0.996010  0.667998  0.667998  1
  Al  Al17  1  0.667998  0.667998  0.667998  1
  Al  Al18  1  0.329723  0.329723  0.010828  1
  Al  Al19  1  0.329723  0.010828  0.329723  1
  Al  Al20  1  0.010828  0.329723  0.329723  1
  Al  Al21  1  0.329723  0.329723  0.329723  1
  Co  Co22  1  0.000000  0.000000  0.000000  1
  Co  Co23  1  0.998870  0.998870  0.501130  1
  Co  Co24  1  0.501130  0.998870  0.501130  1
  Co  Co25  1  0.998870  0.501130  0.501130  1
  Co  Co26  1  0.501130  0.501130  0.998870  1
  Co  Co27  1  0.998870  0.501130  0.998870  1
  Co  Co28  1  0.501130  0.998870  0.998870  1
