# generated using pymatgen
data_BaSb12Ir2OsRu
_symmetry_space_group_name_H-M   'P 1'
_cell_length_a   8.19333148
_cell_length_b   8.19284828
_cell_length_c   8.18583256
_cell_angle_alpha   109.47997828
_cell_angle_beta   109.47758245
_cell_angle_gamma   109.50839599
_symmetry_Int_Tables_number   1
_chemical_formula_structural   BaSb12Ir2OsRu
_chemical_formula_sum   'Ba1 Sb12 Ir2 Os1 Ru1'
_cell_volume   422.72289440
_cell_formula_units_Z   1
loop_
 _symmetry_equiv_pos_site_id
 _symmetry_equiv_pos_as_xyz
  1  'x, y, z'
loop_
 _atom_site_type_symbol
 _atom_site_label
 _atom_site_symmetry_multiplicity
 _atom_site_fract_x
 _atom_site_fract_y
 _atom_site_fract_z
 _atom_site_occupancy
  Ba  Ba0  1  0.000000  0.000000  0.000000  1
  Sb  Sb1  1  0.155242  0.815265  0.655443  1
  Sb  Sb2  1  0.158816  0.499691  0.344219  1
  Sb  Sb3  1  0.500379  0.656246  0.841685  1
  Sb  Sb4  1  0.343822  0.843903  0.187768  1
  Sb  Sb5  1  0.815268  0.659638  0.159462  1
  Sb  Sb6  1  0.659835  0.841819  0.500513  1
  Sb  Sb7  1  0.184732  0.340362  0.840538  1
  Sb  Sb8  1  0.656178  0.156097  0.812232  1
  Sb  Sb9  1  0.340165  0.158181  0.499487  1
  Sb  Sb10  1  0.499621  0.343754  0.158315  1
  Sb  Sb11  1  0.841184  0.500309  0.655781  1
  Sb  Sb12  1  0.844758  0.184735  0.344557  1
  Ir  Ir13  1  0.500000  0.000000  0.000000  1
  Ir  Ir14  1  0.000000  0.500000  0.000000  1
  Os  Os15  1  0.500000  0.500000  0.500000  1
  Ru  Ru16  1  0.000000  0.000000  0.500000  1
