# generated using pymatgen
data_Ho4Ga16Rh3
_symmetry_space_group_name_H-M   'P 1'
_cell_length_a   6.13185800
_cell_length_b   6.13185800
_cell_length_c   11.20095800
_cell_angle_alpha   90.00000000
_cell_angle_beta   90.00000000
_cell_angle_gamma   90.00000000
_symmetry_Int_Tables_number   1
_chemical_formula_structural   Ho4Ga16Rh3
_chemical_formula_sum   'Ho4 Ga16 Rh3'
_cell_volume   421.15246486
_cell_formula_units_Z   1
loop_
 _symmetry_equiv_pos_site_id
 _symmetry_equiv_pos_as_xyz
  1  'x, y, z'
loop_
 _atom_site_type_symbol
 _atom_site_label
 _atom_site_symmetry_multiplicity
 _atom_site_fract_x
 _atom_site_fract_y
 _atom_site_fract_z
 _atom_site_occupancy
  Ho  Ho0  1  0.000000  0.500000  0.193173  1
  Ho  Ho1  1  0.000000  0.500000  0.806827  1
  Ho  Ho2  1  0.500000  0.000000  0.806827  1
  Ho  Ho3  1  0.500000  0.000000  0.193173  1
  Ga  Ga4  1  0.000000  0.000000  0.223483  1
  Ga  Ga5  1  0.000000  0.000000  0.776517  1
  Ga  Ga6  1  0.500000  0.500000  0.195561  1
  Ga  Ga7  1  0.500000  0.500000  0.804439  1
  Ga  Ga8  1  0.287119  0.287119  0.000000  1
  Ga  Ga9  1  0.712881  0.712881  0.000000  1
  Ga  Ga10  1  0.287119  0.712881  0.000000  1
  Ga  Ga11  1  0.712881  0.287119  0.000000  1
  Ga  Ga12  1  0.249650  0.249650  0.379807  1
  Ga  Ga13  1  0.750350  0.750350  0.379807  1
  Ga  Ga14  1  0.249650  0.750350  0.620193  1
  Ga  Ga15  1  0.750350  0.249650  0.620193  1
  Ga  Ga16  1  0.750350  0.750350  0.620193  1
  Ga  Ga17  1  0.249650  0.249650  0.620193  1
  Ga  Ga18  1  0.249650  0.750350  0.379807  1
  Ga  Ga19  1  0.750350  0.249650  0.379807  1
  Rh  Rh20  1  0.000000  0.500000  0.500000  1
  Rh  Rh21  1  0.500000  0.000000  0.500000  1
  Rh  Rh22  1  0.000000  0.000000  0.000000  1
