# generated using pymatgen
data_CeHo3(MgRh)4
_symmetry_space_group_name_H-M   'P 1'
_cell_length_a   4.04275000
_cell_length_b   7.10310168
_cell_length_c   8.66100118
_cell_angle_alpha   90.84468592
_cell_angle_beta   90.00000000
_cell_angle_gamma   90.00000000
_symmetry_Int_Tables_number   1
_chemical_formula_structural   CeHo3(MgRh)4
_chemical_formula_sum   'Ce1 Ho3 Mg4 Rh4'
_cell_volume   248.68283994
_cell_formula_units_Z   1
loop_
 _symmetry_equiv_pos_site_id
 _symmetry_equiv_pos_as_xyz
  1  'x, y, z'
loop_
 _atom_site_type_symbol
 _atom_site_label
 _atom_site_symmetry_multiplicity
 _atom_site_fract_x
 _atom_site_fract_y
 _atom_site_fract_z
 _atom_site_occupancy
  Ce  Ce0  1  0.250000  0.533231  0.180920  1
  Ho  Ho1  1  0.750000  0.464640  0.817989  1
  Ho  Ho2  1  0.750000  0.959787  0.677700  1
  Ho  Ho3  1  0.250000  0.034896  0.327371  1
  Mg  Mg4  1  0.250000  0.635874  0.560229  1
  Mg  Mg5  1  0.750000  0.357653  0.445221  1
  Mg  Mg6  1  0.750000  0.869619  0.059028  1
  Mg  Mg7  1  0.250000  0.138849  0.937879  1
  Rh  Rh8  1  0.250000  0.752371  0.871668  1
  Rh  Rh9  1  0.750000  0.263727  0.129523  1
  Rh  Rh10  1  0.750000  0.743780  0.362784  1
  Rh  Rh11  1  0.250000  0.245573  0.629687  1
