# generated using pymatgen
data_GdLu19(Cd3Fe)2
_symmetry_space_group_name_H-M   'P 1'
_cell_length_a   9.39632500
_cell_length_b   9.40166098
_cell_length_c   9.50903300
_cell_angle_alpha   90.00000000
_cell_angle_beta   90.00000000
_cell_angle_gamma   120.01878007
_symmetry_Int_Tables_number   1
_chemical_formula_structural   GdLu19(Cd3Fe)2
_chemical_formula_sum   'Gd1 Lu19 Cd6 Fe2'
_cell_volume   727.35660264
_cell_formula_units_Z   1
loop_
 _symmetry_equiv_pos_site_id
 _symmetry_equiv_pos_as_xyz
  1  'x, y, z'
loop_
 _atom_site_type_symbol
 _atom_site_label
 _atom_site_symmetry_multiplicity
 _atom_site_fract_x
 _atom_site_fract_y
 _atom_site_fract_z
 _atom_site_occupancy
  Gd  Gd0  1  0.081265  0.540632  0.750000  1
  Lu  Lu1  1  0.000078  0.000038  0.499670  1
  Lu  Lu2  1  0.000078  0.000038  0.000330  1
  Lu  Lu3  1  0.541468  0.459448  0.250000  1
  Lu  Lu4  1  0.541468  0.082021  0.250000  1
  Lu  Lu5  1  0.919778  0.459889  0.250000  1
  Lu  Lu6  1  0.461447  0.540239  0.750000  1
  Lu  Lu7  1  0.461447  0.921206  0.750000  1
  Lu  Lu8  1  0.213838  0.789959  0.435460  1
  Lu  Lu9  1  0.213838  0.423879  0.435460  1
  Lu  Lu10  1  0.574915  0.787458  0.436549  1
  Lu  Lu11  1  0.784889  0.209461  0.561912  1
  Lu  Lu12  1  0.784889  0.575429  0.561912  1
  Lu  Lu13  1  0.424592  0.212296  0.562887  1
  Lu  Lu14  1  0.784889  0.209461  0.938088  1
  Lu  Lu15  1  0.784889  0.575429  0.938088  1
  Lu  Lu16  1  0.424592  0.212296  0.937113  1
  Lu  Lu17  1  0.213838  0.789959  0.064540  1
  Lu  Lu18  1  0.213838  0.423879  0.064540  1
  Lu  Lu19  1  0.574915  0.787458  0.063451  1
  Cd  Cd20  1  0.885228  0.114943  0.250000  1
  Cd  Cd21  1  0.885228  0.770286  0.250000  1
  Cd  Cd22  1  0.229943  0.114972  0.250000  1
  Cd  Cd23  1  0.115150  0.889745  0.750000  1
  Cd  Cd24  1  0.115150  0.225404  0.750000  1
  Cd  Cd25  1  0.771532  0.885765  0.750000  1
  Fe  Fe26  1  0.331188  0.665594  0.250000  1
  Fe  Fe27  1  0.665631  0.332815  0.750000  1
