# generated using pymatgen
data_Pr2Y3Ho(IrO7)2
_symmetry_space_group_name_H-M   'P 1'
_cell_length_a   6.48717924
_cell_length_b   6.49119212
_cell_length_c   7.52506300
_cell_angle_alpha   90.00000000
_cell_angle_beta   90.00000000
_cell_angle_gamma   109.80253575
_symmetry_Int_Tables_number   1
_chemical_formula_structural   Pr2Y3Ho(IrO7)2
_chemical_formula_sum   'Pr2 Y3 Ho1 Ir2 O14'
_cell_volume   298.13857573
_cell_formula_units_Z   1
loop_
 _symmetry_equiv_pos_site_id
 _symmetry_equiv_pos_as_xyz
  1  'x, y, z'
loop_
 _atom_site_type_symbol
 _atom_site_label
 _atom_site_symmetry_multiplicity
 _atom_site_fract_x
 _atom_site_fract_y
 _atom_site_fract_z
 _atom_site_occupancy
  Pr  Pr0  1  0.000909  0.000735  0.000672  1
  Pr  Pr1  1  0.000909  0.000735  0.499328  1
  Y  Y2  1  0.484419  0.937641  0.750000  1
  Y  Y3  1  0.515404  0.063118  0.250000  1
  Y  Y4  1  0.937865  0.484151  0.750000  1
  Ho  Ho5  1  0.063493  0.514629  0.250000  1
  Ir  Ir6  1  0.501014  0.500738  0.000535  1
  Ir  Ir7  1  0.501014  0.500738  0.499465  1
  O  O8  1  0.587422  0.587752  0.750000  1
  O  O9  1  0.405402  0.409416  0.250000  1
  O  O10  1  0.840519  0.121450  0.750000  1
  O  O11  1  0.159641  0.876317  0.250000  1
  O  O12  1  0.120552  0.839558  0.750000  1
  O  O13  1  0.879358  0.161952  0.250000  1
  O  O14  1  0.438887  0.180717  0.966718  1
  O  O15  1  0.562085  0.819849  0.466267  1
  O  O16  1  0.180894  0.440729  0.967731  1
  O  O17  1  0.819173  0.559238  0.464389  1
  O  O18  1  0.438887  0.180717  0.533282  1
  O  O19  1  0.562085  0.819849  0.033733  1
  O  O20  1  0.819173  0.559238  0.035611  1
  O  O21  1  0.180894  0.440729  0.532269  1
