# generated using pymatgen
data_Lu6Ti16Ir7
_symmetry_space_group_name_H-M   'P 1'
_cell_length_a   9.09507698
_cell_length_b   9.09507718
_cell_length_c   9.09507700
_cell_angle_alpha   60.00000428
_cell_angle_beta   60.00000357
_cell_angle_gamma   60.00000729
_symmetry_Int_Tables_number   1
_chemical_formula_structural   Lu6Ti16Ir7
_chemical_formula_sum   'Lu6 Ti16 Ir7'
_cell_volume   531.99089578
_cell_formula_units_Z   1
loop_
 _symmetry_equiv_pos_site_id
 _symmetry_equiv_pos_as_xyz
  1  'x, y, z'
loop_
 _atom_site_type_symbol
 _atom_site_label
 _atom_site_symmetry_multiplicity
 _atom_site_fract_x
 _atom_site_fract_y
 _atom_site_fract_z
 _atom_site_occupancy
  Lu  Lu0  1  0.695809  0.695809  0.304191  1
  Lu  Lu1  1  0.304191  0.695809  0.304191  1
  Lu  Lu2  1  0.695809  0.304191  0.304191  1
  Lu  Lu3  1  0.304191  0.304191  0.695809  1
  Lu  Lu4  1  0.695809  0.304191  0.695809  1
  Lu  Lu5  1  0.304191  0.695809  0.695809  1
  Ti  Ti6  1  0.881871  0.881871  0.354387  1
  Ti  Ti7  1  0.881871  0.354387  0.881871  1
  Ti  Ti8  1  0.354387  0.881871  0.881871  1
  Ti  Ti9  1  0.881871  0.881871  0.881871  1
  Ti  Ti10  1  0.118129  0.118129  0.645613  1
  Ti  Ti11  1  0.118129  0.645613  0.118129  1
  Ti  Ti12  1  0.645613  0.118129  0.118129  1
  Ti  Ti13  1  0.118129  0.118129  0.118129  1
  Ti  Ti14  1  0.672701  0.672701  0.981894  1
  Ti  Ti15  1  0.672701  0.981894  0.672701  1
  Ti  Ti16  1  0.981894  0.672701  0.672701  1
  Ti  Ti17  1  0.672701  0.672701  0.672701  1
  Ti  Ti18  1  0.327299  0.327299  0.018106  1
  Ti  Ti19  1  0.327299  0.018106  0.327299  1
  Ti  Ti20  1  0.018106  0.327299  0.327299  1
  Ti  Ti21  1  0.327299  0.327299  0.327299  1
  Ir  Ir22  1  0.000000  0.000000  0.000000  1
  Ir  Ir23  1  0.000000  0.000000  0.500000  1
  Ir  Ir24  1  0.500000  0.000000  0.500000  1
  Ir  Ir25  1  0.000000  0.500000  0.500000  1
  Ir  Ir26  1  0.500000  0.500000  0.000000  1
  Ir  Ir27  1  0.000000  0.500000  0.000000  1
  Ir  Ir28  1  0.500000  0.000000  0.000000  1
