# generated using pymatgen
data_Pr5Nd3(PI5)2
_symmetry_space_group_name_H-M   'P 1'
_cell_length_a   4.27289900
_cell_length_b   9.07909440
_cell_length_c   19.11001085
_cell_angle_alpha   90.03419425
_cell_angle_beta   90.00000000
_cell_angle_gamma   90.00000000
_symmetry_Int_Tables_number   1
_chemical_formula_structural   Pr5Nd3(PI5)2
_chemical_formula_sum   'Pr5 Nd3 P2 I10'
_cell_volume   741.35464941
_cell_formula_units_Z   1
loop_
 _symmetry_equiv_pos_site_id
 _symmetry_equiv_pos_as_xyz
  1  'x, y, z'
loop_
 _atom_site_type_symbol
 _atom_site_label
 _atom_site_symmetry_multiplicity
 _atom_site_fract_x
 _atom_site_fract_y
 _atom_site_fract_z
 _atom_site_occupancy
  Pr  Pr0  1  0.500000  0.580950  0.000066  1
  Pr  Pr1  1  0.000000  0.837102  0.499916  1
  Pr  Pr2  1  0.000000  0.418935  0.499939  1
  Pr  Pr3  1  0.500000  0.627710  0.644324  1
  Pr  Pr4  1  0.500000  0.162843  0.999999  1
  Nd  Nd5  1  0.000000  0.372186  0.856257  1
  Nd  Nd6  1  0.000000  0.372303  0.143691  1
  Nd  Nd7  1  0.500000  0.627862  0.355903  1
  P  P8  1  0.500000  0.628114  0.499380  1
  P  P9  1  0.000000  0.371776  0.999994  1
  I  I10  1  0.500000  0.116769  0.167885  1
  I  I11  1  0.000000  0.363414  0.670083  1
  I  I12  1  0.000000  0.870945  0.000036  1
  I  I13  1  0.000000  0.883032  0.332246  1
  I  I14  1  0.500000  0.116736  0.832199  1
  I  I15  1  0.500000  0.633071  0.830445  1
  I  I16  1  0.000000  0.886949  0.667650  1
  I  I17  1  0.000000  0.367306  0.330004  1
  I  I18  1  0.500000  0.632893  0.170109  1
  I  I19  1  0.500000  0.129103  0.499873  1
