# generated using pymatgen
data_Pr2Si2Ir3Rh
_symmetry_space_group_name_H-M   'P 1'
_cell_length_a   9.01915791
_cell_length_b   9.01915711
_cell_length_c   4.15854100
_cell_angle_alpha   90.00000000
_cell_angle_beta   90.00000000
_cell_angle_gamma   153.40844757
_symmetry_Int_Tables_number   1
_chemical_formula_structural   Pr2Si2Ir3Rh
_chemical_formula_sum   'Pr2 Si2 Ir3 Rh1'
_cell_volume   151.42216407
_cell_formula_units_Z   1
loop_
 _symmetry_equiv_pos_site_id
 _symmetry_equiv_pos_as_xyz
  1  'x, y, z'
loop_
 _atom_site_type_symbol
 _atom_site_label
 _atom_site_symmetry_multiplicity
 _atom_site_fract_x
 _atom_site_fract_y
 _atom_site_fract_z
 _atom_site_occupancy
  Pr  Pr0  1  0.100264  0.899736  0.750000  1
  Pr  Pr1  1  0.900160  0.099840  0.250000  1
  Si  Si2  1  0.321664  0.678336  0.750000  1
  Si  Si3  1  0.678077  0.321923  0.250000  1
  Ir  Ir4  1  0.542876  0.457124  0.250000  1
  Ir  Ir5  1  0.456818  0.543182  0.750000  1
  Ir  Ir6  1  0.249676  0.750324  0.250000  1
  Rh  Rh7  1  0.750465  0.249535  0.750000  1
