# generated using pymatgen
data_Tb2Si6Ni3Pt7
_symmetry_space_group_name_H-M   'P 1'
_cell_length_a   3.86893700
_cell_length_b   10.98607600
_cell_length_c   12.40763600
_cell_angle_alpha   90.00000000
_cell_angle_beta   90.00000000
_cell_angle_gamma   90.00000000
_symmetry_Int_Tables_number   1
_chemical_formula_structural   Tb2Si6Ni3Pt7
_chemical_formula_sum   'Tb4 Si12 Ni6 Pt14'
_cell_volume   527.37956930
_cell_formula_units_Z   2
loop_
 _symmetry_equiv_pos_site_id
 _symmetry_equiv_pos_as_xyz
  1  'x, y, z'
loop_
 _atom_site_type_symbol
 _atom_site_label
 _atom_site_symmetry_multiplicity
 _atom_site_fract_x
 _atom_site_fract_y
 _atom_site_fract_z
 _atom_site_occupancy
  Tb  Tb0  1  0.250000  0.588200  0.708461  1
  Tb  Tb1  1  0.250000  0.911800  0.208461  1
  Tb  Tb2  1  0.750000  0.409639  0.293614  1
  Tb  Tb3  1  0.750000  0.090361  0.793614  1
  Si  Si4  1  0.250000  0.408162  0.103923  1
  Si  Si5  1  0.250000  0.091838  0.603923  1
  Si  Si6  1  0.750000  0.578539  0.888904  1
  Si  Si7  1  0.750000  0.921461  0.388904  1
  Si  Si8  1  0.250000  0.277293  0.878421  1
  Si  Si9  1  0.250000  0.222707  0.378421  1
  Si  Si10  1  0.750000  0.722565  0.119996  1
  Si  Si11  1  0.750000  0.777435  0.619996  1
  Si  Si12  1  0.250000  0.596722  0.387729  1
  Si  Si13  1  0.250000  0.903278  0.887729  1
  Si  Si14  1  0.750000  0.404049  0.621406  1
  Si  Si15  1  0.750000  0.095951  0.121406  1
  Ni  Ni16  1  0.750000  0.106830  0.307823  1
  Ni  Ni17  1  0.750000  0.393170  0.807823  1
  Ni  Ni18  1  0.250000  0.471235  0.929876  1
  Ni  Ni19  1  0.250000  0.028765  0.429876  1
  Ni  Ni20  1  0.750000  0.523451  0.064469  1
  Ni  Ni21  1  0.750000  0.976549  0.564469  1
  Pt  Pt22  1  0.250000  0.706588  0.981681  1
  Pt  Pt23  1  0.250000  0.793412  0.481681  1
  Pt  Pt24  1  0.750000  0.287228  0.011737  1
  Pt  Pt25  1  0.750000  0.212772  0.511737  1
  Pt  Pt26  1  0.250000  0.406784  0.482781  1
  Pt  Pt27  1  0.250000  0.093216  0.982781  1
  Pt  Pt28  1  0.750000  0.592083  0.520268  1
  Pt  Pt29  1  0.750000  0.907917  0.020268  1
  Pt  Pt30  1  0.250000  0.217725  0.189012  1
  Pt  Pt31  1  0.250000  0.282275  0.689012  1
  Pt  Pt32  1  0.750000  0.774849  0.815135  1
  Pt  Pt33  1  0.750000  0.725151  0.315135  1
  Pt  Pt34  1  0.250000  0.900299  0.694764  1
  Pt  Pt35  1  0.250000  0.599701  0.194764  1
