# generated using pymatgen
data_Ho5OsRu
_symmetry_space_group_name_H-M   'P 1'
_cell_length_a   6.33671766
_cell_length_b   7.31776204
_cell_length_c   8.42132002
_cell_angle_alpha   96.81428236
_cell_angle_beta   112.10039006
_cell_angle_gamma   90.00000091
_symmetry_Int_Tables_number   1
_chemical_formula_structural   Ho5OsRu
_chemical_formula_sum   'Ho10 Os2 Ru2'
_cell_volume   358.83088914
_cell_formula_units_Z   2
loop_
 _symmetry_equiv_pos_site_id
 _symmetry_equiv_pos_as_xyz
  1  'x, y, z'
loop_
 _atom_site_type_symbol
 _atom_site_label
 _atom_site_symmetry_multiplicity
 _atom_site_fract_x
 _atom_site_fract_y
 _atom_site_fract_z
 _atom_site_occupancy
  Ho  Ho0  1  0.977540  0.915785  0.184712  1
  Ho  Ho1  1  0.792828  0.584215  0.815288  1
  Ho  Ho2  1  0.022777  0.083695  0.816343  1
  Ho  Ho3  1  0.206435  0.416305  0.183657  1
  Ho  Ho4  1  0.639742  0.816197  0.435254  1
  Ho  Ho5  1  0.204488  0.683803  0.564746  1
  Ho  Ho6  1  0.360194  0.183776  0.564513  1
  Ho  Ho7  1  0.795682  0.316224  0.435487  1
  Ho  Ho8  1  0.420967  0.750000  0.000000  1
  Ho  Ho9  1  0.578090  0.250000  0.000000  1
  Os  Os10  1  0.177168  0.422964  0.780263  1
  Os  Os11  1  0.396905  0.077036  0.219737  1
  Ru  Ru12  1  0.823615  0.577366  0.220047  1
  Ru  Ru13  1  0.603568  0.922634  0.779953  1
