# generated using pymatgen
data_Li2LaYb7Ru2
_symmetry_space_group_name_H-M   'P 1'
_cell_length_a   10.01043964
_cell_length_b   10.01043989
_cell_length_c   9.91870400
_cell_angle_alpha   60.30268982
_cell_angle_beta   60.30268897
_cell_angle_gamma   59.39463202
_symmetry_Int_Tables_number   1
_chemical_formula_structural   Li2LaYb7Ru2
_chemical_formula_sum   'Li4 La2 Yb14 Ru4'
_cell_volume   702.70653316
_cell_formula_units_Z   2
loop_
 _symmetry_equiv_pos_site_id
 _symmetry_equiv_pos_as_xyz
  1  'x, y, z'
loop_
 _atom_site_type_symbol
 _atom_site_label
 _atom_site_symmetry_multiplicity
 _atom_site_fract_x
 _atom_site_fract_y
 _atom_site_fract_z
 _atom_site_occupancy
  Li  Li0  1  0.826467  0.826467  0.824902  1
  Li  Li1  1  0.522165  0.824902  0.826467  1
  Li  Li2  1  0.824902  0.522165  0.826467  1
  Li  Li3  1  0.826467  0.826467  0.522165  1
  La  La4  1  0.066123  0.066123  0.433877  1
  La  La5  1  0.433877  0.433877  0.066123  1
  Yb  Yb6  1  0.795414  0.204586  0.204586  1
  Yb  Yb7  1  0.199727  0.199727  0.800273  1
  Yb  Yb8  1  0.800273  0.800273  0.199727  1
  Yb  Yb9  1  0.204586  0.795414  0.795414  1
  Yb  Yb10  1  0.590709  0.590709  0.229198  1
  Yb  Yb11  1  0.441924  0.058076  0.058076  1
  Yb  Yb12  1  0.058076  0.441924  0.058076  1
  Yb  Yb13  1  0.441924  0.058076  0.441924  1
  Yb  Yb14  1  0.229198  0.589384  0.590709  1
  Yb  Yb15  1  0.058076  0.441924  0.441924  1
  Yb  Yb16  1  0.589384  0.229198  0.590709  1
  Yb  Yb17  1  0.590709  0.590709  0.589384  1
  Yb  Yb18  1  0.204586  0.795414  0.204586  1
  Yb  Yb19  1  0.795414  0.204586  0.795414  1
  Ru  Ru20  1  0.856306  0.357131  0.393281  1
  Ru  Ru21  1  0.393281  0.393281  0.357131  1
  Ru  Ru22  1  0.357131  0.856306  0.393281  1
  Ru  Ru23  1  0.393281  0.393281  0.856306  1
