# generated using pymatgen
data_PrHf(SnIr)2
_symmetry_space_group_name_H-M   'P 1'
_cell_length_a   7.50573500
_cell_length_b   7.50573286
_cell_length_c   7.83293500
_cell_angle_alpha   90.00000000
_cell_angle_beta   90.00000000
_cell_angle_gamma   120.00000503
_symmetry_Int_Tables_number   1
_chemical_formula_structural   PrHf(SnIr)2
_chemical_formula_sum   'Pr3 Hf3 Sn6 Ir6'
_cell_volume   382.15668623
_cell_formula_units_Z   3
loop_
 _symmetry_equiv_pos_site_id
 _symmetry_equiv_pos_as_xyz
  1  'x, y, z'
loop_
 _atom_site_type_symbol
 _atom_site_label
 _atom_site_symmetry_multiplicity
 _atom_site_fract_x
 _atom_site_fract_y
 _atom_site_fract_z
 _atom_site_occupancy
  Pr  Pr0  1  0.000038  0.408946  0.750000  1
  Pr  Pr1  1  0.591054  0.591092  0.750000  1
  Pr  Pr2  1  0.408908  0.999962  0.750000  1
  Hf  Hf3  1  0.999303  0.392136  0.250000  1
  Hf  Hf4  1  0.607864  0.607166  0.250000  1
  Hf  Hf5  1  0.392834  0.000697  0.250000  1
  Sn  Sn6  1  0.263919  0.264433  0.487407  1
  Sn  Sn7  1  0.000513  0.736081  0.487407  1
  Sn  Sn8  1  0.000513  0.736081  0.012593  1
  Sn  Sn9  1  0.735567  0.999487  0.487407  1
  Sn  Sn10  1  0.735567  0.999487  0.012593  1
  Sn  Sn11  1  0.263919  0.264433  0.012593  1
  Ir  Ir12  1  0.333333  0.666667  0.450773  1
  Ir  Ir13  1  0.666667  0.333333  0.452066  1
  Ir  Ir14  1  0.333333  0.666667  0.049227  1
  Ir  Ir15  1  0.000000  0.000000  0.750000  1
  Ir  Ir16  1  0.000000  0.000000  0.250000  1
  Ir  Ir17  1  0.666667  0.333333  0.047934  1
