# generated using pymatgen
data_Dy3HoGa4(IrPt)2
_symmetry_space_group_name_H-M   'P 1'
_cell_length_a   4.42266600
_cell_length_b   6.82958706
_cell_length_c   7.70795906
_cell_angle_alpha   90.01477231
_cell_angle_beta   90.00000000
_cell_angle_gamma   90.00000000
_symmetry_Int_Tables_number   1
_chemical_formula_structural   Dy3HoGa4(IrPt)2
_chemical_formula_sum   'Dy3 Ho1 Ga4 Ir2 Pt2'
_cell_volume   232.81876067
_cell_formula_units_Z   1
loop_
 _symmetry_equiv_pos_site_id
 _symmetry_equiv_pos_as_xyz
  1  'x, y, z'
loop_
 _atom_site_type_symbol
 _atom_site_label
 _atom_site_symmetry_multiplicity
 _atom_site_fract_x
 _atom_site_fract_y
 _atom_site_fract_z
 _atom_site_occupancy
  Dy  Dy0  1  0.250000  0.979275  0.308801  1
  Dy  Dy1  1  0.250000  0.479202  0.191338  1
  Dy  Dy2  1  0.750000  0.513629  0.801513  1
  Ho  Ho3  1  0.750000  0.013745  0.698478  1
  Ga  Ga4  1  0.250000  0.335150  0.576062  1
  Ga  Ga5  1  0.250000  0.835435  0.923791  1
  Ga  Ga6  1  0.750000  0.670466  0.428723  1
  Ga  Ga7  1  0.750000  0.170313  0.071228  1
  Ir  Ir8  1  0.250000  0.226620  0.898644  1
  Ir  Ir9  1  0.250000  0.727115  0.601224  1
  Pt  Pt10  1  0.750000  0.774645  0.101402  1
  Pt  Pt11  1  0.750000  0.274405  0.398798  1
