# generated using pymatgen
data_Hf4Si4IrRh3
_symmetry_space_group_name_H-M   'P 1'
_cell_length_a   3.94967900
_cell_length_b   6.50824114
_cell_length_c   7.43762673
_cell_angle_alpha   90.12926055
_cell_angle_beta   90.00000000
_cell_angle_gamma   90.00000000
_symmetry_Int_Tables_number   1
_chemical_formula_structural   Hf4Si4IrRh3
_chemical_formula_sum   'Hf4 Si4 Ir1 Rh3'
_cell_volume   191.18715490
_cell_formula_units_Z   1
loop_
 _symmetry_equiv_pos_site_id
 _symmetry_equiv_pos_as_xyz
  1  'x, y, z'
loop_
 _atom_site_type_symbol
 _atom_site_label
 _atom_site_symmetry_multiplicity
 _atom_site_fract_x
 _atom_site_fract_y
 _atom_site_fract_z
 _atom_site_occupancy
  Hf  Hf0  1  0.250000  0.521523  0.183197  1
  Hf  Hf1  1  0.750000  0.479981  0.817001  1
  Hf  Hf2  1  0.250000  0.018846  0.316945  1
  Hf  Hf3  1  0.750000  0.979882  0.683048  1
  Si  Si4  1  0.250000  0.774452  0.880776  1
  Si  Si5  1  0.750000  0.225525  0.118852  1
  Si  Si6  1  0.250000  0.273464  0.617841  1
  Si  Si7  1  0.750000  0.725705  0.382176  1
  Ir  Ir8  1  0.750000  0.847014  0.064776  1
  Rh  Rh9  1  0.250000  0.152540  0.935931  1
  Rh  Rh10  1  0.750000  0.349698  0.434813  1
  Rh  Rh11  1  0.250000  0.651369  0.564644  1
