# generated using pymatgen
data_Ac20Si4Sn5Sb3
_symmetry_space_group_name_H-M   'P 1'
_cell_length_a   8.74212053
_cell_length_b   10.05835675
_cell_length_c   13.50224300
_cell_angle_alpha   89.87836035
_cell_angle_beta   89.95637663
_cell_angle_gamma   89.91876877
_symmetry_Int_Tables_number   1
_chemical_formula_structural   Ac20Si4Sn5Sb3
_chemical_formula_sum   'Ac20 Si4 Sn5 Sb3'
_cell_volume   1187.26647578
_cell_formula_units_Z   1
loop_
 _symmetry_equiv_pos_site_id
 _symmetry_equiv_pos_as_xyz
  1  'x, y, z'
loop_
 _atom_site_type_symbol
 _atom_site_label
 _atom_site_symmetry_multiplicity
 _atom_site_fract_x
 _atom_site_fract_y
 _atom_site_fract_z
 _atom_site_occupancy
  Ac  Ac0  1  0.047569  0.742375  0.501162  1
  Ac  Ac1  1  0.952434  0.257148  0.498943  1
  Ac  Ac2  1  0.546329  0.253143  0.999169  1
  Ac  Ac3  1  0.450352  0.747096  0.001722  1
  Ac  Ac4  1  0.864067  0.748911  0.794382  1
  Ac  Ac5  1  0.137600  0.249801  0.205535  1
  Ac  Ac6  1  0.364987  0.251728  0.705464  1
  Ac  Ac7  1  0.633724  0.749806  0.293942  1
  Ac  Ac8  1  0.686589  0.543161  0.570619  1
  Ac  Ac9  1  0.313336  0.457232  0.429764  1
  Ac  Ac10  1  0.187333  0.457432  0.930509  1
  Ac  Ac11  1  0.312518  0.043526  0.432063  1
  Ac  Ac12  1  0.812577  0.543172  0.069274  1
  Ac  Ac13  1  0.688550  0.957341  0.566921  1
  Ac  Ac14  1  0.810181  0.958167  0.067334  1
  Ac  Ac15  1  0.187811  0.043143  0.933391  1
  Ac  Ac16  1  0.346416  0.749341  0.713420  1
  Ac  Ac17  1  0.654720  0.249369  0.286205  1
  Ac  Ac18  1  0.846083  0.251142  0.787119  1
  Ac  Ac19  1  0.155199  0.748682  0.213004  1
  Si  Si20  1  0.068930  0.750961  0.982106  1
  Si  Si21  1  0.929469  0.248771  0.018089  1
  Si  Si22  1  0.571364  0.249269  0.517705  1
  Si  Si23  1  0.429347  0.751221  0.483001  1
  Sn  Sn24  1  0.571574  0.507330  0.829677  1
  Sn  Sn25  1  0.428982  0.492817  0.169820  1
  Sn  Sn26  1  0.071882  0.492812  0.671175  1
  Sn  Sn27  1  0.428318  0.006870  0.170177  1
  Sn  Sn28  1  0.928689  0.507282  0.329453  1
  Sb  Sb29  1  0.572175  0.992421  0.828152  1
  Sb  Sb30  1  0.928686  0.991595  0.330952  1
  Sb  Sb31  1  0.072210  0.006936  0.669752  1
