# generated using pymatgen
data_CePrHf2O7
_symmetry_space_group_name_H-M   'P 1'
_cell_length_a   7.59850738
_cell_length_b   7.58167073
_cell_length_c   7.59850768
_cell_angle_alpha   60.07327133
_cell_angle_beta   60.12479250
_cell_angle_gamma   60.07327535
_symmetry_Int_Tables_number   1
_chemical_formula_structural   CePrHf2O7
_chemical_formula_sum   'Ce2 Pr2 Hf4 O14'
_cell_volume   310.16689936
_cell_formula_units_Z   2
loop_
 _symmetry_equiv_pos_site_id
 _symmetry_equiv_pos_as_xyz
  1  'x, y, z'
loop_
 _atom_site_type_symbol
 _atom_site_label
 _atom_site_symmetry_multiplicity
 _atom_site_fract_x
 _atom_site_fract_y
 _atom_site_fract_z
 _atom_site_occupancy
  Ce  Ce0  1  0.125000  0.625000  0.125000  1
  Ce  Ce1  1  0.125000  0.125000  0.125000  1
  Pr  Pr2  1  0.625000  0.125000  0.125000  1
  Pr  Pr3  1  0.125000  0.125000  0.625000  1
  Hf  Hf4  1  0.125000  0.625000  0.625000  1
  Hf  Hf5  1  0.625000  0.125000  0.625000  1
  Hf  Hf6  1  0.625000  0.625000  0.125000  1
  Hf  Hf7  1  0.625000  0.625000  0.625000  1
  O  O8  1  0.706020  0.706488  0.293924  1
  O  O9  1  0.293924  0.293568  0.706020  1
  O  O10  1  0.707166  0.292834  0.707166  1
  O  O11  1  0.294201  0.705799  0.294201  1
  O  O12  1  0.293924  0.706488  0.706020  1
  O  O13  1  0.706020  0.293568  0.293924  1
  O  O14  1  0.543980  0.543512  0.956076  1
  O  O15  1  0.956076  0.956432  0.543980  1
  O  O16  1  0.542834  0.957166  0.542834  1
  O  O17  1  0.955799  0.544201  0.955799  1
  O  O18  1  0.956076  0.543512  0.543980  1
  O  O19  1  0.543980  0.956432  0.956076  1
  O  O20  1  0.247569  0.252431  0.247569  1
  O  O21  1  0.002431  0.997569  0.002431  1
