# generated using pymatgen
data_Ca11La8YSn16
_symmetry_space_group_name_H-M   'P 1'
_cell_length_a   7.99139519
_cell_length_b   8.56479740
_cell_length_c   16.16975400
_cell_angle_alpha   90.04469378
_cell_angle_beta   89.98735268
_cell_angle_gamma   89.93337392
_symmetry_Int_Tables_number   1
_chemical_formula_structural   Ca11La8YSn16
_chemical_formula_sum   'Ca11 La8 Y1 Sn16'
_cell_volume   1106.73253851
_cell_formula_units_Z   1
loop_
 _symmetry_equiv_pos_site_id
 _symmetry_equiv_pos_as_xyz
  1  'x, y, z'
loop_
 _atom_site_type_symbol
 _atom_site_label
 _atom_site_symmetry_multiplicity
 _atom_site_fract_x
 _atom_site_fract_y
 _atom_site_fract_z
 _atom_site_occupancy
  Ca  Ca0  1  0.833582  0.673662  0.623324  1
  Ca  Ca1  1  0.666019  0.173858  0.376282  1
  Ca  Ca2  1  0.165324  0.326491  0.123660  1
  Ca  Ca3  1  0.666897  0.173967  0.123834  1
  Ca  Ca4  1  0.165889  0.326179  0.376321  1
  Ca  Ca5  1  0.334430  0.826320  0.623387  1
  Ca  Ca6  1  0.834100  0.674184  0.877067  1
  Ca  Ca7  1  0.161925  0.501380  0.749296  1
  Ca  Ca8  1  0.663571  0.998575  0.749450  1
  Ca  Ca9  1  0.837280  0.497437  0.250193  1
  Ca  Ca10  1  0.337322  0.002264  0.250077  1
  La  La11  1  0.494962  0.316180  0.904091  1
  La  La12  1  0.994170  0.185325  0.594936  1
  La  La13  1  0.505255  0.685453  0.403772  1
  La  La14  1  0.005029  0.814692  0.096566  1
  La  La15  1  0.506384  0.684712  0.096693  1
  La  La16  1  0.005251  0.814673  0.404002  1
  La  La17  1  0.494877  0.315193  0.595592  1
  La  La18  1  0.994362  0.185717  0.905133  1
  Y  Y19  1  0.334577  0.824902  0.875527  1
  Sn  Sn20  1  0.328408  0.032433  0.036348  1
  Sn  Sn21  1  0.829470  0.466318  0.462017  1
  Sn  Sn22  1  0.669848  0.966723  0.538179  1
  Sn  Sn23  1  0.173166  0.536600  0.960937  1
  Sn  Sn24  1  0.666725  0.965494  0.960658  1
  Sn  Sn25  1  0.170344  0.533452  0.538313  1
  Sn  Sn26  1  0.330088  0.033608  0.461917  1
  Sn  Sn27  1  0.829218  0.465909  0.038052  1
  Sn  Sn28  1  0.533733  0.604267  0.751288  1
  Sn  Sn29  1  0.037860  0.896419  0.752097  1
  Sn  Sn30  1  0.464632  0.397638  0.249880  1
  Sn  Sn31  1  0.964640  0.101707  0.250111  1
  Sn  Sn32  1  0.289898  0.139700  0.751429  1
  Sn  Sn33  1  0.789301  0.358712  0.750146  1
  Sn  Sn34  1  0.711039  0.858378  0.249738  1
  Sn  Sn35  1  0.210424  0.641482  0.249687  1
