# generated using pymatgen
data_La3GaSn2Pt3
_symmetry_space_group_name_H-M   'P 1'
_cell_length_a   7.65361513
_cell_length_b   7.59249428
_cell_length_c   4.18373400
_cell_angle_alpha   90.00000000
_cell_angle_beta   90.00000000
_cell_angle_gamma   119.73617998
_symmetry_Int_Tables_number   1
_chemical_formula_structural   La3GaSn2Pt3
_chemical_formula_sum   'La3 Ga1 Sn2 Pt3'
_cell_volume   211.10290069
_cell_formula_units_Z   1
loop_
 _symmetry_equiv_pos_site_id
 _symmetry_equiv_pos_as_xyz
  1  'x, y, z'
loop_
 _atom_site_type_symbol
 _atom_site_label
 _atom_site_symmetry_multiplicity
 _atom_site_fract_x
 _atom_site_fract_y
 _atom_site_fract_z
 _atom_site_occupancy
  La  La0  1  0.408311  0.413568  0.000000  1
  La  La1  1  0.591689  0.005257  0.000000  1
  La  La2  1  0.000000  0.575084  0.000000  1
  Ga  Ga3  1  0.000000  0.247274  0.500000  1
  Sn  Sn4  1  0.754146  0.755559  0.500000  1
  Sn  Sn5  1  0.245854  0.001413  0.500000  1
  Pt  Pt6  1  0.327319  0.658814  0.500000  1
  Pt  Pt7  1  0.000000  0.011536  0.000000  1
  Pt  Pt8  1  0.672681  0.331495  0.500000  1
