# generated using pymatgen
data_TbHo5Al24Os7Au
_symmetry_space_group_name_H-M   'P 1'
_cell_length_a   8.85742575
_cell_length_b   8.85372106
_cell_length_c   9.55154530
_cell_angle_alpha   89.77931575
_cell_angle_beta   90.20646638
_cell_angle_gamma   119.95421886
_symmetry_Int_Tables_number   1
_chemical_formula_structural   TbHo5Al24Os7Au
_chemical_formula_sum   'Tb1 Ho5 Al24 Os7 Au1'
_cell_volume   648.98364653
_cell_formula_units_Z   1
loop_
 _symmetry_equiv_pos_site_id
 _symmetry_equiv_pos_as_xyz
  1  'x, y, z'
loop_
 _atom_site_type_symbol
 _atom_site_label
 _atom_site_symmetry_multiplicity
 _atom_site_fract_x
 _atom_site_fract_y
 _atom_site_fract_z
 _atom_site_occupancy
  Tb  Tb0  1  0.190472  0.386116  0.250941  1
  Ho  Ho1  1  0.809238  0.612779  0.748756  1
  Ho  Ho2  1  0.612823  0.809350  0.251232  1
  Ho  Ho3  1  0.387208  0.190735  0.748728  1
  Ho  Ho4  1  0.194970  0.805152  0.253646  1
  Ho  Ho5  1  0.805081  0.195052  0.746320  1
  Al  Al6  1  0.328648  0.671657  0.021830  1
  Al  Al7  1  0.671395  0.328671  0.977832  1
  Al  Al8  1  0.666307  0.333840  0.518386  1
  Al  Al9  1  0.333918  0.666489  0.481937  1
  Al  Al10  1  0.162797  0.325768  0.575794  1
  Al  Al11  1  0.837224  0.674219  0.424677  1
  Al  Al12  1  0.674315  0.837239  0.575497  1
  Al  Al13  1  0.848362  0.677652  0.079299  1
  Al  Al14  1  0.325863  0.162564  0.424714  1
  Al  Al15  1  0.151642  0.322364  0.920299  1
  Al  Al16  1  0.163153  0.836838  0.575393  1
  Al  Al17  1  0.322392  0.151476  0.079273  1
  Al  Al18  1  0.836525  0.163015  0.424823  1
  Al  Al19  1  0.677718  0.848376  0.920543  1
  Al  Al20  1  0.836440  0.163059  0.075629  1
  Al  Al21  1  0.163213  0.836792  0.924118  1
  Al  Al22  1  0.560844  0.121303  0.249260  1
  Al  Al23  1  0.439123  0.878645  0.750750  1
  Al  Al24  1  0.878224  0.439245  0.249250  1
  Al  Al25  1  0.121340  0.560905  0.750703  1
  Al  Al26  1  0.564074  0.436504  0.255831  1
  Al  Al27  1  0.436468  0.563602  0.744326  1
  Al  Al28  1  0.999065  0.999829  0.250381  1
  Al  Al29  1  0.000563  0.999445  0.749646  1
  Os  Os30  1  0.500142  0.000200  0.999908  1
  Os  Os31  1  0.999722  0.500215  0.999572  1
  Os  Os32  1  0.500127  0.000234  0.500120  1
  Os  Os33  1  0.999820  0.500201  0.500346  1
  Os  Os34  1  0.500510  0.500227  0.500384  1
  Os  Os35  1  0.000005  0.000039  0.999962  1
  Os  Os36  1  0.000019  0.000028  0.500068  1
  Au  Au37  1  0.500249  0.500173  0.999828  1
