# generated using pymatgen
data_TbPr6P12Pd17
_symmetry_space_group_name_H-M   'P 1'
_cell_length_a   12.44234579
_cell_length_b   12.44234523
_cell_length_c   13.66837404
_cell_angle_alpha   68.16674492
_cell_angle_beta   68.16674110
_cell_angle_gamma   18.92599927
_symmetry_Int_Tables_number   1
_chemical_formula_structural   TbPr6P12Pd17
_chemical_formula_sum   'Tb1 Pr6 P12 Pd17'
_cell_volume   635.67435354
_cell_formula_units_Z   1
loop_
 _symmetry_equiv_pos_site_id
 _symmetry_equiv_pos_as_xyz
  1  'x, y, z'
loop_
 _atom_site_type_symbol
 _atom_site_label
 _atom_site_symmetry_multiplicity
 _atom_site_fract_x
 _atom_site_fract_y
 _atom_site_fract_z
 _atom_site_occupancy
  Tb  Tb0  1  0.500000  0.500000  0.500000  1
  Pr  Pr1  1  0.365304  0.365304  0.999819  1
  Pr  Pr2  1  0.634696  0.634696  0.000181  1
  Pr  Pr3  1  0.232776  0.232776  0.313948  1
  Pr  Pr4  1  0.767224  0.767224  0.686052  1
  Pr  Pr5  1  0.418412  0.418412  0.262621  1
  Pr  Pr6  1  0.581588  0.581588  0.737379  1
  P  P7  1  0.060770  0.060770  0.925073  1
  P  P8  1  0.939230  0.939230  0.074927  1
  P  P9  1  0.886850  0.886850  0.825461  1
  P  P10  1  0.113150  0.113150  0.174539  1
  P  P11  1  0.188456  0.188456  0.619056  1
  P  P12  1  0.811544  0.811544  0.380944  1
  P  P13  1  0.366765  0.366765  0.578349  1
  P  P14  1  0.633235  0.633235  0.421651  1
  P  P15  1  0.011074  0.011074  0.666781  1
  P  P16  1  0.988926  0.988926  0.333219  1
  P  P17  1  0.233138  0.233138  0.881736  1
  P  P18  1  0.766862  0.766862  0.118264  1
  Pd  Pd19  1  0.838850  0.838850  0.194017  1
  Pd  Pd20  1  0.161150  0.161150  0.805983  1
  Pd  Pd21  1  0.026464  0.026464  0.125763  1
  Pd  Pd22  1  0.973536  0.973536  0.874237  1
  Pd  Pd23  1  0.889228  0.889228  0.458843  1
  Pd  Pd24  1  0.110772  0.110772  0.541157  1
  Pd  Pd25  1  0.500000  0.500000  0.000000  1
  Pd  Pd26  1  0.546045  0.546045  0.256791  1
  Pd  Pd27  1  0.453955  0.453955  0.743209  1
  Pd  Pd28  1  0.296868  0.296868  0.487948  1
  Pd  Pd29  1  0.703132  0.703132  0.512052  1
  Pd  Pd30  1  0.665376  0.665376  0.224279  1
  Pd  Pd31  1  0.334624  0.334624  0.775721  1
  Pd  Pd32  1  0.911289  0.911289  0.639533  1
  Pd  Pd33  1  0.088711  0.088711  0.360467  1
  Pd  Pd34  1  0.217160  0.217160  0.070181  1
  Pd  Pd35  1  0.782840  0.782840  0.929819  1
