# generated using pymatgen
data_Tb7DyCd3SnAu8
_symmetry_space_group_name_H-M   'P 1'
_cell_length_a   8.02879814
_cell_length_b   8.02623915
_cell_length_c   7.40179703
_cell_angle_alpha   90.00788164
_cell_angle_beta   90.00531112
_cell_angle_gamma   89.97900153
_symmetry_Int_Tables_number   1
_chemical_formula_structural   Tb7DyCd3SnAu8
_chemical_formula_sum   'Tb7 Dy1 Cd3 Sn1 Au8'
_cell_volume   476.97956334
_cell_formula_units_Z   1
loop_
 _symmetry_equiv_pos_site_id
 _symmetry_equiv_pos_as_xyz
  1  'x, y, z'
loop_
 _atom_site_type_symbol
 _atom_site_label
 _atom_site_symmetry_multiplicity
 _atom_site_fract_x
 _atom_site_fract_y
 _atom_site_fract_z
 _atom_site_occupancy
  Tb  Tb0  1  0.844179  0.167721  0.500116  1
  Tb  Tb1  1  0.155849  0.832368  0.500141  1
  Tb  Tb2  1  0.332293  0.344229  0.999929  1
  Tb  Tb3  1  0.667761  0.655655  0.999910  1
  Tb  Tb4  1  0.685637  0.674321  0.500226  1
  Tb  Tb5  1  0.314371  0.325723  0.500237  1
  Tb  Tb6  1  0.174273  0.814439  0.999724  1
  Dy  Dy7  1  0.825767  0.185512  0.999717  1
  Cd  Cd8  1  0.500041  0.000032  0.250003  1
  Cd  Cd9  1  0.999933  0.499931  0.750097  1
  Cd  Cd10  1  0.500016  0.000028  0.749987  1
  Sn  Sn11  1  0.999951  0.499875  0.249946  1
  Au  Au12  1  0.621454  0.364827  0.268424  1
  Au  Au13  1  0.378816  0.634926  0.268837  1
  Au  Au14  1  0.132259  0.125127  0.768160  1
  Au  Au15  1  0.867437  0.875172  0.768189  1
  Au  Au16  1  0.374919  0.632485  0.732044  1
  Au  Au17  1  0.625355  0.367268  0.732368  1
  Au  Au18  1  0.865008  0.879064  0.230979  1
  Au  Au19  1  0.134681  0.121299  0.230965  1
