# generated using pymatgen
data_Ho4Re5Ir2Os
_symmetry_space_group_name_H-M   'P 1'
_cell_length_a   5.29186929
_cell_length_b   5.21666353
_cell_length_c   9.21791700
_cell_angle_alpha   90.00000000
_cell_angle_beta   90.00000000
_cell_angle_gamma   119.53099879
_symmetry_Int_Tables_number   1
_chemical_formula_structural   Ho4Re5Ir2Os
_chemical_formula_sum   'Ho4 Re5 Ir2 Os1'
_cell_volume   221.41063716
_cell_formula_units_Z   1
loop_
 _symmetry_equiv_pos_site_id
 _symmetry_equiv_pos_as_xyz
  1  'x, y, z'
loop_
 _atom_site_type_symbol
 _atom_site_label
 _atom_site_symmetry_multiplicity
 _atom_site_fract_x
 _atom_site_fract_y
 _atom_site_fract_z
 _atom_site_occupancy
  Ho  Ho0  1  0.332275  0.666138  0.436086  1
  Ho  Ho1  1  0.669483  0.334741  0.564905  1
  Ho  Ho2  1  0.669483  0.334741  0.935095  1
  Ho  Ho3  1  0.332275  0.666138  0.063914  1
  Re  Re4  1  0.829443  0.169107  0.250000  1
  Re  Re5  1  0.829443  0.660336  0.250000  1
  Re  Re6  1  0.339178  0.169589  0.250000  1
  Re  Re7  1  0.166004  0.829662  0.750000  1
  Re  Re8  1  0.166004  0.336342  0.750000  1
  Ir  Ir9  1  0.007148  0.003574  0.501262  1
  Ir  Ir10  1  0.007148  0.003574  0.998738  1
  Os  Os11  1  0.652116  0.826058  0.750000  1
