# generated using pymatgen
data_Zr3ScSi3Ge3Ir7
_symmetry_space_group_name_H-M   'P 1'
_cell_length_a   7.06782330
_cell_length_b   7.06782349
_cell_length_c   7.09378461
_cell_angle_alpha   109.50169817
_cell_angle_beta   109.50170512
_cell_angle_gamma   109.29171391
_symmetry_Int_Tables_number   1
_chemical_formula_structural   Zr3ScSi3Ge3Ir7
_chemical_formula_sum   'Zr3 Sc1 Si3 Ge3 Ir7'
_cell_volume   273.18684179
_cell_formula_units_Z   1
loop_
 _symmetry_equiv_pos_site_id
 _symmetry_equiv_pos_as_xyz
  1  'x, y, z'
loop_
 _atom_site_type_symbol
 _atom_site_label
 _atom_site_symmetry_multiplicity
 _atom_site_fract_x
 _atom_site_fract_y
 _atom_site_fract_z
 _atom_site_occupancy
  Zr  Zr0  1  0.000212  0.000212  0.536528  1
  Zr  Zr1  1  0.999895  0.484932  0.998295  1
  Zr  Zr2  1  0.484932  0.999895  0.998295  1
  Sc  Sc3  1  0.510949  0.510949  0.508871  1
  Si  Si4  1  0.332291  0.332291  0.006503  1
  Si  Si5  1  0.668511  0.996844  0.673377  1
  Si  Si6  1  0.996844  0.668511  0.673377  1
  Ge  Ge7  1  0.695785  0.695785  0.003001  1
  Ge  Ge8  1  0.304480  0.002141  0.311354  1
  Ge  Ge9  1  0.002141  0.304480  0.311354  1
  Ir  Ir10  1  0.750628  0.250397  0.502635  1
  Ir  Ir11  1  0.749948  0.499913  0.251601  1
  Ir  Ir12  1  0.500786  0.249464  0.752619  1
  Ir  Ir13  1  0.249464  0.500786  0.752619  1
  Ir  Ir14  1  0.250397  0.750628  0.502635  1
  Ir  Ir15  1  0.499913  0.749948  0.251601  1
  Ir  Ir16  1  0.002825  0.002825  0.965335  1
