# generated using pymatgen
data_Er8B24Ru3W
_symmetry_space_group_name_H-M   'P 1'
_cell_length_a   3.62318300
_cell_length_b   9.13568611
_cell_length_c   11.52271890
_cell_angle_alpha   89.85729083
_cell_angle_beta   90.00000000
_cell_angle_gamma   90.00000000
_symmetry_Int_Tables_number   1
_chemical_formula_structural   Er8B24Ru3W
_chemical_formula_sum   'Er8 B24 Ru3 W1'
_cell_volume   381.40383857
_cell_formula_units_Z   1
loop_
 _symmetry_equiv_pos_site_id
 _symmetry_equiv_pos_as_xyz
  1  'x, y, z'
loop_
 _atom_site_type_symbol
 _atom_site_label
 _atom_site_symmetry_multiplicity
 _atom_site_fract_x
 _atom_site_fract_y
 _atom_site_fract_z
 _atom_site_occupancy
  Er  Er0  1  0.000000  0.321392  0.413770  1
  Er  Er1  1  0.000000  0.677525  0.585421  1
  Er  Er2  1  0.000000  0.820652  0.086912  1
  Er  Er3  1  0.000000  0.176689  0.914703  1
  Er  Er4  1  0.000000  0.946504  0.373256  1
  Er  Er5  1  0.000000  0.057491  0.628837  1
  Er  Er6  1  0.000000  0.442629  0.125824  1
  Er  Er7  1  0.000000  0.556689  0.870998  1
  B  B8  1  0.500000  0.550007  0.436823  1
  B  B9  1  0.500000  0.445721  0.568429  1
  B  B10  1  0.500000  0.053926  0.066495  1
  B  B11  1  0.500000  0.946291  0.933280  1
  B  B12  1  0.500000  0.752214  0.422842  1
  B  B13  1  0.500000  0.251632  0.581033  1
  B  B14  1  0.500000  0.248229  0.079675  1
  B  B15  1  0.500000  0.751466  0.919248  1
  B  B16  1  0.500000  0.796314  0.263791  1
  B  B17  1  0.500000  0.208249  0.734495  1
  B  B18  1  0.500000  0.290723  0.232549  1
  B  B19  1  0.500000  0.709023  0.765730  1
  B  B20  1  0.500000  0.632476  0.181751  1
  B  B21  1  0.500000  0.367527  0.815150  1
  B  B22  1  0.500000  0.132219  0.314305  1
  B  B23  1  0.500000  0.868895  0.685394  1
  B  B24  1  0.500000  0.984163  0.212453  1
  B  B25  1  0.500000  0.016968  0.788211  1
  B  B26  1  0.500000  0.476901  0.286425  1
  B  B27  1  0.500000  0.516218  0.713037  1
  B  B28  1  0.500000  0.606782  0.027600  1
  B  B29  1  0.500000  0.391981  0.969292  1
  B  B30  1  0.500000  0.108252  0.471069  1
  B  B31  1  0.500000  0.895718  0.530930  1
  Ru  Ru32  1  0.000000  0.361016  0.680232  1
  Ru  Ru33  1  0.000000  0.137761  0.177916  1
  Ru  Ru34  1  0.000000  0.861994  0.820763  1
  W  W35  1  0.000000  0.637764  0.321362  1
