# generated using pymatgen
data_Tb11YFe2I17
_symmetry_space_group_name_H-M   'P 1'
_cell_length_a   9.74453282
_cell_length_b   11.70825570
_cell_length_c   11.71817164
_cell_angle_alpha   93.56579783
_cell_angle_beta   104.77606508
_cell_angle_gamma   114.14237130
_symmetry_Int_Tables_number   1
_chemical_formula_structural   Tb11YFe2I17
_chemical_formula_sum   'Tb11 Y1 Fe2 I17'
_cell_volume   1158.46337032
_cell_formula_units_Z   1
loop_
 _symmetry_equiv_pos_site_id
 _symmetry_equiv_pos_as_xyz
  1  'x, y, z'
loop_
 _atom_site_type_symbol
 _atom_site_label
 _atom_site_symmetry_multiplicity
 _atom_site_fract_x
 _atom_site_fract_y
 _atom_site_fract_z
 _atom_site_occupancy
  Tb  Tb0  1  0.052623  0.502604  0.320160  1
  Tb  Tb1  1  0.990392  0.808637  0.586981  1
  Tb  Tb2  1  0.653938  0.241236  0.281377  1
  Tb  Tb3  1  0.008587  0.192319  0.411460  1
  Tb  Tb4  1  0.218647  0.671731  0.984327  1
  Tb  Tb5  1  0.254252  0.978866  0.889062  1
  Tb  Tb6  1  0.342371  0.758457  0.719753  1
  Tb  Tb7  1  0.946537  0.495946  0.679911  1
  Tb  Tb8  1  0.745919  0.022244  0.111291  1
  Tb  Tb9  1  0.144058  0.287565  0.153628  1
  Tb  Tb10  1  0.781694  0.327980  0.017732  1
  Y  Y11  1  0.857710  0.712283  0.844640  1
  Fe  Fe12  1  0.103105  0.737901  0.785607  1
  Fe  Fe13  1  0.896804  0.262164  0.214484  1
  I  I14  1  0.783101  0.528126  0.417675  1
  I  I15  1  0.644638  0.417928  0.761827  1
  I  I16  1  0.845031  0.896782  0.326372  1
  I  I17  1  0.328597  0.214127  0.369166  1
  I  I18  1  0.156461  0.103954  0.672970  1
  I  I19  1  0.585357  0.051787  0.843096  1
  I  I20  1  0.758431  0.187390  0.538912  1
  I  I21  1  0.550671  0.711124  0.953577  1
  I  I22  1  0.356860  0.581620  0.238876  1
  I  I23  1  0.216407  0.471963  0.583514  1
  I  I24  1  0.057602  0.368203  0.896978  1
  I  I25  1  0.449441  0.289543  0.045580  1
  I  I26  1  0.999570  0.999480  0.999444  1
  I  I27  1  0.241330  0.811746  0.461717  1
  I  I28  1  0.413571  0.947350  0.157047  1
  I  I29  1  0.672942  0.786691  0.630225  1
  I  I30  1  0.943350  0.632253  0.102612  1
