# generated using pymatgen
data_Sr7Ca5Fe12(SbO6)8
_symmetry_space_group_name_H-M   'P 1'
_cell_length_a   11.26022341
_cell_length_b   11.26203545
_cell_length_c   11.26022280
_cell_angle_alpha   109.11630490
_cell_angle_beta   109.88995216
_cell_angle_gamma   109.40189565
_symmetry_Int_Tables_number   1
_chemical_formula_structural   Sr7Ca5Fe12(SbO6)8
_chemical_formula_sum   'Sr7 Ca5 Fe12 Sb8 O48'
_cell_volume   1099.26731806
_cell_formula_units_Z   1
loop_
 _symmetry_equiv_pos_site_id
 _symmetry_equiv_pos_as_xyz
  1  'x, y, z'
loop_
 _atom_site_type_symbol
 _atom_site_label
 _atom_site_symmetry_multiplicity
 _atom_site_fract_x
 _atom_site_fract_y
 _atom_site_fract_z
 _atom_site_occupancy
  Sr  Sr0  1  0.249802  0.375233  0.125140  1
  Sr  Sr1  1  0.749919  0.625912  0.876745  1
  Sr  Sr2  1  0.749907  0.124767  0.374568  1
  Sr  Sr3  1  0.125725  0.250000  0.375725  1
  Sr  Sr4  1  0.374304  0.750000  0.124304  1
  Sr  Sr5  1  0.250832  0.874088  0.624006  1
  Sr  Sr6  1  0.874425  0.750000  0.624425  1
  Ca  Ca7  1  0.625609  0.250000  0.875609  1
  Ca  Ca8  1  0.374064  0.123860  0.250275  1
  Ca  Ca9  1  0.623455  0.874498  0.750080  1
  Ca  Ca10  1  0.126415  0.376140  0.750204  1
  Ca  Ca11  1  0.875582  0.625502  0.248957  1
  Fe  Fe12  1  0.250551  0.625677  0.375795  1
  Fe  Fe13  1  0.749553  0.374480  0.625164  1
  Fe  Fe14  1  0.750118  0.874323  0.124874  1
  Fe  Fe15  1  0.378167  0.250000  0.628167  1
  Fe  Fe16  1  0.624907  0.750000  0.374907  1
  Fe  Fe17  1  0.250684  0.125520  0.875073  1
  Fe  Fe18  1  0.124202  0.750000  0.874202  1
  Fe  Fe19  1  0.872810  0.250000  0.122810  1
  Fe  Fe20  1  0.623892  0.373593  0.249550  1
  Fe  Fe21  1  0.374854  0.625270  0.749796  1
  Fe  Fe22  1  0.875957  0.126407  0.750299  1
  Fe  Fe23  1  0.124525  0.874730  0.249584  1
  Sb  Sb24  1  0.999129  0.000436  0.000355  1
  Sb  Sb25  1  0.501126  0.000522  0.501991  1
  Sb  Sb26  1  0.999918  0.499564  0.498692  1
  Sb  Sb27  1  0.499703  0.000325  0.998299  1
  Sb  Sb28  1  0.501468  0.499478  0.000604  1
  Sb  Sb29  1  0.499574  0.499976  0.501088  1
  Sb  Sb30  1  0.001112  0.000024  0.499599  1
  Sb  Sb31  1  0.997974  0.499675  0.999378  1
  O  O32  1  0.484156  0.377731  0.309281  1
  O  O33  1  0.527325  0.623729  0.692481  1
  O  O34  1  0.568551  0.174855  0.190848  1
  O  O35  1  0.931550  0.122269  0.606426  1
  O  O36  1  0.306816  0.473650  0.382379  1
  O  O37  1  0.336501  0.934281  0.309230  1
  O  O38  1  0.431983  0.835381  0.807714  1
  O  O39  1  0.068753  0.876271  0.403596  1
  O  O40  1  0.694508  0.514944  0.612610  1
  O  O41  1  0.679422  0.079300  0.697482  1
  O  O42  1  0.015994  0.325145  0.893697  1
  O  O43  1  0.190570  0.573829  0.166474  1
  O  O44  1  0.126215  0.029640  0.193259  1
  O  O45  1  0.972331  0.664619  0.096602  1
  O  O46  1  0.802446  0.415162  0.819750  1
  O  O47  1  0.881820  0.983813  0.805112  1
  O  O48  1  0.592645  0.926171  0.116741  1
  O  O49  1  0.163621  0.470360  0.596576  1
  O  O50  1  0.404588  0.084838  0.887284  1
  O  O51  1  0.821298  0.516187  0.398007  1
  O  O52  1  0.908728  0.026350  0.333164  1
  O  O53  1  0.374949  0.565719  0.902220  1
  O  O54  1  0.097667  0.985056  0.679564  1
  O  O55  1  0.618182  0.420700  0.100122  1
  O  O56  1  0.391893  0.306802  0.489501  1
  O  O57  1  0.583685  0.903722  0.390812  1
  O  O58  1  0.613583  0.690324  0.511880  1
  O  O59  1  0.431031  0.104890  0.623560  1
  O  O60  1  0.107886  0.596444  0.915634  1
  O  O61  1  0.011929  0.193766  0.109307  1
  O  O62  1  0.876738  0.393994  0.068887  1
  O  O63  1  0.986443  0.808889  0.886142  1
  O  O64  1  0.319191  0.903556  0.011444  1
  O  O65  1  0.915541  0.306234  0.318163  1
  O  O66  1  0.674893  0.106006  0.982743  1
  O  O67  1  0.077253  0.691111  0.677555  1
  O  O68  1  0.182700  0.193198  0.585091  1
  O  O69  1  0.487089  0.596278  0.179963  1
  O  O70  1  0.821555  0.809676  0.423259  1
  O  O71  1  0.518672  0.395110  0.826141  1
  O  O72  1  0.309158  0.321644  0.923378  1
  O  O73  1  0.693953  0.667661  0.078850  1
  O  O74  1  0.190481  0.113986  0.011797  1
  O  O75  1  0.805801  0.885168  0.974072  1
  O  O76  1  0.897810  0.386014  0.576495  1
  O  O77  1  0.088905  0.614832  0.420633  1
  O  O78  1  0.601735  0.178356  0.487514  1
  O  O79  1  0.411190  0.832339  0.526293  1
