# generated using pymatgen
data_Er10In8Ir3Ru
_symmetry_space_group_name_H-M   'P 1'
_cell_length_a   3.59532400
_cell_length_b   8.00385231
_cell_length_c   18.23365171
_cell_angle_alpha   89.99996479
_cell_angle_beta   90.00000000
_cell_angle_gamma   90.00000000
_symmetry_Int_Tables_number   1
_chemical_formula_structural   Er10In8Ir3Ru
_chemical_formula_sum   'Er10 In8 Ir3 Ru1'
_cell_volume   524.69962628
_cell_formula_units_Z   1
loop_
 _symmetry_equiv_pos_site_id
 _symmetry_equiv_pos_as_xyz
  1  'x, y, z'
loop_
 _atom_site_type_symbol
 _atom_site_label
 _atom_site_symmetry_multiplicity
 _atom_site_fract_x
 _atom_site_fract_y
 _atom_site_fract_z
 _atom_site_occupancy
  Er  Er0  1  0.000000  0.117027  0.412126  1
  Er  Er1  1  0.000000  0.883992  0.588589  1
  Er  Er2  1  0.000000  0.384398  0.911635  1
  Er  Er3  1  0.000000  0.616503  0.089261  1
  Er  Er4  1  0.000000  0.243084  0.221257  1
  Er  Er5  1  0.000000  0.755611  0.778052  1
  Er  Er6  1  0.000000  0.255375  0.721914  1
  Er  Er7  1  0.000000  0.743734  0.277883  1
  Er  Er8  1  0.000000  0.999715  0.999790  1
  Er  Er9  1  0.000000  0.500723  0.500050  1
  In  In10  1  0.500000  0.426399  0.350312  1
  In  In11  1  0.500000  0.571587  0.649084  1
  In  In12  1  0.500000  0.072032  0.850905  1
  In  In13  1  0.500000  0.930483  0.149747  1
  In  In14  1  0.500000  0.292611  0.067512  1
  In  In15  1  0.500000  0.707989  0.932380  1
  In  In16  1  0.500000  0.208002  0.567604  1
  In  In17  1  0.500000  0.793885  0.431210  1
  Ir  Ir18  1  0.500000  0.979013  0.695749  1
  Ir  Ir19  1  0.500000  0.478910  0.804459  1
  Ir  Ir20  1  0.500000  0.518839  0.195977  1
  Ru  Ru21  1  0.500000  0.020088  0.304501  1
