# generated using pymatgen
data_Pr2Nd4Al24Os5Pt3
_symmetry_space_group_name_H-M   'P 1'
_cell_length_a   8.91412658
_cell_length_b   8.96647498
_cell_length_c   9.67861511
_cell_angle_alpha   89.94530957
_cell_angle_beta   90.08527852
_cell_angle_gamma   119.84248207
_symmetry_Int_Tables_number   1
_chemical_formula_structural   Pr2Nd4Al24Os5Pt3
_chemical_formula_sum   'Pr2 Nd4 Al24 Os5 Pt3'
_cell_volume   671.01317078
_cell_formula_units_Z   1
loop_
 _symmetry_equiv_pos_site_id
 _symmetry_equiv_pos_as_xyz
  1  'x, y, z'
loop_
 _atom_site_type_symbol
 _atom_site_label
 _atom_site_symmetry_multiplicity
 _atom_site_fract_x
 _atom_site_fract_y
 _atom_site_fract_z
 _atom_site_occupancy
  Pr  Pr0  1  0.194209  0.812990  0.251127  1
  Pr  Pr1  1  0.805791  0.187010  0.748873  1
  Nd  Nd2  1  0.192531  0.380601  0.249948  1
  Nd  Nd3  1  0.807469  0.619399  0.750052  1
  Nd  Nd4  1  0.616090  0.809765  0.250063  1
  Nd  Nd5  1  0.383910  0.190235  0.749937  1
  Al  Al6  1  0.335015  0.670899  0.022869  1
  Al  Al7  1  0.664985  0.329101  0.977131  1
  Al  Al8  1  0.661702  0.331286  0.522312  1
  Al  Al9  1  0.338298  0.668714  0.477688  1
  Al  Al10  1  0.168283  0.326083  0.572813  1
  Al  Al11  1  0.831717  0.673917  0.427187  1
  Al  Al12  1  0.670685  0.834633  0.573258  1
  Al  Al13  1  0.837314  0.675136  0.075882  1
  Al  Al14  1  0.329315  0.165367  0.426742  1
  Al  Al15  1  0.162686  0.324864  0.924118  1
  Al  Al16  1  0.167322  0.841369  0.576656  1
  Al  Al17  1  0.326926  0.158876  0.075886  1
  Al  Al18  1  0.832678  0.158631  0.423344  1
  Al  Al19  1  0.673074  0.841124  0.924114  1
  Al  Al20  1  0.832445  0.158175  0.077190  1
  Al  Al21  1  0.167555  0.841825  0.922810  1
  Al  Al22  1  0.562918  0.125451  0.249786  1
  Al  Al23  1  0.437082  0.874549  0.750214  1
  Al  Al24  1  0.872370  0.435608  0.249224  1
  Al  Al25  1  0.127630  0.564392  0.750776  1
  Al  Al26  1  0.562833  0.436652  0.253288  1
  Al  Al27  1  0.437167  0.563348  0.746712  1
  Al  Al28  1  0.001998  0.003730  0.250263  1
  Al  Al29  1  0.998002  0.996270  0.749737  1
  Os  Os30  1  0.500000  0.000000  0.000000  1
  Os  Os31  1  0.500000  0.000000  0.500000  1
  Os  Os32  1  0.500000  0.500000  0.500000  1
  Os  Os33  1  0.000000  0.000000  0.000000  1
  Os  Os34  1  0.000000  0.000000  0.500000  1
  Pt  Pt35  1  0.000000  0.500000  0.000000  1
  Pt  Pt36  1  0.500000  0.500000  0.000000  1
  Pt  Pt37  1  0.000000  0.500000  0.500000  1
