# generated using pymatgen
data_Y8Hf12Si15Ge
_symmetry_space_group_name_H-M   'P 1'
_cell_length_a   7.28670937
_cell_length_b   7.29311830
_cell_length_c   13.40333401
_cell_angle_alpha   89.92326044
_cell_angle_beta   89.99671765
_cell_angle_gamma   89.94180294
_symmetry_Int_Tables_number   1
_chemical_formula_structural   Y8Hf12Si15Ge
_chemical_formula_sum   'Y8 Hf12 Si15 Ge1'
_cell_volume   712.29013917
_cell_formula_units_Z   1
loop_
 _symmetry_equiv_pos_site_id
 _symmetry_equiv_pos_as_xyz
  1  'x, y, z'
loop_
 _atom_site_type_symbol
 _atom_site_label
 _atom_site_symmetry_multiplicity
 _atom_site_fract_x
 _atom_site_fract_y
 _atom_site_fract_z
 _atom_site_occupancy
  Y  Y0  1  0.995089  0.344518  0.214596  1
  Y  Y1  1  0.003830  0.655868  0.715454  1
  Y  Y2  1  0.154146  0.498532  0.466418  1
  Y  Y3  1  0.504337  0.843494  0.034189  1
  Y  Y4  1  0.844378  0.503786  0.965062  1
  Y  Y5  1  0.496964  0.155022  0.535781  1
  Y  Y6  1  0.344041  0.996265  0.784791  1
  Y  Y7  1  0.656822  0.002419  0.284356  1
  Hf  Hf8  1  0.174417  0.174709  0.999833  1
  Hf  Hf9  1  0.825644  0.825755  0.500258  1
  Hf  Hf10  1  0.325553  0.677153  0.249379  1
  Hf  Hf11  1  0.674617  0.325417  0.749997  1
  Hf  Hf12  1  0.147607  0.993894  0.373772  1
  Hf  Hf13  1  0.851500  0.004122  0.874232  1
  Hf  Hf14  1  0.504033  0.648969  0.624293  1
  Hf  Hf15  1  0.351144  0.495587  0.875768  1
  Hf  Hf16  1  0.495209  0.350915  0.123107  1
  Hf  Hf17  1  0.651510  0.506814  0.376756  1
  Hf  Hf18  1  0.995456  0.148751  0.626053  1
  Hf  Hf19  1  0.003681  0.850589  0.125276  1
  Si  Si20  1  0.637849  0.705037  0.817072  1
  Si  Si21  1  0.204600  0.862566  0.567167  1
  Si  Si22  1  0.137835  0.795255  0.932631  1
  Si  Si23  1  0.795137  0.137939  0.066883  1
  Si  Si24  1  0.862035  0.204335  0.432919  1
  Si  Si25  1  0.295363  0.362220  0.682899  1
  Si  Si26  1  0.704092  0.637335  0.182794  1
  Si  Si27  1  0.295154  0.045655  0.183518  1
  Si  Si28  1  0.705000  0.950590  0.685814  1
  Si  Si29  1  0.450909  0.795510  0.435513  1
  Si  Si30  1  0.204666  0.548817  0.064556  1
  Si  Si31  1  0.548980  0.204666  0.935270  1
  Si  Si32  1  0.794863  0.450985  0.564829  1
  Si  Si33  1  0.049056  0.295187  0.814361  1
  Si  Si34  1  0.951432  0.704313  0.314169  1
  Ge  Ge35  1  0.363050  0.297010  0.320233  1
