# generated using pymatgen
data_SrCeUN4
_symmetry_space_group_name_H-M   'P 1'
_cell_length_a   10.09346286
_cell_length_b   3.53020800
_cell_length_c   11.87112400
_cell_angle_alpha   90.00000000
_cell_angle_beta   90.02363704
_cell_angle_gamma   90.00000000
_symmetry_Int_Tables_number   1
_chemical_formula_structural   SrCeUN4
_chemical_formula_sum   'Sr4 Ce4 U4 N16'
_cell_volume   422.99213135
_cell_formula_units_Z   4
loop_
 _symmetry_equiv_pos_site_id
 _symmetry_equiv_pos_as_xyz
  1  'x, y, z'
loop_
 _atom_site_type_symbol
 _atom_site_label
 _atom_site_symmetry_multiplicity
 _atom_site_fract_x
 _atom_site_fract_y
 _atom_site_fract_z
 _atom_site_occupancy
  Sr  Sr0  1  0.753132  0.500001  0.146215  1
  Sr  Sr1  1  0.253132  0.500001  0.353779  1
  Sr  Sr2  1  0.753843  0.000000  0.645274  1
  Sr  Sr3  1  0.253820  0.000000  0.854680  1
  Ce  Ce4  1  0.084863  0.500001  0.113043  1
  Ce  Ce5  1  0.426970  0.000000  0.117681  1
  Ce  Ce6  1  0.927015  0.000000  0.382314  1
  Ce  Ce7  1  0.584902  0.500001  0.386986  1
  U  U8  1  0.420444  0.000000  0.612942  1
  U  U9  1  0.074147  0.500001  0.615464  1
  U  U10  1  0.574119  0.500001  0.884552  1
  U  U11  1  0.920460  0.000000  0.887029  1
  N  N12  1  0.623273  0.000000  0.990154  1
  N  N13  1  0.923677  0.000000  0.057610  1
  N  N14  1  0.213551  0.000000  0.171334  1
  N  N15  1  0.485147  0.500001  0.220009  1
  N  N16  1  0.985127  0.500001  0.279997  1
  N  N17  1  0.713525  0.000000  0.328702  1
  N  N18  1  0.423697  0.000000  0.442361  1
  N  N19  1  0.123328  0.000000  0.509892  1
  N  N20  1  0.893914  0.500001  0.531213  1
  N  N21  1  0.551447  0.500001  0.588233  1
  N  N22  1  0.287154  0.500001  0.667262  1
  N  N23  1  0.008444  0.000000  0.716939  1
  N  N24  1  0.508415  0.000000  0.783059  1
  N  N25  1  0.787110  0.500001  0.832750  1
  N  N26  1  0.051435  0.500001  0.911792  1
  N  N27  1  0.393922  0.500001  0.968743  1
