# generated using pymatgen
data_Li4Nd3YRh4
_symmetry_space_group_name_H-M   'P 1'
_cell_length_a   3.99433900
_cell_length_b   7.05380739
_cell_length_c   8.57726480
_cell_angle_alpha   89.80081463
_cell_angle_beta   90.00000000
_cell_angle_gamma   90.00000000
_symmetry_Int_Tables_number   1
_chemical_formula_structural   Li4Nd3YRh4
_chemical_formula_sum   'Li4 Nd3 Y1 Rh4'
_cell_volume   241.66553113
_cell_formula_units_Z   1
loop_
 _symmetry_equiv_pos_site_id
 _symmetry_equiv_pos_as_xyz
  1  'x, y, z'
loop_
 _atom_site_type_symbol
 _atom_site_label
 _atom_site_symmetry_multiplicity
 _atom_site_fract_x
 _atom_site_fract_y
 _atom_site_fract_z
 _atom_site_occupancy
  Li  Li0  1  0.750000  0.376313  0.050553  1
  Li  Li1  1  0.250000  0.621729  0.946413  1
  Li  Li2  1  0.750000  0.874241  0.447957  1
  Li  Li3  1  0.250000  0.129579  0.553490  1
  Nd  Nd4  1  0.250000  0.047866  0.177946  1
  Nd  Nd5  1  0.750000  0.952405  0.818556  1
  Nd  Nd6  1  0.250000  0.547348  0.324188  1
  Y  Y7  1  0.750000  0.450768  0.678726  1
  Rh  Rh8  1  0.250000  0.735763  0.634736  1
  Rh  Rh9  1  0.750000  0.258783  0.370843  1
  Rh  Rh10  1  0.250000  0.245353  0.864499  1
  Rh  Rh11  1  0.750000  0.759853  0.132092  1
