# generated using pymatgen
data_Zr4Ti3MnP4
_symmetry_space_group_name_H-M   'P 1'
_cell_length_a   3.58760200
_cell_length_b   6.70464453
_cell_length_c   8.03625587
_cell_angle_alpha   89.75927009
_cell_angle_beta   90.00000000
_cell_angle_gamma   90.00000000
_symmetry_Int_Tables_number   1
_chemical_formula_structural   Zr4Ti3MnP4
_chemical_formula_sum   'Zr4 Ti3 Mn1 P4'
_cell_volume   193.29914697
_cell_formula_units_Z   1
loop_
 _symmetry_equiv_pos_site_id
 _symmetry_equiv_pos_as_xyz
  1  'x, y, z'
loop_
 _atom_site_type_symbol
 _atom_site_label
 _atom_site_symmetry_multiplicity
 _atom_site_fract_x
 _atom_site_fract_y
 _atom_site_fract_z
 _atom_site_occupancy
  Zr  Zr0  1  0.250000  0.538192  0.674831  1
  Zr  Zr1  1  0.250000  0.032279  0.832743  1
  Zr  Zr2  1  0.750000  0.959406  0.167231  1
  Zr  Zr3  1  0.750000  0.467674  0.325964  1
  Ti  Ti4  1  0.750000  0.370931  0.942074  1
  Ti  Ti5  1  0.250000  0.133132  0.437427  1
  Ti  Ti6  1  0.750000  0.860321  0.559769  1
  Mn  Mn7  1  0.250000  0.635429  0.057248  1
  P  P8  1  0.250000  0.267050  0.136468  1
  P  P9  1  0.250000  0.761161  0.356628  1
  P  P10  1  0.750000  0.736327  0.873308  1
  P  P11  1  0.750000  0.238099  0.636309  1
