# generated using pymatgen
data_CsEu2Cl7
_symmetry_space_group_name_H-M   'P 1'
_cell_length_a   8.28082532
_cell_length_b   8.28081880
_cell_length_c   5.49151200
_cell_angle_alpha   90.00000000
_cell_angle_beta   90.00000000
_cell_angle_gamma   117.42914787
_symmetry_Int_Tables_number   1
_chemical_formula_structural   CsEu2Cl7
_chemical_formula_sum   'Cs1 Eu2 Cl7'
_cell_volume   334.23114339
_cell_formula_units_Z   1
loop_
 _symmetry_equiv_pos_site_id
 _symmetry_equiv_pos_as_xyz
  1  'x, y, z'
loop_
 _atom_site_type_symbol
 _atom_site_label
 _atom_site_symmetry_multiplicity
 _atom_site_fract_x
 _atom_site_fract_y
 _atom_site_fract_z
 _atom_site_occupancy
  Cs  Cs0  1  0.000000  0.000000  0.000000  1
  Eu  Eu1  1  0.698198  0.301800  0.500001  1
  Eu  Eu2  1  0.301801  0.698199  0.500001  1
  Cl  Cl3  1  0.706701  0.293299  0.000000  1
  Cl  Cl4  1  0.293299  0.706701  0.000000  1
  Cl  Cl5  1  0.324476  0.051697  0.500001  1
  Cl  Cl6  1  0.051697  0.324476  0.500001  1
  Cl  Cl7  1  0.500000  0.500000  0.500001  1
  Cl  Cl8  1  0.948304  0.675525  0.500001  1
  Cl  Cl9  1  0.675525  0.948304  0.500001  1
