# generated using pymatgen
data_Tm12Zn2Ni3Ru
_symmetry_space_group_name_H-M   'P 1'
_cell_length_a   8.18617734
_cell_length_b   8.18617786
_cell_length_c   8.18617686
_cell_angle_alpha   106.13986917
_cell_angle_beta   110.27358668
_cell_angle_gamma   112.05606197
_symmetry_Int_Tables_number   1
_chemical_formula_structural   Tm12Zn2Ni3Ru
_chemical_formula_sum   'Tm12 Zn2 Ni3 Ru1'
_cell_volume   421.12915807
_cell_formula_units_Z   1
loop_
 _symmetry_equiv_pos_site_id
 _symmetry_equiv_pos_as_xyz
  1  'x, y, z'
loop_
 _atom_site_type_symbol
 _atom_site_label
 _atom_site_symmetry_multiplicity
 _atom_site_fract_x
 _atom_site_fract_y
 _atom_site_fract_z
 _atom_site_occupancy
  Tm  Tm0  1  0.691801  0.254106  0.945906  1
  Tm  Tm1  1  0.306855  0.736840  0.043695  1
  Tm  Tm2  1  0.691801  0.745894  0.437695  1
  Tm  Tm3  1  0.306855  0.263160  0.570015  1
  Tm  Tm4  1  0.807389  0.134492  0.324706  1
  Tm  Tm5  1  0.807389  0.482685  0.672897  1
  Tm  Tm6  1  0.190213  0.865508  0.672897  1
  Tm  Tm7  1  0.190213  0.517315  0.324706  1
  Tm  Tm8  1  0.600573  0.778457  0.822117  1
  Tm  Tm9  1  0.961606  0.778146  0.183460  1
  Tm  Tm10  1  0.043660  0.221543  0.822117  1
  Tm  Tm11  1  0.405316  0.221854  0.183460  1
  Zn  Zn12  1  0.510210  0.500000  0.010210  1
  Zn  Zn13  1  0.495627  0.000000  0.495627  1
  Ni  Ni14  1  0.157557  0.500000  0.657557  1
  Ni  Ni15  1  0.000619  0.118562  0.119180  1
  Ni  Ni16  1  0.000619  0.881438  0.882057  1
  Ru  Ru17  1  0.831698  0.500000  0.331698  1
