# generated using pymatgen
data_YMnNi3(AuO4)3
_symmetry_space_group_name_H-M   'P 1'
_cell_length_a   6.55436117
_cell_length_b   6.55436076
_cell_length_c   6.55436076
_cell_angle_alpha   109.56473255
_cell_angle_beta   109.56473463
_cell_angle_gamma   109.56473769
_symmetry_Int_Tables_number   1
_chemical_formula_structural   YMnNi3(AuO4)3
_chemical_formula_sum   'Y1 Mn1 Ni3 Au3 O12'
_cell_volume   216.00129422
_cell_formula_units_Z   1
loop_
 _symmetry_equiv_pos_site_id
 _symmetry_equiv_pos_as_xyz
  1  'x, y, z'
loop_
 _atom_site_type_symbol
 _atom_site_label
 _atom_site_symmetry_multiplicity
 _atom_site_fract_x
 _atom_site_fract_y
 _atom_site_fract_z
 _atom_site_occupancy
  Y  Y0  1  0.000000  0.000000  0.000000  1
  Mn  Mn1  1  0.500000  0.500000  0.500000  1
  Ni  Ni2  1  0.000000  0.000000  0.500000  1
  Ni  Ni3  1  0.000000  0.500000  0.000000  1
  Ni  Ni4  1  0.500000  0.000000  0.000000  1
  Au  Au5  1  0.000000  0.500000  0.500000  1
  Au  Au6  1  0.500000  0.000000  0.500000  1
  Au  Au7  1  0.500000  0.500000  0.000000  1
  O  O8  1  0.292504  0.121082  0.827116  1
  O  O9  1  0.707496  0.878918  0.172884  1
  O  O10  1  0.696665  0.533272  0.818601  1
  O  O11  1  0.466728  0.181399  0.303335  1
  O  O12  1  0.181399  0.303335  0.466728  1
  O  O13  1  0.827116  0.292504  0.121082  1
  O  O14  1  0.878918  0.172884  0.707496  1
  O  O15  1  0.818601  0.696665  0.533272  1
  O  O16  1  0.303335  0.466728  0.181399  1
  O  O17  1  0.533272  0.818601  0.696665  1
  O  O18  1  0.172884  0.707496  0.878918  1
  O  O19  1  0.121082  0.827116  0.292504  1
