# generated using pymatgen
data_PrHo5(BiO7)2
_symmetry_space_group_name_H-M   'P 1'
_cell_length_a   6.58393806
_cell_length_b   6.57747237
_cell_length_c   7.72778431
_cell_angle_alpha   106.99377956
_cell_angle_beta   89.83411854
_cell_angle_gamma   98.94288779
_symmetry_Int_Tables_number   1
_chemical_formula_structural   PrHo5(BiO7)2
_chemical_formula_sum   'Pr1 Ho5 Bi2 O14'
_cell_volume   315.83340004
_cell_formula_units_Z   1
loop_
 _symmetry_equiv_pos_site_id
 _symmetry_equiv_pos_as_xyz
  1  'x, y, z'
loop_
 _atom_site_type_symbol
 _atom_site_label
 _atom_site_symmetry_multiplicity
 _atom_site_fract_x
 _atom_site_fract_y
 _atom_site_fract_z
 _atom_site_occupancy
  Pr  Pr0  1  0.257523  0.517996  0.382501  1
  Ho  Ho1  1  0.465659  0.006158  0.251132  1
  Ho  Ho2  1  0.537625  0.993704  0.748808  1
  Ho  Ho3  1  0.274985  0.538966  0.883400  1
  Ho  Ho4  1  0.727713  0.462840  0.114460  1
  Ho  Ho5  1  0.729154  0.472737  0.616241  1
  Bi  Bi6  1  0.997693  0.001365  0.501469  1
  Bi  Bi7  1  0.999545  0.998198  0.998918  1
  O  O8  1  0.455522  0.652813  0.158642  1
  O  O9  1  0.553313  0.348220  0.832508  1
  O  O10  1  0.301613  0.922385  0.950822  1
  O  O11  1  0.698633  0.078815  0.047575  1
  O  O12  1  0.298732  0.931221  0.515718  1
  O  O13  1  0.698869  0.076083  0.489414  1
  O  O14  1  0.554741  0.360055  0.343830  1
  O  O15  1  0.460850  0.638475  0.663644  1
  O  O16  1  0.927148  0.664421  0.959356  1
  O  O17  1  0.075841  0.333779  0.040372  1
  O  O18  1  0.065632  0.350613  0.624908  1
  O  O19  1  0.918856  0.657316  0.376915  1
  O  O20  1  0.872516  0.900367  0.724869  1
  O  O21  1  0.127838  0.093472  0.274499  1
