# generated using pymatgen
data_Nb12CrSi4Os7C4
_symmetry_space_group_name_H-M   'P 1'
_cell_length_a   8.27787972
_cell_length_b   8.27724802
_cell_length_c   8.25914846
_cell_angle_alpha   59.96666097
_cell_angle_beta   59.89535627
_cell_angle_gamma   60.00070311
_symmetry_Int_Tables_number   1
_chemical_formula_structural   Nb12CrSi4Os7C4
_chemical_formula_sum   'Nb12 Cr1 Si4 Os7 C4'
_cell_volume   399.73635651
_cell_formula_units_Z   1
loop_
 _symmetry_equiv_pos_site_id
 _symmetry_equiv_pos_as_xyz
  1  'x, y, z'
loop_
 _atom_site_type_symbol
 _atom_site_label
 _atom_site_symmetry_multiplicity
 _atom_site_fract_x
 _atom_site_fract_y
 _atom_site_fract_z
 _atom_site_occupancy
  Nb  Nb0  1  0.552505  0.552486  0.947941  1
  Nb  Nb1  1  0.945807  0.945962  0.548558  1
  Nb  Nb2  1  0.697248  0.697470  0.302585  1
  Nb  Nb3  1  0.303048  0.697900  0.695962  1
  Nb  Nb4  1  0.697363  0.302554  0.302613  1
  Nb  Nb5  1  0.303014  0.303104  0.696026  1
  Nb  Nb6  1  0.559690  0.945928  0.548538  1
  Nb  Nb7  1  0.302823  0.697369  0.302565  1
  Nb  Nb8  1  0.947088  0.552494  0.947913  1
  Nb  Nb9  1  0.945863  0.559629  0.548575  1
  Nb  Nb10  1  0.697821  0.303082  0.696067  1
  Nb  Nb11  1  0.552483  0.947057  0.947985  1
  Cr  Cr12  1  0.919135  0.918866  0.242979  1
  Si  Si13  1  0.124618  0.124681  0.626056  1
  Si  Si14  1  0.121868  0.627054  0.129226  1
  Si  Si15  1  0.627024  0.121845  0.129273  1
  Si  Si16  1  0.121866  0.121832  0.129262  1
  Os  Os17  1  0.247820  0.916673  0.918837  1
  Os  Os18  1  0.916634  0.247943  0.918794  1
  Os  Os19  1  0.332726  0.332810  0.333779  1
  Os  Os20  1  0.332824  0.000551  0.333763  1
  Os  Os21  1  0.332945  0.332914  0.001211  1
  Os  Os22  1  0.000795  0.332730  0.333794  1
  Os  Os23  1  0.916653  0.916653  0.918815  1
  C  C24  1  0.625942  0.626054  0.122021  1
  C  C25  1  0.124060  0.625167  0.625628  1
  C  C26  1  0.625182  0.123992  0.625619  1
  C  C27  1  0.625151  0.625200  0.625619  1
