# generated using pymatgen
data_Tm3LuCo16(P3Rh)4
_symmetry_space_group_name_H-M   'P 1'
_cell_length_a   3.67607000
_cell_length_b   10.36911004
_cell_length_c   11.80247905
_cell_angle_alpha   89.98996731
_cell_angle_beta   90.00000000
_cell_angle_gamma   90.00000000
_symmetry_Int_Tables_number   1
_chemical_formula_structural   Tm3LuCo16(P3Rh)4
_chemical_formula_sum   'Tm3 Lu1 Co16 P12 Rh4'
_cell_volume   449.88186555
_cell_formula_units_Z   1
loop_
 _symmetry_equiv_pos_site_id
 _symmetry_equiv_pos_as_xyz
  1  'x, y, z'
loop_
 _atom_site_type_symbol
 _atom_site_label
 _atom_site_symmetry_multiplicity
 _atom_site_fract_x
 _atom_site_fract_y
 _atom_site_fract_z
 _atom_site_occupancy
  Tm  Tm0  1  0.250000  0.915776  0.204059  1
  Tm  Tm1  1  0.750000  0.415763  0.295918  1
  Tm  Tm2  1  0.750000  0.084197  0.795959  1
  Lu  Lu3  1  0.250000  0.584241  0.704028  1
  Co  Co4  1  0.250000  0.409375  0.486788  1
  Co  Co5  1  0.250000  0.090833  0.986689  1
  Co  Co6  1  0.750000  0.590956  0.514179  1
  Co  Co7  1  0.750000  0.909168  0.013314  1
  Co  Co8  1  0.250000  0.221807  0.176145  1
  Co  Co9  1  0.250000  0.278384  0.676272  1
  Co  Co10  1  0.750000  0.777790  0.823684  1
  Co  Co11  1  0.750000  0.721727  0.323937  1
  Co  Co12  1  0.250000  0.884964  0.702380  1
  Co  Co13  1  0.250000  0.614710  0.202261  1
  Co  Co14  1  0.750000  0.114750  0.297691  1
  Co  Co15  1  0.750000  0.385864  0.797385  1
  Co  Co16  1  0.250000  0.465050  0.929381  1
  Co  Co17  1  0.250000  0.035212  0.429837  1
  Co  Co18  1  0.750000  0.535240  0.069910  1
  Co  Co19  1  0.750000  0.964435  0.570291  1
  P  P20  1  0.250000  0.421616  0.113146  1
  P  P21  1  0.250000  0.078377  0.613324  1
  P  P22  1  0.750000  0.578491  0.886154  1
  P  P23  1  0.750000  0.921562  0.386754  1
  P  P24  1  0.250000  0.269854  0.864961  1
  P  P25  1  0.250000  0.230200  0.364933  1
  P  P26  1  0.750000  0.730127  0.135065  1
  P  P27  1  0.750000  0.769125  0.635257  1
  P  P28  1  0.250000  0.594425  0.389076  1
  P  P29  1  0.250000  0.905605  0.889134  1
  P  P30  1  0.750000  0.406091  0.611138  1
  P  P31  1  0.750000  0.094394  0.110927  1
  Rh  Rh32  1  0.250000  0.717434  0.991726  1
  Rh  Rh33  1  0.250000  0.782575  0.491743  1
  Rh  Rh34  1  0.750000  0.282469  0.008248  1
  Rh  Rh35  1  0.750000  0.217412  0.508309  1
