# generated using pymatgen
data_TbHo2Mg(GaPt)4
_symmetry_space_group_name_H-M   'P 1'
_cell_length_a   4.34389300
_cell_length_b   6.84860591
_cell_length_c   7.74371169
_cell_angle_alpha   86.11366068
_cell_angle_beta   90.00000000
_cell_angle_gamma   90.00000000
_symmetry_Int_Tables_number   1
_chemical_formula_structural   TbHo2Mg(GaPt)4
_chemical_formula_sum   'Tb1 Ho2 Mg1 Ga4 Pt4'
_cell_volume   229.84266334
_cell_formula_units_Z   1
loop_
 _symmetry_equiv_pos_site_id
 _symmetry_equiv_pos_as_xyz
  1  'x, y, z'
loop_
 _atom_site_type_symbol
 _atom_site_label
 _atom_site_symmetry_multiplicity
 _atom_site_fract_x
 _atom_site_fract_y
 _atom_site_fract_z
 _atom_site_occupancy
  Tb  Tb0  1  0.250000  0.523118  0.690663  1
  Ho  Ho1  1  0.750000  0.979643  0.178156  1
  Ho  Ho2  1  0.750000  0.471793  0.311308  1
  Mg  Mg3  1  0.250000  0.023459  0.819923  1
  Ga  Ga4  1  0.250000  0.148955  0.441209  1
  Ga  Ga5  1  0.250000  0.665322  0.064111  1
  Ga  Ga6  1  0.750000  0.845281  0.565390  1
  Ga  Ga7  1  0.750000  0.345274  0.930531  1
  Pt  Pt8  1  0.250000  0.770844  0.378416  1
  Pt  Pt9  1  0.250000  0.273572  0.109954  1
  Pt  Pt10  1  0.750000  0.217300  0.623422  1
  Pt  Pt11  1  0.750000  0.735443  0.886920  1
