# generated using pymatgen
data_HoLuNbB2Ru5
_symmetry_space_group_name_H-M   'P 1'
_cell_length_a   9.64299680
_cell_length_b   9.64299680
_cell_length_c   3.12153700
_cell_angle_alpha   90.00000000
_cell_angle_beta   90.00000000
_cell_angle_gamma   90.41026327
_symmetry_Int_Tables_number   1
_chemical_formula_structural   HoLuNbB2Ru5
_chemical_formula_sum   'Ho2 Lu2 Nb2 B4 Ru10'
_cell_volume   290.25612889
_cell_formula_units_Z   2
loop_
 _symmetry_equiv_pos_site_id
 _symmetry_equiv_pos_as_xyz
  1  'x, y, z'
loop_
 _atom_site_type_symbol
 _atom_site_label
 _atom_site_symmetry_multiplicity
 _atom_site_fract_x
 _atom_site_fract_y
 _atom_site_fract_z
 _atom_site_occupancy
  Ho  Ho0  1  0.825470  0.674530  0.000000  1
  Ho  Ho1  1  0.174530  0.325470  0.000000  1
  Lu  Lu2  1  0.325402  0.825402  0.000000  1
  Lu  Lu3  1  0.674598  0.174598  0.000000  1
  Nb  Nb4  1  0.500000  0.500000  0.000000  1
  Nb  Nb5  1  0.000000  0.000000  0.000000  1
  B  B6  1  0.619606  0.880394  0.000000  1
  B  B7  1  0.380394  0.119606  0.000000  1
  B  B8  1  0.120853  0.620853  0.000000  1
  B  B9  1  0.879147  0.379147  0.000000  1
  Ru  Ru10  1  0.569454  0.719027  0.500000  1
  Ru  Ru11  1  0.430546  0.280973  0.500000  1
  Ru  Ru12  1  0.073705  0.782509  0.500000  1
  Ru  Ru13  1  0.926295  0.217491  0.500000  1
  Ru  Ru14  1  0.282509  0.573705  0.500000  1
  Ru  Ru15  1  0.717491  0.426295  0.500000  1
  Ru  Ru16  1  0.219027  0.069454  0.500000  1
  Ru  Ru17  1  0.780973  0.930546  0.500000  1
  Ru  Ru18  1  0.500000  0.000000  0.500000  1
  Ru  Ru19  1  0.000000  0.500000  0.500000  1
