# generated using pymatgen
data_Li4Sm3Sn4
_symmetry_space_group_name_H-M   'P 1'
_cell_length_a   8.76710721
_cell_length_b   8.76710691
_cell_length_c   8.76710743
_cell_angle_alpha   148.96559647
_cell_angle_beta   132.26397790
_cell_angle_gamma   58.03472453
_symmetry_Int_Tables_number   1
_chemical_formula_structural   Li4Sm3Sn4
_chemical_formula_sum   'Li4 Sm3 Sn4'
_cell_volume   255.15446772
_cell_formula_units_Z   1
loop_
 _symmetry_equiv_pos_site_id
 _symmetry_equiv_pos_as_xyz
  1  'x, y, z'
loop_
 _atom_site_type_symbol
 _atom_site_label
 _atom_site_symmetry_multiplicity
 _atom_site_fract_x
 _atom_site_fract_y
 _atom_site_fract_z
 _atom_site_occupancy
  Li  Li0  1  0.481470  0.672194  0.809277  1
  Li  Li1  1  0.862917  0.672194  0.190723  1
  Li  Li2  1  0.137083  0.327806  0.809277  1
  Li  Li3  1  0.518530  0.327806  0.190723  1
  Sm  Sm4  1  0.500000  0.000000  0.500000  1
  Sm  Sm5  1  0.870288  0.870288  0.000000  1
  Sm  Sm6  1  0.129712  0.129712  0.000000  1
  Sn  Sn7  1  0.287174  0.787174  0.500000  1
  Sn  Sn8  1  0.712826  0.212826  0.500000  1
  Sn  Sn9  1  0.799623  0.500000  0.299623  1
  Sn  Sn10  1  0.200377  0.500000  0.700377  1
