# generated using pymatgen
data_Tm4TlRh
_symmetry_space_group_name_H-M   'P 1'
_cell_length_a   9.55989171
_cell_length_b   9.55989186
_cell_length_c   9.55989100
_cell_angle_alpha   59.99999952
_cell_angle_beta   59.99999901
_cell_angle_gamma   59.99999985
_symmetry_Int_Tables_number   1
_chemical_formula_structural   Tm4TlRh
_chemical_formula_sum   'Tm16 Tl4 Rh4'
_cell_volume   617.79429014
_cell_formula_units_Z   4
loop_
 _symmetry_equiv_pos_site_id
 _symmetry_equiv_pos_as_xyz
  1  'x, y, z'
loop_
 _atom_site_type_symbol
 _atom_site_label
 _atom_site_symmetry_multiplicity
 _atom_site_fract_x
 _atom_site_fract_y
 _atom_site_fract_z
 _atom_site_occupancy
  Tm  Tm0  1  0.061471  0.061471  0.438529  1
  Tm  Tm1  1  0.438529  0.061471  0.438529  1
  Tm  Tm2  1  0.061471  0.438529  0.061471  1
  Tm  Tm3  1  0.049055  0.650315  0.650315  1
  Tm  Tm4  1  0.438529  0.438529  0.061471  1
  Tm  Tm5  1  0.650315  0.049055  0.650315  1
  Tm  Tm6  1  0.187559  0.812441  0.187559  1
  Tm  Tm7  1  0.187559  0.187559  0.812441  1
  Tm  Tm8  1  0.812441  0.812441  0.187559  1
  Tm  Tm9  1  0.438529  0.061471  0.061471  1
  Tm  Tm10  1  0.812441  0.187559  0.187559  1
  Tm  Tm11  1  0.061471  0.438529  0.438529  1
  Tm  Tm12  1  0.812441  0.187559  0.812441  1
  Tm  Tm13  1  0.187559  0.812441  0.812441  1
  Tm  Tm14  1  0.650315  0.650315  0.049055  1
  Tm  Tm15  1  0.650315  0.650315  0.650315  1
  Tl  Tl16  1  0.413986  0.413986  0.413986  1
  Tl  Tl17  1  0.758041  0.413986  0.413986  1
  Tl  Tl18  1  0.413986  0.758041  0.413986  1
  Tl  Tl19  1  0.413986  0.413986  0.758041  1
  Rh  Rh20  1  0.857188  0.857188  0.428436  1
  Rh  Rh21  1  0.857188  0.857188  0.857188  1
  Rh  Rh22  1  0.428436  0.857188  0.857188  1
  Rh  Rh23  1  0.857188  0.428436  0.857188  1
