# generated using pymatgen
data_Tb7Ho7Th2(CdNi)4
_symmetry_space_group_name_H-M   'P 1'
_cell_length_a   9.58367990
_cell_length_b   9.58347310
_cell_length_c   9.59271334
_cell_angle_alpha   60.03344317
_cell_angle_beta   60.03438800
_cell_angle_gamma   60.00920325
_symmetry_Int_Tables_number   1
_chemical_formula_structural   Tb7Ho7Th2(CdNi)4
_chemical_formula_sum   'Tb7 Ho7 Th2 Cd4 Ni4'
_cell_volume   623.35345243
_cell_formula_units_Z   1
loop_
 _symmetry_equiv_pos_site_id
 _symmetry_equiv_pos_as_xyz
  1  'x, y, z'
loop_
 _atom_site_type_symbol
 _atom_site_label
 _atom_site_symmetry_multiplicity
 _atom_site_fract_x
 _atom_site_fract_y
 _atom_site_fract_z
 _atom_site_occupancy
  Tb  Tb0  1  0.812010  0.811988  0.188174  1
  Tb  Tb1  1  0.937697  0.564420  0.565565  1
  Tb  Tb2  1  0.562990  0.936733  0.934096  1
  Tb  Tb3  1  0.564422  0.937698  0.565564  1
  Tb  Tb4  1  0.936733  0.562989  0.934096  1
  Tb  Tb5  1  0.563985  0.563983  0.937091  1
  Tb  Tb6  1  0.935322  0.935319  0.563498  1
  Ho  Ho7  1  0.347254  0.951295  0.351013  1
  Ho  Ho8  1  0.951295  0.347262  0.351009  1
  Ho  Ho9  1  0.812226  0.189382  0.188229  1
  Ho  Ho10  1  0.189491  0.813023  0.811216  1
  Ho  Ho11  1  0.189388  0.812223  0.188228  1
  Ho  Ho12  1  0.813028  0.189494  0.811211  1
  Ho  Ho13  1  0.188141  0.188147  0.812783  1
  Th  Th14  1  0.343926  0.343937  0.349008  1
  Th  Th15  1  0.343714  0.343730  0.960434  1
  Cd  Cd16  1  0.582281  0.582283  0.579391  1
  Cd  Cd17  1  0.582427  0.582430  0.255197  1
  Cd  Cd18  1  0.583661  0.256548  0.579808  1
  Cd  Cd19  1  0.256547  0.583664  0.579808  1
  Ni  Ni20  1  0.143841  0.143839  0.139608  1
  Ni  Ni21  1  0.143014  0.143018  0.572042  1
  Ni  Ni22  1  0.146585  0.570017  0.141461  1
  Ni  Ni23  1  0.570022  0.146581  0.141469  1
