# generated using pymatgen
data_TbYPaP4Pd7
_symmetry_space_group_name_H-M   'P 1'
_cell_length_a   7.95725233
_cell_length_b   7.95725184
_cell_length_c   9.45632402
_cell_angle_alpha   55.31890163
_cell_angle_beta   55.31890480
_cell_angle_gamma   29.32597607
_symmetry_Int_Tables_number   1
_chemical_formula_structural   TbYPaP4Pd7
_chemical_formula_sum   'Tb1 Y1 Pa1 P4 Pd7'
_cell_volume   237.16878128
_cell_formula_units_Z   1
loop_
 _symmetry_equiv_pos_site_id
 _symmetry_equiv_pos_as_xyz
  1  'x, y, z'
loop_
 _atom_site_type_symbol
 _atom_site_label
 _atom_site_symmetry_multiplicity
 _atom_site_fract_x
 _atom_site_fract_y
 _atom_site_fract_z
 _atom_site_occupancy
  Tb  Tb0  1  0.319186  0.319186  0.679819  1
  Y  Y1  1  0.681036  0.681036  0.319812  1
  Pa  Pa2  1  0.999954  0.999954  0.000006  1
  P  P3  1  0.346382  0.346382  0.243720  1
  P  P4  1  0.653453  0.653453  0.756457  1
  P  P5  1  0.896596  0.896596  0.823733  1
  P  P6  1  0.103449  0.103449  0.176444  1
  Pd  Pd7  1  0.307171  0.307171  0.026684  1
  Pd  Pd8  1  0.692784  0.692784  0.973470  1
  Pd  Pd9  1  0.510700  0.510700  0.709920  1
  Pd  Pd10  1  0.830664  0.830664  0.426828  1
  Pd  Pd11  1  0.489277  0.489277  0.290152  1
  Pd  Pd12  1  0.169293  0.169293  0.573091  1
  Pd  Pd13  1  0.000058  0.000058  0.499864  1
