# generated using pymatgen
data_Er3Pa(AlRu)4
_symmetry_space_group_name_H-M   'P 1'
_cell_length_a   4.23726200
_cell_length_b   6.77219679
_cell_length_c   7.93561400
_cell_angle_alpha   89.90258642
_cell_angle_beta   90.00000000
_cell_angle_gamma   90.00000000
_symmetry_Int_Tables_number   1
_chemical_formula_structural   Er3Pa(AlRu)4
_chemical_formula_sum   'Er3 Pa1 Al4 Ru4'
_cell_volume   227.71665462
_cell_formula_units_Z   1
loop_
 _symmetry_equiv_pos_site_id
 _symmetry_equiv_pos_as_xyz
  1  'x, y, z'
loop_
 _atom_site_type_symbol
 _atom_site_label
 _atom_site_symmetry_multiplicity
 _atom_site_fract_x
 _atom_site_fract_y
 _atom_site_fract_z
 _atom_site_occupancy
  Er  Er0  1  0.750000  0.532698  0.821192  1
  Er  Er1  1  0.250000  0.470566  0.180625  1
  Er  Er2  1  0.750000  0.030554  0.686709  1
  Pa  Pa3  1  0.250000  0.967367  0.324142  1
  Al  Al4  1  0.750000  0.627650  0.441217  1
  Al  Al5  1  0.750000  0.149512  0.054862  1
  Al  Al6  1  0.250000  0.359816  0.562543  1
  Al  Al7  1  0.250000  0.860003  0.937499  1
  Ru  Ru8  1  0.750000  0.777869  0.133288  1
  Ru  Ru9  1  0.750000  0.244200  0.375723  1
  Ru  Ru10  1  0.250000  0.237718  0.878553  1
  Ru  Ru11  1  0.250000  0.742045  0.603647  1
