# generated using pymatgen
data_K2ThTe3
_symmetry_space_group_name_H-M   'P 1'
_cell_length_a   8.24480545
_cell_length_b   8.24443694
_cell_length_c   8.65440177
_cell_angle_alpha   99.26081186
_cell_angle_beta   108.77443281
_cell_angle_gamma   59.99852902
_symmetry_Int_Tables_number   1
_chemical_formula_structural   K2ThTe3
_chemical_formula_sum   'K4 Th2 Te6'
_cell_volume   482.34489359
_cell_formula_units_Z   2
loop_
 _symmetry_equiv_pos_site_id
 _symmetry_equiv_pos_as_xyz
  1  'x, y, z'
loop_
 _atom_site_type_symbol
 _atom_site_label
 _atom_site_symmetry_multiplicity
 _atom_site_fract_x
 _atom_site_fract_y
 _atom_site_fract_z
 _atom_site_occupancy
  K  K0  1  0.500000  0.000000  0.000000  1
  K  K1  1  0.655730  0.688540  0.500000  1
  K  K2  1  0.344271  0.311460  0.500000  1
  K  K3  1  0.000001  0.000000  0.500000  1
  Th  Th4  1  0.831713  0.336573  0.000000  1
  Th  Th5  1  0.168287  0.663426  0.000000  1
  Te  Te6  1  0.206637  0.000000  0.214514  1
  Te  Te7  1  0.940943  0.632914  0.217484  1
  Te  Te8  1  0.573857  0.367086  0.217484  1
  Te  Te9  1  0.426142  0.632914  0.782516  1
  Te  Te10  1  0.059056  0.367086  0.782516  1
  Te  Te11  1  0.793363  0.000000  0.785486  1
