# generated using pymatgen
data_Ho5Er(GaC3)2
_symmetry_space_group_name_H-M   'P 1'
_cell_length_a   3.54411000
_cell_length_b   6.99943957
_cell_length_c   9.84736580
_cell_angle_alpha   90.04619795
_cell_angle_beta   90.00000000
_cell_angle_gamma   90.00000000
_symmetry_Int_Tables_number   1
_chemical_formula_structural   Ho5Er(GaC3)2
_chemical_formula_sum   'Ho5 Er1 Ga2 C6'
_cell_volume   244.28139471
_cell_formula_units_Z   1
loop_
 _symmetry_equiv_pos_site_id
 _symmetry_equiv_pos_as_xyz
  1  'x, y, z'
loop_
 _atom_site_type_symbol
 _atom_site_label
 _atom_site_symmetry_multiplicity
 _atom_site_fract_x
 _atom_site_fract_y
 _atom_site_fract_z
 _atom_site_occupancy
  Ho  Ho0  1  0.500000  0.489275  0.802617  1
  Ho  Ho1  1  0.500000  0.989043  0.197310  1
  Ho  Ho2  1  0.500000  0.010824  0.802723  1
  Ho  Ho3  1  0.000000  0.749949  0.458123  1
  Ho  Ho4  1  0.000000  0.249914  0.541778  1
  Er  Er5  1  0.500000  0.511863  0.197646  1
  Ga  Ga6  1  0.000000  0.749328  0.000511  1
  Ga  Ga7  1  0.000000  0.250758  0.000063  1
  C  C8  1  0.500000  0.509172  0.566678  1
  C  C9  1  0.500000  0.490684  0.432414  1
  C  C10  1  0.500000  0.990648  0.567041  1
  C  C11  1  0.500000  0.009278  0.432904  1
  C  C12  1  0.000000  0.749200  0.209276  1
  C  C13  1  0.000000  0.250066  0.790916  1
