# generated using pymatgen
data_TmMgZn3Ir
_symmetry_space_group_name_H-M   'P 1'
_cell_length_a   5.28419158
_cell_length_b   5.28419125
_cell_length_c   5.28419178
_cell_angle_alpha   59.20514059
_cell_angle_beta   59.20515782
_cell_angle_gamma   59.20513381
_symmetry_Int_Tables_number   1
_chemical_formula_structural   TmMgZn3Ir
_chemical_formula_sum   'Tm1 Mg1 Zn3 Ir1'
_cell_volume   102.44337167
_cell_formula_units_Z   1
loop_
 _symmetry_equiv_pos_site_id
 _symmetry_equiv_pos_as_xyz
  1  'x, y, z'
loop_
 _atom_site_type_symbol
 _atom_site_label
 _atom_site_symmetry_multiplicity
 _atom_site_fract_x
 _atom_site_fract_y
 _atom_site_fract_z
 _atom_site_occupancy
  Tm  Tm0  1  0.995869  0.995869  0.995869  1
  Mg  Mg1  1  0.251949  0.251949  0.251949  1
  Zn  Zn2  1  0.624175  0.624175  0.127806  1
  Zn  Zn3  1  0.624175  0.127806  0.624175  1
  Zn  Zn4  1  0.127806  0.624175  0.624175  1
  Ir  Ir5  1  0.626025  0.626025  0.626025  1
