# generated using pymatgen
data_NaLa2(PRu)6
_symmetry_space_group_name_H-M   'P 1'
_cell_length_a   8.35774659
_cell_length_b   8.35774650
_cell_length_c   6.08148055
_cell_angle_alpha   75.89902985
_cell_angle_beta   75.89902724
_cell_angle_gamma   40.09867784
_symmetry_Int_Tables_number   1
_chemical_formula_structural   NaLa2(PRu)6
_chemical_formula_sum   'Na1 La2 P6 Ru6'
_cell_volume   264.25606029
_cell_formula_units_Z   1
loop_
 _symmetry_equiv_pos_site_id
 _symmetry_equiv_pos_as_xyz
  1  'x, y, z'
loop_
 _atom_site_type_symbol
 _atom_site_label
 _atom_site_symmetry_multiplicity
 _atom_site_fract_x
 _atom_site_fract_y
 _atom_site_fract_z
 _atom_site_occupancy
  Na  Na0  1  0.000000  0.000000  0.000000  1
  La  La1  1  0.663699  0.663699  0.672835  1
  La  La2  1  0.336301  0.336301  0.327165  1
  P  P3  1  0.880536  0.880536  0.520650  1
  P  P4  1  0.214803  0.214803  0.854938  1
  P  P5  1  0.547706  0.547706  0.191942  1
  P  P6  1  0.452294  0.452294  0.808058  1
  P  P7  1  0.785197  0.785197  0.145062  1
  P  P8  1  0.119464  0.119464  0.479350  1
  Ru  Ru9  1  0.081696  0.584316  0.831555  1
  Ru  Ru10  1  0.415684  0.918304  0.168445  1
  Ru  Ru11  1  0.751513  0.248487  0.500000  1
  Ru  Ru12  1  0.248487  0.751513  0.500000  1
  Ru  Ru13  1  0.584316  0.081696  0.831555  1
  Ru  Ru14  1  0.918304  0.415684  0.168445  1
