# generated using pymatgen
data_K2Mg3(SeO3)4
_symmetry_space_group_name_H-M   'P 1'
_cell_length_a   5.59317165
_cell_length_b   7.20481969
_cell_length_c   8.89214515
_cell_angle_alpha   92.38407183
_cell_angle_beta   108.35701293
_cell_angle_gamma   90.00767068
_symmetry_Int_Tables_number   1
_chemical_formula_structural   K2Mg3(SeO3)4
_chemical_formula_sum   'K2 Mg3 Se4 O12'
_cell_volume   339.77166391
_cell_formula_units_Z   1
loop_
 _symmetry_equiv_pos_site_id
 _symmetry_equiv_pos_as_xyz
  1  'x, y, z'
loop_
 _atom_site_type_symbol
 _atom_site_label
 _atom_site_symmetry_multiplicity
 _atom_site_fract_x
 _atom_site_fract_y
 _atom_site_fract_z
 _atom_site_occupancy
  K  K0  1  0.173213  0.617435  0.346978  1
  K  K1  1  0.826787  0.382564  0.653031  1
  Mg  Mg2  1  0.999999  0.000001  0.999999  1
  Mg  Mg3  1  0.602363  0.313788  0.204249  1
  Mg  Mg4  1  0.397638  0.686212  0.795750  1
  Se  Se5  1  0.563331  0.805678  0.127086  1
  Se  Se6  1  0.201052  0.137108  0.401072  1
  Se  Se7  1  0.798948  0.862891  0.598927  1
  Se  Se8  1  0.436665  0.194321  0.872914  1
  O  O9  1  0.734348  0.215799  0.014586  1
  O  O10  1  0.280180  0.215093  0.014282  1
  O  O11  1  0.608621  0.597223  0.217441  1
  O  O12  1  0.122867  0.976311  0.244424  1
  O  O13  1  0.944139  0.280489  0.368379  1
  O  O14  1  0.425325  0.280751  0.368807  1
  O  O15  1  0.574678  0.719247  0.631194  1
  O  O16  1  0.055863  0.719510  0.631620  1
  O  O17  1  0.877134  0.023688  0.755574  1
  O  O18  1  0.391380  0.402776  0.782559  1
  O  O19  1  0.719821  0.784909  0.985718  1
  O  O20  1  0.265652  0.784202  0.985414  1
