# generated using pymatgen
data_Ac6Tl7Sn3
_symmetry_space_group_name_H-M   'P 1'
_cell_length_a   6.99809120
_cell_length_b   7.02703169
_cell_length_c   11.03360000
_cell_angle_alpha   90.00000000
_cell_angle_beta   90.00000000
_cell_angle_gamma   102.51670839
_symmetry_Int_Tables_number   1
_chemical_formula_structural   Ac6Tl7Sn3
_chemical_formula_sum   'Ac6 Tl7 Sn3'
_cell_volume   529.69047310
_cell_formula_units_Z   1
loop_
 _symmetry_equiv_pos_site_id
 _symmetry_equiv_pos_as_xyz
  1  'x, y, z'
loop_
 _atom_site_type_symbol
 _atom_site_label
 _atom_site_symmetry_multiplicity
 _atom_site_fract_x
 _atom_site_fract_y
 _atom_site_fract_z
 _atom_site_occupancy
  Ac  Ac0  1  0.634930  0.627275  0.250000  1
  Ac  Ac1  1  0.364472  0.368645  0.750000  1
  Ac  Ac2  1  0.205721  0.790870  0.502891  1
  Ac  Ac3  1  0.205721  0.790870  0.997109  1
  Ac  Ac4  1  0.796881  0.210281  0.503390  1
  Ac  Ac5  1  0.796881  0.210281  0.996610  1
  Tl  Tl6  1  0.016193  0.022804  0.250000  1
  Tl  Tl7  1  0.976382  0.976919  0.750000  1
  Tl  Tl8  1  0.305718  0.302309  0.052594  1
  Tl  Tl9  1  0.694067  0.699675  0.951348  1
  Tl  Tl10  1  0.305718  0.302309  0.447406  1
  Tl  Tl11  1  0.694067  0.699675  0.548652  1
  Tl  Tl12  1  0.499907  0.071201  0.250000  1
  Sn  Sn13  1  0.917370  0.508674  0.750000  1
  Sn  Sn14  1  0.507639  0.924456  0.750000  1
  Sn  Sn15  1  0.078336  0.493756  0.250000  1
