# generated using pymatgen
data_Zr8ScN10
_symmetry_space_group_name_H-M   'P 1'
_cell_length_a   5.62707856
_cell_length_b   5.62707886
_cell_length_c   10.26007873
_cell_angle_alpha   90.19212693
_cell_angle_beta   90.19212650
_cell_angle_gamma   47.88593194
_symmetry_Int_Tables_number   1
_chemical_formula_structural   Zr8ScN10
_chemical_formula_sum   'Zr8 Sc1 N10'
_cell_volume   240.99450472
_cell_formula_units_Z   1
loop_
 _symmetry_equiv_pos_site_id
 _symmetry_equiv_pos_as_xyz
  1  'x, y, z'
loop_
 _atom_site_type_symbol
 _atom_site_label
 _atom_site_symmetry_multiplicity
 _atom_site_fract_x
 _atom_site_fract_y
 _atom_site_fract_z
 _atom_site_occupancy
  Zr  Zr0  1  0.699522  0.699522  0.092831  1
  Zr  Zr1  1  0.410385  0.410385  0.191379  1
  Zr  Zr2  1  0.589615  0.589615  0.808621  1
  Zr  Zr3  1  0.300478  0.300478  0.907169  1
  Zr  Zr4  1  0.103365  0.103365  0.291915  1
  Zr  Zr5  1  0.800505  0.800505  0.400149  1
  Zr  Zr6  1  0.199495  0.199495  0.599851  1
  Zr  Zr7  1  0.896635  0.896635  0.708085  1
  Sc  Sc8  1  0.500000  0.500000  0.500000  1
  N  N9  1  0.398583  0.398583  0.699848  1
  N  N10  1  0.302981  0.302981  0.399818  1
  N  N11  1  0.102416  0.102416  0.790479  1
  N  N12  1  0.000000  0.000000  0.500000  1
  N  N13  1  0.697019  0.697019  0.600182  1
  N  N14  1  0.897584  0.897584  0.209521  1
  N  N15  1  0.601417  0.601417  0.300152  1
  N  N16  1  0.788616  0.788616  0.895336  1
  N  N17  1  0.500000  0.500000  0.000000  1
  N  N18  1  0.211384  0.211384  0.104664  1
