# generated using pymatgen
data_Mn8OsW3
_symmetry_space_group_name_H-M   'P 1'
_cell_length_a   4.68598900
_cell_length_b   4.68598917
_cell_length_c   7.74442200
_cell_angle_alpha   90.00000000
_cell_angle_beta   90.00000000
_cell_angle_gamma   119.99999175
_symmetry_Int_Tables_number   1
_chemical_formula_structural   Mn8OsW3
_chemical_formula_sum   'Mn8 Os1 W3'
_cell_volume   147.27269123
_cell_formula_units_Z   1
loop_
 _symmetry_equiv_pos_site_id
 _symmetry_equiv_pos_as_xyz
  1  'x, y, z'
loop_
 _atom_site_type_symbol
 _atom_site_label
 _atom_site_symmetry_multiplicity
 _atom_site_fract_x
 _atom_site_fract_y
 _atom_site_fract_z
 _atom_site_occupancy
  Mn  Mn0  1  0.000000  0.000000  0.000236  1
  Mn  Mn1  1  0.172874  0.345749  0.248852  1
  Mn  Mn2  1  0.172874  0.827125  0.248852  1
  Mn  Mn3  1  0.654249  0.827125  0.248852  1
  Mn  Mn4  1  0.000000  0.000000  0.498559  1
  Mn  Mn5  1  0.345195  0.172598  0.750781  1
  Mn  Mn6  1  0.827402  0.172598  0.750781  1
  Mn  Mn7  1  0.827402  0.654806  0.750781  1
  Os  Os8  1  0.666666  0.333333  0.068897  1
  W  W9  1  0.666666  0.333333  0.430123  1
  W  W10  1  0.333334  0.666668  0.564960  1
  W  W11  1  0.333334  0.666668  0.938326  1
