# generated using pymatgen
data_Ti9Co9Ir2
_symmetry_space_group_name_H-M   'P 1'
_cell_length_a   7.19591870
_cell_length_b   7.19591937
_cell_length_c   7.19591821
_cell_angle_alpha   101.04465033
_cell_angle_beta   101.04465181
_cell_angle_gamma   128.08662826
_symmetry_Int_Tables_number   1
_chemical_formula_structural   Ti9Co9Ir2
_chemical_formula_sum   'Ti9 Co9 Ir2'
_cell_volume   263.69216788
_cell_formula_units_Z   1
loop_
 _symmetry_equiv_pos_site_id
 _symmetry_equiv_pos_as_xyz
  1  'x, y, z'
loop_
 _atom_site_type_symbol
 _atom_site_label
 _atom_site_symmetry_multiplicity
 _atom_site_fract_x
 _atom_site_fract_y
 _atom_site_fract_z
 _atom_site_occupancy
  Ti  Ti0  1  0.000000  0.000000  0.000000  1
  Ti  Ti1  1  0.232753  0.591285  0.824567  1
  Ti  Ti2  1  0.408715  0.233282  0.641469  1
  Ti  Ti3  1  0.591814  0.767247  0.358531  1
  Ti  Ti4  1  0.766718  0.408186  0.175433  1
  Ti  Ti5  1  0.296830  0.892406  0.207519  1
  Ti  Ti6  1  0.107594  0.315115  0.404424  1
  Ti  Ti7  1  0.910690  0.703170  0.595576  1
  Ti  Ti8  1  0.684885  0.089310  0.792481  1
  Co  Co9  1  0.250000  0.750000  0.500000  1
  Co  Co10  1  0.324232  0.011022  0.897920  1
  Co  Co11  1  0.425327  0.322143  0.310723  1
  Co  Co12  1  0.011421  0.114604  0.689277  1
  Co  Co13  1  0.113103  0.426313  0.102080  1
  Co  Co14  1  0.677857  0.988579  0.103184  1
  Co  Co15  1  0.573687  0.675768  0.686790  1
  Co  Co16  1  0.988978  0.886897  0.313210  1
  Co  Co17  1  0.885396  0.574673  0.896816  1
  Ir  Ir18  1  0.500000  0.500000  0.000000  1
  Ir  Ir19  1  0.750000  0.250000  0.500000  1
