# generated using pymatgen
data_Yb2Lu2Cr3FeB16
_symmetry_space_group_name_H-M   'P 1'
_cell_length_a   3.39005900
_cell_length_b   5.91212980
_cell_length_c   11.41995328
_cell_angle_alpha   89.85017776
_cell_angle_beta   90.00000000
_cell_angle_gamma   90.00000000
_symmetry_Int_Tables_number   1
_chemical_formula_structural   Yb2Lu2Cr3FeB16
_chemical_formula_sum   'Yb2 Lu2 Cr3 Fe1 B16'
_cell_volume   228.88327511
_cell_formula_units_Z   1
loop_
 _symmetry_equiv_pos_site_id
 _symmetry_equiv_pos_as_xyz
  1  'x, y, z'
loop_
 _atom_site_type_symbol
 _atom_site_label
 _atom_site_symmetry_multiplicity
 _atom_site_fract_x
 _atom_site_fract_y
 _atom_site_fract_z
 _atom_site_occupancy
  Yb  Yb0  1  0.000000  0.625340  0.349349  1
  Yb  Yb1  1  0.000000  0.375515  0.651000  1
  Lu  Lu2  1  0.000000  0.124944  0.151269  1
  Lu  Lu3  1  0.000000  0.874675  0.848979  1
  Cr  Cr4  1  0.000000  0.624262  0.081150  1
  Cr  Cr5  1  0.000000  0.375473  0.917712  1
  Cr  Cr6  1  0.000000  0.125428  0.419413  1
  Fe  Fe7  1  0.000000  0.875656  0.581599  1
  B  B8  1  0.500000  0.783439  0.183884  1
  B  B9  1  0.500000  0.216205  0.815244  1
  B  B10  1  0.500000  0.282296  0.315460  1
  B  B11  1  0.500000  0.720211  0.682752  1
  B  B12  1  0.500000  0.864029  0.031954  1
  B  B13  1  0.500000  0.136041  0.967331  1
  B  B14  1  0.500000  0.362339  0.468051  1
  B  B15  1  0.500000  0.638586  0.533098  1
  B  B16  1  0.500000  0.885007  0.454855  1
  B  B17  1  0.500000  0.110759  0.548628  1
  B  B18  1  0.500000  0.385245  0.046868  1
  B  B19  1  0.500000  0.614246  0.952086  1
  B  B20  1  0.500000  0.977520  0.308497  1
  B  B21  1  0.500000  0.021725  0.691419  1
  B  B22  1  0.500000  0.475050  0.191614  1
  B  B23  1  0.500000  0.526011  0.807787  1
