# generated using pymatgen
data_Ho2ThIn3CuPd2
_symmetry_space_group_name_H-M   'P 1'
_cell_length_a   7.63884161
_cell_length_b   7.73157400
_cell_length_c   3.91973000
_cell_angle_alpha   90.00000000
_cell_angle_beta   90.00000000
_cell_angle_gamma   120.40238491
_symmetry_Int_Tables_number   1
_chemical_formula_structural   Ho2ThIn3CuPd2
_chemical_formula_sum   'Ho2 Th1 In3 Cu1 Pd2'
_cell_volume   199.66730450
_cell_formula_units_Z   1
loop_
 _symmetry_equiv_pos_site_id
 _symmetry_equiv_pos_as_xyz
  1  'x, y, z'
loop_
 _atom_site_type_symbol
 _atom_site_label
 _atom_site_symmetry_multiplicity
 _atom_site_fract_x
 _atom_site_fract_y
 _atom_site_fract_z
 _atom_site_occupancy
  Ho  Ho0  1  0.408024  0.408882  0.000000  1
  Ho  Ho1  1  0.591976  0.000858  0.000000  1
  Th  Th2  1  0.000000  0.586677  0.000000  1
  In  In3  1  0.743000  0.750983  0.500000  1
  In  In4  1  0.000000  0.241924  0.500000  1
  In  In5  1  0.257000  0.007984  0.500000  1
  Cu  Cu6  1  0.000000  0.996021  0.000000  1
  Pd  Pd7  1  0.328446  0.667559  0.500000  1
  Pd  Pd8  1  0.671554  0.339112  0.500000  1
