# generated using pymatgen
data_K8Hf2Zr4BeI20
_symmetry_space_group_name_H-M   'P 1'
_cell_length_a   12.58734429
_cell_length_b   12.59266828
_cell_length_c   12.59266812
_cell_angle_alpha   59.97203626
_cell_angle_beta   60.01398466
_cell_angle_gamma   60.01398367
_symmetry_Int_Tables_number   1
_chemical_formula_structural   K8Hf2Zr4BeI20
_chemical_formula_sum   'K8 Hf2 Zr4 Be1 I20'
_cell_volume   1411.41423846
_cell_formula_units_Z   1
loop_
 _symmetry_equiv_pos_site_id
 _symmetry_equiv_pos_as_xyz
  1  'x, y, z'
loop_
 _atom_site_type_symbol
 _atom_site_label
 _atom_site_symmetry_multiplicity
 _atom_site_fract_x
 _atom_site_fract_y
 _atom_site_fract_z
 _atom_site_occupancy
  K  K0  1  0.361399  0.361676  0.361676  1
  K  K1  1  0.638601  0.638324  0.638324  1
  K  K2  1  0.361676  0.361399  0.915248  1
  K  K3  1  0.361676  0.915248  0.361399  1
  K  K4  1  0.638324  0.638601  0.084752  1
  K  K5  1  0.638324  0.084752  0.638601  1
  K  K6  1  0.915248  0.361676  0.361676  1
  K  K7  1  0.084752  0.638324  0.638324  1
  Hf  Hf8  1  0.864185  0.135815  0.135815  1
  Hf  Hf9  1  0.135815  0.864185  0.864185  1
  Zr  Zr10  1  0.136636  0.863364  0.136636  1
  Zr  Zr11  1  0.863364  0.136636  0.863364  1
  Zr  Zr12  1  0.136636  0.136636  0.863364  1
  Zr  Zr13  1  0.863364  0.863364  0.136636  1
  Be  Be14  1  0.000000  0.000000  0.000000  1
  I  I15  1  0.326305  0.000000  0.000000  1
  I  I16  1  0.673695  0.000000  0.000000  1
  I  I17  1  0.000000  0.326305  0.673695  1
  I  I18  1  0.000000  0.673695  0.326305  1
  I  I19  1  0.998569  0.325272  0.001431  1
  I  I20  1  0.674728  0.001431  0.325272  1
  I  I21  1  0.001431  0.674728  0.998569  1
  I  I22  1  0.325272  0.998569  0.674728  1
  I  I23  1  0.998569  0.001431  0.325272  1
  I  I24  1  0.001431  0.998569  0.674728  1
  I  I25  1  0.674728  0.325272  0.001431  1
  I  I26  1  0.325272  0.674728  0.998569  1
  I  I27  1  0.685008  0.314992  0.314992  1
  I  I28  1  0.314992  0.685008  0.685008  1
  I  I29  1  0.315918  0.684082  0.315918  1
  I  I30  1  0.684082  0.315918  0.684082  1
  I  I31  1  0.315918  0.315918  0.684082  1
  I  I32  1  0.684082  0.684082  0.315918  1
  I  I33  1  0.250000  0.250000  0.250000  1
  I  I34  1  0.750000  0.750000  0.750000  1
