# generated using pymatgen
data_Ho5Pd9
_symmetry_space_group_name_H-M   'P 1'
_cell_length_a   9.76227600
_cell_length_b   9.76227600
_cell_length_c   5.76287800
_cell_angle_alpha   90.00000000
_cell_angle_beta   90.00000000
_cell_angle_gamma   90.00000000
_symmetry_Int_Tables_number   1
_chemical_formula_structural   Ho5Pd9
_chemical_formula_sum   'Ho10 Pd18'
_cell_volume   549.21398760
_cell_formula_units_Z   2
loop_
 _symmetry_equiv_pos_site_id
 _symmetry_equiv_pos_as_xyz
  1  'x, y, z'
loop_
 _atom_site_type_symbol
 _atom_site_label
 _atom_site_symmetry_multiplicity
 _atom_site_fract_x
 _atom_site_fract_y
 _atom_site_fract_z
 _atom_site_occupancy
  Ho  Ho0  1  0.453595  0.807672  0.000000  1
  Ho  Ho1  1  0.546405  0.192328  0.000000  1
  Ho  Ho2  1  0.192328  0.546405  0.000000  1
  Ho  Ho3  1  0.807672  0.453595  0.000000  1
  Ho  Ho4  1  0.500000  0.500000  0.500000  1
  Ho  Ho5  1  0.307672  0.046405  0.500000  1
  Ho  Ho6  1  0.692328  0.953595  0.500000  1
  Ho  Ho7  1  0.953595  0.692328  0.500000  1
  Ho  Ho8  1  0.046405  0.307672  0.500000  1
  Ho  Ho9  1  0.000000  0.000000  0.000000  1
  Pd  Pd10  1  0.191290  0.808710  0.249888  1
  Pd  Pd11  1  0.808710  0.191290  0.750112  1
  Pd  Pd12  1  0.808710  0.191290  0.249888  1
  Pd  Pd13  1  0.191290  0.808710  0.750112  1
  Pd  Pd14  1  0.440297  0.781064  0.500000  1
  Pd  Pd15  1  0.559703  0.218936  0.500000  1
  Pd  Pd16  1  0.218936  0.559703  0.500000  1
  Pd  Pd17  1  0.781064  0.440297  0.500000  1
  Pd  Pd18  1  0.308710  0.308710  0.250112  1
  Pd  Pd19  1  0.691290  0.691290  0.749888  1
  Pd  Pd20  1  0.691290  0.691290  0.250112  1
  Pd  Pd21  1  0.308710  0.308710  0.749888  1
  Pd  Pd22  1  0.281064  0.059703  0.000000  1
  Pd  Pd23  1  0.718936  0.940297  0.000000  1
  Pd  Pd24  1  0.940297  0.718936  0.000000  1
  Pd  Pd25  1  0.059703  0.281064  0.000000  1
  Pd  Pd26  1  0.000000  0.000000  0.500000  1
  Pd  Pd27  1  0.500000  0.500000  0.000000  1
