# generated using pymatgen
data_Zr2TiReSi2
_symmetry_space_group_name_H-M   'P 1'
_cell_length_a   3.54798400
_cell_length_b   6.93815000
_cell_length_c   8.24950200
_cell_angle_alpha   90.00000000
_cell_angle_beta   90.00000000
_cell_angle_gamma   90.00000000
_symmetry_Int_Tables_number   1
_chemical_formula_structural   Zr2TiReSi2
_chemical_formula_sum   'Zr4 Ti2 Re2 Si4'
_cell_volume   203.07341382
_cell_formula_units_Z   2
loop_
 _symmetry_equiv_pos_site_id
 _symmetry_equiv_pos_as_xyz
  1  'x, y, z'
loop_
 _atom_site_type_symbol
 _atom_site_label
 _atom_site_symmetry_multiplicity
 _atom_site_fract_x
 _atom_site_fract_y
 _atom_site_fract_z
 _atom_site_occupancy
  Zr  Zr0  1  0.250000  0.543140  0.165249  1
  Zr  Zr1  1  0.250000  0.043140  0.334751  1
  Zr  Zr2  1  0.750000  0.461974  0.831667  1
  Zr  Zr3  1  0.750000  0.961974  0.668333  1
  Ti  Ti4  1  0.250000  0.626366  0.559671  1
  Ti  Ti5  1  0.250000  0.126366  0.940329  1
  Re  Re6  1  0.750000  0.369278  0.439095  1
  Re  Re7  1  0.750000  0.869278  0.060905  1
  Si  Si8  1  0.250000  0.757844  0.863322  1
  Si  Si9  1  0.250000  0.257844  0.636678  1
  Si  Si10  1  0.750000  0.241398  0.141328  1
  Si  Si11  1  0.750000  0.741398  0.358672  1
