# generated using pymatgen
data_Ho3MgCd2Ga3
_symmetry_space_group_name_H-M   'P 1'
_cell_length_a   7.23128995
_cell_length_b   7.23129092
_cell_length_c   4.41812800
_cell_angle_alpha   90.00000000
_cell_angle_beta   90.00000000
_cell_angle_gamma   119.91594077
_symmetry_Int_Tables_number   1
_chemical_formula_structural   Ho3MgCd2Ga3
_chemical_formula_sum   'Ho3 Mg1 Cd2 Ga3'
_cell_volume   200.24780993
_cell_formula_units_Z   1
loop_
 _symmetry_equiv_pos_site_id
 _symmetry_equiv_pos_as_xyz
  1  'x, y, z'
loop_
 _atom_site_type_symbol
 _atom_site_label
 _atom_site_symmetry_multiplicity
 _atom_site_fract_x
 _atom_site_fract_y
 _atom_site_fract_z
 _atom_site_occupancy
  Ho  Ho0  1  0.574628  0.000547  0.000000  1
  Ho  Ho1  1  0.000547  0.574628  0.000000  1
  Ho  Ho2  1  0.423795  0.423795  0.000000  1
  Mg  Mg3  1  0.757190  0.757190  0.500000  1
  Cd  Cd4  1  0.247170  0.999457  0.500000  1
  Cd  Cd5  1  0.999457  0.247170  0.500000  1
  Ga  Ga6  1  0.334805  0.665896  0.500000  1
  Ga  Ga7  1  0.665896  0.334805  0.500000  1
  Ga  Ga8  1  0.996511  0.996511  0.000000  1
