# generated using pymatgen
data_Li6Hf11ScOs6
_symmetry_space_group_name_H-M   'P 1'
_cell_length_a   4.58951000
_cell_length_b   6.56352900
_cell_length_c   13.90419800
_cell_angle_alpha   89.99921983
_cell_angle_beta   90.00016980
_cell_angle_gamma   90.00040052
_symmetry_Int_Tables_number   1
_chemical_formula_structural   Li6Hf11ScOs6
_chemical_formula_sum   'Li6 Hf11 Sc1 Os6'
_cell_volume   418.84146747
_cell_formula_units_Z   1
loop_
 _symmetry_equiv_pos_site_id
 _symmetry_equiv_pos_as_xyz
  1  'x, y, z'
loop_
 _atom_site_type_symbol
 _atom_site_label
 _atom_site_symmetry_multiplicity
 _atom_site_fract_x
 _atom_site_fract_y
 _atom_site_fract_z
 _atom_site_occupancy
  Li  Li0  1  0.000005  0.999309  0.999860  1
  Li  Li1  1  0.499407  0.500070  0.166768  1
  Li  Li2  1  0.999393  0.999913  0.333334  1
  Li  Li3  1  0.500009  0.500067  0.499897  1
  Li  Li4  1  0.000591  0.999307  0.666818  1
  Li  Li5  1  0.500581  0.501288  0.833330  1
  Hf  Hf6  1  0.500005  0.250417  0.999204  1
  Hf  Hf7  1  0.499999  0.749245  0.999293  1
  Hf  Hf8  1  0.999538  0.249439  0.166735  1
  Hf  Hf9  1  0.999541  0.750206  0.166225  1
  Hf  Hf10  1  0.499544  0.250320  0.333315  1
  Hf  Hf11  1  0.499539  0.749730  0.333317  1
  Hf  Hf12  1  0.000004  0.249444  0.499912  1
  Hf  Hf13  1  0.000009  0.750194  0.500427  1
  Hf  Hf14  1  0.500461  0.250405  0.667482  1
  Hf  Hf15  1  0.500463  0.749252  0.667396  1
  Hf  Hf16  1  0.000469  0.249205  0.833350  1
  Sc  Sc17  1  0.000466  0.750975  0.833319  1
  Os  Os18  1  0.999981  0.496582  0.002863  1
  Os  Os19  1  0.499500  0.999657  0.166842  1
  Os  Os20  1  0.999505  0.500545  0.333328  1
  Os  Os21  1  0.500000  0.999652  0.499822  1
  Os  Os22  1  0.000492  0.496589  0.663815  1
  Os  Os23  1  0.500495  0.008189  0.833345  1
