# generated using pymatgen
data_Si3Ge5B24
_symmetry_space_group_name_H-M   'P 1'
_cell_length_a   6.25204771
_cell_length_b   8.27922513
_cell_length_c   8.27922541
_cell_angle_alpha   101.05464345
_cell_angle_beta   112.22203017
_cell_angle_gamma   112.22203162
_symmetry_Int_Tables_number   1
_chemical_formula_structural   Si3Ge5B24
_chemical_formula_sum   'Si3 Ge5 B24'
_cell_volume   338.07056578
_cell_formula_units_Z   1
loop_
 _symmetry_equiv_pos_site_id
 _symmetry_equiv_pos_as_xyz
  1  'x, y, z'
loop_
 _atom_site_type_symbol
 _atom_site_label
 _atom_site_symmetry_multiplicity
 _atom_site_fract_x
 _atom_site_fract_y
 _atom_site_fract_z
 _atom_site_occupancy
  Si  Si0  1  0.002924  0.345858  0.654116  1
  Si  Si1  1  0.002924  0.154116  0.845858  1
  Si  Si2  1  0.785295  0.474062  0.974063  1
  Ge  Ge3  1  0.209126  0.520460  0.020459  1
  Ge  Ge4  1  0.994398  0.845711  0.149358  1
  Ge  Ge5  1  0.994398  0.649358  0.345711  1
  Ge  Ge6  1  0.672720  0.979300  0.479299  1
  Ge  Ge7  1  0.331963  0.023903  0.523904  1
  B  B8  1  0.388131  0.781811  0.000177  1
  B  B9  1  0.274748  0.933382  0.066423  1
  B  B10  1  0.720064  0.928981  0.070905  1
  B  B11  1  0.519956  0.177453  0.173049  1
  B  B12  1  0.830576  0.174521  0.175801  1
  B  B13  1  0.606630  0.999925  0.218138  1
  B  B14  1  0.388131  0.500177  0.281811  1
  B  B15  1  0.480342  0.325866  0.324630  1
  B  B16  1  0.169976  0.323005  0.327614  1
  B  B17  1  0.720064  0.570905  0.428981  1
  B  B18  1  0.274748  0.566423  0.433383  1
  B  B19  1  0.606630  0.718138  0.499925  1
  B  B20  1  0.394419  0.281563  0.502691  1
  B  B21  1  0.728799  0.431008  0.569696  1
  B  B22  1  0.276992  0.426610  0.574526  1
  B  B23  1  0.830575  0.675801  0.674520  1
  B  B24  1  0.519956  0.673048  0.677453  1
  B  B25  1  0.612490  0.497731  0.721717  1
  B  B26  1  0.394419  0.002691  0.781563  1
  B  B27  1  0.169975  0.827613  0.823005  1
  B  B28  1  0.480342  0.824630  0.825865  1
  B  B29  1  0.276992  0.074526  0.926610  1
  B  B30  1  0.728799  0.069696  0.931007  1
  B  B31  1  0.612490  0.221717  0.997731  1
