# generated using pymatgen
data_La2PaCu3(Ni5B)2
_symmetry_space_group_name_H-M   'P 1'
_cell_length_a   5.06364748
_cell_length_b   5.06432482
_cell_length_c   10.99202700
_cell_angle_alpha   89.96986937
_cell_angle_beta   90.02157561
_cell_angle_gamma   120.01460762
_symmetry_Int_Tables_number   1
_chemical_formula_structural   La2PaCu3(Ni5B)2
_chemical_formula_sum   'La2 Pa1 Cu3 Ni10 B2'
_cell_volume   244.07844411
_cell_formula_units_Z   1
loop_
 _symmetry_equiv_pos_site_id
 _symmetry_equiv_pos_as_xyz
  1  'x, y, z'
loop_
 _atom_site_type_symbol
 _atom_site_label
 _atom_site_symmetry_multiplicity
 _atom_site_fract_x
 _atom_site_fract_y
 _atom_site_fract_z
 _atom_site_occupancy
  La  La0  1  0.999910  0.999677  0.337942  1
  La  La1  1  0.999645  0.000189  0.669043  1
  Pa  Pa2  1  0.000107  0.999973  0.000344  1
  Cu  Cu3  1  0.332292  0.665513  0.315667  1
  Cu  Cu4  1  0.667444  0.334282  0.315590  1
  Cu  Cu5  1  0.667314  0.334263  0.683772  1
  Ni  Ni6  1  0.498949  0.998991  0.500356  1
  Ni  Ni7  1  0.499752  0.500914  0.500349  1
  Ni  Ni8  1  0.001043  0.500334  0.500349  1
  Ni  Ni9  1  0.332344  0.666070  0.682378  1
  Ni  Ni10  1  0.500467  0.998846  0.128292  1
  Ni  Ni11  1  0.500576  0.499130  0.128185  1
  Ni  Ni12  1  0.000598  0.498885  0.127998  1
  Ni  Ni13  1  0.498710  0.998873  0.870375  1
  Ni  Ni14  1  0.498651  0.502060  0.870387  1
  Ni  Ni15  1  0.001907  0.502039  0.870512  1
  B  B16  1  0.333763  0.666963  0.999488  1
  B  B17  1  0.666428  0.333000  0.998966  1
