# generated using pymatgen
data_Er2AlZnRh2
_symmetry_space_group_name_H-M   'P 1'
_cell_length_a   4.07084300
_cell_length_b   6.91294207
_cell_length_c   8.05750677
_cell_angle_alpha   90.12450827
_cell_angle_beta   90.00000000
_cell_angle_gamma   90.00000000
_symmetry_Int_Tables_number   1
_chemical_formula_structural   Er2AlZnRh2
_chemical_formula_sum   'Er4 Al2 Zn2 Rh4'
_cell_volume   226.74980613
_cell_formula_units_Z   2
loop_
 _symmetry_equiv_pos_site_id
 _symmetry_equiv_pos_as_xyz
  1  'x, y, z'
loop_
 _atom_site_type_symbol
 _atom_site_label
 _atom_site_symmetry_multiplicity
 _atom_site_fract_x
 _atom_site_fract_y
 _atom_site_fract_z
 _atom_site_occupancy
  Er  Er0  1  0.250000  0.534672  0.179318  1
  Er  Er1  1  0.750000  0.465328  0.820682  1
  Er  Er2  1  0.750000  0.964259  0.685757  1
  Er  Er3  1  0.250000  0.035741  0.314243  1
  Al  Al4  1  0.250000  0.639656  0.561341  1
  Al  Al5  1  0.750000  0.360344  0.438659  1
  Zn  Zn6  1  0.750000  0.858507  0.064357  1
  Zn  Zn7  1  0.250000  0.141493  0.935643  1
  Rh  Rh8  1  0.250000  0.755775  0.870590  1
  Rh  Rh9  1  0.750000  0.244225  0.129410  1
  Rh  Rh10  1  0.750000  0.733662  0.386948  1
  Rh  Rh11  1  0.250000  0.266338  0.613052  1
