# generated using pymatgen
data_Dy7Er3BiPb5
_symmetry_space_group_name_H-M   'P 1'
_cell_length_a   9.07809850
_cell_length_b   9.07833245
_cell_length_c   6.54737702
_cell_angle_alpha   89.99370465
_cell_angle_beta   90.00874019
_cell_angle_gamma   119.98494098
_symmetry_Int_Tables_number   1
_chemical_formula_structural   Dy7Er3BiPb5
_chemical_formula_sum   'Dy7 Er3 Bi1 Pb5'
_cell_volume   467.37430375
_cell_formula_units_Z   1
loop_
 _symmetry_equiv_pos_site_id
 _symmetry_equiv_pos_as_xyz
  1  'x, y, z'
loop_
 _atom_site_type_symbol
 _atom_site_label
 _atom_site_symmetry_multiplicity
 _atom_site_fract_x
 _atom_site_fract_y
 _atom_site_fract_z
 _atom_site_occupancy
  Dy  Dy0  1  0.668147  0.332979  0.999924  1
  Dy  Dy1  1  0.762775  0.762823  0.749918  1
  Dy  Dy2  1  0.237540  0.996951  0.749932  1
  Dy  Dy3  1  0.996984  0.237568  0.749961  1
  Dy  Dy4  1  0.238547  0.238603  0.250040  1
  Dy  Dy5  1  0.761446  0.000505  0.250038  1
  Dy  Dy6  1  0.000615  0.761528  0.250050  1
  Er  Er7  1  0.332955  0.668111  0.999976  1
  Er  Er8  1  0.332955  0.668057  0.500038  1
  Er  Er9  1  0.668142  0.332948  0.500083  1
  Bi  Bi10  1  0.393018  0.393315  0.749812  1
  Pb  Pb11  1  0.605623  0.999475  0.749752  1
  Pb  Pb12  1  0.000075  0.605932  0.749767  1
  Pb  Pb13  1  0.606501  0.606798  0.250224  1
  Pb  Pb14  1  0.393561  0.000553  0.250251  1
  Pb  Pb15  1  0.001117  0.393854  0.250234  1
