# generated using pymatgen
data_Pr7Nd5(Si7Br3)2
_symmetry_space_group_name_H-M   'P 1'
_cell_length_a   4.09829900
_cell_length_b   11.78628029
_cell_length_c   16.63120312
_cell_angle_alpha   89.94345008
_cell_angle_beta   90.00000000
_cell_angle_gamma   90.00000000
_symmetry_Int_Tables_number   1
_chemical_formula_structural   Pr7Nd5(Si7Br3)2
_chemical_formula_sum   'Pr7 Nd5 Si14 Br6'
_cell_volume   803.34826644
_cell_formula_units_Z   1
loop_
 _symmetry_equiv_pos_site_id
 _symmetry_equiv_pos_as_xyz
  1  'x, y, z'
loop_
 _atom_site_type_symbol
 _atom_site_label
 _atom_site_symmetry_multiplicity
 _atom_site_fract_x
 _atom_site_fract_y
 _atom_site_fract_z
 _atom_site_occupancy
  Pr  Pr0  1  0.500000  0.341361  0.500028  1
  Pr  Pr1  1  0.000000  0.658529  0.000076  1
  Pr  Pr2  1  0.500000  0.358432  0.756502  1
  Pr  Pr3  1  0.000000  0.641688  0.743033  1
  Pr  Pr4  1  0.500000  0.358312  0.243444  1
  Pr  Pr5  1  0.000000  0.641627  0.256839  1
  Pr  Pr6  1  0.500000  0.064651  0.880086  1
  Nd  Nd7  1  0.000000  0.933625  0.618789  1
  Nd  Nd8  1  0.500000  0.065677  0.119767  1
  Nd  Nd9  1  0.000000  0.933652  0.381069  1
  Nd  Nd10  1  0.500000  0.355606  0.000289  1
  Nd  Nd11  1  0.000000  0.645452  0.499954  1
  Si  Si12  1  0.000000  0.151371  0.000394  1
  Si  Si13  1  0.500000  0.850064  0.499933  1
  Si  Si14  1  0.500000  0.566588  0.876693  1
  Si  Si15  1  0.000000  0.433474  0.623085  1
  Si  Si16  1  0.500000  0.566674  0.123401  1
  Si  Si17  1  0.000000  0.433296  0.376764  1
  Si  Si18  1  0.000000  0.253805  0.874900  1
  Si  Si19  1  0.500000  0.747375  0.625476  1
  Si  Si20  1  0.000000  0.252977  0.125939  1
  Si  Si21  1  0.500000  0.747515  0.374429  1
  Si  Si22  1  0.000000  0.457713  0.877417  1
  Si  Si23  1  0.500000  0.542863  0.622533  1
  Si  Si24  1  0.500000  0.542754  0.377429  1
  Si  Si25  1  0.000000  0.457484  0.122545  1
  Br  Br26  1  0.500000  0.107496  0.692206  1
  Br  Br27  1  0.000000  0.891001  0.806347  1
  Br  Br28  1  0.000000  0.137125  0.500123  1
  Br  Br29  1  0.500000  0.861904  0.000590  1
  Br  Br30  1  0.500000  0.107238  0.306973  1
  Br  Br31  1  0.000000  0.892669  0.192944  1
