# generated using pymatgen
data_La7YbCd2CoIr
_symmetry_space_group_name_H-M   'P 1'
_cell_length_a   10.02092709
_cell_length_b   9.96934517
_cell_length_c   9.98759459
_cell_angle_alpha   60.27857493
_cell_angle_beta   60.28333862
_cell_angle_gamma   60.32590041
_symmetry_Int_Tables_number   1
_chemical_formula_structural   La7YbCd2CoIr
_chemical_formula_sum   'La14 Yb2 Cd4 Co2 Ir2'
_cell_volume   710.26276576
_cell_formula_units_Z   2
loop_
 _symmetry_equiv_pos_site_id
 _symmetry_equiv_pos_as_xyz
  1  'x, y, z'
loop_
 _atom_site_type_symbol
 _atom_site_label
 _atom_site_symmetry_multiplicity
 _atom_site_fract_x
 _atom_site_fract_y
 _atom_site_fract_z
 _atom_site_occupancy
  La  La0  1  0.562787  0.941047  0.933666  1
  La  La1  1  0.683290  0.696255  0.311635  1
  La  La2  1  0.158984  0.150263  0.539737  1
  La  La3  1  0.307396  0.697627  0.684566  1
  La  La4  1  0.155490  0.149301  0.156509  1
  La  La5  1  0.538886  0.150455  0.159973  1
  La  La6  1  0.308185  0.689607  0.313256  1
  La  La7  1  0.311913  0.309257  0.683864  1
  La  La8  1  0.689912  0.306743  0.692149  1
  La  La9  1  0.936206  0.564240  0.558877  1
  La  La10  1  0.560403  0.562384  0.936547  1
  La  La11  1  0.157195  0.539438  0.156479  1
  La  La12  1  0.684129  0.305474  0.313175  1
  La  La13  1  0.940015  0.560076  0.939515  1
  Yb  Yb14  1  0.937280  0.941376  0.560050  1
  Yb  Yb15  1  0.562537  0.938115  0.561864  1
  Cd  Cd16  1  0.238527  0.920638  0.920060  1
  Cd  Cd17  1  0.921057  0.921583  0.920267  1
  Cd  Cd18  1  0.920477  0.920744  0.238561  1
  Cd  Cd19  1  0.920449  0.237632  0.921462  1
  Co  Co20  1  0.362424  0.918561  0.358392  1
  Co  Co21  1  0.361821  0.360002  0.359303  1
  Ir  Ir22  1  0.921299  0.359631  0.358835  1
  Ir  Ir23  1  0.359336  0.359548  0.921257  1
