# generated using pymatgen
data_Gd3Dy3(AuO7)2
_symmetry_space_group_name_H-M   'P 1'
_cell_length_a   6.52419418
_cell_length_b   6.53313554
_cell_length_c   7.49128100
_cell_angle_alpha   90.00000000
_cell_angle_beta   90.00000000
_cell_angle_gamma   108.78388018
_symmetry_Int_Tables_number   1
_chemical_formula_structural   Gd3Dy3(AuO7)2
_chemical_formula_sum   'Gd3 Dy3 Au2 O14'
_cell_volume   302.29802576
_cell_formula_units_Z   1
loop_
 _symmetry_equiv_pos_site_id
 _symmetry_equiv_pos_as_xyz
  1  'x, y, z'
loop_
 _atom_site_type_symbol
 _atom_site_label
 _atom_site_symmetry_multiplicity
 _atom_site_fract_x
 _atom_site_fract_y
 _atom_site_fract_z
 _atom_site_occupancy
  Gd  Gd0  1  0.002109  0.472514  0.750000  1
  Gd  Gd1  1  0.500056  0.500133  0.000811  1
  Gd  Gd2  1  0.500056  0.500133  0.499189  1
  Dy  Dy3  1  0.998234  0.528804  0.250000  1
  Dy  Dy4  1  0.471278  0.001971  0.250000  1
  Dy  Dy5  1  0.529145  0.998166  0.750000  1
  Au  Au6  1  0.999899  0.999981  0.000684  1
  Au  Au7  1  0.999899  0.999981  0.499316  1
  O  O8  1  0.080497  0.328039  0.473287  1
  O  O9  1  0.919698  0.076218  0.750000  1
  O  O10  1  0.080497  0.328039  0.026713  1
  O  O11  1  0.919183  0.671774  0.522303  1
  O  O12  1  0.637326  0.359358  0.750000  1
  O  O13  1  0.671070  0.921658  0.475255  1
  O  O14  1  0.328689  0.078375  0.524346  1
  O  O15  1  0.328689  0.078375  0.975654  1
  O  O16  1  0.671070  0.921658  0.024745  1
  O  O17  1  0.919183  0.671774  0.977697  1
  O  O18  1  0.633914  0.365875  0.250000  1
  O  O19  1  0.359894  0.640675  0.250000  1
  O  O20  1  0.369933  0.635262  0.750000  1
  O  O21  1  0.079679  0.921237  0.250000  1
