# generated using pymatgen
data_DyZnGa2Cu
_symmetry_space_group_name_H-M   'P 1'
_cell_length_a   4.11208500
_cell_length_b   4.11208500
_cell_length_c   10.50414400
_cell_angle_alpha   90.00000000
_cell_angle_beta   90.00000000
_cell_angle_gamma   90.00000000
_symmetry_Int_Tables_number   1
_chemical_formula_structural   DyZnGa2Cu
_chemical_formula_sum   'Dy2 Zn2 Ga4 Cu2'
_cell_volume   177.61712390
_cell_formula_units_Z   2
loop_
 _symmetry_equiv_pos_site_id
 _symmetry_equiv_pos_as_xyz
  1  'x, y, z'
loop_
 _atom_site_type_symbol
 _atom_site_label
 _atom_site_symmetry_multiplicity
 _atom_site_fract_x
 _atom_site_fract_y
 _atom_site_fract_z
 _atom_site_occupancy
  Dy  Dy0  1  0.000000  0.500000  0.257899  1
  Dy  Dy1  1  0.500000  0.000000  0.742101  1
  Zn  Zn2  1  0.000000  0.000000  0.000000  1
  Zn  Zn3  1  0.500000  0.500000  0.000000  1
  Ga  Ga4  1  0.500000  0.000000  0.145368  1
  Ga  Ga5  1  0.000000  0.000000  0.500000  1
  Ga  Ga6  1  0.500000  0.500000  0.500000  1
  Ga  Ga7  1  0.000000  0.500000  0.854632  1
  Cu  Cu8  1  0.500000  0.000000  0.369496  1
  Cu  Cu9  1  0.000000  0.500000  0.630504  1
