# generated using pymatgen
data_Yb2YU(B4Ru)4
_symmetry_space_group_name_H-M   'P 1'
_cell_length_a   3.55164500
_cell_length_b   5.94942502
_cell_length_c   11.49809900
_cell_angle_alpha   89.99381050
_cell_angle_beta   90.00000000
_cell_angle_gamma   90.00000000
_symmetry_Int_Tables_number   1
_chemical_formula_structural   Yb2YU(B4Ru)4
_chemical_formula_sum   'Yb2 Y1 U1 B16 Ru4'
_cell_volume   242.95765483
_cell_formula_units_Z   1
loop_
 _symmetry_equiv_pos_site_id
 _symmetry_equiv_pos_as_xyz
  1  'x, y, z'
loop_
 _atom_site_type_symbol
 _atom_site_label
 _atom_site_symmetry_multiplicity
 _atom_site_fract_x
 _atom_site_fract_y
 _atom_site_fract_z
 _atom_site_occupancy
  Yb  Yb0  1  0.500000  0.127808  0.353074  1
  Yb  Yb1  1  0.500000  0.871224  0.649244  1
  Y  Y2  1  0.500000  0.370560  0.847435  1
  U  U3  1  0.500000  0.628994  0.152263  1
  B  B4  1  0.000000  0.973891  0.191809  1
  B  B5  1  0.000000  0.024034  0.807985  1
  B  B6  1  0.000000  0.477555  0.307855  1
  B  B7  1  0.000000  0.524638  0.690874  1
  B  B8  1  0.000000  0.787839  0.313698  1
  B  B9  1  0.000000  0.211294  0.684061  1
  B  B10  1  0.000000  0.290946  0.185806  1
  B  B11  1  0.000000  0.714501  0.813175  1
  B  B12  1  0.000000  0.862861  0.469112  1
  B  B13  1  0.000000  0.135692  0.529841  1
  B  B14  1  0.000000  0.366470  0.031819  1
  B  B15  1  0.000000  0.635275  0.969716  1
  B  B16  1  0.000000  0.886871  0.047396  1
  B  B17  1  0.000000  0.111080  0.952675  1
  B  B18  1  0.000000  0.386108  0.453591  1
  B  B19  1  0.000000  0.612576  0.545859  1
  Ru  Ru20  1  0.500000  0.637353  0.406096  1
  Ru  Ru21  1  0.500000  0.362650  0.590423  1
  Ru  Ru22  1  0.500000  0.142073  0.094699  1
  Ru  Ru23  1  0.500000  0.857707  0.911493  1
