# generated using pymatgen
data_Nb6ReTc5Ge6
_symmetry_space_group_name_H-M   'P 1'
_cell_length_a   7.69583293
_cell_length_b   7.70241704
_cell_length_c   7.70224232
_cell_angle_alpha   127.22469488
_cell_angle_beta   125.21656434
_cell_angle_gamma   79.54637035
_symmetry_Int_Tables_number   1
_chemical_formula_structural   Nb6ReTc5Ge6
_chemical_formula_sum   'Nb6 Re1 Tc5 Ge6'
_cell_volume   287.00608527
_cell_formula_units_Z   1
loop_
 _symmetry_equiv_pos_site_id
 _symmetry_equiv_pos_as_xyz
  1  'x, y, z'
loop_
 _atom_site_type_symbol
 _atom_site_label
 _atom_site_symmetry_multiplicity
 _atom_site_fract_x
 _atom_site_fract_y
 _atom_site_fract_z
 _atom_site_occupancy
  Nb  Nb0  1  0.556252  0.099459  0.044571  1
  Nb  Nb1  1  0.444145  0.488000  0.542725  1
  Nb  Nb2  1  0.965914  0.497458  0.035754  1
  Nb  Nb3  1  0.038103  0.074393  0.537750  1
  Nb  Nb4  1  0.749647  0.906177  0.654494  1
  Nb  Nb5  1  0.249528  0.903594  0.157166  1
  Re  Re6  1  0.408581  0.495467  0.158952  1
  Tc  Tc7  1  0.500436  0.245657  0.746342  1
  Tc  Tc8  1  0.998331  0.244517  0.243855  1
  Tc  Tc9  1  0.164755  0.750308  0.660018  1
  Tc  Tc10  1  0.833353  0.495224  0.582798  1
  Tc  Tc11  1  0.589826  0.750332  0.085868  1
  Ge  Ge12  1  0.779570  0.536880  0.258056  1
  Ge  Ge13  1  0.220880  0.480471  0.755028  1
  Ge  Ge14  1  0.334884  0.827796  0.498647  1
  Ge  Ge15  1  0.665660  0.162012  0.492190  1
  Ge  Ge16  1  0.830290  0.825359  0.991721  1
  Ge  Ge17  1  0.169846  0.159098  0.996263  1
