# generated using pymatgen
data_Nd3(CrC3)2
_symmetry_space_group_name_H-M   'P 1'
_cell_length_a   8.28587000
_cell_length_b   8.28586908
_cell_length_c   5.20196900
_cell_angle_alpha   90.00000000
_cell_angle_beta   90.00000000
_cell_angle_gamma   119.99998772
_symmetry_Int_Tables_number   1
_chemical_formula_structural   Nd3(CrC3)2
_chemical_formula_sum   'Nd6 Cr4 C12'
_cell_volume   309.29623055
_cell_formula_units_Z   2
loop_
 _symmetry_equiv_pos_site_id
 _symmetry_equiv_pos_as_xyz
  1  'x, y, z'
loop_
 _atom_site_type_symbol
 _atom_site_label
 _atom_site_symmetry_multiplicity
 _atom_site_fract_x
 _atom_site_fract_y
 _atom_site_fract_z
 _atom_site_occupancy
  Nd  Nd0  1  0.614287  0.688465  0.750000  1
  Nd  Nd1  1  0.925822  0.614287  0.250000  1
  Nd  Nd2  1  0.688465  0.074178  0.250000  1
  Nd  Nd3  1  0.311535  0.925822  0.750000  1
  Nd  Nd4  1  0.074178  0.385713  0.750000  1
  Nd  Nd5  1  0.385713  0.311535  0.250000  1
  Cr  Cr6  1  0.000000  0.000000  0.500000  1
  Cr  Cr7  1  0.000000  0.000000  0.000000  1
  Cr  Cr8  1  0.666667  0.333333  0.750000  1
  Cr  Cr9  1  0.333333  0.666667  0.250000  1
  C  C10  1  0.955267  0.773508  0.750000  1
  C  C11  1  0.181758  0.955267  0.250000  1
  C  C12  1  0.773508  0.818242  0.250000  1
  C  C13  1  0.226492  0.181758  0.750000  1
  C  C14  1  0.818242  0.044733  0.750000  1
  C  C15  1  0.044733  0.226492  0.250000  1
  C  C16  1  0.858363  0.580914  0.750000  1
  C  C17  1  0.277448  0.858363  0.250000  1
  C  C18  1  0.580914  0.722552  0.250000  1
  C  C19  1  0.419086  0.277448  0.750000  1
  C  C20  1  0.141637  0.419086  0.250000  1
  C  C21  1  0.722552  0.141637  0.750000  1
