# generated using pymatgen
data_CeNd3PI5
_symmetry_space_group_name_H-M   'P 1'
_cell_length_a   10.02083525
_cell_length_b   10.02083594
_cell_length_c   9.15973500
_cell_angle_alpha   77.36929023
_cell_angle_beta   77.36928936
_cell_angle_gamma   24.29139300
_symmetry_Int_Tables_number   1
_chemical_formula_structural   CeNd3PI5
_chemical_formula_sum   'Ce1 Nd3 P1 I5'
_cell_volume   368.79607162
_cell_formula_units_Z   1
loop_
 _symmetry_equiv_pos_site_id
 _symmetry_equiv_pos_as_xyz
  1  'x, y, z'
loop_
 _atom_site_type_symbol
 _atom_site_label
 _atom_site_symmetry_multiplicity
 _atom_site_fract_x
 _atom_site_fract_y
 _atom_site_fract_z
 _atom_site_occupancy
  Ce  Ce0  1  0.498954  0.498954  0.788420  1
  Nd  Nd1  1  0.854728  0.854728  0.075060  1
  Nd  Nd2  1  0.145347  0.145347  0.928186  1
  Nd  Nd3  1  0.500960  0.500960  0.208699  1
  P  P4  1  0.999991  0.999991  0.998630  1
  I  I5  1  0.670828  0.670828  0.175694  1
  I  I6  1  0.328023  0.328023  0.826967  1
  I  I7  1  0.665515  0.665515  0.661282  1
  I  I8  1  0.335533  0.335533  0.340146  1
  I  I9  1  0.000123  0.000123  0.496916  1
