# generated using pymatgen
data_Th8Sc12Si15Ru
_symmetry_space_group_name_H-M   'P 1'
_cell_length_a   7.22841388
_cell_length_b   7.54333481
_cell_length_c   14.09915700
_cell_angle_alpha   90.00000000
_cell_angle_beta   90.00000000
_cell_angle_gamma   90.22582975
_symmetry_Int_Tables_number   1
_chemical_formula_structural   Th8Sc12Si15Ru
_chemical_formula_sum   'Th8 Sc12 Si15 Ru1'
_cell_volume   768.76954222
_cell_formula_units_Z   1
loop_
 _symmetry_equiv_pos_site_id
 _symmetry_equiv_pos_as_xyz
  1  'x, y, z'
loop_
 _atom_site_type_symbol
 _atom_site_label
 _atom_site_symmetry_multiplicity
 _atom_site_fract_x
 _atom_site_fract_y
 _atom_site_fract_z
 _atom_site_occupancy
  Th  Th0  1  0.007853  0.175726  0.095407  1
  Th  Th1  1  0.995567  0.828806  0.901684  1
  Th  Th2  1  0.494911  0.672964  0.903897  1
  Th  Th3  1  0.995567  0.828806  0.598316  1
  Th  Th4  1  0.506546  0.326981  0.095673  1
  Th  Th5  1  0.007853  0.175726  0.404593  1
  Th  Th6  1  0.506546  0.326981  0.404327  1
  Th  Th7  1  0.494911  0.672964  0.596103  1
  Sc  Sc8  1  0.156723  0.501946  0.750000  1
  Sc  Sc9  1  0.839439  0.497581  0.250000  1
  Sc  Sc10  1  0.340009  0.004443  0.250000  1
  Sc  Sc11  1  0.666678  0.002821  0.750000  1
  Sc  Sc12  1  0.320798  0.171269  0.627958  1
  Sc  Sc13  1  0.670220  0.827107  0.373777  1
  Sc  Sc14  1  0.168523  0.675314  0.375169  1
  Sc  Sc15  1  0.670220  0.827107  0.126223  1
  Sc  Sc16  1  0.837173  0.320489  0.627504  1
  Sc  Sc17  1  0.320798  0.171269  0.872042  1
  Sc  Sc18  1  0.837173  0.320489  0.872496  1
  Sc  Sc19  1  0.168523  0.675314  0.124831  1
  Si  Si20  1  0.968356  0.880748  0.250000  1
  Si  Si21  1  0.464578  0.621216  0.250000  1
  Si  Si22  1  0.531940  0.382794  0.750000  1
  Si  Si23  1  0.294468  0.872341  0.750000  1
  Si  Si24  1  0.709616  0.124850  0.250000  1
  Si  Si25  1  0.209852  0.378011  0.250000  1
  Si  Si26  1  0.784903  0.620963  0.750000  1
  Si  Si27  1  0.159766  0.467331  0.540080  1
  Si  Si28  1  0.841122  0.537610  0.460794  1
  Si  Si29  1  0.344059  0.964325  0.460807  1
  Si  Si30  1  0.841122  0.537610  0.039206  1
  Si  Si31  1  0.656073  0.035893  0.538033  1
  Si  Si32  1  0.159766  0.467331  0.959920  1
  Si  Si33  1  0.656073  0.035893  0.961967  1
  Si  Si34  1  0.344059  0.964325  0.039193  1
  Ru  Ru35  1  0.028217  0.104657  0.750000  1
