# generated using pymatgen
data_TbTm3(ScSe3)4
_symmetry_space_group_name_H-M   'P 1'
_cell_length_a   12.98526899
_cell_length_b   12.37837103
_cell_length_c   6.92392500
_cell_angle_alpha   79.05435593
_cell_angle_beta   69.37740262
_cell_angle_gamma   31.50853610
_symmetry_Int_Tables_number   1
_chemical_formula_structural   TbTm3(ScSe3)4
_chemical_formula_sum   'Tb1 Tm3 Sc4 Se12'
_cell_volume   530.32485322
_cell_formula_units_Z   1
loop_
 _symmetry_equiv_pos_site_id
 _symmetry_equiv_pos_as_xyz
  1  'x, y, z'
loop_
 _atom_site_type_symbol
 _atom_site_label
 _atom_site_symmetry_multiplicity
 _atom_site_fract_x
 _atom_site_fract_y
 _atom_site_fract_z
 _atom_site_occupancy
  Tb  Tb0  1  0.996617  0.996617  0.503383  1
  Tm  Tm1  1  0.503153  0.503153  0.996847  1
  Tm  Tm2  1  0.253015  0.253015  0.746985  1
  Tm  Tm3  1  0.746918  0.746918  0.253082  1
  Sc  Sc4  1  0.333031  0.333031  0.166969  1
  Sc  Sc5  1  0.166808  0.166808  0.333192  1
  Sc  Sc6  1  0.916493  0.916493  0.083507  1
  Sc  Sc7  1  0.083428  0.083428  0.916572  1
  Se  Se8  1  0.012918  0.487053  0.487151  1
  Se  Se9  1  0.487053  0.012918  0.012877  1
  Se  Se10  1  0.238769  0.761330  0.765214  1
  Se  Se11  1  0.761330  0.238769  0.234686  1
  Se  Se12  1  0.662336  0.168117  0.852813  1
  Se  Se13  1  0.848399  0.321635  0.667053  1
  Se  Se14  1  0.321635  0.848399  0.162914  1
  Se  Se15  1  0.168117  0.662336  0.316733  1
  Se  Se16  1  0.584835  0.083296  0.400692  1
  Se  Se17  1  0.400483  0.931363  0.584568  1
  Se  Se18  1  0.931363  0.400483  0.083585  1
  Se  Se19  1  0.083296  0.584835  0.931179  1
