# generated using pymatgen
data_Tb16Cd4TcPdPt2
_symmetry_space_group_name_H-M   'P 1'
_cell_length_a   9.76488890
_cell_length_b   9.76488865
_cell_length_c   9.75427201
_cell_angle_alpha   59.49314102
_cell_angle_beta   59.49314757
_cell_angle_gamma   59.51490209
_symmetry_Int_Tables_number   1
_chemical_formula_structural   Tb16Cd4TcPdPt2
_chemical_formula_sum   'Tb16 Cd4 Tc1 Pd1 Pt2'
_cell_volume   650.20693375
_cell_formula_units_Z   1
loop_
 _symmetry_equiv_pos_site_id
 _symmetry_equiv_pos_as_xyz
  1  'x, y, z'
loop_
 _atom_site_type_symbol
 _atom_site_label
 _atom_site_symmetry_multiplicity
 _atom_site_fract_x
 _atom_site_fract_y
 _atom_site_fract_z
 _atom_site_occupancy
  Tb  Tb0  1  0.352191  0.352191  0.351098  1
  Tb  Tb1  1  0.350044  0.350044  0.949300  1
  Tb  Tb2  1  0.350614  0.948635  0.349322  1
  Tb  Tb3  1  0.948635  0.350614  0.349322  1
  Tb  Tb4  1  0.815561  0.188543  0.188223  1
  Tb  Tb5  1  0.189330  0.808497  0.810123  1
  Tb  Tb6  1  0.188543  0.815561  0.188223  1
  Tb  Tb7  1  0.808497  0.189330  0.810123  1
  Tb  Tb8  1  0.188319  0.188319  0.816617  1
  Tb  Tb9  1  0.809349  0.809349  0.189144  1
  Tb  Tb10  1  0.935130  0.565555  0.564877  1
  Tb  Tb11  1  0.556877  0.937694  0.937588  1
  Tb  Tb12  1  0.565555  0.935130  0.564877  1
  Tb  Tb13  1  0.937694  0.556877  0.937588  1
  Tb  Tb14  1  0.564829  0.564829  0.935463  1
  Tb  Tb15  1  0.937325  0.937325  0.557068  1
  Cd  Cd16  1  0.580070  0.580070  0.580031  1
  Cd  Cd17  1  0.580984  0.580984  0.254402  1
  Cd  Cd18  1  0.580993  0.254404  0.580935  1
  Cd  Cd19  1  0.254404  0.580993  0.580935  1
  Tc  Tc20  1  0.143677  0.143677  0.143347  1
  Pd  Pd21  1  0.144359  0.144359  0.572421  1
  Pt  Pt22  1  0.144342  0.572676  0.144486  1
  Pt  Pt23  1  0.572676  0.144342  0.144486  1
