# generated using pymatgen
data_YHoEr2(B6Os)2
_symmetry_space_group_name_H-M   'P 1'
_cell_length_a   3.63802900
_cell_length_b   9.12312102
_cell_length_c   11.50670303
_cell_angle_alpha   90.00787142
_cell_angle_beta   90.00000000
_cell_angle_gamma   90.00000000
_symmetry_Int_Tables_number   1
_chemical_formula_structural   YHoEr2(B6Os)2
_chemical_formula_sum   'Y2 Ho2 Er4 B24 Os4'
_cell_volume   381.90952780
_cell_formula_units_Z   2
loop_
 _symmetry_equiv_pos_site_id
 _symmetry_equiv_pos_as_xyz
  1  'x, y, z'
loop_
 _atom_site_type_symbol
 _atom_site_label
 _atom_site_symmetry_multiplicity
 _atom_site_fract_x
 _atom_site_fract_y
 _atom_site_fract_z
 _atom_site_occupancy
  Y  Y0  1  0.000000  0.821793  0.086179  1
  Y  Y1  1  0.000000  0.178207  0.913821  1
  Ho  Ho2  1  0.000000  0.321949  0.413922  1
  Ho  Ho3  1  0.000000  0.678051  0.586078  1
  Er  Er4  1  0.000000  0.944133  0.373125  1
  Er  Er5  1  0.000000  0.055867  0.626875  1
  Er  Er6  1  0.000000  0.444128  0.127136  1
  Er  Er7  1  0.000000  0.555872  0.872864  1
  B  B8  1  0.500000  0.553979  0.433223  1
  B  B9  1  0.500000  0.446021  0.566777  1
  B  B10  1  0.500000  0.054218  0.067171  1
  B  B11  1  0.500000  0.945782  0.932829  1
  B  B12  1  0.500000  0.748363  0.420086  1
  B  B13  1  0.500000  0.251637  0.579914  1
  B  B14  1  0.500000  0.248601  0.080413  1
  B  B15  1  0.500000  0.751399  0.919587  1
  B  B16  1  0.500000  0.791420  0.266786  1
  B  B17  1  0.500000  0.208580  0.733214  1
  B  B18  1  0.500000  0.291702  0.233757  1
  B  B19  1  0.500000  0.708298  0.766243  1
  B  B20  1  0.500000  0.631416  0.185378  1
  B  B21  1  0.500000  0.368584  0.814622  1
  B  B22  1  0.500000  0.131786  0.315053  1
  B  B23  1  0.500000  0.868214  0.684947  1
  B  B24  1  0.500000  0.983274  0.213555  1
  B  B25  1  0.500000  0.016726  0.786445  1
  B  B26  1  0.500000  0.482909  0.286885  1
  B  B27  1  0.500000  0.517091  0.713115  1
  B  B28  1  0.500000  0.606622  0.029505  1
  B  B29  1  0.500000  0.393378  0.970495  1
  B  B30  1  0.500000  0.107256  0.470344  1
  B  B31  1  0.500000  0.892744  0.529656  1
  Os  Os32  1  0.000000  0.637476  0.321416  1
  Os  Os33  1  0.000000  0.362524  0.678584  1
  Os  Os34  1  0.000000  0.138025  0.179292  1
  Os  Os35  1  0.000000  0.861975  0.820708  1
