# generated using pymatgen
data_HoEr3MnGa12
_symmetry_space_group_name_H-M   'P 1'
_cell_length_a   7.43009754
_cell_length_b   7.43009708
_cell_length_c   7.42394200
_cell_angle_alpha   109.45444600
_cell_angle_beta   109.45444475
_cell_angle_gamma   109.48798484
_symmetry_Int_Tables_number   1
_chemical_formula_structural   HoEr3MnGa12
_chemical_formula_sum   'Ho1 Er3 Mn1 Ga12'
_cell_volume   315.56700167
_cell_formula_units_Z   1
loop_
 _symmetry_equiv_pos_site_id
 _symmetry_equiv_pos_as_xyz
  1  'x, y, z'
loop_
 _atom_site_type_symbol
 _atom_site_label
 _atom_site_symmetry_multiplicity
 _atom_site_fract_x
 _atom_site_fract_y
 _atom_site_fract_z
 _atom_site_occupancy
  Ho  Ho0  1  0.000000  0.000000  0.500000  1
  Er  Er1  1  0.000000  0.500000  0.000000  1
  Er  Er2  1  0.500000  0.000000  0.000000  1
  Er  Er3  1  0.500000  0.500000  0.500000  1
  Mn  Mn4  1  0.000000  0.000000  0.000000  1
  Ga  Ga5  1  0.749881  0.250119  0.500000  1
  Ga  Ga6  1  0.749881  0.499763  0.249881  1
  Ga  Ga7  1  0.500237  0.250119  0.750119  1
  Ga  Ga8  1  0.250119  0.500237  0.750119  1
  Ga  Ga9  1  0.250119  0.749881  0.500000  1
  Ga  Ga10  1  0.499763  0.749881  0.249881  1
  Ga  Ga11  1  0.714117  0.714117  0.999820  1
  Ga  Ga12  1  0.285883  0.000000  0.285703  1
  Ga  Ga13  1  0.000000  0.285883  0.285703  1
  Ga  Ga14  1  0.285883  0.285883  0.000180  1
  Ga  Ga15  1  0.714117  0.000000  0.714297  1
  Ga  Ga16  1  0.000000  0.714117  0.714297  1
