# generated using pymatgen
data_Np(BiCl6)2
_symmetry_space_group_name_H-M   'P 1'
_cell_length_a   7.10174500
_cell_length_b   7.10174375
_cell_length_c   13.11493100
_cell_angle_alpha   90.00000000
_cell_angle_beta   90.00000000
_cell_angle_gamma   119.99999186
_symmetry_Int_Tables_number   1
_chemical_formula_structural   Np(BiCl6)2
_chemical_formula_sum   'Np1 Bi2 Cl12'
_cell_volume   572.83131169
_cell_formula_units_Z   1
loop_
 _symmetry_equiv_pos_site_id
 _symmetry_equiv_pos_as_xyz
  1  'x, y, z'
loop_
 _atom_site_type_symbol
 _atom_site_label
 _atom_site_symmetry_multiplicity
 _atom_site_fract_x
 _atom_site_fract_y
 _atom_site_fract_z
 _atom_site_occupancy
  Np  Np0  1  0.000000  0.000000  0.500000  1
  Bi  Bi1  1  0.666667  0.333333  0.000000  1
  Bi  Bi2  1  0.333333  0.666667  0.000000  1
  Cl  Cl3  1  0.633163  0.000000  0.119264  1
  Cl  Cl4  1  0.366837  0.366837  0.119264  1
  Cl  Cl5  1  0.000000  0.633163  0.119264  1
  Cl  Cl6  1  0.281752  0.281752  0.608254  1
  Cl  Cl7  1  0.000000  0.718248  0.608254  1
  Cl  Cl8  1  0.718248  0.000000  0.608254  1
  Cl  Cl9  1  0.000000  0.281752  0.391746  1
  Cl  Cl10  1  0.281752  0.000000  0.391746  1
  Cl  Cl11  1  0.718248  0.718248  0.391746  1
  Cl  Cl12  1  0.366837  0.000000  0.880736  1
  Cl  Cl13  1  0.633163  0.633163  0.880736  1
  Cl  Cl14  1  0.000000  0.366837  0.880736  1
