# generated using pymatgen
data_TbCe6MgSb10
_symmetry_space_group_name_H-M   'P 1'
_cell_length_a   9.48418000
_cell_length_b   9.48417966
_cell_length_c   6.37705200
_cell_angle_alpha   90.00000000
_cell_angle_beta   90.00000000
_cell_angle_gamma   119.99999421
_symmetry_Int_Tables_number   1
_chemical_formula_structural   TbCe6MgSb10
_chemical_formula_sum   'Tb1 Ce6 Mg1 Sb10'
_cell_volume   496.76406880
_cell_formula_units_Z   1
loop_
 _symmetry_equiv_pos_site_id
 _symmetry_equiv_pos_as_xyz
  1  'x, y, z'
loop_
 _atom_site_type_symbol
 _atom_site_label
 _atom_site_symmetry_multiplicity
 _atom_site_fract_x
 _atom_site_fract_y
 _atom_site_fract_z
 _atom_site_occupancy
  Tb  Tb0  1  0.000000  0.000000  0.500000  1
  Ce  Ce1  1  0.615968  0.000000  0.246315  1
  Ce  Ce2  1  0.384032  0.000000  0.753685  1
  Ce  Ce3  1  0.000000  0.615968  0.246315  1
  Ce  Ce4  1  0.000000  0.384032  0.753685  1
  Ce  Ce5  1  0.384032  0.384032  0.246315  1
  Ce  Ce6  1  0.615968  0.615968  0.753685  1
  Mg  Mg7  1  0.000000  0.000000  0.000000  1
  Sb  Sb8  1  0.271241  0.000000  0.244741  1
  Sb  Sb9  1  0.728759  0.000000  0.755259  1
  Sb  Sb10  1  0.000000  0.271241  0.244741  1
  Sb  Sb11  1  0.000000  0.728759  0.755259  1
  Sb  Sb12  1  0.728759  0.728759  0.244741  1
  Sb  Sb13  1  0.271241  0.271241  0.755259  1
  Sb  Sb14  1  0.333333  0.666667  0.000000  1
  Sb  Sb15  1  0.666667  0.333333  0.000000  1
  Sb  Sb16  1  0.666667  0.333333  0.500000  1
  Sb  Sb17  1  0.333333  0.666667  0.500000  1
