# generated using pymatgen
data_LaTb(NdIr)3
_symmetry_space_group_name_H-M   'P 1'
_cell_length_a   11.23526700
_cell_length_b   11.25117800
_cell_length_c   6.53963300
_cell_angle_alpha   90.00000000
_cell_angle_beta   90.00000000
_cell_angle_gamma   90.00000000
_symmetry_Int_Tables_number   1
_chemical_formula_structural   LaTb(NdIr)3
_chemical_formula_sum   'La4 Tb4 Nd12 Ir12'
_cell_volume   826.67493490
_cell_formula_units_Z   4
loop_
 _symmetry_equiv_pos_site_id
 _symmetry_equiv_pos_as_xyz
  1  'x, y, z'
loop_
 _atom_site_type_symbol
 _atom_site_label
 _atom_site_symmetry_multiplicity
 _atom_site_fract_x
 _atom_site_fract_y
 _atom_site_fract_z
 _atom_site_occupancy
  La  La0  1  0.289494  0.089310  0.381538  1
  La  La1  1  0.289494  0.910690  0.881538  1
  La  La2  1  0.710506  0.089310  0.881538  1
  La  La3  1  0.710506  0.910690  0.381538  1
  Tb  Tb4  1  0.000000  0.000000  0.500059  1
  Tb  Tb5  1  0.000000  0.000000  0.000059  1
  Tb  Tb6  1  0.500000  0.500000  0.000461  1
  Tb  Tb7  1  0.500000  0.500000  0.500461  1
  Nd  Nd8  1  0.588375  0.788505  0.880670  1
  Nd  Nd9  1  0.588375  0.211495  0.380670  1
  Nd  Nd10  1  0.411625  0.788505  0.380670  1
  Nd  Nd11  1  0.411625  0.211495  0.880670  1
  Nd  Nd12  1  0.210094  0.412252  0.619184  1
  Nd  Nd13  1  0.210094  0.587748  0.119184  1
  Nd  Nd14  1  0.789906  0.412252  0.119184  1
  Nd  Nd15  1  0.789906  0.587748  0.619184  1
  Nd  Nd16  1  0.911947  0.709774  0.118513  1
  Nd  Nd17  1  0.911947  0.290226  0.618513  1
  Nd  Nd18  1  0.088053  0.709774  0.618513  1
  Nd  Nd19  1  0.088053  0.290226  0.118513  1
  Ir  Ir20  1  0.849946  0.149861  0.249415  1
  Ir  Ir21  1  0.849946  0.850139  0.749415  1
  Ir  Ir22  1  0.150054  0.149861  0.749415  1
  Ir  Ir23  1  0.150054  0.850139  0.249415  1
  Ir  Ir24  1  0.649632  0.350407  0.750032  1
  Ir  Ir25  1  0.649632  0.649593  0.250032  1
  Ir  Ir26  1  0.350368  0.350407  0.250032  1
  Ir  Ir27  1  0.350368  0.649593  0.750032  1
  Ir  Ir28  1  0.500000  0.000000  0.119685  1
  Ir  Ir29  1  0.500000  0.000000  0.619685  1
  Ir  Ir30  1  0.000000  0.500000  0.881090  1
  Ir  Ir31  1  0.000000  0.500000  0.381090  1
