# generated using pymatgen
data_Pr4BeB15Ru14
_symmetry_space_group_name_H-M   'P 1'
_cell_length_a   6.48073332
_cell_length_b   6.51061632
_cell_length_c   10.13168300
_cell_angle_alpha   90.00000000
_cell_angle_beta   90.00000000
_cell_angle_gamma   90.03592629
_symmetry_Int_Tables_number   1
_chemical_formula_structural   Pr4BeB15Ru14
_chemical_formula_sum   'Pr4 Be1 B15 Ru14'
_cell_volume   427.49177268
_cell_formula_units_Z   1
loop_
 _symmetry_equiv_pos_site_id
 _symmetry_equiv_pos_as_xyz
  1  'x, y, z'
loop_
 _atom_site_type_symbol
 _atom_site_label
 _atom_site_symmetry_multiplicity
 _atom_site_fract_x
 _atom_site_fract_y
 _atom_site_fract_z
 _atom_site_occupancy
  Pr  Pr0  1  0.734538  0.878411  0.000730  1
  Pr  Pr1  1  0.125989  0.736328  0.498441  1
  Pr  Pr2  1  0.874011  0.263672  0.498441  1
  Pr  Pr3  1  0.265462  0.121589  0.000730  1
  Be  Be4  1  0.500000  0.500000  0.349824  1
  B  B5  1  0.500000  0.000000  0.589332  1
  B  B6  1  0.500000  0.000000  0.410402  1
  B  B7  1  0.896192  0.277273  0.171050  1
  B  B8  1  0.102594  0.723332  0.830238  1
  B  B9  1  0.500000  0.500000  0.840571  1
  B  B10  1  0.274780  0.099929  0.672053  1
  B  B11  1  0.103808  0.722727  0.171050  1
  B  B12  1  0.277770  0.104222  0.327661  1
  B  B13  1  0.897406  0.276668  0.830238  1
  B  B14  1  0.500000  0.500000  0.655333  1
  B  B15  1  0.500000  0.500000  0.158503  1
  B  B16  1  0.000000  0.500000  0.910712  1
  B  B17  1  0.725220  0.900071  0.672053  1
  B  B18  1  0.722230  0.895778  0.327661  1
  B  B19  1  0.000000  0.500000  0.087495  1
  Ru  Ru20  1  0.204978  0.399275  0.753142  1
  Ru  Ru21  1  0.387338  0.276248  0.504522  1
  Ru  Ru22  1  0.400405  0.798146  0.249596  1
  Ru  Ru23  1  0.202284  0.397808  0.244068  1
  Ru  Ru24  1  0.612662  0.723752  0.504522  1
  Ru  Ru25  1  0.600181  0.204958  0.747847  1
  Ru  Ru26  1  0.285965  0.600484  0.999171  1
  Ru  Ru27  1  0.714035  0.399516  0.999171  1
  Ru  Ru28  1  0.797716  0.602192  0.244068  1
  Ru  Ru29  1  0.795022  0.600725  0.753142  1
  Ru  Ru30  1  0.399819  0.795042  0.747847  1
  Ru  Ru31  1  0.000000  0.000000  0.248302  1
  Ru  Ru32  1  0.599595  0.201854  0.249596  1
  Ru  Ru33  1  0.000000  0.000000  0.752487  1
