# generated using pymatgen
data_Dy2Ni12AsP6
_symmetry_space_group_name_H-M   'P 1'
_cell_length_a   9.12277800
_cell_length_b   9.12277843
_cell_length_c   3.66678500
_cell_angle_alpha   90.00000000
_cell_angle_beta   90.00000000
_cell_angle_gamma   119.99999843
_symmetry_Int_Tables_number   1
_chemical_formula_structural   Dy2Ni12AsP6
_chemical_formula_sum   'Dy2 Ni12 As1 P6'
_cell_volume   264.28366348
_cell_formula_units_Z   1
loop_
 _symmetry_equiv_pos_site_id
 _symmetry_equiv_pos_as_xyz
  1  'x, y, z'
loop_
 _atom_site_type_symbol
 _atom_site_label
 _atom_site_symmetry_multiplicity
 _atom_site_fract_x
 _atom_site_fract_y
 _atom_site_fract_z
 _atom_site_occupancy
  Dy  Dy0  1  0.666667  0.333333  0.500000  1
  Dy  Dy1  1  0.333333  0.666667  0.000000  1
  Ni  Ni2  1  0.617811  0.566008  0.000000  1
  Ni  Ni3  1  0.842931  0.714567  0.500000  1
  Ni  Ni4  1  0.948196  0.382189  0.000000  1
  Ni  Ni5  1  0.285433  0.128364  0.500000  1
  Ni  Ni6  1  0.135657  0.243480  0.000000  1
  Ni  Ni7  1  0.107823  0.864343  0.000000  1
  Ni  Ni8  1  0.756520  0.892177  0.000000  1
  Ni  Ni9  1  0.374896  0.437364  0.500000  1
  Ni  Ni10  1  0.562636  0.937532  0.500000  1
  Ni  Ni11  1  0.062468  0.625104  0.500000  1
  Ni  Ni12  1  0.871636  0.157069  0.500000  1
  Ni  Ni13  1  0.433992  0.051804  0.000000  1
  As  As14  1  0.000000  0.000000  0.500000  1
  P  P15  1  0.703746  0.111394  0.000000  1
  P  P16  1  0.112830  0.406370  0.500000  1
  P  P17  1  0.593630  0.706461  0.500000  1
  P  P18  1  0.293539  0.887170  0.500000  1
  P  P19  1  0.888606  0.592352  0.000000  1
  P  P20  1  0.407648  0.296254  0.000000  1
