# generated using pymatgen
data_Ba3Lu(BO3)3
_symmetry_space_group_name_H-M   'P 1'
_cell_length_a   8.16822165
_cell_length_b   8.16822198
_cell_length_c   8.16822243
_cell_angle_alpha   105.68898425
_cell_angle_beta   105.68899030
_cell_angle_gamma   105.68898543
_symmetry_Int_Tables_number   1
_chemical_formula_structural   Ba3Lu(BO3)3
_chemical_formula_sum   'Ba6 Lu2 B6 O18'
_cell_volume   469.15324990
_cell_formula_units_Z   2
loop_
 _symmetry_equiv_pos_site_id
 _symmetry_equiv_pos_as_xyz
  1  'x, y, z'
loop_
 _atom_site_type_symbol
 _atom_site_label
 _atom_site_symmetry_multiplicity
 _atom_site_fract_x
 _atom_site_fract_y
 _atom_site_fract_z
 _atom_site_occupancy
  Ba  Ba0  1  0.161591  0.263448  0.652206  1
  Ba  Ba1  1  0.652206  0.161591  0.263448  1
  Ba  Ba2  1  0.263448  0.652206  0.161591  1
  Ba  Ba3  1  0.838409  0.736552  0.347794  1
  Ba  Ba4  1  0.347794  0.838409  0.736552  1
  Ba  Ba5  1  0.736552  0.347794  0.838409  1
  Lu  Lu6  1  0.000000  0.000000  0.000000  1
  Lu  Lu7  1  0.500000  0.500000  0.500000  1
  B  B8  1  0.289779  0.045301  0.370938  1
  B  B9  1  0.370938  0.289779  0.045301  1
  B  B10  1  0.045301  0.370938  0.289779  1
  B  B11  1  0.629062  0.710221  0.954699  1
  B  B12  1  0.954699  0.629062  0.710221  1
  B  B13  1  0.710221  0.954699  0.629062  1
  O  O14  1  0.182989  0.254107  0.986912  1
  O  O15  1  0.986912  0.182989  0.254107  1
  O  O16  1  0.443963  0.198671  0.933544  1
  O  O17  1  0.198671  0.933544  0.443963  1
  O  O18  1  0.933544  0.443963  0.198671  1
  O  O19  1  0.066456  0.556037  0.801329  1
  O  O20  1  0.556037  0.801330  0.066456  1
  O  O21  1  0.801330  0.066456  0.556037  1
  O  O22  1  0.486877  0.426806  0.215992  1
  O  O23  1  0.426806  0.215992  0.486877  1
  O  O24  1  0.215992  0.486877  0.426806  1
  O  O25  1  0.513123  0.573194  0.784008  1
  O  O26  1  0.573194  0.784008  0.513123  1
  O  O27  1  0.784008  0.513123  0.573194  1
  O  O28  1  0.745893  0.013088  0.817011  1
  O  O29  1  0.013088  0.817011  0.745893  1
  O  O30  1  0.817011  0.745893  0.013088  1
  O  O31  1  0.254107  0.986912  0.182989  1
