# generated using pymatgen
data_Rb6LiV5Br18
_symmetry_space_group_name_H-M   'P 1'
_cell_length_a   13.19464300
_cell_length_b   13.19464359
_cell_length_c   6.41084900
_cell_angle_alpha   90.00000000
_cell_angle_beta   90.00000000
_cell_angle_gamma   119.99999602
_symmetry_Int_Tables_number   1
_chemical_formula_structural   Rb6LiV5Br18
_chemical_formula_sum   'Rb6 Li1 V5 Br18'
_cell_volume   966.58823493
_cell_formula_units_Z   1
loop_
 _symmetry_equiv_pos_site_id
 _symmetry_equiv_pos_as_xyz
  1  'x, y, z'
loop_
 _atom_site_type_symbol
 _atom_site_label
 _atom_site_symmetry_multiplicity
 _atom_site_fract_x
 _atom_site_fract_y
 _atom_site_fract_z
 _atom_site_occupancy
  Rb  Rb0  1  0.999902  0.314456  0.746714  1
  Rb  Rb1  1  0.314456  0.314554  0.253286  1
  Rb  Rb2  1  0.685544  0.685446  0.746714  1
  Rb  Rb3  1  0.000098  0.685544  0.253286  1
  Rb  Rb4  1  0.314554  0.000098  0.746714  1
  Rb  Rb5  1  0.685446  0.999902  0.253286  1
  Li  Li6  1  0.000000  0.000000  0.000000  1
  V  V7  1  0.333333  0.666667  0.528094  1
  V  V8  1  0.666667  0.333333  0.471906  1
  V  V9  1  0.000000  0.000000  0.500000  1
  V  V10  1  0.666667  0.333333  0.972198  1
  V  V11  1  0.333333  0.666667  0.027802  1
  Br  Br12  1  0.824429  0.489254  0.721838  1
  Br  Br13  1  0.335002  0.510529  0.778516  1
  Br  Br14  1  0.175527  0.664998  0.778516  1
  Br  Br15  1  0.824473  0.335002  0.221484  1
  Br  Br16  1  0.175571  0.510746  0.278162  1
  Br  Br17  1  0.163546  0.000300  0.261965  1
  Br  Br18  1  0.335175  0.824429  0.278162  1
  Br  Br19  1  0.489471  0.824473  0.778516  1
  Br  Br20  1  0.664825  0.175571  0.721838  1
  Br  Br21  1  0.664998  0.489471  0.221484  1
  Br  Br22  1  0.999700  0.163246  0.261965  1
  Br  Br23  1  0.163246  0.163546  0.738035  1
  Br  Br24  1  0.836454  0.999700  0.738035  1
  Br  Br25  1  0.000300  0.836754  0.738035  1
  Br  Br26  1  0.836754  0.836454  0.261965  1
  Br  Br27  1  0.510529  0.175527  0.221484  1
  Br  Br28  1  0.489254  0.664825  0.278162  1
  Br  Br29  1  0.510746  0.335175  0.721838  1
