# generated using pymatgen
data_Zr6Sc2Ti2Al12Pt7
_symmetry_space_group_name_H-M   'P 1'
_cell_length_a   8.90734020
_cell_length_b   8.90335229
_cell_length_c   8.90335231
_cell_angle_alpha   59.96444045
_cell_angle_beta   59.98517389
_cell_angle_gamma   59.98516995
_symmetry_Int_Tables_number   1
_chemical_formula_structural   Zr6Sc2Ti2Al12Pt7
_chemical_formula_sum   'Zr6 Sc2 Ti2 Al12 Pt7'
_cell_volume   499.02923528
_cell_formula_units_Z   1
loop_
 _symmetry_equiv_pos_site_id
 _symmetry_equiv_pos_as_xyz
  1  'x, y, z'
loop_
 _atom_site_type_symbol
 _atom_site_label
 _atom_site_symmetry_multiplicity
 _atom_site_fract_x
 _atom_site_fract_y
 _atom_site_fract_z
 _atom_site_occupancy
  Zr  Zr0  1  0.685301  0.685862  0.315852  1
  Zr  Zr1  1  0.312984  0.685862  0.315852  1
  Zr  Zr2  1  0.688579  0.311421  0.311421  1
  Zr  Zr3  1  0.312984  0.315852  0.685862  1
  Zr  Zr4  1  0.685301  0.315852  0.685862  1
  Zr  Zr5  1  0.317317  0.682683  0.682683  1
  Sc  Sc6  1  0.355316  0.881232  0.881232  1
  Sc  Sc7  1  0.882219  0.881232  0.881232  1
  Ti  Ti8  1  0.880134  0.878969  0.360762  1
  Ti  Ti9  1  0.880134  0.360762  0.878969  1
  Al  Al10  1  0.119834  0.123409  0.636922  1
  Al  Al11  1  0.119834  0.636922  0.123409  1
  Al  Al12  1  0.636393  0.121985  0.121985  1
  Al  Al13  1  0.119639  0.121985  0.121985  1
  Al  Al14  1  0.664768  0.661317  0.009148  1
  Al  Al15  1  0.664768  0.009148  0.661317  1
  Al  Al16  1  0.007368  0.663209  0.663209  1
  Al  Al17  1  0.666214  0.663209  0.663209  1
  Al  Al18  1  0.335476  0.335031  0.994018  1
  Al  Al19  1  0.335476  0.994018  0.335031  1
  Al  Al20  1  0.993952  0.335234  0.335234  1
  Al  Al21  1  0.335579  0.335234  0.335234  1
  Pt  Pt22  1  0.991521  0.008479  0.008479  1
  Pt  Pt23  1  0.000795  0.999332  0.495827  1
  Pt  Pt24  1  0.504047  0.999332  0.495827  1
  Pt  Pt25  1  0.999606  0.500394  0.500394  1
  Pt  Pt26  1  0.504047  0.495827  0.999332  1
  Pt  Pt27  1  0.000795  0.495827  0.999332  1
  Pt  Pt28  1  0.499619  0.000381  0.000381  1
