# generated using pymatgen
data_LaNdHo(Si3Pd10)2
_symmetry_space_group_name_H-M   'P 1'
_cell_length_a   8.75844177
_cell_length_b   8.75844139
_cell_length_c   8.75844100
_cell_angle_alpha   59.99999771
_cell_angle_beta   59.99999912
_cell_angle_gamma   59.99999364
_symmetry_Int_Tables_number   1
_chemical_formula_structural   LaNdHo(Si3Pd10)2
_chemical_formula_sum   'La1 Nd1 Ho1 Si6 Pd20'
_cell_volume   475.07858540
_cell_formula_units_Z   1
loop_
 _symmetry_equiv_pos_site_id
 _symmetry_equiv_pos_as_xyz
  1  'x, y, z'
loop_
 _atom_site_type_symbol
 _atom_site_label
 _atom_site_symmetry_multiplicity
 _atom_site_fract_x
 _atom_site_fract_y
 _atom_site_fract_z
 _atom_site_occupancy
  La  La0  1  0.250000  0.250000  0.250000  1
  Nd  Nd1  1  0.750000  0.750000  0.750000  1
  Ho  Ho2  1  0.000000  0.000000  0.000000  1
  Si  Si3  1  0.733509  0.266491  0.266491  1
  Si  Si4  1  0.266491  0.733509  0.733509  1
  Si  Si5  1  0.266491  0.733509  0.266491  1
  Si  Si6  1  0.733509  0.266491  0.733509  1
  Si  Si7  1  0.266491  0.266491  0.733509  1
  Si  Si8  1  0.733509  0.733509  0.266491  1
  Pd  Pd9  1  0.385324  0.385324  0.385324  1
  Pd  Pd10  1  0.614774  0.614774  0.614774  1
  Pd  Pd11  1  0.385324  0.385324  0.844031  1
  Pd  Pd12  1  0.385324  0.844031  0.385324  1
  Pd  Pd13  1  0.614774  0.614774  0.155675  1
  Pd  Pd14  1  0.614774  0.155675  0.614774  1
  Pd  Pd15  1  0.844031  0.385324  0.385324  1
  Pd  Pd16  1  0.155675  0.614774  0.614774  1
  Pd  Pd17  1  0.345452  0.999757  0.999757  1
  Pd  Pd18  1  0.655035  0.999757  0.999757  1
  Pd  Pd19  1  0.999757  0.345452  0.655035  1
  Pd  Pd20  1  0.999757  0.655035  0.345452  1
  Pd  Pd21  1  0.999757  0.345452  0.999757  1
  Pd  Pd22  1  0.655035  0.999757  0.345452  1
  Pd  Pd23  1  0.999757  0.655035  0.999757  1
  Pd  Pd24  1  0.345452  0.999757  0.655035  1
  Pd  Pd25  1  0.999757  0.999757  0.345452  1
  Pd  Pd26  1  0.999757  0.999757  0.655035  1
  Pd  Pd27  1  0.655035  0.345452  0.999757  1
  Pd  Pd28  1  0.345452  0.655035  0.999757  1
