# generated using pymatgen
data_LiYb2Ni7B2
_symmetry_space_group_name_H-M   'P 1'
_cell_length_a   5.05108301
_cell_length_b   5.05302233
_cell_length_c   6.74469500
_cell_angle_alpha   89.99653029
_cell_angle_beta   90.00322149
_cell_angle_gamma   119.96268983
_symmetry_Int_Tables_number   1
_chemical_formula_structural   LiYb2Ni7B2
_chemical_formula_sum   'Li1 Yb2 Ni7 B2'
_cell_volume   149.13920532
_cell_formula_units_Z   1
loop_
 _symmetry_equiv_pos_site_id
 _symmetry_equiv_pos_as_xyz
  1  'x, y, z'
loop_
 _atom_site_type_symbol
 _atom_site_label
 _atom_site_symmetry_multiplicity
 _atom_site_fract_x
 _atom_site_fract_y
 _atom_site_fract_z
 _atom_site_occupancy
  Li  Li0  1  0.666583  0.333362  0.499978  1
  Yb  Yb1  1  0.000036  0.000049  0.000013  1
  Yb  Yb2  1  0.000023  0.000105  0.499991  1
  Ni  Ni3  1  0.333098  0.666324  0.500015  1
  Ni  Ni4  1  0.498604  0.501731  0.796689  1
  Ni  Ni5  1  0.498540  0.997094  0.796635  1
  Ni  Ni6  1  0.003144  0.501744  0.796752  1
  Ni  Ni7  1  0.498451  0.501360  0.203320  1
  Ni  Ni8  1  0.498542  0.996885  0.203310  1
  Ni  Ni9  1  0.002965  0.501356  0.203273  1
  B  B10  1  0.666675  0.333189  0.000032  1
  B  B11  1  0.333339  0.666802  0.999993  1
