# generated using pymatgen
data_Pr6Dy5Tm5(CdIr)4
_symmetry_space_group_name_H-M   'P 1'
_cell_length_a   9.74788831
_cell_length_b   9.72914563
_cell_length_c   9.72914497
_cell_angle_alpha   59.90985969
_cell_angle_beta   59.93625489
_cell_angle_gamma   59.93624880
_symmetry_Int_Tables_number   1
_chemical_formula_structural   Pr6Dy5Tm5(CdIr)4
_chemical_formula_sum   'Pr6 Dy5 Tm5 Cd4 Ir4'
_cell_volume   651.37281200
_cell_formula_units_Z   1
loop_
 _symmetry_equiv_pos_site_id
 _symmetry_equiv_pos_as_xyz
  1  'x, y, z'
loop_
 _atom_site_type_symbol
 _atom_site_label
 _atom_site_symmetry_multiplicity
 _atom_site_fract_x
 _atom_site_fract_y
 _atom_site_fract_z
 _atom_site_occupancy
  Pr  Pr0  1  0.941264  0.558736  0.558736  1
  Pr  Pr1  1  0.557831  0.942169  0.942169  1
  Pr  Pr2  1  0.558047  0.941155  0.558525  1
  Pr  Pr3  1  0.942273  0.558525  0.941155  1
  Pr  Pr4  1  0.558047  0.558525  0.941155  1
  Pr  Pr5  1  0.942273  0.941155  0.558525  1
  Dy  Dy6  1  0.345820  0.348047  0.348047  1
  Dy  Dy7  1  0.347272  0.348329  0.957127  1
  Dy  Dy8  1  0.347272  0.957127  0.348329  1
  Dy  Dy9  1  0.958087  0.348047  0.348047  1
  Dy  Dy10  1  0.813786  0.186214  0.186214  1
  Tm  Tm11  1  0.185929  0.814071  0.814071  1
  Tm  Tm12  1  0.187611  0.812725  0.185139  1
  Tm  Tm13  1  0.814525  0.185139  0.812725  1
  Tm  Tm14  1  0.187611  0.185139  0.812725  1
  Tm  Tm15  1  0.814525  0.812725  0.185139  1
  Cd  Cd16  1  0.579080  0.579135  0.579135  1
  Cd  Cd17  1  0.579119  0.579720  0.262041  1
  Cd  Cd18  1  0.579119  0.262041  0.579720  1
  Cd  Cd19  1  0.262647  0.579135  0.579135  1
  Ir  Ir20  1  0.140731  0.140691  0.140691  1
  Ir  Ir21  1  0.139619  0.141340  0.579422  1
  Ir  Ir22  1  0.139619  0.579422  0.141340  1
  Ir  Ir23  1  0.577887  0.140691  0.140691  1
