# generated using pymatgen
data_Tb3Zr2Bi3S
_symmetry_space_group_name_H-M   'P 1'
_cell_length_a   9.07607300
_cell_length_b   9.07607430
_cell_length_c   6.29061800
_cell_angle_alpha   90.00000000
_cell_angle_beta   90.00000000
_cell_angle_gamma   119.99999890
_symmetry_Int_Tables_number   1
_chemical_formula_structural   Tb3Zr2Bi3S
_chemical_formula_sum   'Tb6 Zr4 Bi6 S2'
_cell_volume   448.76602777
_cell_formula_units_Z   2
loop_
 _symmetry_equiv_pos_site_id
 _symmetry_equiv_pos_as_xyz
  1  'x, y, z'
loop_
 _atom_site_type_symbol
 _atom_site_label
 _atom_site_symmetry_multiplicity
 _atom_site_fract_x
 _atom_site_fract_y
 _atom_site_fract_z
 _atom_site_occupancy
  Tb  Tb0  1  0.748001  0.748001  0.250000  1
  Tb  Tb1  1  0.251999  0.000000  0.250000  1
  Tb  Tb2  1  0.000000  0.251999  0.250000  1
  Tb  Tb3  1  0.251999  0.251999  0.750000  1
  Tb  Tb4  1  0.748001  0.000000  0.750000  1
  Tb  Tb5  1  0.000000  0.748001  0.750000  1
  Zr  Zr6  1  0.666667  0.333333  0.500000  1
  Zr  Zr7  1  0.333333  0.666667  0.500000  1
  Zr  Zr8  1  0.333333  0.666667  0.000000  1
  Zr  Zr9  1  0.666667  0.333333  0.000000  1
  Bi  Bi10  1  0.399047  0.399047  0.250000  1
  Bi  Bi11  1  0.600953  0.000000  0.250000  1
  Bi  Bi12  1  0.000000  0.600953  0.250000  1
  Bi  Bi13  1  0.600953  0.600953  0.750000  1
  Bi  Bi14  1  0.399047  0.000000  0.750000  1
  Bi  Bi15  1  0.000000  0.399047  0.750000  1
  S  S16  1  0.000000  0.000000  0.500000  1
  S  S17  1  0.000000  0.000000  0.000000  1
