# generated using pymatgen
data_Ba2MgMn6NiO16
_symmetry_space_group_name_H-M   'P 1'
_cell_length_a   5.88888660
_cell_length_b   5.88895297
_cell_length_c   13.29886767
_cell_angle_alpha   89.99817417
_cell_angle_beta   77.20693057
_cell_angle_gamma   119.99936216
_symmetry_Int_Tables_number   1
_chemical_formula_structural   Ba2MgMn6NiO16
_chemical_formula_sum   'Ba2 Mg1 Mn6 Ni1 O16'
_cell_volume   386.13218081
_cell_formula_units_Z   1
loop_
 _symmetry_equiv_pos_site_id
 _symmetry_equiv_pos_as_xyz
  1  'x, y, z'
loop_
 _atom_site_type_symbol
 _atom_site_label
 _atom_site_symmetry_multiplicity
 _atom_site_fract_x
 _atom_site_fract_y
 _atom_site_fract_z
 _atom_site_occupancy
  Ba  Ba0  1  0.500346  0.750174  0.749468  1
  Ba  Ba1  1  0.499642  0.249817  0.250552  1
  Mg  Mg2  1  0.000022  0.500023  0.499991  1
  Mn  Mn3  1  0.499945  0.000003  0.499983  1
  Mn  Mn4  1  0.499968  0.500035  0.999974  1
  Mn  Mn5  1  0.499983  0.499968  0.499987  1
  Mn  Mn6  1  0.499988  0.999963  0.999977  1
  Mn  Mn7  1  0.000103  0.000029  0.499987  1
  Mn  Mn8  1  0.000092  0.500038  0.999976  1
  Ni  Ni9  1  0.000011  0.000009  0.999988  1
  O  O10  1  0.718996  0.859500  0.421505  1
  O  O11  1  0.718855  0.359417  0.921660  1
  O  O12  1  0.281121  0.640551  0.078355  1
  O  O13  1  0.280993  0.140493  0.578498  1
  O  O14  1  0.229224  0.849792  0.921016  1
  O  O15  1  0.228457  0.350147  0.421387  1
  O  O16  1  0.771546  0.121704  0.578625  1
  O  O17  1  0.770768  0.620573  0.079004  1
  O  O18  1  0.771537  0.649847  0.578626  1
  O  O19  1  0.770762  0.150183  0.079004  1
  O  O20  1  0.299693  0.649851  0.578620  1
  O  O21  1  0.300457  0.150214  0.078991  1
  O  O22  1  0.229223  0.379431  0.921016  1
  O  O23  1  0.228459  0.878325  0.421388  1
  O  O24  1  0.699509  0.849748  0.921033  1
  O  O25  1  0.700307  0.350164  0.421389  1
