# generated using pymatgen
data_Sm2Ho2Sn10PdRh5
_symmetry_space_group_name_H-M   'P 1'
_cell_length_a   13.51299079
_cell_length_b   13.51299203
_cell_length_c   7.30476715
_cell_angle_alpha   89.87433352
_cell_angle_beta   90.12566558
_cell_angle_gamma   161.03537091
_symmetry_Int_Tables_number   1
_chemical_formula_structural   Sm2Ho2Sn10PdRh5
_chemical_formula_sum   'Sm2 Ho2 Sn10 Pd1 Rh5'
_cell_volume   433.48173369
_cell_formula_units_Z   1
loop_
 _symmetry_equiv_pos_site_id
 _symmetry_equiv_pos_as_xyz
  1  'x, y, z'
loop_
 _atom_site_type_symbol
 _atom_site_label
 _atom_site_symmetry_multiplicity
 _atom_site_fract_x
 _atom_site_fract_y
 _atom_site_fract_z
 _atom_site_occupancy
  Sm  Sm0  1  0.173109  0.826891  0.744027  1
  Sm  Sm1  1  0.827502  0.172498  0.244647  1
  Ho  Ho2  1  0.474921  0.525079  0.758684  1
  Ho  Ho3  1  0.523185  0.476815  0.266524  1
  Sn  Sn4  1  0.880890  0.119110  0.769848  1
  Sn  Sn5  1  0.120094  0.879906  0.273799  1
  Sn  Sn6  1  0.704821  0.295179  0.450329  1
  Sn  Sn7  1  0.296049  0.703951  0.949445  1
  Sn  Sn8  1  0.596765  0.403235  0.882092  1
  Sn  Sn9  1  0.403845  0.596155  0.386335  1
  Sn  Sn10  1  0.951826  0.048174  0.104498  1
  Sn  Sn11  1  0.046868  0.953132  0.597857  1
  Sn  Sn12  1  0.290628  0.709372  0.523938  1
  Sn  Sn13  1  0.709848  0.290152  0.023846  1
  Pd  Pd14  1  0.049764  0.950236  0.984378  1
  Rh  Rh15  1  0.949893  0.050107  0.483993  1
  Rh  Rh16  1  0.776828  0.223172  0.736144  1
  Rh  Rh17  1  0.222848  0.777152  0.235387  1
  Rh  Rh18  1  0.395065  0.604935  0.015265  1
  Rh  Rh19  1  0.605252  0.394748  0.512964  1
