# generated using pymatgen
data_ErZr2PbF15
_symmetry_space_group_name_H-M   'P 1'
_cell_length_a   8.16618483
_cell_length_b   8.16618427
_cell_length_c   8.15945300
_cell_angle_alpha   79.80537244
_cell_angle_beta   79.80538027
_cell_angle_gamma   100.09428413
_symmetry_Int_Tables_number   1
_chemical_formula_structural   ErZr2PbF15
_chemical_formula_sum   'Er2 Zr4 Pb2 F30'
_cell_volume   514.95341053
_cell_formula_units_Z   2
loop_
 _symmetry_equiv_pos_site_id
 _symmetry_equiv_pos_as_xyz
  1  'x, y, z'
loop_
 _atom_site_type_symbol
 _atom_site_label
 _atom_site_symmetry_multiplicity
 _atom_site_fract_x
 _atom_site_fract_y
 _atom_site_fract_z
 _atom_site_occupancy
  Er  Er0  1  0.175515  0.824485  0.250000  1
  Er  Er1  1  0.824485  0.175515  0.750000  1
  Zr  Zr2  1  0.749025  0.676273  0.673499  1
  Zr  Zr3  1  0.323727  0.250975  0.826501  1
  Zr  Zr4  1  0.250975  0.323727  0.326501  1
  Zr  Zr5  1  0.676273  0.749025  0.173499  1
  Pb  Pb6  1  0.751412  0.248588  0.250000  1
  Pb  Pb7  1  0.248588  0.751412  0.750000  1
  F  F8  1  0.318955  0.350605  0.052852  1
  F  F9  1  0.937481  0.815305  0.150186  1
  F  F10  1  0.844925  0.458018  0.681702  1
  F  F11  1  0.458018  0.844925  0.181702  1
  F  F12  1  0.815305  0.937481  0.650186  1
  F  F13  1  0.350605  0.318955  0.552851  1
  F  F14  1  0.681045  0.649395  0.947148  1
  F  F15  1  0.062519  0.184695  0.849814  1
  F  F16  1  0.155075  0.541982  0.318298  1
  F  F17  1  0.541982  0.155075  0.818298  1
  F  F18  1  0.184695  0.062519  0.349814  1
  F  F19  1  0.649395  0.681045  0.447148  1
  F  F20  1  0.774636  0.287839  0.988767  1
  F  F21  1  0.016990  0.276049  0.211763  1
  F  F22  1  0.784557  0.514789  0.223507  1
  F  F23  1  0.514789  0.784557  0.723507  1
  F  F24  1  0.276049  0.016990  0.711763  1
  F  F25  1  0.287839  0.774636  0.488767  1
  F  F26  1  0.225364  0.712161  0.011233  1
  F  F27  1  0.983010  0.723951  0.788237  1
  F  F28  1  0.215443  0.485211  0.776493  1
  F  F29  1  0.485211  0.215443  0.276493  1
  F  F30  1  0.723951  0.983010  0.288237  1
  F  F31  1  0.712161  0.225364  0.511233  1
  F  F32  1  0.467641  0.532359  0.250000  1
  F  F33  1  0.747418  0.957188  0.970788  1
  F  F34  1  0.042812  0.252582  0.529212  1
  F  F35  1  0.252582  0.042812  0.029212  1
  F  F36  1  0.957188  0.747418  0.470788  1
  F  F37  1  0.532359  0.467641  0.750000  1
