# generated using pymatgen
data_Dy2HoPaPt4
_symmetry_space_group_name_H-M   'P 1'
_cell_length_a   4.54527300
_cell_length_b   5.60076322
_cell_length_c   6.97833102
_cell_angle_alpha   90.99294976
_cell_angle_beta   90.00000000
_cell_angle_gamma   90.00000000
_symmetry_Int_Tables_number   1
_chemical_formula_structural   Dy2HoPaPt4
_chemical_formula_sum   'Dy2 Ho1 Pa1 Pt4'
_cell_volume   177.62068118
_cell_formula_units_Z   1
loop_
 _symmetry_equiv_pos_site_id
 _symmetry_equiv_pos_as_xyz
  1  'x, y, z'
loop_
 _atom_site_type_symbol
 _atom_site_label
 _atom_site_symmetry_multiplicity
 _atom_site_fract_x
 _atom_site_fract_y
 _atom_site_fract_z
 _atom_site_occupancy
  Dy  Dy0  1  0.250000  0.140619  0.183880  1
  Dy  Dy1  1  0.750000  0.643750  0.315448  1
  Ho  Ho2  1  0.750000  0.856371  0.820474  1
  Pa  Pa3  1  0.250000  0.357220  0.682709  1
  Pt  Pt4  1  0.250000  0.839040  0.550975  1
  Pt  Pt5  1  0.250000  0.652271  0.037294  1
  Pt  Pt6  1  0.750000  0.167692  0.464003  1
  Pt  Pt7  1  0.750000  0.343036  0.945217  1
