# generated using pymatgen
data_MnV8InSe16
_symmetry_space_group_name_H-M   'P 1'
_cell_length_a   7.30058300
_cell_length_b   7.30058300
_cell_length_c   10.35275000
_cell_angle_alpha   90.00000000
_cell_angle_beta   90.00000000
_cell_angle_gamma   90.00000000
_symmetry_Int_Tables_number   1
_chemical_formula_structural   MnV8InSe16
_chemical_formula_sum   'Mn1 V8 In1 Se16'
_cell_volume   551.78617156
_cell_formula_units_Z   1
loop_
 _symmetry_equiv_pos_site_id
 _symmetry_equiv_pos_as_xyz
  1  'x, y, z'
loop_
 _atom_site_type_symbol
 _atom_site_label
 _atom_site_symmetry_multiplicity
 _atom_site_fract_x
 _atom_site_fract_y
 _atom_site_fract_z
 _atom_site_occupancy
  Mn  Mn0  1  0.500000  0.500000  0.500000  1
  V  V1  1  0.000000  0.782656  0.606286  1
  V  V2  1  0.500000  0.292133  0.105892  1
  V  V3  1  0.782656  0.000000  0.393714  1
  V  V4  1  0.292133  0.500000  0.894108  1
  V  V5  1  0.217344  0.000000  0.393714  1
  V  V6  1  0.707867  0.500000  0.894108  1
  V  V7  1  0.000000  0.217344  0.606286  1
  V  V8  1  0.500000  0.707867  0.105892  1
  In  In9  1  0.000000  0.000000  0.000000  1
  Se  Se10  1  0.000000  0.256020  0.370823  1
  Se  Se11  1  0.500000  0.761563  0.871179  1
  Se  Se12  1  0.256020  0.000000  0.629177  1
  Se  Se13  1  0.761563  0.500000  0.128821  1
  Se  Se14  1  0.743980  0.000000  0.629177  1
  Se  Se15  1  0.238437  0.500000  0.128821  1
  Se  Se16  1  0.000000  0.743980  0.370823  1
  Se  Se17  1  0.500000  0.238437  0.871179  1
  Se  Se18  1  0.000000  0.286740  0.856372  1
  Se  Se19  1  0.500000  0.772571  0.363980  1
  Se  Se20  1  0.772571  0.500000  0.636020  1
  Se  Se21  1  0.286740  0.000000  0.143628  1
  Se  Se22  1  0.227429  0.500000  0.636020  1
  Se  Se23  1  0.713260  0.000000  0.143628  1
  Se  Se24  1  0.000000  0.713260  0.856372  1
  Se  Se25  1  0.500000  0.227429  0.363980  1
