# generated using pymatgen
data_ErTaNbB2Ru5
_symmetry_space_group_name_H-M   'P 1'
_cell_length_a   9.55422697
_cell_length_b   9.55422711
_cell_length_c   3.08231400
_cell_angle_alpha   90.00000000
_cell_angle_beta   90.00000000
_cell_angle_gamma   89.52008414
_symmetry_Int_Tables_number   1
_chemical_formula_structural   ErTaNbB2Ru5
_chemical_formula_sum   'Er2 Ta2 Nb2 B4 Ru10'
_cell_volume   281.35378280
_cell_formula_units_Z   2
loop_
 _symmetry_equiv_pos_site_id
 _symmetry_equiv_pos_as_xyz
  1  'x, y, z'
loop_
 _atom_site_type_symbol
 _atom_site_label
 _atom_site_symmetry_multiplicity
 _atom_site_fract_x
 _atom_site_fract_y
 _atom_site_fract_z
 _atom_site_occupancy
  Er  Er0  1  0.175897  0.175897  0.000000  1
  Er  Er1  1  0.824103  0.824103  0.000000  1
  Ta  Ta2  1  0.500000  0.000000  0.000000  1
  Ta  Ta3  1  0.000000  0.500000  0.000000  1
  Nb  Nb4  1  0.675825  0.324175  0.000000  1
  Nb  Nb5  1  0.324175  0.675825  0.000000  1
  B  B6  1  0.379059  0.379059  0.000000  1
  B  B7  1  0.620941  0.620941  0.000000  1
  B  B8  1  0.879242  0.120758  0.000000  1
  B  B9  1  0.120758  0.879242  0.000000  1
  Ru  Ru10  1  0.500000  0.500000  0.500000  1
  Ru  Ru11  1  0.000000  0.000000  0.500000  1
  Ru  Ru12  1  0.439099  0.222104  0.500000  1
  Ru  Ru13  1  0.560901  0.777896  0.500000  1
  Ru  Ru14  1  0.919720  0.285085  0.500000  1
  Ru  Ru15  1  0.080280  0.714915  0.500000  1
  Ru  Ru16  1  0.714915  0.080280  0.500000  1
  Ru  Ru17  1  0.285085  0.919720  0.500000  1
  Ru  Ru18  1  0.777896  0.560901  0.500000  1
  Ru  Ru19  1  0.222104  0.439099  0.500000  1
