# generated using pymatgen
data_ThScReB6
_symmetry_space_group_name_H-M   'P 1'
_cell_length_a   3.69385800
_cell_length_b   9.10199000
_cell_length_c   11.55185000
_cell_angle_alpha   90.00000000
_cell_angle_beta   90.00000000
_cell_angle_gamma   90.00000000
_symmetry_Int_Tables_number   1
_chemical_formula_structural   ThScReB6
_chemical_formula_sum   'Th4 Sc4 Re4 B24'
_cell_volume   388.39004627
_cell_formula_units_Z   4
loop_
 _symmetry_equiv_pos_site_id
 _symmetry_equiv_pos_as_xyz
  1  'x, y, z'
loop_
 _atom_site_type_symbol
 _atom_site_label
 _atom_site_symmetry_multiplicity
 _atom_site_fract_x
 _atom_site_fract_y
 _atom_site_fract_z
 _atom_site_occupancy
  Th  Th0  1  0.000000  0.320711  0.414497  1
  Th  Th1  1  0.000000  0.679289  0.585503  1
  Th  Th2  1  0.000000  0.820711  0.085503  1
  Th  Th3  1  0.000000  0.179289  0.914497  1
  Sc  Sc4  1  0.000000  0.945854  0.373649  1
  Sc  Sc5  1  0.000000  0.054146  0.626351  1
  Sc  Sc6  1  0.000000  0.445854  0.126351  1
  Sc  Sc7  1  0.000000  0.554146  0.873649  1
  Re  Re8  1  0.000000  0.641142  0.317698  1
  Re  Re9  1  0.000000  0.358858  0.682302  1
  Re  Re10  1  0.000000  0.141142  0.182302  1
  Re  Re11  1  0.000000  0.858858  0.817698  1
  B  B12  1  0.500000  0.557193  0.429218  1
  B  B13  1  0.500000  0.442807  0.570782  1
  B  B14  1  0.500000  0.057193  0.070782  1
  B  B15  1  0.500000  0.942807  0.929218  1
  B  B16  1  0.500000  0.754143  0.416351  1
  B  B17  1  0.500000  0.245857  0.583649  1
  B  B18  1  0.500000  0.254143  0.083649  1
  B  B19  1  0.500000  0.745857  0.916351  1
  B  B20  1  0.500000  0.793616  0.266075  1
  B  B21  1  0.500000  0.206384  0.733925  1
  B  B22  1  0.500000  0.293616  0.233925  1
  B  B23  1  0.500000  0.706384  0.766075  1
  B  B24  1  0.500000  0.628380  0.184073  1
  B  B25  1  0.500000  0.371620  0.815927  1
  B  B26  1  0.500000  0.128380  0.315927  1
  B  B27  1  0.500000  0.871620  0.684073  1
  B  B28  1  0.500000  0.983600  0.215681  1
  B  B29  1  0.500000  0.016400  0.784319  1
  B  B30  1  0.500000  0.483600  0.284319  1
  B  B31  1  0.500000  0.516400  0.715681  1
  B  B32  1  0.500000  0.597098  0.026212  1
  B  B33  1  0.500000  0.402902  0.973788  1
  B  B34  1  0.500000  0.097098  0.473788  1
  B  B35  1  0.500000  0.902902  0.526212  1
