# generated using pymatgen
data_Pr4Dy12Cd4OsPt3
_symmetry_space_group_name_H-M   'P 1'
_cell_length_a   9.77032113
_cell_length_b   9.77424996
_cell_length_c   9.77424972
_cell_angle_alpha   59.95091704
_cell_angle_beta   59.61254426
_cell_angle_gamma   59.61253274
_symmetry_Int_Tables_number   1
_chemical_formula_structural   Pr4Dy12Cd4OsPt3
_chemical_formula_sum   'Pr4 Dy12 Cd4 Os1 Pt3'
_cell_volume   655.89278004
_cell_formula_units_Z   1
loop_
 _symmetry_equiv_pos_site_id
 _symmetry_equiv_pos_as_xyz
  1  'x, y, z'
loop_
 _atom_site_type_symbol
 _atom_site_label
 _atom_site_symmetry_multiplicity
 _atom_site_fract_x
 _atom_site_fract_y
 _atom_site_fract_z
 _atom_site_occupancy
  Pr  Pr0  1  0.564469  0.936123  0.565473  1
  Pr  Pr1  1  0.938407  0.558803  0.936511  1
  Pr  Pr2  1  0.564469  0.565473  0.936123  1
  Pr  Pr3  1  0.938407  0.936511  0.558803  1
  Dy  Dy4  1  0.351634  0.351084  0.351084  1
  Dy  Dy5  1  0.347344  0.348820  0.953627  1
  Dy  Dy6  1  0.347344  0.953627  0.348820  1
  Dy  Dy7  1  0.952294  0.347895  0.347895  1
  Dy  Dy8  1  0.817087  0.186676  0.186676  1
  Dy  Dy9  1  0.187065  0.810846  0.810846  1
  Dy  Dy10  1  0.188020  0.815870  0.187843  1
  Dy  Dy11  1  0.810619  0.184976  0.810487  1
  Dy  Dy12  1  0.188020  0.187843  0.815870  1
  Dy  Dy13  1  0.810619  0.810487  0.184976  1
  Dy  Dy14  1  0.941299  0.558097  0.558097  1
  Dy  Dy15  1  0.551369  0.944251  0.944251  1
  Cd  Cd16  1  0.582947  0.577742  0.577742  1
  Cd  Cd17  1  0.577891  0.583532  0.258776  1
  Cd  Cd18  1  0.577891  0.258776  0.583532  1
  Cd  Cd19  1  0.259175  0.578359  0.578359  1
  Os  Os20  1  0.145679  0.141119  0.141119  1
  Pt  Pt21  1  0.142267  0.146430  0.573880  1
  Pt  Pt22  1  0.142267  0.573880  0.146430  1
  Pt  Pt23  1  0.573417  0.142784  0.142784  1
