# generated using pymatgen
data_CaEr2S3
_symmetry_space_group_name_H-M   'P 1'
_cell_length_a   3.90057900
_cell_length_b   3.90057918
_cell_length_c   9.62338300
_cell_angle_alpha   90.00000000
_cell_angle_beta   90.00000000
_cell_angle_gamma   119.99998999
_symmetry_Int_Tables_number   1
_chemical_formula_structural   CaEr2S3
_chemical_formula_sum   'Ca1 Er2 S3'
_cell_volume   126.79923186
_cell_formula_units_Z   1
loop_
 _symmetry_equiv_pos_site_id
 _symmetry_equiv_pos_as_xyz
  1  'x, y, z'
loop_
 _atom_site_type_symbol
 _atom_site_label
 _atom_site_symmetry_multiplicity
 _atom_site_fract_x
 _atom_site_fract_y
 _atom_site_fract_z
 _atom_site_occupancy
  Ca  Ca0  1  0.000000  0.000000  0.000000  1
  Er  Er1  1  0.333333  0.666667  0.655559  1
  Er  Er2  1  0.666667  0.333333  0.344441  1
  S  S3  1  0.333333  0.666667  0.174895  1
  S  S4  1  0.666667  0.333333  0.825105  1
  S  S5  1  0.000000  0.000000  0.500000  1
