# generated using pymatgen
data_Dy3HoGa20Pt11
_symmetry_space_group_name_H-M   'P 1'
_cell_length_a   4.24639696
_cell_length_b   10.92161930
_cell_length_c   13.68898094
_cell_angle_alpha   81.66581224
_cell_angle_beta   80.82814192
_cell_angle_gamma   78.43110337
_symmetry_Int_Tables_number   1
_chemical_formula_structural   Dy3HoGa20Pt11
_chemical_formula_sum   'Dy3 Ho1 Ga20 Pt11'
_cell_volume   609.80762371
_cell_formula_units_Z   1
loop_
 _symmetry_equiv_pos_site_id
 _symmetry_equiv_pos_as_xyz
  1  'x, y, z'
loop_
 _atom_site_type_symbol
 _atom_site_label
 _atom_site_symmetry_multiplicity
 _atom_site_fract_x
 _atom_site_fract_y
 _atom_site_fract_z
 _atom_site_occupancy
  Dy  Dy0  1  0.875781  0.911732  0.335909  1
  Dy  Dy1  1  0.773195  0.630245  0.821537  1
  Dy  Dy2  1  0.226819  0.369769  0.178410  1
  Ho  Ho3  1  0.124091  0.088350  0.664329  1
  Ga  Ga4  1  0.009113  0.071220  0.910958  1
  Ga  Ga5  1  0.990953  0.928808  0.088910  1
  Ga  Ga6  1  0.064352  0.676815  0.193200  1
  Ga  Ga7  1  0.935653  0.323085  0.806817  1
  Ga  Ga8  1  0.103372  0.340914  0.453998  1
  Ga  Ga9  1  0.896557  0.659186  0.546072  1
  Ga  Ga10  1  0.199412  0.605539  0.992416  1
  Ga  Ga11  1  0.800649  0.394409  0.007540  1
  Ga  Ga12  1  0.257222  0.782095  0.700138  1
  Ga  Ga13  1  0.742629  0.218090  0.299954  1
  Ga  Ga14  1  0.302412  0.899703  0.496150  1
  Ga  Ga15  1  0.697280  0.100528  0.504218  1
  Ga  Ga16  1  0.384573  0.525869  0.699877  1
  Ga  Ga17  1  0.615461  0.474094  0.300084  1
  Ga  Ga18  1  0.396834  0.203308  0.001692  1
  Ga  Ga19  1  0.603229  0.796699  0.998154  1
  Ga  Ga20  1  0.545163  0.282752  0.628158  1
  Ga  Ga21  1  0.455078  0.716884  0.371834  1
  Ga  Ga22  1  0.639108  0.933046  0.791946  1
  Ga  Ga23  1  0.360944  0.067018  0.207858  1
  Pt  Pt24  1  0.500058  0.499827  0.500047  1
  Pt  Pt25  1  0.029812  0.576376  0.369913  1
  Pt  Pt26  1  0.970197  0.423535  0.630165  1
  Pt  Pt27  1  0.141537  0.834245  0.887754  1
  Pt  Pt28  1  0.858406  0.165770  0.112274  1
  Pt  Pt29  1  0.242173  0.127254  0.391344  1
  Pt  Pt30  1  0.757581  0.873058  0.608779  1
  Pt  Pt31  1  0.345415  0.420309  0.891498  1
  Pt  Pt32  1  0.654647  0.579644  0.108414  1
  Pt  Pt33  1  0.506912  0.167831  0.816921  1
  Pt  Pt34  1  0.493382  0.831995  0.182732  1
