# generated using pymatgen
data_PmPa(SiPt)2
_symmetry_space_group_name_H-M   'P 1'
_cell_length_a   5.81279697
_cell_length_b   5.81279721
_cell_length_c   5.81279800
_cell_angle_alpha   138.59468616
_cell_angle_beta   105.52525225
_cell_angle_gamma   88.98507532
_symmetry_Int_Tables_number   1
_chemical_formula_structural   PmPa(SiPt)2
_chemical_formula_sum   'Pm1 Pa1 Si2 Pt2'
_cell_volume   119.88516862
_cell_formula_units_Z   1
loop_
 _symmetry_equiv_pos_site_id
 _symmetry_equiv_pos_as_xyz
  1  'x, y, z'
loop_
 _atom_site_type_symbol
 _atom_site_label
 _atom_site_symmetry_multiplicity
 _atom_site_fract_x
 _atom_site_fract_y
 _atom_site_fract_z
 _atom_site_occupancy
  Pm  Pm0  1  0.995562  0.000000  0.995562  1
  Pa  Pa1  1  0.502364  0.500000  0.002364  1
  Si  Si2  1  0.906889  0.238889  0.668001  1
  Si  Si3  1  0.429111  0.761110  0.668000  1
  Pt  Pt4  1  0.573204  0.240170  0.333035  1
  Pt  Pt5  1  0.092866  0.759829  0.333035  1
