# generated using pymatgen
data_DyHoEr2(ReC2)2
_symmetry_space_group_name_H-M   'P 1'
_cell_length_a   5.08349700
_cell_length_b   6.56266800
_cell_length_c   9.81594300
_cell_angle_alpha   90.00000000
_cell_angle_beta   90.00000000
_cell_angle_gamma   90.00000000
_symmetry_Int_Tables_number   1
_chemical_formula_structural   DyHoEr2(ReC2)2
_chemical_formula_sum   'Dy2 Ho2 Er4 Re4 C8'
_cell_volume   327.47264954
_cell_formula_units_Z   2
loop_
 _symmetry_equiv_pos_site_id
 _symmetry_equiv_pos_as_xyz
  1  'x, y, z'
loop_
 _atom_site_type_symbol
 _atom_site_label
 _atom_site_symmetry_multiplicity
 _atom_site_fract_x
 _atom_site_fract_y
 _atom_site_fract_z
 _atom_site_occupancy
  Dy  Dy0  1  0.750000  0.533053  0.784150  1
  Dy  Dy1  1  0.750000  0.033053  0.715850  1
  Ho  Ho2  1  0.250000  0.466722  0.216219  1
  Ho  Ho3  1  0.250000  0.966722  0.283781  1
  Er  Er4  1  0.250000  0.821806  0.943017  1
  Er  Er5  1  0.250000  0.321806  0.556983  1
  Er  Er6  1  0.750000  0.178269  0.057356  1
  Er  Er7  1  0.750000  0.678269  0.442644  1
  Re  Re8  1  0.250000  0.279174  0.867085  1
  Re  Re9  1  0.250000  0.779174  0.632915  1
  Re  Re10  1  0.750000  0.720706  0.133252  1
  Re  Re11  1  0.750000  0.220706  0.366748  1
  C  C12  1  0.250000  0.046557  0.740804  1
  C  C13  1  0.250000  0.546557  0.759196  1
  C  C14  1  0.750000  0.953147  0.259427  1
  C  C15  1  0.750000  0.453147  0.240573  1
  C  C16  1  0.250000  0.674978  0.449091  1
  C  C17  1  0.250000  0.174978  0.050909  1
  C  C18  1  0.750000  0.325586  0.550046  1
  C  C19  1  0.750000  0.825586  0.949954  1
