# generated using pymatgen
data_PrNd3GeS3
_symmetry_space_group_name_H-M   'P 1'
_cell_length_a   7.15138147
_cell_length_b   7.15138151
_cell_length_c   7.15138100
_cell_angle_alpha   131.89098686
_cell_angle_beta   131.89098720
_cell_angle_gamma   70.40124985
_symmetry_Int_Tables_number   1
_chemical_formula_structural   PrNd3GeS3
_chemical_formula_sum   'Pr1 Nd3 Ge1 S3'
_cell_volume   198.61208410
_cell_formula_units_Z   1
loop_
 _symmetry_equiv_pos_site_id
 _symmetry_equiv_pos_as_xyz
  1  'x, y, z'
loop_
 _atom_site_type_symbol
 _atom_site_label
 _atom_site_symmetry_multiplicity
 _atom_site_fract_x
 _atom_site_fract_y
 _atom_site_fract_z
 _atom_site_occupancy
  Pr  Pr0  1  0.250359  0.250359  0.000000  1
  Nd  Nd1  1  0.749762  0.749762  0.000000  1
  Nd  Nd2  1  0.500056  0.000056  0.500000  1
  Nd  Nd3  1  0.000056  0.500056  0.500000  1
  Ge  Ge4  1  0.998811  0.998811  0.000000  1
  S  S5  1  0.500966  0.500966  0.000000  1
  S  S6  1  0.749996  0.249996  0.500000  1
  S  S7  1  0.249996  0.749996  0.500000  1
