# generated using pymatgen
data_Gd3Ag5Ru
_symmetry_space_group_name_H-M   'P 1'
_cell_length_a   7.66618700
_cell_length_b   7.66618752
_cell_length_c   3.82675600
_cell_angle_alpha   90.00000000
_cell_angle_beta   90.00000000
_cell_angle_gamma   120.00000209
_symmetry_Int_Tables_number   1
_chemical_formula_structural   Gd3Ag5Ru
_chemical_formula_sum   'Gd3 Ag5 Ru1'
_cell_volume   194.76918235
_cell_formula_units_Z   1
loop_
 _symmetry_equiv_pos_site_id
 _symmetry_equiv_pos_as_xyz
  1  'x, y, z'
loop_
 _atom_site_type_symbol
 _atom_site_label
 _atom_site_symmetry_multiplicity
 _atom_site_fract_x
 _atom_site_fract_y
 _atom_site_fract_z
 _atom_site_occupancy
  Gd  Gd0  1  0.580170  0.969719  0.000000  1
  Gd  Gd1  1  0.030281  0.610451  0.000000  1
  Gd  Gd2  1  0.389549  0.419830  0.000000  1
  Ag  Ag3  1  0.266833  0.006924  0.500000  1
  Ag  Ag4  1  0.993076  0.259909  0.500000  1
  Ag  Ag5  1  0.740091  0.733167  0.500000  1
  Ag  Ag6  1  0.666667  0.333333  0.500000  1
  Ag  Ag7  1  0.000000  0.000000  0.000000  1
  Ru  Ru8  1  0.333333  0.666667  0.500000  1
