# generated using pymatgen
data_Th8Si12RuRh3
_symmetry_space_group_name_H-M   'P 1'
_cell_length_a   8.24446400
_cell_length_b   8.24446550
_cell_length_c   8.42559100
_cell_angle_alpha   90.00000000
_cell_angle_beta   90.00000000
_cell_angle_gamma   119.99999397
_symmetry_Int_Tables_number   1
_chemical_formula_structural   Th8Si12RuRh3
_chemical_formula_sum   'Th8 Si12 Ru1 Rh3'
_cell_volume   495.97063363
_cell_formula_units_Z   1
loop_
 _symmetry_equiv_pos_site_id
 _symmetry_equiv_pos_as_xyz
  1  'x, y, z'
loop_
 _atom_site_type_symbol
 _atom_site_label
 _atom_site_symmetry_multiplicity
 _atom_site_fract_x
 _atom_site_fract_y
 _atom_site_fract_z
 _atom_site_occupancy
  Th  Th0  1  0.000000  0.000000  0.249745  1
  Th  Th1  1  0.000000  0.000000  0.750113  1
  Th  Th2  1  0.498381  0.501619  0.252267  1
  Th  Th3  1  0.498381  0.996763  0.252267  1
  Th  Th4  1  0.003237  0.501619  0.252267  1
  Th  Th5  1  0.498529  0.501471  0.748176  1
  Th  Th6  1  0.498529  0.997056  0.748176  1
  Th  Th7  1  0.002944  0.501471  0.748176  1
  Si  Si8  1  0.166153  0.833847  0.501770  1
  Si  Si9  1  0.166153  0.332307  0.501770  1
  Si  Si10  1  0.667693  0.833847  0.501770  1
  Si  Si11  1  0.833808  0.166192  0.499556  1
  Si  Si12  1  0.833808  0.667616  0.499556  1
  Si  Si13  1  0.332384  0.166192  0.499556  1
  Si  Si14  1  0.833483  0.166517  0.999223  1
  Si  Si15  1  0.833483  0.666966  0.999223  1
  Si  Si16  1  0.333034  0.166517  0.999223  1
  Si  Si17  1  0.166180  0.833820  0.000102  1
  Si  Si18  1  0.166180  0.332362  0.000102  1
  Si  Si19  1  0.667638  0.833820  0.000102  1
  Ru  Ru20  1  0.333333  0.666667  0.494809  1
  Rh  Rh21  1  0.666667  0.333333  0.500310  1
  Rh  Rh22  1  0.666667  0.333333  0.000930  1
  Rh  Rh23  1  0.333333  0.666667  0.000810  1
