# generated using pymatgen
data_Y5Fe5Co7P12Ru7
_symmetry_space_group_name_H-M   'P 1'
_cell_length_a   12.20469144
_cell_length_b   12.19172162
_cell_length_c   3.76919800
_cell_angle_alpha   90.00000000
_cell_angle_beta   90.00000000
_cell_angle_gamma   119.79190626
_symmetry_Int_Tables_number   1
_chemical_formula_structural   Y5Fe5Co7P12Ru7
_chemical_formula_sum   'Y5 Fe5 Co7 P12 Ru7'
_cell_volume   486.71897685
_cell_formula_units_Z   1
loop_
 _symmetry_equiv_pos_site_id
 _symmetry_equiv_pos_as_xyz
  1  'x, y, z'
loop_
 _atom_site_type_symbol
 _atom_site_label
 _atom_site_symmetry_multiplicity
 _atom_site_fract_x
 _atom_site_fract_y
 _atom_site_fract_z
 _atom_site_occupancy
  Y  Y0  1  0.334136  0.667609  0.500000  1
  Y  Y1  1  0.665392  0.335784  0.500000  1
  Y  Y2  1  0.004839  0.184323  0.000000  1
  Y  Y3  1  0.815063  0.814923  0.000000  1
  Y  Y4  1  0.182501  0.998412  0.000000  1
  Fe  Fe5  1  0.626409  0.826872  0.500000  1
  Fe  Fe6  1  0.170600  0.798477  0.500000  1
  Fe  Fe7  1  0.203813  0.374027  0.500000  1
  Fe  Fe8  1  0.376524  0.193980  0.500000  1
  Fe  Fe9  1  0.817636  0.623542  0.500000  1
  Co  Co10  1  0.487262  0.129734  0.000000  1
  Co  Co11  1  0.641406  0.511146  0.000000  1
  Co  Co12  1  0.869958  0.363011  0.000000  1
  Co  Co13  1  0.994689  0.715661  0.000000  1
  Co  Co14  1  0.285035  0.279750  0.000000  1
  Co  Co15  1  0.718479  0.001596  0.000000  1
  Co  Co16  1  0.000739  0.999791  0.500000  1
  P  P17  1  0.006318  0.368514  0.500000  1
  P  P18  1  0.637715  0.635464  0.500000  1
  P  P19  1  0.362593  0.001521  0.500000  1
  P  P20  1  0.527043  0.837437  0.000000  1
  P  P21  1  0.161634  0.690768  0.000000  1
  P  P22  1  0.311376  0.472388  0.000000  1
  P  P23  1  0.476932  0.308732  0.000000  1
  P  P24  1  0.831192  0.523706  0.000000  1
  P  P25  1  0.685662  0.167072  0.000000  1
  P  P26  1  0.996511  0.816081  0.500000  1
  P  P27  1  0.184270  0.180413  0.500000  1
  P  P28  1  0.818592  0.996872  0.500000  1
  Ru  Ru29  1  0.808074  0.184933  0.500000  1
  Ru  Ru30  1  0.990592  0.551365  0.500000  1
  Ru  Ru31  1  0.451165  0.439283  0.500000  1
  Ru  Ru32  1  0.556036  0.006024  0.500000  1
  Ru  Ru33  1  0.518752  0.640305  0.000000  1
  Ru  Ru34  1  0.357588  0.877705  0.000000  1
  Ru  Ru35  1  0.123475  0.482777  0.000000  1
