# generated using pymatgen
data_Sc2Nb3(ReTc)12
_symmetry_space_group_name_H-M   'P 1'
_cell_length_a   8.37452108
_cell_length_b   8.37528374
_cell_length_c   8.37528300
_cell_angle_alpha   109.47306189
_cell_angle_beta   109.46937725
_cell_angle_gamma   109.46938313
_symmetry_Int_Tables_number   1
_chemical_formula_structural   Sc2Nb3(ReTc)12
_chemical_formula_sum   'Sc2 Nb3 Re12 Tc12'
_cell_volume   452.21708729
_cell_formula_units_Z   1
loop_
 _symmetry_equiv_pos_site_id
 _symmetry_equiv_pos_as_xyz
  1  'x, y, z'
loop_
 _atom_site_type_symbol
 _atom_site_label
 _atom_site_symmetry_multiplicity
 _atom_site_fract_x
 _atom_site_fract_y
 _atom_site_fract_z
 _atom_site_occupancy
  Sc  Sc0  1  0.997743  0.000000  0.000000  1
  Sc  Sc1  1  0.628361  0.000000  0.000000  1
  Nb  Nb2  1  0.000242  0.629996  0.000000  1
  Nb  Nb3  1  0.000242  0.000000  0.629996  1
  Nb  Nb4  1  0.370245  0.370004  0.370004  1
  Re  Re5  1  0.376418  0.194586  0.000000  1
  Re  Re6  1  0.181832  0.805414  0.805414  1
  Re  Re7  1  0.376418  0.000000  0.194586  1
  Re  Re8  1  0.197254  0.376660  0.000000  1
  Re  Re9  1  0.000595  0.376288  0.193523  1
  Re  Re10  1  0.807071  0.182765  0.806477  1
  Re  Re11  1  0.807071  0.806477  0.182765  1
  Re  Re12  1  0.000595  0.193523  0.376288  1
  Re  Re13  1  0.197254  0.000000  0.376660  1
  Re  Re14  1  0.624307  0.623712  0.817235  1
  Re  Re15  1  0.820592  0.623340  0.623340  1
  Re  Re16  1  0.624307  0.817235  0.623712  1
  Tc  Tc17  1  0.397232  0.676506  0.000000  1
  Tc  Tc18  1  0.720727  0.323494  0.323494  1
  Tc  Tc19  1  0.397232  0.000000  0.676506  1
  Tc  Tc20  1  0.680354  0.398578  0.000000  1
  Tc  Tc21  1  0.998663  0.399761  0.680339  1
  Tc  Tc22  1  0.318324  0.719421  0.319661  1
  Tc  Tc23  1  0.318324  0.319661  0.719421  1
  Tc  Tc24  1  0.998663  0.680339  0.399761  1
  Tc  Tc25  1  0.680354  0.000000  0.398578  1
  Tc  Tc26  1  0.598903  0.600239  0.280579  1
  Tc  Tc27  1  0.281775  0.601422  0.601422  1
  Tc  Tc28  1  0.598903  0.280579  0.600239  1
