# generated using pymatgen
data_TbYbCo2(BN)2
_symmetry_space_group_name_H-M   'P 1'
_cell_length_a   3.50151400
_cell_length_b   3.50151400
_cell_length_c   7.45688300
_cell_angle_alpha   90.00000000
_cell_angle_beta   90.00000000
_cell_angle_gamma   90.00000000
_symmetry_Int_Tables_number   1
_chemical_formula_structural   TbYbCo2(BN)2
_chemical_formula_sum   'Tb1 Yb1 Co2 B2 N2'
_cell_volume   91.42586189
_cell_formula_units_Z   1
loop_
 _symmetry_equiv_pos_site_id
 _symmetry_equiv_pos_as_xyz
  1  'x, y, z'
loop_
 _atom_site_type_symbol
 _atom_site_label
 _atom_site_symmetry_multiplicity
 _atom_site_fract_x
 _atom_site_fract_y
 _atom_site_fract_z
 _atom_site_occupancy
  Tb  Tb0  1  0.000000  0.500001  0.835705  1
  Yb  Yb1  1  0.500001  0.000000  0.168356  1
  Co  Co2  1  0.000000  0.000000  0.500026  1
  Co  Co3  1  0.500001  0.500001  0.500026  1
  B  B4  1  0.000000  0.500001  0.342983  1
  B  B5  1  0.500001  0.000000  0.651480  1
  N  N6  1  0.000000  0.500001  0.152540  1
  N  N7  1  0.500001  0.000000  0.848884  1
