# generated using pymatgen
data_Ta6Ga4CoIrC2
_symmetry_space_group_name_H-M   'P 1'
_cell_length_a   8.27546790
_cell_length_b   8.26264793
_cell_length_c   8.27546800
_cell_angle_alpha   60.05123166
_cell_angle_beta   60.08848493
_cell_angle_gamma   60.05123007
_symmetry_Int_Tables_number   1
_chemical_formula_structural   Ta6Ga4CoIrC2
_chemical_formula_sum   'Ta12 Ga8 Co2 Ir2 C4'
_cell_volume   400.69624073
_cell_formula_units_Z   2
loop_
 _symmetry_equiv_pos_site_id
 _symmetry_equiv_pos_as_xyz
  1  'x, y, z'
loop_
 _atom_site_type_symbol
 _atom_site_label
 _atom_site_symmetry_multiplicity
 _atom_site_fract_x
 _atom_site_fract_y
 _atom_site_fract_z
 _atom_site_occupancy
  Ta  Ta0  1  0.561861  0.938139  0.561861  1
  Ta  Ta1  1  0.311972  0.686764  0.688529  1
  Ta  Ta2  1  0.688529  0.312733  0.311972  1
  Ta  Ta3  1  0.312905  0.687095  0.312905  1
  Ta  Ta4  1  0.688529  0.686764  0.311972  1
  Ta  Ta5  1  0.311972  0.312733  0.688529  1
  Ta  Ta6  1  0.561471  0.563236  0.938028  1
  Ta  Ta7  1  0.938028  0.563236  0.561471  1
  Ta  Ta8  1  0.561471  0.937267  0.938028  1
  Ta  Ta9  1  0.938028  0.937267  0.561471  1
  Ta  Ta10  1  0.688139  0.311861  0.688139  1
  Ta  Ta11  1  0.937095  0.562905  0.937095  1
  Ga  Ga12  1  0.911177  0.925097  0.911177  1
  Ga  Ga13  1  0.996266  0.329416  0.344900  1
  Ga  Ga14  1  0.338823  0.997450  0.338823  1
  Ga  Ga15  1  0.344900  0.329416  0.996266  1
  Ga  Ga16  1  0.911177  0.252550  0.911177  1
  Ga  Ga17  1  0.905100  0.920584  0.253734  1
  Ga  Ga18  1  0.253734  0.920584  0.905100  1
  Ga  Ga19  1  0.338823  0.324903  0.338823  1
  Co  Co20  1  0.625000  0.125000  0.125000  1
  Co  Co21  1  0.125000  0.125000  0.625000  1
  Ir  Ir22  1  0.125000  0.125000  0.125000  1
  Ir  Ir23  1  0.125000  0.625000  0.125000  1
  C  C24  1  0.625000  0.625000  0.625000  1
  C  C25  1  0.125000  0.625000  0.625000  1
  C  C26  1  0.625000  0.125000  0.625000  1
  C  C27  1  0.625000  0.625000  0.125000  1
