# generated using pymatgen
data_Sm3Lu3(BiO7)2
_symmetry_space_group_name_H-M   'P 1'
_cell_length_a   6.56181148
_cell_length_b   6.55486356
_cell_length_c   7.68801556
_cell_angle_alpha   106.96617680
_cell_angle_beta   89.84048686
_cell_angle_gamma   99.21662640
_symmetry_Int_Tables_number   1
_chemical_formula_structural   Sm3Lu3(BiO7)2
_chemical_formula_sum   'Sm3 Lu3 Bi2 O14'
_cell_volume   311.86152588
_cell_formula_units_Z   1
loop_
 _symmetry_equiv_pos_site_id
 _symmetry_equiv_pos_as_xyz
  1  'x, y, z'
loop_
 _atom_site_type_symbol
 _atom_site_label
 _atom_site_symmetry_multiplicity
 _atom_site_fract_x
 _atom_site_fract_y
 _atom_site_fract_z
 _atom_site_occupancy
  Sm  Sm0  1  0.726876  0.459888  0.114003  1
  Sm  Sm1  1  0.735184  0.478501  0.619075  1
  Sm  Sm2  1  0.262118  0.523029  0.384730  1
  Lu  Lu3  1  0.464362  0.006053  0.251726  1
  Lu  Lu4  1  0.533007  0.991959  0.747668  1
  Lu  Lu5  1  0.274257  0.540088  0.884177  1
  Bi  Bi6  1  0.001710  0.003171  0.502538  1
  Bi  Bi7  1  0.003919  0.000210  0.998031  1
  O  O8  1  0.442982  0.657626  0.161018  1
  O  O9  1  0.537476  0.339931  0.831238  1
  O  O10  1  0.307059  0.925837  0.952064  1
  O  O11  1  0.698198  0.068578  0.050161  1
  O  O12  1  0.304070  0.931958  0.515150  1
  O  O13  1  0.698931  0.067543  0.482560  1
  O  O14  1  0.541646  0.355763  0.342901  1
  O  O15  1  0.452180  0.644109  0.665228  1
  O  O16  1  0.935320  0.661845  0.948856  1
  O  O17  1  0.080200  0.335284  0.036730  1
  O  O18  1  0.074517  0.349854  0.627177  1
  O  O19  1  0.929821  0.653797  0.383796  1
  O  O20  1  0.865206  0.909683  0.726611  1
  O  O21  1  0.130961  0.095294  0.274562  1
