# generated using pymatgen
data_Ca3Lu3(Si3Os)8
_symmetry_space_group_name_H-M   'P 1'
_cell_length_a   10.15787011
_cell_length_b   10.15787085
_cell_length_c   8.15048108
_cell_angle_alpha   90.01101954
_cell_angle_beta   90.01102254
_cell_angle_gamma   132.67459347
_symmetry_Int_Tables_number   1
_chemical_formula_structural   Ca3Lu3(Si3Os)8
_chemical_formula_sum   'Ca3 Lu3 Si24 Os8'
_cell_volume   618.30539395
_cell_formula_units_Z   1
loop_
 _symmetry_equiv_pos_site_id
 _symmetry_equiv_pos_as_xyz
  1  'x, y, z'
loop_
 _atom_site_type_symbol
 _atom_site_label
 _atom_site_symmetry_multiplicity
 _atom_site_fract_x
 _atom_site_fract_y
 _atom_site_fract_z
 _atom_site_occupancy
  Ca  Ca0  1  0.499448  0.999655  0.750233  1
  Ca  Ca1  1  0.000345  0.500552  0.249767  1
  Ca  Ca2  1  0.999902  0.000098  0.000000  1
  Lu  Lu3  1  0.499812  0.999795  0.249817  1
  Lu  Lu4  1  0.000205  0.500188  0.750183  1
  Lu  Lu5  1  0.499983  0.500017  0.500000  1
  Si  Si6  1  0.795153  0.204847  0.500000  1
  Si  Si7  1  0.704432  0.295568  0.000000  1
  Si  Si8  1  0.205419  0.794581  0.500000  1
  Si  Si9  1  0.294950  0.705050  0.000000  1
  Si  Si10  1  0.664166  0.671775  0.166622  1
  Si  Si11  1  0.170033  0.161781  0.331176  1
  Si  Si12  1  0.838219  0.829967  0.668824  1
  Si  Si13  1  0.328225  0.335834  0.833378  1
  Si  Si14  1  0.846711  0.613716  0.992060  1
  Si  Si15  1  0.111607  0.345307  0.507104  1
  Si  Si16  1  0.654693  0.888393  0.492896  1
  Si  Si17  1  0.386284  0.153289  0.007940  1
  Si  Si18  1  0.153583  0.387424  0.005390  1
  Si  Si19  1  0.889316  0.655110  0.496156  1
  Si  Si20  1  0.122191  0.888596  0.729357  1
  Si  Si21  1  0.388763  0.622628  0.771816  1
  Si  Si22  1  0.377372  0.611237  0.228184  1
  Si  Si23  1  0.111404  0.877809  0.270643  1
  Si  Si24  1  0.875741  0.109134  0.270465  1
  Si  Si25  1  0.609189  0.375243  0.228452  1
  Si  Si26  1  0.624757  0.390811  0.771548  1
  Si  Si27  1  0.890866  0.124259  0.729535  1
  Si  Si28  1  0.612576  0.846417  0.994610  1
  Si  Si29  1  0.344890  0.110684  0.503844  1
  Os  Os30  1  0.625766  0.624434  0.871166  1
  Os  Os31  1  0.128693  0.130376  0.624439  1
  Os  Os32  1  0.375566  0.374234  0.128834  1
  Os  Os33  1  0.869624  0.871307  0.375561  1
  Os  Os34  1  0.170245  0.829755  0.000000  1
  Os  Os35  1  0.331342  0.668658  0.500000  1
  Os  Os36  1  0.828760  0.171240  0.000000  1
  Os  Os37  1  0.669774  0.330226  0.500000  1
