# generated using pymatgen
data_Tb6Pr2MgHgIr2
_symmetry_space_group_name_H-M   'P 1'
_cell_length_a   9.76543777
_cell_length_b   9.76869688
_cell_length_c   9.78167053
_cell_angle_alpha   59.93474890
_cell_angle_beta   59.96691205
_cell_angle_gamma   60.25645681
_symmetry_Int_Tables_number   1
_chemical_formula_structural   Tb6Pr2MgHgIr2
_chemical_formula_sum   'Tb12 Pr4 Mg2 Hg2 Ir4'
_cell_volume   660.59694636
_cell_formula_units_Z   2
loop_
 _symmetry_equiv_pos_site_id
 _symmetry_equiv_pos_as_xyz
  1  'x, y, z'
loop_
 _atom_site_type_symbol
 _atom_site_label
 _atom_site_symmetry_multiplicity
 _atom_site_fract_x
 _atom_site_fract_y
 _atom_site_fract_z
 _atom_site_occupancy
  Tb  Tb0  1  0.347660  0.347507  0.343980  1
  Tb  Tb1  1  0.347507  0.347659  0.960857  1
  Tb  Tb2  1  0.348408  0.954593  0.350815  1
  Tb  Tb3  1  0.954597  0.348406  0.346183  1
  Tb  Tb4  1  0.813316  0.184258  0.187751  1
  Tb  Tb5  1  0.184257  0.813313  0.814676  1
  Tb  Tb6  1  0.186327  0.810461  0.190280  1
  Tb  Tb7  1  0.810461  0.186327  0.812932  1
  Tb  Tb8  1  0.187595  0.187596  0.812406  1
  Tb  Tb9  1  0.807265  0.807262  0.192737  1
  Tb  Tb10  1  0.942072  0.552816  0.556648  1
  Tb  Tb11  1  0.552814  0.942073  0.948463  1
  Pr  Pr12  1  0.560571  0.939596  0.562825  1
  Pr  Pr13  1  0.939595  0.560570  0.937008  1
  Pr  Pr14  1  0.561834  0.561841  0.938160  1
  Pr  Pr15  1  0.937722  0.937723  0.562276  1
  Mg  Mg16  1  0.579643  0.274227  0.573709  1
  Mg  Mg17  1  0.274226  0.579644  0.572421  1
  Hg  Hg18  1  0.584718  0.579471  0.584733  1
  Hg  Hg19  1  0.579470  0.584720  0.251076  1
  Ir  Ir20  1  0.146499  0.138924  0.139218  1
  Ir  Ir21  1  0.138926  0.146495  0.575361  1
  Ir  Ir22  1  0.138580  0.575938  0.144966  1
  Ir  Ir23  1  0.575938  0.138580  0.140520  1
