# generated using pymatgen
data_HfNb2IrS10
_symmetry_space_group_name_H-M   'P 1'
_cell_length_a   3.48486100
_cell_length_b   9.39965264
_cell_length_c   9.94747993
_cell_angle_alpha   68.28054741
_cell_angle_beta   90.00000000
_cell_angle_gamma   90.00000000
_symmetry_Int_Tables_number   1
_chemical_formula_structural   HfNb2IrS10
_chemical_formula_sum   'Hf1 Nb2 Ir1 S10'
_cell_volume   302.71177559
_cell_formula_units_Z   1
loop_
 _symmetry_equiv_pos_site_id
 _symmetry_equiv_pos_as_xyz
  1  'x, y, z'
loop_
 _atom_site_type_symbol
 _atom_site_label
 _atom_site_symmetry_multiplicity
 _atom_site_fract_x
 _atom_site_fract_y
 _atom_site_fract_z
 _atom_site_occupancy
  Hf  Hf0  1  0.000000  0.288938  0.631298  1
  Nb  Nb1  1  0.500000  0.705665  0.364777  1
  Nb  Nb2  1  0.500000  0.453632  0.911655  1
  Ir  Ir3  1  0.000000  0.547738  0.106685  1
  S  S4  1  0.500000  0.076093  0.738571  1
  S  S5  1  0.000000  0.920309  0.256608  1
  S  S6  1  0.500000  0.494757  0.626880  1
  S  S7  1  0.000000  0.512354  0.358985  1
  S  S8  1  0.500000  0.172174  0.511145  1
  S  S9  1  0.000000  0.829800  0.476719  1
  S  S10  1  0.000000  0.262771  0.905245  1
  S  S11  1  0.500000  0.725432  0.097485  1
  S  S12  1  0.000000  0.655320  0.848325  1
  S  S13  1  0.500000  0.355019  0.165626  1
