# generated using pymatgen
data_PrNd2Lu(ZnSn)4
_symmetry_space_group_name_H-M   'P 1'
_cell_length_a   4.56476700
_cell_length_b   4.56476759
_cell_length_c   16.21449400
_cell_angle_alpha   90.00000000
_cell_angle_beta   90.00000000
_cell_angle_gamma   120.00001746
_symmetry_Int_Tables_number   1
_chemical_formula_structural   PrNd2Lu(ZnSn)4
_chemical_formula_sum   'Pr1 Nd2 Lu1 Zn4 Sn4'
_cell_volume   292.59792448
_cell_formula_units_Z   1
loop_
 _symmetry_equiv_pos_site_id
 _symmetry_equiv_pos_as_xyz
  1  'x, y, z'
loop_
 _atom_site_type_symbol
 _atom_site_label
 _atom_site_symmetry_multiplicity
 _atom_site_fract_x
 _atom_site_fract_y
 _atom_site_fract_z
 _atom_site_occupancy
  Pr  Pr0  1  0.000000  0.000000  0.506450  1
  Nd  Nd1  1  0.000000  0.000000  0.249947  1
  Nd  Nd2  1  0.000000  0.000000  0.993538  1
  Lu  Lu3  1  0.000000  0.000000  0.750050  1
  Zn  Zn4  1  0.333333  0.666667  0.153836  1
  Zn  Zn5  1  0.666667  0.333333  0.833210  1
  Zn  Zn6  1  0.666667  0.333333  0.666809  1
  Zn  Zn7  1  0.333333  0.666667  0.346151  1
  Sn  Sn8  1  0.333333  0.666667  0.622610  1
  Sn  Sn9  1  0.666667  0.333333  0.386454  1
  Sn  Sn10  1  0.666667  0.333333  0.113383  1
  Sn  Sn11  1  0.333333  0.666667  0.877564  1
