# generated using pymatgen
data_Tm12InCoNi3Os
_symmetry_space_group_name_H-M   'P 1'
_cell_length_a   8.17752270
_cell_length_b   8.17752284
_cell_length_c   8.17752298
_cell_angle_alpha   111.19278484
_cell_angle_beta   110.24350632
_cell_angle_gamma   107.00660602
_symmetry_Int_Tables_number   1
_chemical_formula_structural   Tm12InCoNi3Os
_chemical_formula_sum   'Tm12 In1 Co1 Ni3 Os1'
_cell_volume   420.35128816
_cell_formula_units_Z   1
loop_
 _symmetry_equiv_pos_site_id
 _symmetry_equiv_pos_as_xyz
  1  'x, y, z'
loop_
 _atom_site_type_symbol
 _atom_site_label
 _atom_site_symmetry_multiplicity
 _atom_site_fract_x
 _atom_site_fract_y
 _atom_site_fract_z
 _atom_site_occupancy
  Tm  Tm0  1  0.414733  0.222490  0.192242  1
  Tm  Tm1  1  0.584271  0.775822  0.808451  1
  Tm  Tm2  1  0.030247  0.222490  0.807758  1
  Tm  Tm3  1  0.967371  0.775822  0.191549  1
  Tm  Tm4  1  0.178345  0.278879  0.460301  1
  Tm  Tm5  1  0.818577  0.718042  0.539699  1
  Tm  Tm6  1  0.178345  0.718042  0.899466  1
  Tm  Tm7  1  0.818577  0.278879  0.100534  1
  Tm  Tm8  1  0.321686  0.624781  0.303095  1
  Tm  Tm9  1  0.682942  0.375987  0.693045  1
  Tm  Tm10  1  0.321686  0.018590  0.696905  1
  Tm  Tm11  1  0.682942  0.989899  0.306955  1
  In  In12  1  0.499717  0.499717  0.000000  1
  Co  Co13  1  0.886523  0.386523  0.500000  1
  Ni  Ni14  1  0.358948  0.997883  0.361065  1
  Ni  Ni15  1  0.636818  0.997883  0.638935  1
  Ni  Ni16  1  0.119631  0.619631  0.500000  1
  Os  Os17  1  0.998641  0.998641  0.000000  1
