# generated using pymatgen
data_HoNi3PtAu
_symmetry_space_group_name_H-M   'P 1'
_cell_length_a   4.98067108
_cell_length_b   4.98067010
_cell_length_c   5.10441305
_cell_angle_alpha   60.79873861
_cell_angle_beta   60.79874707
_cell_angle_gamma   59.99999826
_symmetry_Int_Tables_number   1
_chemical_formula_structural   HoNi3PtAu
_chemical_formula_sum   'Ho1 Ni3 Pt1 Au1'
_cell_volume   90.60361144
_cell_formula_units_Z   1
loop_
 _symmetry_equiv_pos_site_id
 _symmetry_equiv_pos_as_xyz
  1  'x, y, z'
loop_
 _atom_site_type_symbol
 _atom_site_label
 _atom_site_symmetry_multiplicity
 _atom_site_fract_x
 _atom_site_fract_y
 _atom_site_fract_z
 _atom_site_occupancy
  Ho  Ho0  1  0.000077  0.000077  0.999769  1
  Ni  Ni1  1  0.626017  0.128981  0.618985  1
  Ni  Ni2  1  0.128981  0.626017  0.618985  1
  Ni  Ni3  1  0.626017  0.626017  0.618985  1
  Pt  Pt4  1  0.626996  0.626996  0.119012  1
  Au  Au5  1  0.241913  0.241913  0.274262  1
