# generated using pymatgen
data_BaCa2Lu(ReN3)4
_symmetry_space_group_name_H-M   'P 1'
_cell_length_a   7.42058637
_cell_length_b   7.42058599
_cell_length_c   6.21863234
_cell_angle_alpha   76.83800436
_cell_angle_beta   76.83799901
_cell_angle_gamma   86.58490128
_symmetry_Int_Tables_number   1
_chemical_formula_structural   BaCa2Lu(ReN3)4
_chemical_formula_sum   'Ba1 Ca2 Lu1 Re4 N12'
_cell_volume   324.66400446
_cell_formula_units_Z   1
loop_
 _symmetry_equiv_pos_site_id
 _symmetry_equiv_pos_as_xyz
  1  'x, y, z'
loop_
 _atom_site_type_symbol
 _atom_site_label
 _atom_site_symmetry_multiplicity
 _atom_site_fract_x
 _atom_site_fract_y
 _atom_site_fract_z
 _atom_site_occupancy
  Ba  Ba0  1  0.308828  0.691172  0.750000  1
  Ca  Ca1  1  0.082647  0.917353  0.250000  1
  Ca  Ca2  1  0.699148  0.300852  0.250000  1
  Lu  Lu3  1  0.903336  0.096664  0.750000  1
  Re  Re4  1  0.630697  0.800491  0.233233  1
  Re  Re5  1  0.199509  0.369303  0.266767  1
  Re  Re6  1  0.376104  0.199654  0.754560  1
  Re  Re7  1  0.800346  0.623896  0.745440  1
  N  N8  1  0.346797  0.328221  0.991017  1
  N  N9  1  0.000204  0.218251  0.368390  1
  N  N10  1  0.781749  0.999796  0.131610  1
  N  N11  1  0.197955  0.028530  0.841669  1
  N  N12  1  0.647322  0.641532  0.026399  1
  N  N13  1  0.892677  0.393741  0.802320  1
  N  N14  1  0.124883  0.600179  0.204425  1
  N  N15  1  0.971470  0.802045  0.658331  1
  N  N16  1  0.399821  0.875117  0.295575  1
  N  N17  1  0.671779  0.653203  0.508983  1
  N  N18  1  0.606259  0.107323  0.697680  1
  N  N19  1  0.358468  0.352678  0.473601  1
