# generated using pymatgen
data_GdHO
_symmetry_space_group_name_H-M   'P 1'
_cell_length_a   3.81268469
_cell_length_b   3.81268361
_cell_length_c   3.81268400
_cell_angle_alpha   59.99999664
_cell_angle_beta   60.00000601
_cell_angle_gamma   59.99999965
_symmetry_Int_Tables_number   1
_chemical_formula_structural   GdHO
_chemical_formula_sum   'Gd1 H1 O1'
_cell_volume   39.19020003
_cell_formula_units_Z   1
loop_
 _symmetry_equiv_pos_site_id
 _symmetry_equiv_pos_as_xyz
  1  'x, y, z'
loop_
 _atom_site_type_symbol
 _atom_site_label
 _atom_site_symmetry_multiplicity
 _atom_site_fract_x
 _atom_site_fract_y
 _atom_site_fract_z
 _atom_site_occupancy
  Gd  Gd0  1  0.000000  0.000000  0.000000  1
  H  H1  1  0.750000  0.750000  0.750000  1
  O  O2  1  0.250000  0.250000  0.250000  1
