# generated using pymatgen
data_SmEr19(Bi2Sb)4
_symmetry_space_group_name_H-M   'P 1'
_cell_length_a   8.19533879
_cell_length_b   9.36406600
_cell_length_c   11.91130515
_cell_angle_alpha   90.00000000
_cell_angle_beta   90.05036657
_cell_angle_gamma   90.00000000
_symmetry_Int_Tables_number   1
_chemical_formula_structural   SmEr19(Bi2Sb)4
_chemical_formula_sum   'Sm1 Er19 Bi8 Sb4'
_cell_volume   914.09337393
_cell_formula_units_Z   1
loop_
 _symmetry_equiv_pos_site_id
 _symmetry_equiv_pos_as_xyz
  1  'x, y, z'
loop_
 _atom_site_type_symbol
 _atom_site_label
 _atom_site_symmetry_multiplicity
 _atom_site_fract_x
 _atom_site_fract_y
 _atom_site_fract_z
 _atom_site_occupancy
  Sm  Sm0  1  0.174443  0.750000  0.225751  1
  Er  Er1  1  0.814761  0.563123  0.063360  1
  Er  Er2  1  0.686395  0.937648  0.563613  1
  Er  Er3  1  0.187070  0.062526  0.936775  1
  Er  Er4  1  0.313003  0.437189  0.436915  1
  Er  Er5  1  0.187070  0.437474  0.936775  1
  Er  Er6  1  0.313003  0.062811  0.436915  1
  Er  Er7  1  0.814761  0.936877  0.063360  1
  Er  Er8  1  0.686395  0.562352  0.563613  1
  Er  Er9  1  0.324861  0.750000  0.726162  1
  Er  Er10  1  0.825229  0.250000  0.773951  1
  Er  Er11  1  0.674256  0.250000  0.274957  1
  Er  Er12  1  0.475397  0.750000  0.004221  1
  Er  Er13  1  0.024402  0.750000  0.505073  1
  Er  Er14  1  0.525780  0.250000  0.994724  1
  Er  Er15  1  0.974524  0.250000  0.496188  1
  Er  Er16  1  0.656741  0.750000  0.291602  1
  Er  Er17  1  0.843162  0.750000  0.790596  1
  Er  Er18  1  0.344166  0.250000  0.708727  1
  Er  Er19  1  0.155716  0.250000  0.208862  1
  Bi  Bi20  1  0.933072  0.507221  0.326196  1
  Bi  Bi21  1  0.563615  0.990695  0.824346  1
  Bi  Bi22  1  0.063673  0.009454  0.675367  1
  Bi  Bi23  1  0.438831  0.489414  0.174816  1
  Bi  Bi24  1  0.063673  0.490546  0.675367  1
  Bi  Bi25  1  0.438831  0.010586  0.174816  1
  Bi  Bi26  1  0.933072  0.992779  0.326196  1
  Bi  Bi27  1  0.563615  0.509305  0.824346  1
  Sb  Sb28  1  0.399889  0.750000  0.473508  1
  Sb  Sb29  1  0.100883  0.750000  0.968750  1
  Sb  Sb30  1  0.600047  0.250000  0.527399  1
  Sb  Sb31  1  0.899665  0.250000  0.026754  1
