# generated using pymatgen
data_Dy16In6IrPt
_symmetry_space_group_name_H-M   'P 1'
_cell_length_a   10.47915600
_cell_length_b   10.47914964
_cell_length_c   7.02072800
_cell_angle_alpha   90.00000000
_cell_angle_beta   90.00000000
_cell_angle_gamma   119.99997589
_symmetry_Int_Tables_number   1
_chemical_formula_structural   Dy16In6IrPt
_chemical_formula_sum   'Dy16 In6 Ir1 Pt1'
_cell_volume   667.67518042
_cell_formula_units_Z   1
loop_
 _symmetry_equiv_pos_site_id
 _symmetry_equiv_pos_as_xyz
  1  'x, y, z'
loop_
 _atom_site_type_symbol
 _atom_site_label
 _atom_site_symmetry_multiplicity
 _atom_site_fract_x
 _atom_site_fract_y
 _atom_site_fract_z
 _atom_site_occupancy
  Dy  Dy0  1  0.532547  0.065095  0.513561  1
  Dy  Dy1  1  0.934905  0.467452  0.513561  1
  Dy  Dy2  1  0.532548  0.467453  0.513561  1
  Dy  Dy3  1  0.469161  0.938321  0.015566  1
  Dy  Dy4  1  0.061679  0.530840  0.015566  1
  Dy  Dy5  1  0.469160  0.530839  0.015566  1
  Dy  Dy6  1  0.175077  0.350153  0.722802  1
  Dy  Dy7  1  0.649847  0.824923  0.722802  1
  Dy  Dy8  1  0.175077  0.824923  0.722802  1
  Dy  Dy9  1  0.823733  0.647466  0.223222  1
  Dy  Dy10  1  0.352534  0.176267  0.223222  1
  Dy  Dy11  1  0.823733  0.176267  0.223222  1
  Dy  Dy12  1  0.666667  0.333333  0.893405  1
  Dy  Dy13  1  0.333333  0.666667  0.390724  1
  Dy  Dy14  1  0.000000  0.000000  0.498856  1
  Dy  Dy15  1  0.000000  0.000000  0.997583  1
  In  In16  1  0.837169  0.674339  0.759760  1
  In  In17  1  0.325660  0.162830  0.759760  1
  In  In18  1  0.837169  0.162830  0.759760  1
  In  In19  1  0.163023  0.326045  0.259622  1
  In  In20  1  0.673956  0.836978  0.259622  1
  In  In21  1  0.163023  0.836978  0.259622  1
  Ir  Ir22  1  0.666667  0.333333  0.290913  1
  Pt  Pt23  1  0.333333  0.666667  0.789117  1
