# generated using pymatgen
data_ErHf5Zr3(In2Co)7
_symmetry_space_group_name_H-M   'P 1'
_cell_length_a   9.45176925
_cell_length_b   9.43979583
_cell_length_c   9.43674502
_cell_angle_alpha   60.08015765
_cell_angle_beta   60.10211208
_cell_angle_gamma   60.09306520
_symmetry_Int_Tables_number   1
_chemical_formula_structural   ErHf5Zr3(In2Co)7
_chemical_formula_sum   'Er1 Hf5 Zr3 In14 Co7'
_cell_volume   596.60259639
_cell_formula_units_Z   1
loop_
 _symmetry_equiv_pos_site_id
 _symmetry_equiv_pos_as_xyz
  1  'x, y, z'
loop_
 _atom_site_type_symbol
 _atom_site_label
 _atom_site_symmetry_multiplicity
 _atom_site_fract_x
 _atom_site_fract_y
 _atom_site_fract_z
 _atom_site_occupancy
  Er  Er0  1  0.500034  0.499808  0.500216  1
  Hf  Hf1  1  0.119117  0.642630  0.119062  1
  Hf  Hf2  1  0.357176  0.880039  0.881305  1
  Hf  Hf3  1  0.880445  0.880108  0.881468  1
  Hf  Hf4  1  0.642670  0.118346  0.119542  1
  Hf  Hf5  1  0.880529  0.880555  0.357287  1
  Zr  Zr6  1  0.121575  0.120380  0.122009  1
  Zr  Zr7  1  0.878166  0.362833  0.879534  1
  Zr  Zr8  1  0.121357  0.120059  0.636994  1
  In  In9  1  0.500369  0.843917  0.155564  1
  In  In10  1  0.500738  0.843800  0.500473  1
  In  In11  1  0.499908  0.155358  0.499931  1
  In  In12  1  0.499804  0.499923  0.844680  1
  In  In13  1  0.156008  0.499423  0.499337  1
  In  In14  1  0.843861  0.154611  0.500780  1
  In  In15  1  0.155185  0.843927  0.500401  1
  In  In16  1  0.500244  0.155211  0.844310  1
  In  In17  1  0.155736  0.499664  0.844902  1
  In  In18  1  0.499164  0.499365  0.156168  1
  In  In19  1  0.843969  0.500608  0.500339  1
  In  In20  1  0.844285  0.500279  0.155528  1
  In  In21  1  0.252228  0.252357  0.247342  1
  In  In22  1  0.748910  0.753831  0.748838  1
  Co  Co23  1  0.780593  0.780742  0.219012  1
  Co  Co24  1  0.999454  0.997216  0.001751  1
  Co  Co25  1  0.219427  0.780069  0.219249  1
  Co  Co26  1  0.219265  0.779681  0.781321  1
  Co  Co27  1  0.220279  0.218409  0.780940  1
  Co  Co28  1  0.779650  0.218241  0.781489  1
  Co  Co29  1  0.779852  0.218608  0.220228  1
