# generated using pymatgen
data_Nb2ZnB2Ru5
_symmetry_space_group_name_H-M   'P 1'
_cell_length_a   9.32802300
_cell_length_b   9.32802300
_cell_length_c   3.01010200
_cell_angle_alpha   90.00000000
_cell_angle_beta   90.00000000
_cell_angle_gamma   90.00000000
_symmetry_Int_Tables_number   1
_chemical_formula_structural   Nb2ZnB2Ru5
_chemical_formula_sum   'Nb4 Zn2 B4 Ru10'
_cell_volume   261.91503462
_cell_formula_units_Z   2
loop_
 _symmetry_equiv_pos_site_id
 _symmetry_equiv_pos_as_xyz
  1  'x, y, z'
loop_
 _atom_site_type_symbol
 _atom_site_label
 _atom_site_symmetry_multiplicity
 _atom_site_fract_x
 _atom_site_fract_y
 _atom_site_fract_z
 _atom_site_occupancy
  Nb  Nb0  1  0.823767  0.676233  0.000000  1
  Nb  Nb1  1  0.176233  0.323767  0.000000  1
  Nb  Nb2  1  0.323767  0.823767  0.000000  1
  Nb  Nb3  1  0.676233  0.176233  0.000000  1
  Zn  Zn4  1  0.500000  0.500000  0.000000  1
  Zn  Zn5  1  0.000000  0.000000  0.000000  1
  B  B6  1  0.625491  0.874509  0.000000  1
  B  B7  1  0.374509  0.125491  0.000000  1
  B  B8  1  0.125491  0.625491  0.000000  1
  B  B9  1  0.874509  0.374509  0.000000  1
  Ru  Ru10  1  0.570341  0.716019  0.500000  1
  Ru  Ru11  1  0.429659  0.283981  0.500000  1
  Ru  Ru12  1  0.070341  0.783981  0.500000  1
  Ru  Ru13  1  0.929659  0.216019  0.500000  1
  Ru  Ru14  1  0.283981  0.570341  0.500000  1
  Ru  Ru15  1  0.716019  0.429659  0.500000  1
  Ru  Ru16  1  0.216019  0.070341  0.500000  1
  Ru  Ru17  1  0.783981  0.929659  0.500000  1
  Ru  Ru18  1  0.500000  0.000000  0.500000  1
  Ru  Ru19  1  0.000000  0.500000  0.500000  1
