# generated using pymatgen
data_Bi5I3
_symmetry_space_group_name_H-M   'P 1'
_cell_length_a   23.71830608
_cell_length_b   23.71830586
_cell_length_c   8.01834314
_cell_angle_alpha   74.24065427
_cell_angle_beta   74.24065477
_cell_angle_gamma   14.24968171
_symmetry_Int_Tables_number   1
_chemical_formula_structural   Bi5I3
_chemical_formula_sum   'Bi15 I9'
_cell_volume   1067.91899486
_cell_formula_units_Z   3
loop_
 _symmetry_equiv_pos_site_id
 _symmetry_equiv_pos_as_xyz
  1  'x, y, z'
loop_
 _atom_site_type_symbol
 _atom_site_label
 _atom_site_symmetry_multiplicity
 _atom_site_fract_x
 _atom_site_fract_y
 _atom_site_fract_z
 _atom_site_occupancy
  Bi  Bi0  1  0.915046  0.915046  0.216087  1
  Bi  Bi1  1  0.472246  0.472246  0.609622  1
  Bi  Bi2  1  0.596839  0.596839  0.574839  1
  Bi  Bi3  1  0.110566  0.110566  0.010234  1
  Bi  Bi4  1  0.723498  0.723498  0.944693  1
  Bi  Bi5  1  0.258872  0.258872  0.507119  1
  Bi  Bi6  1  0.221907  0.221907  0.969208  1
  Bi  Bi7  1  0.754785  0.754785  0.523033  1
  Bi  Bi8  1  0.883350  0.883350  0.905921  1
  Bi  Bi9  1  0.313897  0.313897  0.172375  1
  Bi  Bi10  1  0.165864  0.165864  0.308894  1
  Bi  Bi11  1  0.684187  0.684187  0.669096  1
  Bi  Bi12  1  0.816120  0.816120  0.166513  1
  Bi  Bi13  1  0.182177  0.182177  0.677200  1
  Bi  Bi14  1  0.662839  0.662839  0.328689  1
  I  I15  1  0.092681  0.092681  0.602009  1
  I  I16  1  0.609769  0.609769  0.989097  1
  I  I17  1  0.862003  0.862003  0.499666  1
  I  I18  1  0.387015  0.387015  0.860143  1
  I  I19  1  0.422534  0.422534  0.224773  1
  I  I20  1  0.968047  0.968047  0.603420  1
  I  I21  1  0.512646  0.512646  0.816157  1
  I  I22  1  0.045766  0.045766  0.126998  1
  I  I23  1  0.305429  0.305429  0.694223  1
