# generated using pymatgen
data_DyLuTiFe9
_symmetry_space_group_name_H-M   'P 1'
_cell_length_a   4.97564645
_cell_length_b   4.97564591
_cell_length_c   8.44438823
_cell_angle_alpha   72.86569958
_cell_angle_beta   72.86570212
_cell_angle_gamma   59.99999510
_symmetry_Int_Tables_number   1
_chemical_formula_structural   DyLuTiFe9
_chemical_formula_sum   'Dy1 Lu1 Ti1 Fe9'
_cell_volume   170.25134804
_cell_formula_units_Z   1
loop_
 _symmetry_equiv_pos_site_id
 _symmetry_equiv_pos_as_xyz
  1  'x, y, z'
loop_
 _atom_site_type_symbol
 _atom_site_label
 _atom_site_symmetry_multiplicity
 _atom_site_fract_x
 _atom_site_fract_y
 _atom_site_fract_z
 _atom_site_occupancy
  Dy  Dy0  1  0.001525  0.001525  0.995424  1
  Lu  Lu1  1  0.856380  0.856380  0.430858  1
  Ti  Ti2  1  0.142445  0.142445  0.572665  1
  Fe  Fe3  1  0.083284  0.585087  0.746542  1
  Fe  Fe4  1  0.585087  0.585087  0.746542  1
  Fe  Fe5  1  0.585087  0.083284  0.746542  1
  Fe  Fe6  1  0.917637  0.414328  0.253706  1
  Fe  Fe7  1  0.414328  0.414328  0.253706  1
  Fe  Fe8  1  0.414328  0.917637  0.253706  1
  Fe  Fe9  1  0.332852  0.332852  0.001445  1
  Fe  Fe10  1  0.667280  0.667280  0.998157  1
  Fe  Fe11  1  0.499764  0.499764  0.500709  1
