# generated using pymatgen
data_Zr3Nb3Sn5
_symmetry_space_group_name_H-M   'P 1'
_cell_length_a   9.65947400
_cell_length_b   9.65947411
_cell_length_c   5.79022300
_cell_angle_alpha   90.00000000
_cell_angle_beta   90.00000000
_cell_angle_gamma   119.99999962
_symmetry_Int_Tables_number   1
_chemical_formula_structural   Zr3Nb3Sn5
_chemical_formula_sum   'Zr6 Nb6 Sn10'
_cell_volume   467.87827947
_cell_formula_units_Z   2
loop_
 _symmetry_equiv_pos_site_id
 _symmetry_equiv_pos_as_xyz
  1  'x, y, z'
loop_
 _atom_site_type_symbol
 _atom_site_label
 _atom_site_symmetry_multiplicity
 _atom_site_fract_x
 _atom_site_fract_y
 _atom_site_fract_z
 _atom_site_occupancy
  Zr  Zr0  1  0.846241  0.692481  0.750000  1
  Zr  Zr1  1  0.153759  0.846241  0.250000  1
  Zr  Zr2  1  0.692481  0.846241  0.250000  1
  Zr  Zr3  1  0.307519  0.153759  0.750000  1
  Zr  Zr4  1  0.846241  0.153759  0.750000  1
  Zr  Zr5  1  0.153759  0.307519  0.250000  1
  Nb  Nb6  1  0.500000  0.000000  0.500000  1
  Nb  Nb7  1  0.500000  0.500000  0.000000  1
  Nb  Nb8  1  0.000000  0.500000  0.000000  1
  Nb  Nb9  1  0.000000  0.500000  0.500000  1
  Nb  Nb10  1  0.500000  0.000000  0.000000  1
  Nb  Nb11  1  0.500000  0.500000  0.500000  1
  Sn  Sn12  1  0.210306  0.420612  0.750000  1
  Sn  Sn13  1  0.789694  0.210306  0.250000  1
  Sn  Sn14  1  0.420612  0.210306  0.250000  1
  Sn  Sn15  1  0.579388  0.789694  0.750000  1
  Sn  Sn16  1  0.210306  0.789694  0.750000  1
  Sn  Sn17  1  0.789694  0.579388  0.250000  1
  Sn  Sn18  1  0.666667  0.333333  0.750000  1
  Sn  Sn19  1  0.333333  0.666667  0.250000  1
  Sn  Sn20  1  0.000000  0.000000  0.500000  1
  Sn  Sn21  1  0.000000  0.000000  0.000000  1
