# generated using pymatgen
data_Y24Tc7Rh
_symmetry_space_group_name_H-M   'P 1'
_cell_length_a   6.33223759
_cell_length_b   9.24643800
_cell_length_c   14.71085700
_cell_angle_alpha   90.00000000
_cell_angle_beta   90.24007838
_cell_angle_gamma   90.00000000
_symmetry_Int_Tables_number   1
_chemical_formula_structural   Y24Tc7Rh
_chemical_formula_sum   'Y24 Tc7 Rh1'
_cell_volume   861.32256428
_cell_formula_units_Z   1
loop_
 _symmetry_equiv_pos_site_id
 _symmetry_equiv_pos_as_xyz
  1  'x, y, z'
loop_
 _atom_site_type_symbol
 _atom_site_label
 _atom_site_symmetry_multiplicity
 _atom_site_fract_x
 _atom_site_fract_y
 _atom_site_fract_z
 _atom_site_occupancy
  Y  Y0  1  0.539084  0.750000  0.356112  1
  Y  Y1  1  0.034751  0.250000  0.145770  1
  Y  Y2  1  0.465968  0.250000  0.645299  1
  Y  Y3  1  0.963430  0.750000  0.854275  1
  Y  Y4  1  0.777874  0.750000  0.105372  1
  Y  Y5  1  0.277721  0.250000  0.393498  1
  Y  Y6  1  0.220657  0.250000  0.891841  1
  Y  Y7  1  0.721832  0.750000  0.607146  1
  Y  Y8  1  0.434264  0.936577  0.786838  1
  Y  Y9  1  0.925707  0.068114  0.712747  1
  Y  Y10  1  0.565161  0.434966  0.211198  1
  Y  Y11  1  0.065286  0.565619  0.287301  1
  Y  Y12  1  0.565161  0.065034  0.211198  1
  Y  Y13  1  0.065286  0.934381  0.287301  1
  Y  Y14  1  0.434264  0.563423  0.786838  1
  Y  Y15  1  0.925707  0.431886  0.712747  1
  Y  Y16  1  0.242419  0.938675  0.536283  1
  Y  Y17  1  0.740207  0.063596  0.964597  1
  Y  Y18  1  0.761254  0.435964  0.465166  1
  Y  Y19  1  0.258917  0.564224  0.034818  1
  Y  Y20  1  0.761254  0.064036  0.465166  1
  Y  Y21  1  0.258917  0.935776  0.034818  1
  Y  Y22  1  0.242419  0.561325  0.536283  1
  Y  Y23  1  0.740207  0.436404  0.964597  1
  Tc  Tc24  1  0.937883  0.750000  0.441940  1
  Tc  Tc25  1  0.430265  0.250000  0.060251  1
  Tc  Tc26  1  0.069445  0.250000  0.564091  1
  Tc  Tc27  1  0.568222  0.750000  0.935783  1
  Tc  Tc28  1  0.361085  0.750000  0.183585  1
  Tc  Tc29  1  0.859294  0.250000  0.317260  1
  Tc  Tc30  1  0.642872  0.250000  0.816831  1
  Rh  Rh31  1  0.143189  0.750000  0.683047  1
