# generated using pymatgen
data_Ce12Mn6Si5Pt
_symmetry_space_group_name_H-M   'P 1'
_cell_length_a   7.50559500
_cell_length_b   7.50559257
_cell_length_c   9.41768100
_cell_angle_alpha   90.00000000
_cell_angle_beta   90.00000000
_cell_angle_gamma   119.99999749
_symmetry_Int_Tables_number   1
_chemical_formula_structural   Ce12Mn6Si5Pt
_chemical_formula_sum   'Ce12 Mn6 Si5 Pt1'
_cell_volume   459.45684956
_cell_formula_units_Z   1
loop_
 _symmetry_equiv_pos_site_id
 _symmetry_equiv_pos_as_xyz
  1  'x, y, z'
loop_
 _atom_site_type_symbol
 _atom_site_label
 _atom_site_symmetry_multiplicity
 _atom_site_fract_x
 _atom_site_fract_y
 _atom_site_fract_z
 _atom_site_occupancy
  Ce  Ce0  1  0.000000  0.570684  0.495236  1
  Ce  Ce1  1  0.570684  0.000000  0.495236  1
  Ce  Ce2  1  0.429316  0.429316  0.495236  1
  Ce  Ce3  1  0.000000  0.429089  0.997534  1
  Ce  Ce4  1  0.429089  0.000000  0.997534  1
  Ce  Ce5  1  0.570911  0.570911  0.997534  1
  Ce  Ce6  1  0.000000  0.747800  0.178610  1
  Ce  Ce7  1  0.747800  0.000000  0.178610  1
  Ce  Ce8  1  0.252200  0.252200  0.178610  1
  Ce  Ce9  1  0.000000  0.254940  0.680311  1
  Ce  Ce10  1  0.254940  0.000000  0.680311  1
  Ce  Ce11  1  0.745060  0.745060  0.680311  1
  Mn  Mn12  1  0.000000  0.350184  0.342089  1
  Mn  Mn13  1  0.350184  0.000000  0.342089  1
  Mn  Mn14  1  0.649816  0.649816  0.342089  1
  Mn  Mn15  1  0.000000  0.639642  0.840501  1
  Mn  Mn16  1  0.639642  0.000000  0.840501  1
  Mn  Mn17  1  0.360358  0.360358  0.840501  1
  Si  Si18  1  0.666667  0.333333  0.267714  1
  Si  Si19  1  0.333333  0.666667  0.267714  1
  Si  Si20  1  0.333333  0.666667  0.769745  1
  Si  Si21  1  0.666667  0.333333  0.769745  1
  Si  Si22  1  0.000000  0.000000  0.424342  1
  Pt  Pt23  1  0.000000  0.000000  0.927147  1
