# generated using pymatgen
data_As2PbF12
_symmetry_space_group_name_H-M   'P 1'
_cell_length_a   10.19716351
_cell_length_b   10.19716425
_cell_length_c   10.19716487
_cell_angle_alpha   131.70967403
_cell_angle_beta   131.70967659
_cell_angle_gamma   70.68795062
_symmetry_Int_Tables_number   1
_chemical_formula_structural   As2PbF12
_chemical_formula_sum   'As4 Pb2 F24'
_cell_volume   578.86581589
_cell_formula_units_Z   2
loop_
 _symmetry_equiv_pos_site_id
 _symmetry_equiv_pos_as_xyz
  1  'x, y, z'
loop_
 _atom_site_type_symbol
 _atom_site_label
 _atom_site_symmetry_multiplicity
 _atom_site_fract_x
 _atom_site_fract_y
 _atom_site_fract_z
 _atom_site_occupancy
  As  As0  1  0.778269  0.778269  0.000000  1
  As  As1  1  0.221731  0.221731  0.000000  1
  As  As2  1  0.971731  0.471731  0.500000  1
  As  As3  1  0.528269  0.028269  0.500000  1
  Pb  Pb4  1  0.750000  0.250000  0.500000  1
  Pb  Pb5  1  0.000000  0.000000  0.000000  1
  F  F6  1  0.854464  0.747405  0.187041  1
  F  F7  1  0.560363  0.667424  0.812959  1
  F  F8  1  0.417424  0.810363  0.312959  1
  F  F9  1  0.332576  0.145536  0.892941  1
  F  F10  1  0.252595  0.439637  0.107059  1
  F  F11  1  0.189637  0.502595  0.607059  1
  F  F12  1  0.645000  0.249032  0.677722  1
  F  F13  1  0.750968  0.428689  0.395968  1
  F  F14  1  0.032723  0.355000  0.604032  1
  F  F15  1  0.105000  0.282723  0.104032  1
  F  F16  1  0.178689  0.000968  0.895968  1
  F  F17  1  0.571311  0.967277  0.322278  1
  F  F18  1  0.717277  0.821311  0.822278  1
  F  F19  1  0.999032  0.895000  0.177722  1
  F  F20  1  0.322926  0.087879  0.346805  1
  F  F21  1  0.912121  0.258926  0.235047  1
  F  F22  1  0.023879  0.677074  0.764953  1
  F  F23  1  0.427074  0.273879  0.264953  1
  F  F24  1  0.008926  0.162121  0.735047  1
  F  F25  1  0.741074  0.976121  0.653195  1
  F  F26  1  0.726121  0.991074  0.153195  1
  F  F27  1  0.837879  0.572926  0.846805  1
  F  F28  1  0.497405  0.104464  0.687041  1
  F  F29  1  0.895536  0.582576  0.392941  1
