# generated using pymatgen
data_Dy3Sn3GeIr2
_symmetry_space_group_name_H-M   'P 1'
_cell_length_a   7.40434400
_cell_length_b   7.40434450
_cell_length_c   4.18872300
_cell_angle_alpha   90.00000000
_cell_angle_beta   90.00000000
_cell_angle_gamma   120.00000671
_symmetry_Int_Tables_number   1
_chemical_formula_structural   Dy3Sn3GeIr2
_chemical_formula_sum   'Dy3 Sn3 Ge1 Ir2'
_cell_volume   198.87740659
_cell_formula_units_Z   1
loop_
 _symmetry_equiv_pos_site_id
 _symmetry_equiv_pos_as_xyz
  1  'x, y, z'
loop_
 _atom_site_type_symbol
 _atom_site_label
 _atom_site_symmetry_multiplicity
 _atom_site_fract_x
 _atom_site_fract_y
 _atom_site_fract_z
 _atom_site_occupancy
  Dy  Dy0  1  0.986439  0.399601  0.500000  1
  Dy  Dy1  1  0.600399  0.586838  0.500000  1
  Dy  Dy2  1  0.413162  0.013561  0.500000  1
  Sn  Sn3  1  0.987126  0.742522  0.000000  1
  Sn  Sn4  1  0.257478  0.244605  0.000000  1
  Sn  Sn5  1  0.755395  0.012874  0.000000  1
  Ge  Ge6  1  0.333333  0.666667  0.000000  1
  Ir  Ir7  1  0.666667  0.333333  0.000000  1
  Ir  Ir8  1  0.000000  0.000000  0.500000  1
