# generated using pymatgen
data_Er5Ga3Si4Pd3
_symmetry_space_group_name_H-M   'P 1'
_cell_length_a   4.23583700
_cell_length_b   19.32577500
_cell_length_c   6.90070800
_cell_angle_alpha   90.00000000
_cell_angle_beta   90.00000000
_cell_angle_gamma   90.00000000
_symmetry_Int_Tables_number   1
_chemical_formula_structural   Er5Ga3Si4Pd3
_chemical_formula_sum   'Er10 Ga6 Si8 Pd6'
_cell_volume   564.89770378
_cell_formula_units_Z   2
loop_
 _symmetry_equiv_pos_site_id
 _symmetry_equiv_pos_as_xyz
  1  'x, y, z'
loop_
 _atom_site_type_symbol
 _atom_site_label
 _atom_site_symmetry_multiplicity
 _atom_site_fract_x
 _atom_site_fract_y
 _atom_site_fract_z
 _atom_site_occupancy
  Er  Er0  1  0.750000  0.121567  0.002665  1
  Er  Er1  1  0.750000  0.378433  0.002665  1
  Er  Er2  1  0.750000  0.250000  0.376910  1
  Er  Er3  1  0.750000  0.073217  0.494335  1
  Er  Er4  1  0.750000  0.426782  0.494335  1
  Er  Er5  1  0.250001  0.573217  0.505665  1
  Er  Er6  1  0.250001  0.926783  0.505665  1
  Er  Er7  1  0.250001  0.750000  0.623090  1
  Er  Er8  1  0.250001  0.621567  0.997335  1
  Er  Er9  1  0.250001  0.878433  0.997335  1
  Ga  Ga10  1  0.250001  0.250000  0.040239  1
  Ga  Ga11  1  0.750000  0.673038  0.325152  1
  Ga  Ga12  1  0.750000  0.826962  0.325152  1
  Ga  Ga13  1  0.250001  0.173038  0.674848  1
  Ga  Ga14  1  0.250001  0.326962  0.674848  1
  Ga  Ga15  1  0.750000  0.750000  0.959761  1
  Si  Si16  1  0.750000  0.542798  0.215760  1
  Si  Si17  1  0.750000  0.957202  0.215760  1
  Si  Si18  1  0.250001  0.147112  0.288084  1
  Si  Si19  1  0.250001  0.352888  0.288084  1
  Si  Si20  1  0.750000  0.647112  0.711916  1
  Si  Si21  1  0.750000  0.852888  0.711916  1
  Si  Si22  1  0.250001  0.042799  0.784240  1
  Si  Si23  1  0.250001  0.457201  0.784240  1
  Pd  Pd24  1  0.250001  0.025451  0.162436  1
  Pd  Pd25  1  0.250001  0.474549  0.162436  1
  Pd  Pd26  1  0.250001  0.750000  0.207723  1
  Pd  Pd27  1  0.750000  0.250000  0.792277  1
  Pd  Pd28  1  0.750000  0.525451  0.837564  1
  Pd  Pd29  1  0.750000  0.974549  0.837564  1
