# generated using pymatgen
data_Ho4Cu2PdPt
_symmetry_space_group_name_H-M   'P 1'
_cell_length_a   4.48491600
_cell_length_b   5.49156226
_cell_length_c   7.07991936
_cell_angle_alpha   89.84785274
_cell_angle_beta   90.00000000
_cell_angle_gamma   90.00000000
_symmetry_Int_Tables_number   1
_chemical_formula_structural   Ho4Cu2PdPt
_chemical_formula_sum   'Ho4 Cu2 Pd1 Pt1'
_cell_volume   174.37210282
_cell_formula_units_Z   1
loop_
 _symmetry_equiv_pos_site_id
 _symmetry_equiv_pos_as_xyz
  1  'x, y, z'
loop_
 _atom_site_type_symbol
 _atom_site_label
 _atom_site_symmetry_multiplicity
 _atom_site_fract_x
 _atom_site_fract_y
 _atom_site_fract_z
 _atom_site_occupancy
  Ho  Ho0  1  0.000000  0.115125  0.685768  1
  Ho  Ho1  1  0.000000  0.884944  0.181202  1
  Ho  Ho2  1  0.500000  0.392290  0.312458  1
  Ho  Ho3  1  0.500000  0.607520  0.820916  1
  Cu  Cu4  1  0.500000  0.889973  0.464906  1
  Cu  Cu5  1  0.500000  0.107407  0.962386  1
  Pd  Pd6  1  0.000000  0.616120  0.536558  1
  Pt  Pt7  1  0.000000  0.386621  0.035806  1
