# generated using pymatgen
data_Ce2Mn3Al20Fe
_symmetry_space_group_name_H-M   'P 1'
_cell_length_a   6.79503328
_cell_length_b   6.79381922
_cell_length_c   9.01742312
_cell_angle_alpha   90.07590551
_cell_angle_beta   90.01111404
_cell_angle_gamma   97.56532362
_symmetry_Int_Tables_number   1
_chemical_formula_structural   Ce2Mn3Al20Fe
_chemical_formula_sum   'Ce2 Mn3 Al20 Fe1'
_cell_volume   412.65841338
_cell_formula_units_Z   1
loop_
 _symmetry_equiv_pos_site_id
 _symmetry_equiv_pos_as_xyz
  1  'x, y, z'
loop_
 _atom_site_type_symbol
 _atom_site_label
 _atom_site_symmetry_multiplicity
 _atom_site_fract_x
 _atom_site_fract_y
 _atom_site_fract_z
 _atom_site_occupancy
  Ce  Ce0  1  0.874748  0.122074  0.750668  1
  Ce  Ce1  1  0.125252  0.877926  0.249332  1
  Mn  Mn2  1  0.500000  0.000000  0.000000  1
  Mn  Mn3  1  0.000000  0.500000  0.000000  1
  Mn  Mn4  1  0.500000  0.000000  0.500000  1
  Al  Al5  1  0.410165  0.131420  0.749885  1
  Al  Al6  1  0.130982  0.410505  0.250417  1
  Al  Al7  1  0.589835  0.868580  0.250115  1
  Al  Al8  1  0.869018  0.589495  0.749583  1
  Al  Al9  1  0.523579  0.779460  0.749770  1
  Al  Al10  1  0.779905  0.523955  0.249823  1
  Al  Al11  1  0.476421  0.220540  0.250230  1
  Al  Al12  1  0.220095  0.476045  0.750177  1
  Al  Al13  1  0.839998  0.160980  0.402436  1
  Al  Al14  1  0.160002  0.839020  0.597564  1
  Al  Al15  1  0.838835  0.161123  0.097794  1
  Al  Al16  1  0.161165  0.838877  0.902206  1
  Al  Al17  1  0.624145  0.376144  0.950115  1
  Al  Al18  1  0.375855  0.623856  0.049885  1
  Al  Al19  1  0.623864  0.376235  0.549874  1
  Al  Al20  1  0.376136  0.623765  0.450126  1
  Al  Al21  1  0.771175  0.771227  0.000146  1
  Al  Al22  1  0.772318  0.771429  0.500045  1
  Al  Al23  1  0.228825  0.228773  0.999854  1
  Al  Al24  1  0.227682  0.228571  0.499955  1
  Fe  Fe25  1  0.000000  0.500000  0.500000  1
