# generated using pymatgen
data_Pr16Dy4Si15Rh
_symmetry_space_group_name_H-M   'P 1'
_cell_length_a   7.85185169
_cell_length_b   7.82490281
_cell_length_c   15.31728885
_cell_angle_alpha   90.08824748
_cell_angle_beta   89.75156203
_cell_angle_gamma   90.17819522
_symmetry_Int_Tables_number   1
_chemical_formula_structural   Pr16Dy4Si15Rh
_chemical_formula_sum   'Pr16 Dy4 Si15 Rh1'
_cell_volume   941.07937072
_cell_formula_units_Z   1
loop_
 _symmetry_equiv_pos_site_id
 _symmetry_equiv_pos_as_xyz
  1  'x, y, z'
loop_
 _atom_site_type_symbol
 _atom_site_label
 _atom_site_symmetry_multiplicity
 _atom_site_fract_x
 _atom_site_fract_y
 _atom_site_fract_z
 _atom_site_occupancy
  Pr  Pr0  1  0.376922  0.013767  0.446519  1
  Pr  Pr1  1  0.486447  0.878490  0.695620  1
  Pr  Pr2  1  0.513144  0.121267  0.195115  1
  Pr  Pr3  1  0.878190  0.485879  0.303357  1
  Pr  Pr4  1  0.122498  0.508645  0.802067  1
  Pr  Pr5  1  0.623256  0.986907  0.945407  1
  Pr  Pr6  1  0.007757  0.378896  0.554339  1
  Pr  Pr7  1  0.985945  0.622486  0.054699  1
  Pr  Pr8  1  0.132317  0.981587  0.875406  1
  Pr  Pr9  1  0.522546  0.627870  0.127746  1
  Pr  Pr10  1  0.469903  0.364999  0.631098  1
  Pr  Pr11  1  0.625090  0.521367  0.872057  1
  Pr  Pr12  1  0.374786  0.477143  0.371749  1
  Pr  Pr13  1  0.875363  0.025374  0.378554  1
  Pr  Pr14  1  0.976632  0.124671  0.122259  1
  Pr  Pr15  1  0.028887  0.881864  0.623192  1
  Dy  Dy16  1  0.306593  0.307094  0.999709  1
  Dy  Dy17  1  0.190849  0.808260  0.250222  1
  Dy  Dy18  1  0.818137  0.189424  0.749961  1
  Dy  Dy19  1  0.692636  0.689568  0.500647  1
  Si  Si20  1  0.327914  0.687748  0.957123  1
  Si  Si21  1  0.669419  0.312962  0.458913  1
  Si  Si22  1  0.689022  0.329557  0.043064  1
  Si  Si23  1  0.312393  0.671704  0.541797  1
  Si  Si24  1  0.813021  0.828054  0.209263  1
  Si  Si25  1  0.172709  0.188246  0.291677  1
  Si  Si26  1  0.829310  0.810849  0.792420  1
  Si  Si27  1  0.285719  0.921230  0.062587  1
  Si  Si28  1  0.579962  0.784671  0.313700  1
  Si  Si29  1  0.426163  0.210240  0.815791  1
  Si  Si30  1  0.780731  0.582592  0.686277  1
  Si  Si31  1  0.213633  0.421531  0.186551  1
  Si  Si32  1  0.709278  0.075515  0.561936  1
  Si  Si33  1  0.919502  0.286039  0.937719  1
  Si  Si34  1  0.081112  0.716972  0.437196  1
  Rh  Rh35  1  0.182214  0.176532  0.704262  1
