# generated using pymatgen
data_V3Fe3P6(PbO12)2
_symmetry_space_group_name_H-M   'P 1'
_cell_length_a   9.27353380
_cell_length_b   9.27351218
_cell_length_c   9.27506858
_cell_angle_alpha   137.81650424
_cell_angle_beta   110.21014890
_cell_angle_gamma   85.02862925
_symmetry_Int_Tables_number   1
_chemical_formula_structural   V3Fe3P6(PbO12)2
_chemical_formula_sum   'V3 Fe3 P6 Pb2 O24'
_cell_volume   484.15696101
_cell_formula_units_Z   1
loop_
 _symmetry_equiv_pos_site_id
 _symmetry_equiv_pos_as_xyz
  1  'x, y, z'
loop_
 _atom_site_type_symbol
 _atom_site_label
 _atom_site_symmetry_multiplicity
 _atom_site_fract_x
 _atom_site_fract_y
 _atom_site_fract_z
 _atom_site_occupancy
  V  V0  1  0.618627  0.618634  0.499999  1
  V  V1  1  0.000257  0.999847  0.999678  1
  V  V2  1  0.500165  0.500568  0.000321  1
  Fe  Fe3  1  0.382303  0.382286  0.500022  1
  Fe  Fe4  1  0.117737  0.617752  0.999983  1
  Fe  Fe5  1  0.882183  0.382184  0.000014  1
  P  P6  1  0.323793  0.823783  0.000002  1
  P  P7  1  0.750170  0.654141  0.904746  1
  P  P8  1  0.176208  0.176215  0.499994  1
  P  P9  1  0.676242  0.176238  0.000003  1
  P  P10  1  0.249400  0.345431  0.095261  1
  P  P11  1  0.824082  0.824086  0.500004  1
  Pb  Pb12  1  0.749711  0.144850  0.393179  1
  Pb  Pb13  1  0.251651  0.856502  0.606778  1
  O  O14  1  0.574232  0.933415  0.779900  1
  O  O15  1  0.075454  0.296673  0.643570  1
  O  O16  1  0.842169  0.880196  0.037820  1
  O  O17  1  0.346814  0.703181  0.778792  1
  O  O18  1  0.139866  0.203681  0.342259  1
  O  O19  1  0.342382  0.304348  0.962179  1
  O  O20  1  0.638338  0.702609  0.342694  1
  O  O21  1  0.859915  0.795641  0.657308  1
  O  O22  1  0.366615  0.487591  0.354556  1
  O  O23  1  0.153108  0.931884  0.356408  1
  O  O24  1  0.640380  0.298531  0.937078  1
  O  O25  1  0.633030  0.512064  0.645460  1
  O  O26  1  0.861454  0.203291  0.062910  1
  O  O27  1  0.846772  0.067920  0.643730  1
  O  O28  1  0.359969  0.702483  0.063873  1
  O  O29  1  0.361405  0.297610  0.657729  1
  O  O30  1  0.657934  0.696250  0.038985  1
  O  O31  1  0.924195  0.703048  0.356278  1
  O  O32  1  0.157273  0.118957  0.961023  1
  O  O33  1  0.866851  0.511112  0.878329  1
  O  O34  1  0.132791  0.488521  0.121665  1
  O  O35  1  0.138623  0.796126  0.936162  1
  O  O36  1  0.653513  0.294334  0.220104  1
  O  O37  1  0.424388  0.068016  0.221204  1
