# generated using pymatgen
data_Sr8Li2Mg6Si15Ge
_symmetry_space_group_name_H-M   'P 1'
_cell_length_a   4.39027500
_cell_length_b   11.43583439
_cell_length_c   14.46260072
_cell_angle_alpha   89.95753227
_cell_angle_beta   90.00000000
_cell_angle_gamma   90.00000000
_symmetry_Int_Tables_number   1
_chemical_formula_structural   Sr8Li2Mg6Si15Ge
_chemical_formula_sum   'Sr8 Li2 Mg6 Si15 Ge1'
_cell_volume   726.11575407
_cell_formula_units_Z   1
loop_
 _symmetry_equiv_pos_site_id
 _symmetry_equiv_pos_as_xyz
  1  'x, y, z'
loop_
 _atom_site_type_symbol
 _atom_site_label
 _atom_site_symmetry_multiplicity
 _atom_site_fract_x
 _atom_site_fract_y
 _atom_site_fract_z
 _atom_site_occupancy
  Sr  Sr0  1  0.250000  0.522744  0.198560  1
  Sr  Sr1  1  0.250000  0.743326  0.938389  1
  Sr  Sr2  1  0.750000  0.255918  0.060832  1
  Sr  Sr3  1  0.750000  0.244333  0.560682  1
  Sr  Sr4  1  0.250000  0.755765  0.438306  1
  Sr  Sr5  1  0.250000  0.976961  0.697910  1
  Sr  Sr6  1  0.750000  0.023920  0.302697  1
  Sr  Sr7  1  0.750000  0.476175  0.802394  1
  Li  Li8  1  0.250000  0.442259  0.440735  1
  Li  Li9  1  0.250000  0.059107  0.941797  1
  Mg  Mg10  1  0.750000  0.555007  0.556310  1
  Mg  Mg11  1  0.750000  0.944669  0.058098  1
  Mg  Mg12  1  0.250000  0.676639  0.689458  1
  Mg  Mg13  1  0.750000  0.322956  0.312553  1
  Mg  Mg14  1  0.750000  0.178926  0.811907  1
  Mg  Mg15  1  0.250000  0.822665  0.190014  1
  Si  Si16  1  0.250000  0.451473  0.630669  1
  Si  Si17  1  0.750000  0.548834  0.367647  1
  Si  Si18  1  0.250000  0.030335  0.467081  1
  Si  Si19  1  0.250000  0.048643  0.131187  1
  Si  Si20  1  0.250000  0.277281  0.723631  1
  Si  Si21  1  0.750000  0.723273  0.277170  1
  Si  Si22  1  0.750000  0.773906  0.776123  1
  Si  Si23  1  0.250000  0.215287  0.393390  1
  Si  Si24  1  0.750000  0.970078  0.532100  1
  Si  Si25  1  0.750000  0.530089  0.031935  1
  Si  Si26  1  0.250000  0.469382  0.967316  1
  Si  Si27  1  0.250000  0.284835  0.893514  1
  Si  Si28  1  0.750000  0.786348  0.607130  1
  Si  Si29  1  0.750000  0.713041  0.107751  1
  Si  Si30  1  0.250000  0.222982  0.223931  1
  Ge  Ge31  1  0.750000  0.952844  0.868783  1
