# generated using pymatgen
data_Tb4Ho(InSb)2
_symmetry_space_group_name_H-M   'P 1'
_cell_length_a   8.84656093
_cell_length_b   8.84656199
_cell_length_c   8.13962900
_cell_angle_alpha   90.00000000
_cell_angle_beta   90.00000000
_cell_angle_gamma   125.15248766
_symmetry_Int_Tables_number   1
_chemical_formula_structural   Tb4Ho(InSb)2
_chemical_formula_sum   'Tb8 Ho2 In4 Sb4'
_cell_volume   520.84261115
_cell_formula_units_Z   2
loop_
 _symmetry_equiv_pos_site_id
 _symmetry_equiv_pos_as_xyz
  1  'x, y, z'
loop_
 _atom_site_type_symbol
 _atom_site_label
 _atom_site_symmetry_multiplicity
 _atom_site_fract_x
 _atom_site_fract_y
 _atom_site_fract_z
 _atom_site_occupancy
  Tb  Tb0  1  0.031761  0.307112  0.334084  1
  Tb  Tb1  1  0.968239  0.692888  0.665916  1
  Tb  Tb2  1  0.468239  0.192888  0.834084  1
  Tb  Tb3  1  0.807112  0.531761  0.165916  1
  Tb  Tb4  1  0.531761  0.807112  0.165916  1
  Tb  Tb5  1  0.192888  0.468239  0.834084  1
  Tb  Tb6  1  0.692888  0.968239  0.665916  1
  Tb  Tb7  1  0.307112  0.031761  0.334084  1
  Ho  Ho8  1  0.000000  0.000000  0.000000  1
  Ho  Ho9  1  0.500000  0.500000  0.500000  1
  In  In10  1  0.370427  0.370427  0.128609  1
  In  In11  1  0.629573  0.629573  0.871391  1
  In  In12  1  0.129573  0.129573  0.628609  1
  In  In13  1  0.870427  0.870427  0.371391  1
  Sb  Sb14  1  0.797362  0.202638  0.000000  1
  Sb  Sb15  1  0.202638  0.797362  0.000000  1
  Sb  Sb16  1  0.702638  0.297362  0.500000  1
  Sb  Sb17  1  0.297362  0.702638  0.500000  1
