# generated using pymatgen
data_Pr4B20IrRu
_symmetry_space_group_name_H-M   'P 1'
_cell_length_a   4.23795300
_cell_length_b   5.77695798
_cell_length_c   11.50367093
_cell_angle_alpha   90.27808089
_cell_angle_beta   90.00000000
_cell_angle_gamma   90.00000000
_symmetry_Int_Tables_number   1
_chemical_formula_structural   Pr4B20IrRu
_chemical_formula_sum   'Pr4 B20 Ir1 Ru1'
_cell_volume   281.63503504
_cell_formula_units_Z   1
loop_
 _symmetry_equiv_pos_site_id
 _symmetry_equiv_pos_as_xyz
  1  'x, y, z'
loop_
 _atom_site_type_symbol
 _atom_site_label
 _atom_site_symmetry_multiplicity
 _atom_site_fract_x
 _atom_site_fract_y
 _atom_site_fract_z
 _atom_site_occupancy
  Pr  Pr0  1  0.500000  0.216591  0.370254  1
  Pr  Pr1  1  0.500000  0.783409  0.629746  1
  Pr  Pr2  1  0.500000  0.289036  0.864546  1
  Pr  Pr3  1  0.500000  0.710964  0.135454  1
  B  B4  1  0.000000  0.380644  0.042890  1
  B  B5  1  0.000000  0.619356  0.957110  1
  B  B6  1  0.000000  0.120249  0.542998  1
  B  B7  1  0.000000  0.879751  0.457002  1
  B  B8  1  0.000000  0.363016  0.196754  1
  B  B9  1  0.000000  0.636984  0.803246  1
  B  B10  1  0.000000  0.136642  0.697470  1
  B  B11  1  0.000000  0.863358  0.302530  1
  B  B12  1  0.000000  0.057749  0.192778  1
  B  B13  1  0.000000  0.942251  0.807222  1
  B  B14  1  0.000000  0.442793  0.692510  1
  B  B15  1  0.000000  0.557207  0.307490  1
  B  B16  1  0.299738  0.220072  0.117988  1
  B  B17  1  0.700262  0.779928  0.882012  1
  B  B18  1  0.299738  0.779928  0.882012  1
  B  B19  1  0.700779  0.280319  0.618220  1
  B  B20  1  0.700262  0.220072  0.117988  1
  B  B21  1  0.299221  0.719681  0.381780  1
  B  B22  1  0.700779  0.719681  0.381780  1
  B  B23  1  0.299221  0.280319  0.618220  1
  Ir  Ir24  1  0.000000  0.000000  0.000000  1
  Ru  Ru25  1  0.000000  0.500000  0.500000  1
