# generated using pymatgen
data_Tb6Sc2HgAu9
_symmetry_space_group_name_H-M   'P 1'
_cell_length_a   7.97526278
_cell_length_b   7.97526412
_cell_length_c   7.97526200
_cell_angle_alpha   65.75734604
_cell_angle_beta   65.75734956
_cell_angle_gamma   65.75733471
_symmetry_Int_Tables_number   1
_chemical_formula_structural   Tb6Sc2HgAu9
_chemical_formula_sum   'Tb6 Sc2 Hg1 Au9'
_cell_volume   403.48091364
_cell_formula_units_Z   1
loop_
 _symmetry_equiv_pos_site_id
 _symmetry_equiv_pos_as_xyz
  1  'x, y, z'
loop_
 _atom_site_type_symbol
 _atom_site_label
 _atom_site_symmetry_multiplicity
 _atom_site_fract_x
 _atom_site_fract_y
 _atom_site_fract_z
 _atom_site_occupancy
  Tb  Tb0  1  0.895697  0.186456  0.619891  1
  Tb  Tb1  1  0.619891  0.895697  0.186456  1
  Tb  Tb2  1  0.186456  0.619891  0.895697  1
  Tb  Tb3  1  0.104303  0.813544  0.380109  1
  Tb  Tb4  1  0.380109  0.104303  0.813544  1
  Tb  Tb5  1  0.813544  0.380109  0.104303  1
  Sc  Sc6  1  0.661968  0.661968  0.661968  1
  Sc  Sc7  1  0.338032  0.338032  0.338032  1
  Hg  Hg8  1  0.500000  0.500000  0.500000  1
  Au  Au9  1  0.000000  0.000000  0.000000  1
  Au  Au10  1  0.807087  0.807087  0.807087  1
  Au  Au11  1  0.192913  0.192913  0.192913  1
  Au  Au12  1  0.936907  0.549873  0.321034  1
  Au  Au13  1  0.321034  0.936907  0.549873  1
  Au  Au14  1  0.549873  0.321034  0.936907  1
  Au  Au15  1  0.063093  0.450127  0.678966  1
  Au  Au16  1  0.678966  0.063093  0.450127  1
  Au  Au17  1  0.450127  0.678966  0.063093  1
