# generated using pymatgen
data_Tb11Y4Ho(In3Ir)2
_symmetry_space_group_name_H-M   'P 1'
_cell_length_a   10.45684900
_cell_length_b   10.45542701
_cell_length_c   7.13192739
_cell_angle_alpha   89.98320042
_cell_angle_beta   90.00000000
_cell_angle_gamma   120.00450861
_symmetry_Int_Tables_number   1
_chemical_formula_structural   Tb11Y4Ho(In3Ir)2
_chemical_formula_sum   'Tb11 Y4 Ho1 In6 Ir2'
_cell_volume   675.24347895
_cell_formula_units_Z   1
loop_
 _symmetry_equiv_pos_site_id
 _symmetry_equiv_pos_as_xyz
  1  'x, y, z'
loop_
 _atom_site_type_symbol
 _atom_site_label
 _atom_site_symmetry_multiplicity
 _atom_site_fract_x
 _atom_site_fract_y
 _atom_site_fract_z
 _atom_site_occupancy
  Tb  Tb0  1  0.465100  0.533995  0.481247  1
  Tb  Tb1  1  0.068896  0.533995  0.481247  1
  Tb  Tb2  1  0.465510  0.931019  0.480910  1
  Tb  Tb3  1  0.533920  0.465411  0.980706  1
  Tb  Tb4  1  0.931492  0.465411  0.980706  1
  Tb  Tb5  1  0.534585  0.069170  0.980855  1
  Tb  Tb6  1  0.823765  0.176265  0.276006  1
  Tb  Tb7  1  0.352499  0.176265  0.276006  1
  Tb  Tb8  1  0.823703  0.647405  0.275742  1
  Tb  Tb9  1  0.176400  0.823823  0.775870  1
  Tb  Tb10  1  0.647424  0.823823  0.775870  1
  Y  Y11  1  0.333082  0.666164  0.099415  1
  Y  Y12  1  0.666669  0.333335  0.599965  1
  Y  Y13  1  0.000344  0.000688  0.496127  1
  Y  Y14  1  0.000101  0.000203  0.995148  1
  Ho  Ho15  1  0.176694  0.353388  0.775954  1
  In  In16  1  0.163203  0.836853  0.234082  1
  In  In17  1  0.673650  0.836853  0.234082  1
  In  In18  1  0.163083  0.326164  0.232638  1
  In  In19  1  0.837731  0.163502  0.734083  1
  In  In20  1  0.325771  0.163502  0.734083  1
  In  In21  1  0.836909  0.673818  0.734249  1
  Ir  Ir22  1  0.332778  0.665558  0.704857  1
  Ir  Ir23  1  0.666695  0.333389  0.204702  1
