# generated using pymatgen
data_Tb4Dy5HoRu4
_symmetry_space_group_name_H-M   'P 1'
_cell_length_a   6.36979214
_cell_length_b   7.28204493
_cell_length_c   8.50070711
_cell_angle_alpha   96.65971977
_cell_angle_beta   112.00345082
_cell_angle_gamma   90.00000268
_symmetry_Int_Tables_number   1
_chemical_formula_structural   Tb4Dy5HoRu4
_chemical_formula_sum   'Tb4 Dy5 Ho1 Ru4'
_cell_volume   362.71427270
_cell_formula_units_Z   1
loop_
 _symmetry_equiv_pos_site_id
 _symmetry_equiv_pos_as_xyz
  1  'x, y, z'
loop_
 _atom_site_type_symbol
 _atom_site_label
 _atom_site_symmetry_multiplicity
 _atom_site_fract_x
 _atom_site_fract_y
 _atom_site_fract_z
 _atom_site_occupancy
  Tb  Tb0  1  0.978038  0.915955  0.187262  1
  Tb  Tb1  1  0.790775  0.584045  0.812738  1
  Tb  Tb2  1  0.021933  0.084224  0.812773  1
  Tb  Tb3  1  0.209161  0.415776  0.187227  1
  Dy  Dy4  1  0.640158  0.814687  0.434183  1
  Dy  Dy5  1  0.205974  0.685313  0.565817  1
  Dy  Dy6  1  0.359915  0.185364  0.565909  1
  Dy  Dy7  1  0.794006  0.314636  0.434091  1
  Dy  Dy8  1  0.420650  0.750000  0.000000  1
  Ho  Ho9  1  0.579164  0.250000  0.000000  1
  Ru  Ru10  1  0.823192  0.575447  0.220972  1
  Ru  Ru11  1  0.602220  0.924553  0.779028  1
  Ru  Ru12  1  0.176912  0.424316  0.779007  1
  Ru  Ru13  1  0.397904  0.075684  0.220993  1
