# generated using pymatgen
data_Eu2TiGaO6
_symmetry_space_group_name_H-M   'P 1'
_cell_length_a   5.53271548
_cell_length_b   5.53271487
_cell_length_c   5.53271464
_cell_angle_alpha   120.60407702
_cell_angle_beta   120.60408214
_cell_angle_gamma   88.95686099
_symmetry_Int_Tables_number   1
_chemical_formula_structural   Eu2TiGaO6
_chemical_formula_sum   'Eu2 Ti1 Ga1 O6'
_cell_volume   118.64192783
_cell_formula_units_Z   1
loop_
 _symmetry_equiv_pos_site_id
 _symmetry_equiv_pos_as_xyz
  1  'x, y, z'
loop_
 _atom_site_type_symbol
 _atom_site_label
 _atom_site_symmetry_multiplicity
 _atom_site_fract_x
 _atom_site_fract_y
 _atom_site_fract_z
 _atom_site_occupancy
  Eu  Eu0  1  0.250000  0.750000  0.500000  1
  Eu  Eu1  1  0.750000  0.250000  0.500000  1
  Ti  Ti2  1  0.000000  0.000000  0.000000  1
  Ga  Ga3  1  0.500000  0.500000  0.000000  1
  O  O4  1  0.248638  0.248638  0.000000  1
  O  O5  1  0.751362  0.751362  0.000000  1
  O  O6  1  0.697635  0.193950  0.891585  1
  O  O7  1  0.302365  0.806050  0.108415  1
  O  O8  1  0.193950  0.302365  0.496315  1
  O  O9  1  0.806050  0.697635  0.503685  1
