# generated using pymatgen
data_LiNiMoPt5
_symmetry_space_group_name_H-M   'P 1'
_cell_length_a   5.43944665
_cell_length_b   5.55183680
_cell_length_c   3.84994400
_cell_angle_alpha   90.00000000
_cell_angle_beta   90.00000000
_cell_angle_gamma   90.09498650
_symmetry_Int_Tables_number   1
_chemical_formula_structural   LiNiMoPt5
_chemical_formula_sum   'Li1 Ni1 Mo1 Pt5'
_cell_volume   116.26399146
_cell_formula_units_Z   1
loop_
 _symmetry_equiv_pos_site_id
 _symmetry_equiv_pos_as_xyz
  1  'x, y, z'
loop_
 _atom_site_type_symbol
 _atom_site_label
 _atom_site_symmetry_multiplicity
 _atom_site_fract_x
 _atom_site_fract_y
 _atom_site_fract_z
 _atom_site_occupancy
  Li  Li0  1  0.626728  0.373192  0.000000  1
  Ni  Ni1  1  0.624456  0.874805  0.000000  1
  Mo  Mo2  1  0.124687  0.875329  0.000000  1
  Pt  Pt3  1  0.125200  0.375478  0.000000  1
  Pt  Pt4  1  0.870851  0.630295  0.500000  1
  Pt  Pt5  1  0.378520  0.120335  0.500000  1
  Pt  Pt6  1  0.871699  0.119308  0.500000  1
  Pt  Pt7  1  0.377863  0.631254  0.500000  1
