# generated using pymatgen
data_Ca2PrSm3Co4
_symmetry_space_group_name_H-M   'P 1'
_cell_length_a   3.92954400
_cell_length_b   3.92954406
_cell_length_c   20.65002600
_cell_angle_alpha   90.00000000
_cell_angle_beta   90.00000000
_cell_angle_gamma   119.99999948
_symmetry_Int_Tables_number   1
_chemical_formula_structural   Ca2PrSm3Co4
_chemical_formula_sum   'Ca2 Pr1 Sm3 Co4'
_cell_volume   276.14396451
_cell_formula_units_Z   1
loop_
 _symmetry_equiv_pos_site_id
 _symmetry_equiv_pos_as_xyz
  1  'x, y, z'
loop_
 _atom_site_type_symbol
 _atom_site_label
 _atom_site_symmetry_multiplicity
 _atom_site_fract_x
 _atom_site_fract_y
 _atom_site_fract_z
 _atom_site_occupancy
  Ca  Ca0  1  0.333333  0.666667  0.752813  1
  Ca  Ca1  1  0.666667  0.333333  0.249296  1
  Pr  Pr2  1  0.000000  0.000000  0.591626  1
  Sm  Sm3  1  0.000000  0.000000  0.089383  1
  Sm  Sm4  1  0.000000  0.000000  0.408934  1
  Sm  Sm5  1  0.000000  0.000000  0.911180  1
  Co  Co6  1  0.333333  0.666667  0.999829  1
  Co  Co7  1  0.666667  0.333333  0.000722  1
  Co  Co8  1  0.333333  0.666667  0.498443  1
  Co  Co9  1  0.666667  0.333333  0.497775  1
