# generated using pymatgen
data_Li4Dy2ThSn4
_symmetry_space_group_name_H-M   'P 1'
_cell_length_a   8.65967186
_cell_length_b   8.65967225
_cell_length_c   8.65967216
_cell_angle_alpha   148.71595434
_cell_angle_beta   131.73154741
_cell_angle_gamma   58.65131921
_symmetry_Int_Tables_number   1
_chemical_formula_structural   Li4Dy2ThSn4
_chemical_formula_sum   'Li4 Dy2 Th1 Sn4'
_cell_volume   249.66601550
_cell_formula_units_Z   1
loop_
 _symmetry_equiv_pos_site_id
 _symmetry_equiv_pos_as_xyz
  1  'x, y, z'
loop_
 _atom_site_type_symbol
 _atom_site_label
 _atom_site_symmetry_multiplicity
 _atom_site_fract_x
 _atom_site_fract_y
 _atom_site_fract_z
 _atom_site_occupancy
  Li  Li0  1  0.014073  0.326395  0.687678  1
  Li  Li1  1  0.981976  0.672547  0.309428  1
  Li  Li2  1  0.638717  0.326395  0.312322  1
  Li  Li3  1  0.363119  0.672547  0.690572  1
  Dy  Dy4  1  0.001320  0.001320  0.000000  1
  Dy  Dy5  1  0.627758  0.127758  0.500000  1
  Th  Th6  1  0.373056  0.873056  0.500000  1
  Sn  Sn7  1  0.213274  0.213274  0.000000  1
  Sn  Sn8  1  0.702810  0.500174  0.202637  1
  Sn  Sn9  1  0.297537  0.500174  0.797363  1
  Sn  Sn10  1  0.786361  0.786361  0.000000  1
