# generated using pymatgen
data_Y3Th(TcB6)2
_symmetry_space_group_name_H-M   'P 1'
_cell_length_a   3.74020500
_cell_length_b   9.22955869
_cell_length_c   11.63634301
_cell_angle_alpha   89.86230641
_cell_angle_beta   90.00000000
_cell_angle_gamma   90.00000000
_symmetry_Int_Tables_number   1
_chemical_formula_structural   Y3Th(TcB6)2
_chemical_formula_sum   'Y6 Th2 Tc4 B24'
_cell_volume   401.69053888
_cell_formula_units_Z   2
loop_
 _symmetry_equiv_pos_site_id
 _symmetry_equiv_pos_as_xyz
  1  'x, y, z'
loop_
 _atom_site_type_symbol
 _atom_site_label
 _atom_site_symmetry_multiplicity
 _atom_site_fract_x
 _atom_site_fract_y
 _atom_site_fract_z
 _atom_site_occupancy
  Y  Y0  1  0.000000  0.324426  0.415012  1
  Y  Y1  1  0.000000  0.675574  0.584988  1
  Y  Y2  1  0.000000  0.442854  0.131312  1
  Y  Y3  1  0.000000  0.557146  0.868688  1
  Y  Y4  1  0.000000  0.942562  0.371891  1
  Y  Y5  1  0.000000  0.057438  0.628109  1
  Th  Th6  1  0.000000  0.821953  0.086701  1
  Th  Th7  1  0.000000  0.178047  0.913299  1
  Tc  Tc8  1  0.000000  0.138340  0.179922  1
  Tc  Tc9  1  0.000000  0.861660  0.820078  1
  Tc  Tc10  1  0.000000  0.638585  0.320984  1
  Tc  Tc11  1  0.000000  0.361415  0.679016  1
  B  B12  1  0.500000  0.055454  0.070379  1
  B  B13  1  0.500000  0.944546  0.929622  1
  B  B14  1  0.500000  0.553377  0.433275  1
  B  B15  1  0.500000  0.446623  0.566724  1
  B  B16  1  0.500000  0.249355  0.084774  1
  B  B17  1  0.500000  0.750645  0.915226  1
  B  B18  1  0.500000  0.747782  0.419455  1
  B  B19  1  0.500000  0.252218  0.580545  1
  B  B20  1  0.500000  0.291341  0.236014  1
  B  B21  1  0.500000  0.708659  0.763986  1
  B  B22  1  0.500000  0.789652  0.268027  1
  B  B23  1  0.500000  0.210348  0.731973  1
  B  B24  1  0.500000  0.131284  0.315549  1
  B  B25  1  0.500000  0.868716  0.684451  1
  B  B26  1  0.500000  0.629578  0.188126  1
  B  B27  1  0.500000  0.370422  0.811874  1
  B  B28  1  0.500000  0.482596  0.289465  1
  B  B29  1  0.500000  0.517404  0.710535  1
  B  B30  1  0.500000  0.985011  0.214597  1
  B  B31  1  0.500000  0.014989  0.785403  1
  B  B32  1  0.500000  0.102953  0.471436  1
  B  B33  1  0.500000  0.897047  0.528564  1
  B  B34  1  0.500000  0.600320  0.027952  1
  B  B35  1  0.500000  0.399680  0.972048  1
