# generated using pymatgen
data_Sr12CdNi5(PO4)12
_symmetry_space_group_name_H-M   'P 1'
_cell_length_a   10.11060692
_cell_length_b   9.19753832
_cell_length_c   11.89452561
_cell_angle_alpha   81.91823822
_cell_angle_beta   90.39868427
_cell_angle_gamma   89.79489726
_symmetry_Int_Tables_number   1
_chemical_formula_structural   Sr12CdNi5(PO4)12
_chemical_formula_sum   'Sr12 Cd1 Ni5 P12 O48'
_cell_volume   1095.08055225
_cell_formula_units_Z   1
loop_
 _symmetry_equiv_pos_site_id
 _symmetry_equiv_pos_as_xyz
  1  'x, y, z'
loop_
 _atom_site_type_symbol
 _atom_site_label
 _atom_site_symmetry_multiplicity
 _atom_site_fract_x
 _atom_site_fract_y
 _atom_site_fract_z
 _atom_site_occupancy
  Sr  Sr0  1  0.853900  0.166386  0.845767  1
  Sr  Sr1  1  0.352073  0.331054  0.154026  1
  Sr  Sr2  1  0.146100  0.833614  0.154233  1
  Sr  Sr3  1  0.647927  0.668946  0.845974  1
  Sr  Sr4  1  0.115479  0.696035  0.503965  1
  Sr  Sr5  1  0.620093  0.801125  0.495369  1
  Sr  Sr6  1  0.884521  0.303965  0.496035  1
  Sr  Sr7  1  0.379907  0.198875  0.504631  1
  Sr  Sr8  1  0.729955  0.174760  0.188415  1
  Sr  Sr9  1  0.226717  0.337238  0.810478  1
  Sr  Sr10  1  0.270045  0.825240  0.811585  1
  Sr  Sr11  1  0.773283  0.662762  0.189522  1
  Cd  Cd12  1  0.500000  0.000000  0.000000  1
  Ni  Ni13  1  0.891181  0.872985  0.675714  1
  Ni  Ni14  1  0.389435  0.625765  0.323933  1
  Ni  Ni15  1  0.108819  0.127015  0.324286  1
  Ni  Ni16  1  0.610565  0.374235  0.676067  1
  Ni  Ni17  1  0.000000  0.500000  0.000000  1
  P  P18  1  0.428188  0.695859  0.044446  1
  P  P19  1  0.930992  0.786527  0.956095  1
  P  P20  1  0.571812  0.304141  0.955554  1
  P  P21  1  0.069008  0.213473  0.043905  1
  P  P22  1  0.075424  0.506401  0.287112  1
  P  P23  1  0.575857  0.992156  0.707770  1
  P  P24  1  0.924576  0.493599  0.712888  1
  P  P25  1  0.424143  0.007844  0.292230  1
  P  P26  1  0.398863  0.561459  0.624045  1
  P  P27  1  0.898953  0.939451  0.373166  1
  P  P28  1  0.601137  0.438541  0.375955  1
  P  P29  1  0.101047  0.060549  0.626834  1
  O  O30  1  0.573357  0.749226  0.059105  1
  O  O31  1  0.074222  0.726769  0.942105  1
  O  O32  1  0.426643  0.250774  0.940895  1
  O  O33  1  0.925778  0.273231  0.057895  1
  O  O34  1  0.379346  0.600560  0.153400  1
  O  O35  1  0.881317  0.886775  0.848502  1
  O  O36  1  0.620654  0.399440  0.846600  1
  O  O37  1  0.118683  0.113225  0.151498  1
  O  O38  1  0.413855  0.620534  0.937610  1
  O  O39  1  0.918107  0.865422  0.061404  1
  O  O40  1  0.586145  0.379466  0.062390  1
  O  O41  1  0.081893  0.134578  0.938596  1
  O  O42  1  0.336492  0.838737  0.022583  1
  O  O43  1  0.843069  0.642364  0.978399  1
  O  O44  1  0.663508  0.161263  0.977417  1
  O  O45  1  0.156931  0.357636  0.021601  1
  O  O46  1  0.186974  0.614585  0.315287  1
  O  O47  1  0.690892  0.888356  0.679985  1
  O  O48  1  0.813026  0.385415  0.684713  1
  O  O49  1  0.309108  0.111644  0.320015  1
  O  O50  1  0.964318  0.522639  0.373631  1
  O  O51  1  0.466976  0.980535  0.618342  1
  O  O52  1  0.035682  0.477361  0.626369  1
  O  O53  1  0.533024  0.019465  0.381658  1
  O  O54  1  0.133812  0.350525  0.295008  1
  O  O55  1  0.630323  0.147789  0.710840  1
  O  O56  1  0.866188  0.649475  0.704992  1
  O  O57  1  0.369677  0.852211  0.289160  1
  O  O58  1  0.019833  0.564548  0.166103  1
  O  O59  1  0.518673  0.922259  0.825063  1
  O  O60  1  0.131160  0.133192  0.503668  1
  O  O61  1  0.635036  0.368512  0.499443  1
  O  O62  1  0.868840  0.866808  0.496332  1
  O  O63  1  0.364964  0.631488  0.500557  1
  O  O64  1  0.954993  0.099551  0.655584  1
  O  O65  1  0.455791  0.397628  0.347010  1
  O  O66  1  0.045007  0.900449  0.344416  1
  O  O67  1  0.544209  0.602372  0.652990  1
  O  O68  1  0.102391  0.887371  0.642452  1
  O  O69  1  0.600829  0.611505  0.358034  1
  O  O70  1  0.897609  0.112629  0.357548  1
  O  O71  1  0.399171  0.388495  0.641966  1
  O  O72  1  0.205303  0.111726  0.707480  1
  O  O73  1  0.705934  0.387107  0.296654  1
  O  O74  1  0.794697  0.888274  0.292520  1
  O  O75  1  0.294066  0.612893  0.703346  1
  O  O76  1  0.481327  0.077741  0.174937  1
  O  O77  1  0.980167  0.435452  0.833897  1
