# generated using pymatgen
data_TbLu7(Si4Tc3)4
_symmetry_space_group_name_H-M   'P 1'
_cell_length_a   6.75318129
_cell_length_b   6.75168827
_cell_length_c   12.55938115
_cell_angle_alpha   89.90904512
_cell_angle_beta   90.36491360
_cell_angle_gamma   89.99936080
_symmetry_Int_Tables_number   1
_chemical_formula_structural   TbLu7(Si4Tc3)4
_chemical_formula_sum   'Tb1 Lu7 Si16 Tc12'
_cell_volume   572.63735609
_cell_formula_units_Z   1
loop_
 _symmetry_equiv_pos_site_id
 _symmetry_equiv_pos_as_xyz
  1  'x, y, z'
loop_
 _atom_site_type_symbol
 _atom_site_label
 _atom_site_symmetry_multiplicity
 _atom_site_fract_x
 _atom_site_fract_y
 _atom_site_fract_z
 _atom_site_occupancy
  Tb  Tb0  1  0.003996  0.661326  0.030882  1
  Lu  Lu1  1  0.340433  0.994877  0.469536  1
  Lu  Lu2  1  0.504041  0.837907  0.720140  1
  Lu  Lu3  1  0.494455  0.159314  0.220002  1
  Lu  Lu4  1  0.837917  0.502438  0.280041  1
  Lu  Lu5  1  0.159902  0.493630  0.780466  1
  Lu  Lu6  1  0.661186  0.002827  0.970453  1
  Lu  Lu7  1  0.996777  0.338581  0.529441  1
  Si  Si8  1  0.194515  0.119792  0.684734  1
  Si  Si9  1  0.384787  0.692323  0.934501  1
  Si  Si10  1  0.617596  0.307586  0.436909  1
  Si  Si11  1  0.689564  0.383396  0.063223  1
  Si  Si12  1  0.306302  0.619892  0.564644  1
  Si  Si13  1  0.805927  0.884959  0.188207  1
  Si  Si14  1  0.117491  0.192239  0.315047  1
  Si  Si15  1  0.883021  0.808099  0.812181  1
  Si  Si16  1  0.274250  0.980060  0.061868  1
  Si  Si17  1  0.522878  0.773623  0.313920  1
  Si  Si18  1  0.474773  0.218392  0.814339  1
  Si  Si19  1  0.782250  0.528169  0.683256  1
  Si  Si20  1  0.227321  0.477034  0.189508  1
  Si  Si21  1  0.718509  0.028135  0.566048  1
  Si  Si22  1  0.977429  0.269786  0.936548  1
  Si  Si23  1  0.025837  0.719392  0.434957  1
  Tc  Tc24  1  0.333158  0.330703  0.999888  1
  Tc  Tc25  1  0.167566  0.831935  0.252252  1
  Tc  Tc26  1  0.833715  0.165797  0.749575  1
  Tc  Tc27  1  0.666669  0.666593  0.499529  1
  Tc  Tc28  1  0.187360  0.976447  0.867313  1
  Tc  Tc29  1  0.519537  0.686106  0.120595  1
  Tc  Tc30  1  0.480024  0.324214  0.624005  1
  Tc  Tc31  1  0.677488  0.518480  0.872952  1
  Tc  Tc32  1  0.315022  0.475249  0.381972  1
  Tc  Tc33  1  0.821335  0.020577  0.375805  1
  Tc  Tc34  1  0.976446  0.185373  0.130320  1
  Tc  Tc35  1  0.020526  0.824747  0.624942  1
