# generated using pymatgen
data_YbHo(TcB4)2
_symmetry_space_group_name_H-M   'P 1'
_cell_length_a   3.58036400
_cell_length_b   5.96340640
_cell_length_c   11.53908136
_cell_angle_alpha   90.01566110
_cell_angle_beta   90.00000000
_cell_angle_gamma   90.00000000
_symmetry_Int_Tables_number   1
_chemical_formula_structural   YbHo(TcB4)2
_chemical_formula_sum   'Yb2 Ho2 Tc4 B16'
_cell_volume   246.37282773
_cell_formula_units_Z   2
loop_
 _symmetry_equiv_pos_site_id
 _symmetry_equiv_pos_as_xyz
  1  'x, y, z'
loop_
 _atom_site_type_symbol
 _atom_site_label
 _atom_site_symmetry_multiplicity
 _atom_site_fract_x
 _atom_site_fract_y
 _atom_site_fract_z
 _atom_site_occupancy
  Yb  Yb0  1  0.500000  0.128007  0.350830  1
  Yb  Yb1  1  0.500000  0.871993  0.649170  1
  Ho  Ho2  1  0.500000  0.627949  0.151798  1
  Ho  Ho3  1  0.500000  0.372051  0.848202  1
  Tc  Tc4  1  0.500000  0.630381  0.415893  1
  Tc  Tc5  1  0.500000  0.369619  0.584107  1
  Tc  Tc6  1  0.500000  0.132537  0.085330  1
  Tc  Tc7  1  0.500000  0.867463  0.914670  1
  B  B8  1  0.000000  0.977481  0.193085  1
  B  B9  1  0.000000  0.022519  0.806915  1
  B  B10  1  0.000000  0.477777  0.307694  1
  B  B11  1  0.000000  0.522223  0.692306  1
  B  B12  1  0.000000  0.786990  0.315562  1
  B  B13  1  0.000000  0.213010  0.684438  1
  B  B14  1  0.000000  0.285917  0.185713  1
  B  B15  1  0.000000  0.714083  0.814287  1
  B  B16  1  0.000000  0.865455  0.467756  1
  B  B17  1  0.000000  0.134545  0.532244  1
  B  B18  1  0.000000  0.364773  0.031696  1
  B  B19  1  0.000000  0.635227  0.968304  1
  B  B20  1  0.000000  0.886991  0.047695  1
  B  B21  1  0.000000  0.113009  0.952305  1
  B  B22  1  0.000000  0.385968  0.452830  1
  B  B23  1  0.000000  0.614032  0.547170  1
