# generated using pymatgen
data_Er20Cd6OsRh
_symmetry_space_group_name_H-M   'P 1'
_cell_length_a   9.49768200
_cell_length_b   9.49768210
_cell_length_c   9.77656300
_cell_angle_alpha   90.00000000
_cell_angle_beta   90.00000000
_cell_angle_gamma   119.99999967
_symmetry_Int_Tables_number   1
_chemical_formula_structural   Er20Cd6OsRh
_chemical_formula_sum   'Er20 Cd6 Os1 Rh1'
_cell_volume   763.75152386
_cell_formula_units_Z   1
loop_
 _symmetry_equiv_pos_site_id
 _symmetry_equiv_pos_as_xyz
  1  'x, y, z'
loop_
 _atom_site_type_symbol
 _atom_site_label
 _atom_site_symmetry_multiplicity
 _atom_site_fract_x
 _atom_site_fract_y
 _atom_site_fract_z
 _atom_site_occupancy
  Er  Er0  1  0.000000  0.000000  0.500291  1
  Er  Er1  1  0.000000  0.000000  0.999709  1
  Er  Er2  1  0.209648  0.790352  0.441500  1
  Er  Er3  1  0.209648  0.419295  0.441500  1
  Er  Er4  1  0.580705  0.790352  0.441500  1
  Er  Er5  1  0.790498  0.209502  0.558866  1
  Er  Er6  1  0.790498  0.580995  0.558866  1
  Er  Er7  1  0.419005  0.209502  0.558866  1
  Er  Er8  1  0.790498  0.209502  0.941134  1
  Er  Er9  1  0.790498  0.580995  0.941134  1
  Er  Er10  1  0.419005  0.209502  0.941134  1
  Er  Er11  1  0.209648  0.790352  0.058500  1
  Er  Er12  1  0.209648  0.419295  0.058500  1
  Er  Er13  1  0.580705  0.790352  0.058500  1
  Er  Er14  1  0.539755  0.460245  0.250000  1
  Er  Er15  1  0.539755  0.079508  0.250000  1
  Er  Er16  1  0.920492  0.460245  0.250000  1
  Er  Er17  1  0.458207  0.541793  0.750000  1
  Er  Er18  1  0.458207  0.916415  0.750000  1
  Er  Er19  1  0.083585  0.541793  0.750000  1
  Cd  Cd20  1  0.885410  0.114590  0.250000  1
  Cd  Cd21  1  0.885410  0.770821  0.250000  1
  Cd  Cd22  1  0.229179  0.114590  0.250000  1
  Cd  Cd23  1  0.114577  0.885423  0.750000  1
  Cd  Cd24  1  0.114577  0.229152  0.750000  1
  Cd  Cd25  1  0.770848  0.885423  0.750000  1
  Os  Os26  1  0.333333  0.666667  0.250000  1
  Rh  Rh27  1  0.666667  0.333333  0.750000  1
