# generated using pymatgen
data_Cs4Sr(AsS4)2
_symmetry_space_group_name_H-M   'P 1'
_cell_length_a   9.84427195
_cell_length_b   9.93594659
_cell_length_c   12.04960085
_cell_angle_alpha   106.17568124
_cell_angle_beta   103.49086364
_cell_angle_gamma   93.49761550
_symmetry_Int_Tables_number   1
_chemical_formula_structural   Cs4Sr(AsS4)2
_chemical_formula_sum   'Cs8 Sr2 As4 S16'
_cell_volume   1090.64231887
_cell_formula_units_Z   2
loop_
 _symmetry_equiv_pos_site_id
 _symmetry_equiv_pos_as_xyz
  1  'x, y, z'
loop_
 _atom_site_type_symbol
 _atom_site_label
 _atom_site_symmetry_multiplicity
 _atom_site_fract_x
 _atom_site_fract_y
 _atom_site_fract_z
 _atom_site_occupancy
  Cs  Cs0  1  0.938993  0.522404  0.261952  1
  Cs  Cs1  1  0.061007  0.477596  0.738048  1
  Cs  Cs2  1  0.765366  0.993371  0.470194  1
  Cs  Cs3  1  0.234634  0.006629  0.529806  1
  Cs  Cs4  1  0.596396  0.737309  0.024630  1
  Cs  Cs5  1  0.403604  0.262691  0.975370  1
  Cs  Cs6  1  0.619197  0.681046  0.616040  1
  Cs  Cs7  1  0.380803  0.318954  0.383960  1
  Sr  Sr8  1  0.851748  0.142968  0.925188  1
  Sr  Sr9  1  0.148252  0.857032  0.074812  1
  As  As10  1  0.948833  0.112569  0.233929  1
  As  As11  1  0.051167  0.887431  0.766071  1
  As  As12  1  0.374802  0.678942  0.258169  1
  As  As13  1  0.625198  0.321058  0.741831  1
  S  S14  1  0.952548  0.890885  0.233497  1
  S  S15  1  0.047452  0.109115  0.766503  1
  S  S16  1  0.582190  0.096853  0.736611  1
  S  S17  1  0.417810  0.903147  0.263389  1
  S  S18  1  0.293797  0.664681  0.408128  1
  S  S19  1  0.706203  0.335319  0.591872  1
  S  S20  1  0.785324  0.428047  0.912492  1
  S  S21  1  0.214676  0.571953  0.087508  1
  S  S22  1  0.013952  0.252591  0.415508  1
  S  S23  1  0.986048  0.747409  0.584492  1
  S  S24  1  0.098917  0.165075  0.134346  1
  S  S25  1  0.901083  0.834925  0.865654  1
  S  S26  1  0.739060  0.138892  0.136532  1
  S  S27  1  0.260940  0.861108  0.863468  1
  S  S28  1  0.567612  0.580648  0.263199  1
  S  S29  1  0.432388  0.419352  0.736801  1
