# generated using pymatgen
data_Dy2Er2OsRuC4
_symmetry_space_group_name_H-M   'P 1'
_cell_length_a   5.09857100
_cell_length_b   6.43619780
_cell_length_c   9.74359898
_cell_angle_alpha   89.79506683
_cell_angle_beta   90.00000000
_cell_angle_gamma   90.00000000
_symmetry_Int_Tables_number   1
_chemical_formula_structural   Dy2Er2OsRuC4
_chemical_formula_sum   'Dy4 Er4 Os2 Ru2 C8'
_cell_volume   319.73816422
_cell_formula_units_Z   2
loop_
 _symmetry_equiv_pos_site_id
 _symmetry_equiv_pos_as_xyz
  1  'x, y, z'
loop_
 _atom_site_type_symbol
 _atom_site_label
 _atom_site_symmetry_multiplicity
 _atom_site_fract_x
 _atom_site_fract_y
 _atom_site_fract_z
 _atom_site_occupancy
  Dy  Dy0  1  0.250000  0.526452  0.216575  1
  Dy  Dy1  1  0.750000  0.473548  0.783425  1
  Dy  Dy2  1  0.750000  0.974375  0.718929  1
  Dy  Dy3  1  0.250000  0.025625  0.281071  1
  Er  Er4  1  0.250000  0.681810  0.554012  1
  Er  Er5  1  0.750000  0.318190  0.445988  1
  Er  Er6  1  0.750000  0.822664  0.054332  1
  Er  Er7  1  0.250000  0.177336  0.945668  1
  Os  Os8  1  0.750000  0.776496  0.366016  1
  Os  Os9  1  0.250000  0.223504  0.633984  1
  Ru  Ru10  1  0.250000  0.722147  0.866198  1
  Ru  Ru11  1  0.750000  0.277853  0.133802  1
  C  C12  1  0.250000  0.457920  0.756035  1
  C  C13  1  0.750000  0.542080  0.243965  1
  C  C14  1  0.750000  0.040971  0.259553  1
  C  C15  1  0.250000  0.959029  0.740447  1
  C  C16  1  0.250000  0.828690  0.054187  1
  C  C17  1  0.750000  0.171310  0.945813  1
  C  C18  1  0.750000  0.673487  0.554081  1
  C  C19  1  0.250000  0.326513  0.445919  1
