# generated using pymatgen
data_Nd3Dy5(CdIr)2
_symmetry_space_group_name_H-M   'P 1'
_cell_length_a   9.75112168
_cell_length_b   9.75112205
_cell_length_c   9.75112200
_cell_angle_alpha   60.00000018
_cell_angle_beta   59.99999892
_cell_angle_gamma   60.00000250
_symmetry_Int_Tables_number   1
_chemical_formula_structural   Nd3Dy5(CdIr)2
_chemical_formula_sum   'Nd6 Dy10 Cd4 Ir4'
_cell_volume   655.61482575
_cell_formula_units_Z   2
loop_
 _symmetry_equiv_pos_site_id
 _symmetry_equiv_pos_as_xyz
  1  'x, y, z'
loop_
 _atom_site_type_symbol
 _atom_site_label
 _atom_site_symmetry_multiplicity
 _atom_site_fract_x
 _atom_site_fract_y
 _atom_site_fract_z
 _atom_site_occupancy
  Nd  Nd0  1  0.941149  0.558851  0.558851  1
  Nd  Nd1  1  0.558851  0.941149  0.941149  1
  Nd  Nd2  1  0.558851  0.941149  0.558851  1
  Nd  Nd3  1  0.941149  0.558851  0.941149  1
  Nd  Nd4  1  0.558851  0.558851  0.941149  1
  Nd  Nd5  1  0.941149  0.941149  0.558851  1
  Dy  Dy6  1  0.347514  0.347514  0.347514  1
  Dy  Dy7  1  0.347514  0.347514  0.957457  1
  Dy  Dy8  1  0.347514  0.957457  0.347514  1
  Dy  Dy9  1  0.957457  0.347514  0.347514  1
  Dy  Dy10  1  0.812029  0.187971  0.187971  1
  Dy  Dy11  1  0.187971  0.812029  0.812029  1
  Dy  Dy12  1  0.187971  0.812029  0.187971  1
  Dy  Dy13  1  0.812029  0.187971  0.812029  1
  Dy  Dy14  1  0.187971  0.187971  0.812029  1
  Dy  Dy15  1  0.812029  0.812029  0.187971  1
  Cd  Cd16  1  0.579705  0.579705  0.579705  1
  Cd  Cd17  1  0.579705  0.579705  0.260884  1
  Cd  Cd18  1  0.579705  0.260884  0.579705  1
  Cd  Cd19  1  0.260884  0.579705  0.579705  1
  Ir  Ir20  1  0.141134  0.141134  0.141134  1
  Ir  Ir21  1  0.141134  0.141134  0.576598  1
  Ir  Ir22  1  0.141134  0.576598  0.141134  1
  Ir  Ir23  1  0.576598  0.141134  0.141134  1
