# generated using pymatgen
data_Sr4AgH12Ir
_symmetry_space_group_name_H-M   'P 1'
_cell_length_a   7.58496935
_cell_length_b   7.58496827
_cell_length_c   5.62808598
_cell_angle_alpha   89.99914686
_cell_angle_beta   89.99926597
_cell_angle_gamma   136.46346123
_symmetry_Int_Tables_number   1
_chemical_formula_structural   Sr4AgH12Ir
_chemical_formula_sum   'Sr4 Ag1 H12 Ir1'
_cell_volume   223.03457493
_cell_formula_units_Z   1
loop_
 _symmetry_equiv_pos_site_id
 _symmetry_equiv_pos_as_xyz
  1  'x, y, z'
loop_
 _atom_site_type_symbol
 _atom_site_label
 _atom_site_symmetry_multiplicity
 _atom_site_fract_x
 _atom_site_fract_y
 _atom_site_fract_z
 _atom_site_occupancy
  Sr  Sr0  1  0.649770  0.350229  0.999999  1
  Sr  Sr1  1  0.350230  0.649771  0.000001  1
  Sr  Sr2  1  0.851198  0.148801  0.499999  1
  Sr  Sr3  1  0.148802  0.851199  0.500001  1
  Ag  Ag4  1  0.000000  0.000000  0.000000  1
  H  H5  1  0.876355  0.123645  0.000000  1
  H  H6  1  0.123645  0.876355  0.000000  1
  H  H7  1  0.619917  0.380083  0.500000  1
  H  H8  1  0.380083  0.619917  0.500000  1
  H  H9  1  0.000026  0.500123  0.250715  1
  H  H10  1  0.999974  0.499877  0.749285  1
  H  H11  1  0.499878  0.999974  0.749285  1
  H  H12  1  0.500122  0.000026  0.250715  1
  H  H13  1  0.283170  0.283170  0.289332  1
  H  H14  1  0.716830  0.716830  0.710668  1
  H  H15  1  0.290359  0.290359  0.717812  1
  H  H16  1  0.709641  0.709641  0.282188  1
  Ir  Ir17  1  0.500000  0.500000  0.500000  1
