# generated using pymatgen
data_Er13Tm3MgCo4Ag3
_symmetry_space_group_name_H-M   'P 1'
_cell_length_a   9.33610926
_cell_length_b   9.35150295
_cell_length_c   9.35150300
_cell_angle_alpha   60.00001042
_cell_angle_beta   59.94545247
_cell_angle_gamma   59.94545156
_symmetry_Int_Tables_number   1
_chemical_formula_structural   Er13Tm3MgCo4Ag3
_chemical_formula_sum   'Er13 Tm3 Mg1 Co4 Ag3'
_cell_volume   576.83981550
_cell_formula_units_Z   1
loop_
 _symmetry_equiv_pos_site_id
 _symmetry_equiv_pos_as_xyz
  1  'x, y, z'
loop_
 _atom_site_type_symbol
 _atom_site_label
 _atom_site_symmetry_multiplicity
 _atom_site_fract_x
 _atom_site_fract_y
 _atom_site_fract_z
 _atom_site_occupancy
  Er  Er0  1  0.951538  0.349488  0.349488  1
  Er  Er1  1  0.809519  0.189125  0.189125  1
  Er  Er2  1  0.186320  0.813467  0.813467  1
  Er  Er3  1  0.186320  0.813467  0.186746  1
  Er  Er4  1  0.809519  0.189125  0.812230  1
  Er  Er5  1  0.186320  0.186746  0.813467  1
  Er  Er6  1  0.809519  0.812230  0.189125  1
  Er  Er7  1  0.935430  0.562719  0.562719  1
  Er  Er8  1  0.561980  0.937367  0.937367  1
  Er  Er9  1  0.561980  0.937367  0.563287  1
  Er  Er10  1  0.935430  0.562719  0.939132  1
  Er  Er11  1  0.561980  0.563287  0.937367  1
  Er  Er12  1  0.935430  0.939132  0.562719  1
  Tm  Tm13  1  0.346353  0.345396  0.345396  1
  Tm  Tm14  1  0.346353  0.345396  0.962856  1
  Tm  Tm15  1  0.346353  0.962856  0.345396  1
  Mg  Mg16  1  0.288185  0.570605  0.570605  1
  Co  Co17  1  0.139171  0.142477  0.142477  1
  Co  Co18  1  0.139171  0.142477  0.575874  1
  Co  Co19  1  0.139171  0.575874  0.142477  1
  Co  Co20  1  0.575100  0.141633  0.141633  1
  Ag  Ag21  1  0.582951  0.582881  0.582881  1
  Ag  Ag22  1  0.582951  0.582881  0.251285  1
  Ag  Ag23  1  0.582951  0.251285  0.582881  1
