# generated using pymatgen
data_DyTh7TiTe17
_symmetry_space_group_name_H-M   'P 1'
_cell_length_a   9.08602834
_cell_length_b   9.07602592
_cell_length_c   12.04036100
_cell_angle_alpha   80.55197159
_cell_angle_beta   80.55579390
_cell_angle_gamma   64.87417432
_symmetry_Int_Tables_number   1
_chemical_formula_structural   DyTh7TiTe17
_chemical_formula_sum   'Dy1 Th7 Ti1 Te17'
_cell_volume   881.79663359
_cell_formula_units_Z   1
loop_
 _symmetry_equiv_pos_site_id
 _symmetry_equiv_pos_as_xyz
  1  'x, y, z'
loop_
 _atom_site_type_symbol
 _atom_site_label
 _atom_site_symmetry_multiplicity
 _atom_site_fract_x
 _atom_site_fract_y
 _atom_site_fract_z
 _atom_site_occupancy
  Dy  Dy0  1  0.814569  0.306871  0.296074  1
  Th  Th1  1  0.301426  0.816818  0.295129  1
  Th  Th2  1  0.182137  0.698316  0.702600  1
  Th  Th3  1  0.698710  0.184020  0.702167  1
  Th  Th4  1  0.203718  0.200934  0.539306  1
  Th  Th5  1  0.797527  0.798522  0.458299  1
  Th  Th6  1  0.682246  0.679195  0.985725  1
  Th  Th7  1  0.318304  0.318645  0.017333  1
  Ti  Ti8  1  0.999463  0.001476  0.001590  1
  Te  Te9  1  0.823285  0.430557  0.532008  1
  Te  Te10  1  0.434378  0.818670  0.532554  1
  Te  Te11  1  0.179438  0.565570  0.465021  1
  Te  Te12  1  0.569731  0.179979  0.466622  1
  Te  Te13  1  0.947657  0.323208  0.028549  1
  Te  Te14  1  0.323164  0.947836  0.026745  1
  Te  Te15  1  0.052296  0.678058  0.972264  1
  Te  Te16  1  0.677620  0.052610  0.971474  1
  Te  Te17  1  0.208002  0.210170  0.275347  1
  Te  Te18  1  0.787340  0.788153  0.725438  1
  Te  Te19  1  0.061707  0.060589  0.773421  1
  Te  Te20  1  0.935377  0.947887  0.229027  1
  Te  Te21  1  0.303265  0.302949  0.751641  1
  Te  Te22  1  0.696589  0.695264  0.248616  1
  Te  Te23  1  0.519419  0.521134  0.832162  1
  Te  Te24  1  0.479119  0.479757  0.165724  1
  Te  Te25  1  0.003514  0.992813  0.505166  1
