# generated using pymatgen
data_SrSb12(OsRh)2
_symmetry_space_group_name_H-M   'P 1'
_cell_length_a   8.18014208
_cell_length_b   8.18014109
_cell_length_c   8.16147603
_cell_angle_alpha   109.46653299
_cell_angle_beta   109.47006104
_cell_angle_gamma   109.56953098
_symmetry_Int_Tables_number   1
_chemical_formula_structural   SrSb12(OsRh)2
_chemical_formula_sum   'Sr1 Sb12 Os2 Rh2'
_cell_volume   419.92482261
_cell_formula_units_Z   1
loop_
 _symmetry_equiv_pos_site_id
 _symmetry_equiv_pos_as_xyz
  1  'x, y, z'
loop_
 _atom_site_type_symbol
 _atom_site_label
 _atom_site_symmetry_multiplicity
 _atom_site_fract_x
 _atom_site_fract_y
 _atom_site_fract_z
 _atom_site_occupancy
  Sr  Sr0  1  0.000000  0.000000  0.000000  1
  Sb  Sb1  1  0.841962  0.660079  0.502041  1
  Sb  Sb2  1  0.158038  0.339921  0.497959  1
  Sb  Sb3  1  0.155990  0.657217  0.813208  1
  Sb  Sb4  1  0.844010  0.342783  0.186792  1
  Sb  Sb5  1  0.658003  0.501648  0.842565  1
  Sb  Sb6  1  0.341997  0.498352  0.157435  1
  Sb  Sb7  1  0.659083  0.815440  0.157435  1
  Sb  Sb8  1  0.340917  0.184560  0.842565  1
  Sb  Sb9  1  0.501363  0.841716  0.657307  1
  Sb  Sb10  1  0.498637  0.158284  0.342693  1
  Sb  Sb11  1  0.184407  0.844056  0.342693  1
  Sb  Sb12  1  0.815593  0.155944  0.657307  1
  Os  Os13  1  0.500000  0.500000  0.500000  1
  Os  Os14  1  0.000000  0.000000  0.500000  1
  Rh  Rh15  1  0.500000  0.000000  0.000000  1
  Rh  Rh16  1  0.000000  0.500000  0.000000  1
