# generated using pymatgen
data_TmLu9Si5Ge
_symmetry_space_group_name_H-M   'P 1'
_cell_length_a   8.26168343
_cell_length_b   8.25720387
_cell_length_c   6.18233300
_cell_angle_alpha   90.00000000
_cell_angle_beta   90.00000000
_cell_angle_gamma   119.99222731
_symmetry_Int_Tables_number   1
_chemical_formula_structural   TmLu9Si5Ge
_chemical_formula_sum   'Tm1 Lu9 Si5 Ge1'
_cell_volume   365.27385906
_cell_formula_units_Z   1
loop_
 _symmetry_equiv_pos_site_id
 _symmetry_equiv_pos_as_xyz
  1  'x, y, z'
loop_
 _atom_site_type_symbol
 _atom_site_label
 _atom_site_symmetry_multiplicity
 _atom_site_fract_x
 _atom_site_fract_y
 _atom_site_fract_z
 _atom_site_occupancy
  Tm  Tm0  1  0.999853  0.757534  0.750000  1
  Lu  Lu1  1  0.667574  0.333035  0.500671  1
  Lu  Lu2  1  0.333261  0.667653  0.500676  1
  Lu  Lu3  1  0.333261  0.667653  0.999324  1
  Lu  Lu4  1  0.667574  0.333035  0.999329  1
  Lu  Lu5  1  0.758475  0.758622  0.250000  1
  Lu  Lu6  1  0.242307  0.998738  0.250000  1
  Lu  Lu7  1  0.998584  0.241960  0.250000  1
  Lu  Lu8  1  0.242127  0.242215  0.750000  1
  Lu  Lu9  1  0.757375  0.999953  0.750000  1
  Si  Si10  1  0.605911  0.999939  0.250000  1
  Si  Si11  1  0.999914  0.605976  0.250000  1
  Si  Si12  1  0.605765  0.606085  0.750000  1
  Si  Si13  1  0.394441  0.000431  0.750000  1
  Si  Si14  1  0.000102  0.393676  0.750000  1
  Ge  Ge15  1  0.393474  0.393493  0.250000  1
