# generated using pymatgen
data_TbTm2Th3(Al3Ru)8
_symmetry_space_group_name_H-M   'P 1'
_cell_length_a   8.87413100
_cell_length_b   8.88176596
_cell_length_c   9.57707700
_cell_angle_alpha   90.00000000
_cell_angle_beta   90.00000000
_cell_angle_gamma   119.97156429
_symmetry_Int_Tables_number   1
_chemical_formula_structural   TbTm2Th3(Al3Ru)8
_chemical_formula_sum   'Tb1 Tm2 Th3 Al24 Ru8'
_cell_volume   653.90271653
_cell_formula_units_Z   1
loop_
 _symmetry_equiv_pos_site_id
 _symmetry_equiv_pos_as_xyz
  1  'x, y, z'
loop_
 _atom_site_type_symbol
 _atom_site_label
 _atom_site_symmetry_multiplicity
 _atom_site_fract_x
 _atom_site_fract_y
 _atom_site_fract_z
 _atom_site_occupancy
  Tb  Tb0  1  0.192604  0.385209  0.750000  1
  Tm  Tm1  1  0.611881  0.806405  0.750000  1
  Tm  Tm2  1  0.194524  0.806405  0.750000  1
  Th  Th3  1  0.390451  0.194370  0.250000  1
  Th  Th4  1  0.803919  0.194370  0.250000  1
  Th  Th5  1  0.805332  0.610665  0.250000  1
  Al  Al6  1  0.435016  0.870033  0.250000  1
  Al  Al7  1  0.129597  0.564749  0.250000  1
  Al  Al8  1  0.435152  0.564749  0.250000  1
  Al  Al9  1  0.558506  0.117013  0.750000  1
  Al  Al10  1  0.881720  0.442047  0.750000  1
  Al  Al11  1  0.560326  0.442047  0.750000  1
  Al  Al12  1  0.163659  0.836342  0.427546  1
  Al  Al13  1  0.163762  0.327525  0.426849  1
  Al  Al14  1  0.672682  0.836342  0.427546  1
  Al  Al15  1  0.837546  0.161405  0.582508  1
  Al  Al16  1  0.838394  0.676786  0.582708  1
  Al  Al17  1  0.323860  0.161405  0.582508  1
  Al  Al18  1  0.837546  0.161405  0.917492  1
  Al  Al19  1  0.838394  0.676786  0.917292  1
  Al  Al20  1  0.323860  0.161405  0.917492  1
  Al  Al21  1  0.163659  0.836342  0.072454  1
  Al  Al22  1  0.163762  0.327525  0.073151  1
  Al  Al23  1  0.672682  0.836342  0.072454  1
  Al  Al24  1  0.333661  0.667323  0.522472  1
  Al  Al25  1  0.666829  0.333658  0.494380  1
  Al  Al26  1  0.666829  0.333658  0.005620  1
  Al  Al27  1  0.333661  0.667323  0.977528  1
  Al  Al28  1  0.000091  0.000183  0.250000  1
  Al  Al29  1  0.999019  0.998038  0.750000  1
  Ru  Ru30  1  0.999986  0.999971  0.501279  1
  Ru  Ru31  1  0.999986  0.999971  0.998721  1
  Ru  Ru32  1  0.499817  0.999633  0.498960  1
  Ru  Ru33  1  0.000440  0.500734  0.498738  1
  Ru  Ru34  1  0.500294  0.500734  0.498738  1
  Ru  Ru35  1  0.499817  0.999633  0.001040  1
  Ru  Ru36  1  0.000440  0.500734  0.001262  1
  Ru  Ru37  1  0.500294  0.500734  0.001262  1
