# generated using pymatgen
data_Tb2ThIn3Ir2Rh
_symmetry_space_group_name_H-M   'P 1'
_cell_length_a   7.61571211
_cell_length_b   7.76187765
_cell_length_c   3.90745500
_cell_angle_alpha   90.00000000
_cell_angle_beta   90.00000000
_cell_angle_gamma   120.63695352
_symmetry_Int_Tables_number   1
_chemical_formula_structural   Tb2ThIn3Ir2Rh
_chemical_formula_sum   'Tb2 Th1 In3 Ir2 Rh1'
_cell_volume   198.73690903
_cell_formula_units_Z   1
loop_
 _symmetry_equiv_pos_site_id
 _symmetry_equiv_pos_as_xyz
  1  'x, y, z'
loop_
 _atom_site_type_symbol
 _atom_site_label
 _atom_site_symmetry_multiplicity
 _atom_site_fract_x
 _atom_site_fract_y
 _atom_site_fract_z
 _atom_site_occupancy
  Tb  Tb0  1  0.407615  0.410805  0.500000  1
  Tb  Tb1  1  0.592385  0.003191  0.500000  1
  Th  Th2  1  0.000000  0.582335  0.500000  1
  In  In3  1  0.733461  0.745354  0.000000  1
  In  In4  1  0.000000  0.241493  0.000000  1
  In  In5  1  0.266539  0.011892  0.000000  1
  Ir  Ir6  1  0.317955  0.666495  0.000000  1
  Ir  Ir7  1  0.682045  0.348539  0.000000  1
  Rh  Rh8  1  0.000000  0.989897  0.500000  1
