# generated using pymatgen
data_Li3Y4MgPt4
_symmetry_space_group_name_H-M   'P 1'
_cell_length_a   4.03428100
_cell_length_b   7.09485909
_cell_length_c   8.55924721
_cell_angle_alpha   90.11912442
_cell_angle_beta   90.00000000
_cell_angle_gamma   90.00000000
_symmetry_Int_Tables_number   1
_chemical_formula_structural   Li3Y4MgPt4
_chemical_formula_sum   'Li3 Y4 Mg1 Pt4'
_cell_volume   244.98785253
_cell_formula_units_Z   1
loop_
 _symmetry_equiv_pos_site_id
 _symmetry_equiv_pos_as_xyz
  1  'x, y, z'
loop_
 _atom_site_type_symbol
 _atom_site_label
 _atom_site_symmetry_multiplicity
 _atom_site_fract_x
 _atom_site_fract_y
 _atom_site_fract_z
 _atom_site_occupancy
  Li  Li0  1  0.250000  0.371732  0.559507  1
  Li  Li1  1  0.250000  0.868082  0.939237  1
  Li  Li2  1  0.750000  0.626991  0.441908  1
  Y  Y3  1  0.250000  0.951206  0.323670  1
  Y  Y4  1  0.250000  0.457840  0.184557  1
  Y  Y5  1  0.750000  0.047807  0.679199  1
  Y  Y6  1  0.750000  0.547833  0.816545  1
  Mg  Mg7  1  0.750000  0.127013  0.059524  1
  Pt  Pt8  1  0.250000  0.253802  0.875832  1
  Pt  Pt9  1  0.250000  0.753939  0.623264  1
  Pt  Pt10  1  0.750000  0.747045  0.123033  1
  Pt  Pt11  1  0.750000  0.246710  0.373724  1
