# generated using pymatgen
data_Ba2Hg3Pb
_symmetry_space_group_name_H-M   'P 1'
_cell_length_a   6.75240655
_cell_length_b   6.78977236
_cell_length_c   6.78977125
_cell_angle_alpha   134.60104029
_cell_angle_beta   103.04574472
_cell_angle_gamma   94.22959756
_symmetry_Int_Tables_number   1
_chemical_formula_structural   Ba2Hg3Pb
_chemical_formula_sum   'Ba2 Hg3 Pb1'
_cell_volume   203.46023754
_cell_formula_units_Z   1
loop_
 _symmetry_equiv_pos_site_id
 _symmetry_equiv_pos_as_xyz
  1  'x, y, z'
loop_
 _atom_site_type_symbol
 _atom_site_label
 _atom_site_symmetry_multiplicity
 _atom_site_fract_x
 _atom_site_fract_y
 _atom_site_fract_z
 _atom_site_occupancy
  Ba  Ba0  1  0.776951  0.530574  0.246376  1
  Ba  Ba1  1  0.223627  0.467766  0.755861  1
  Hg  Hg2  1  0.378459  0.840457  0.538002  1
  Hg  Hg3  1  0.624170  0.169766  0.454404  1
  Hg  Hg4  1  0.786831  0.831364  0.955469  1
  Pb  Pb5  1  0.209962  0.160072  0.049888  1
