# generated using pymatgen
data_Er10ZnIn8Ru3
_symmetry_space_group_name_H-M   'P 1'
_cell_length_a   3.59673700
_cell_length_b   8.03139831
_cell_length_c   18.21340233
_cell_angle_alpha   90.17649487
_cell_angle_beta   90.00000000
_cell_angle_gamma   90.00000000
_symmetry_Int_Tables_number   1
_chemical_formula_structural   Er10ZnIn8Ru3
_chemical_formula_sum   'Er10 Zn1 In8 Ru3'
_cell_volume   526.12491446
_cell_formula_units_Z   1
loop_
 _symmetry_equiv_pos_site_id
 _symmetry_equiv_pos_as_xyz
  1  'x, y, z'
loop_
 _atom_site_type_symbol
 _atom_site_label
 _atom_site_symmetry_multiplicity
 _atom_site_fract_x
 _atom_site_fract_y
 _atom_site_fract_z
 _atom_site_occupancy
  Er  Er0  1  0.000000  0.116415  0.414630  1
  Er  Er1  1  0.000000  0.881378  0.589500  1
  Er  Er2  1  0.000000  0.382562  0.910208  1
  Er  Er3  1  0.000000  0.624074  0.080706  1
  Er  Er4  1  0.000000  0.221518  0.223323  1
  Er  Er5  1  0.000000  0.756320  0.777952  1
  Er  Er6  1  0.000000  0.256910  0.721387  1
  Er  Er7  1  0.000000  0.764667  0.281169  1
  Er  Er8  1  0.000000  0.000580  0.999181  1
  Er  Er9  1  0.000000  0.499956  0.500128  1
  Zn  Zn10  1  0.500000  0.521286  0.198870  1
  In  In11  1  0.500000  0.422228  0.350927  1
  In  In12  1  0.500000  0.567764  0.650067  1
  In  In13  1  0.500000  0.069081  0.849925  1
  In  In14  1  0.500000  0.928654  0.148322  1
  In  In15  1  0.500000  0.295261  0.067382  1
  In  In16  1  0.500000  0.705375  0.930018  1
  In  In17  1  0.500000  0.206821  0.568512  1
  In  In18  1  0.500000  0.792481  0.432515  1
  Ru  Ru19  1  0.500000  0.024208  0.305262  1
  Ru  Ru20  1  0.500000  0.980947  0.696642  1
  Ru  Ru21  1  0.500000  0.481514  0.803376  1
