# generated using pymatgen
data_Ce(Pr2Rh)3
_symmetry_space_group_name_H-M   'P 1'
_cell_length_a   6.50228200
_cell_length_b   10.11047601
_cell_length_c   10.11047587
_cell_angle_alpha   120.36803831
_cell_angle_beta   90.00000000
_cell_angle_gamma   90.00000000
_symmetry_Int_Tables_number   1
_chemical_formula_structural   Ce(Pr2Rh)3
_chemical_formula_sum   'Ce2 Pr12 Rh6'
_cell_volume   573.47835726
_cell_formula_units_Z   2
loop_
 _symmetry_equiv_pos_site_id
 _symmetry_equiv_pos_as_xyz
  1  'x, y, z'
loop_
 _atom_site_type_symbol
 _atom_site_label
 _atom_site_symmetry_multiplicity
 _atom_site_fract_x
 _atom_site_fract_y
 _atom_site_fract_z
 _atom_site_occupancy
  Ce  Ce0  1  0.480537  0.333382  0.666618  1
  Ce  Ce1  1  0.980537  0.666618  0.333382  1
  Pr  Pr2  1  0.251381  0.125401  0.874599  1
  Pr  Pr3  1  0.251312  0.749331  0.874656  1
  Pr  Pr4  1  0.251312  0.125344  0.250669  1
  Pr  Pr5  1  0.751381  0.874599  0.125401  1
  Pr  Pr6  1  0.751312  0.250669  0.125344  1
  Pr  Pr7  1  0.751312  0.874656  0.749331  1
  Pr  Pr8  1  0.446032  0.539394  0.460606  1
  Pr  Pr9  1  0.446824  0.921248  0.460535  1
  Pr  Pr10  1  0.446824  0.539465  0.078752  1
  Pr  Pr11  1  0.946032  0.460606  0.539394  1
  Pr  Pr12  1  0.946824  0.078752  0.539465  1
  Pr  Pr13  1  0.946824  0.460535  0.921248  1
  Rh  Rh14  1  0.173100  0.805982  0.194018  1
  Rh  Rh15  1  0.172840  0.388368  0.194127  1
  Rh  Rh16  1  0.172840  0.805873  0.611632  1
  Rh  Rh17  1  0.673100  0.194018  0.805982  1
  Rh  Rh18  1  0.672840  0.611632  0.805873  1
  Rh  Rh19  1  0.672840  0.194127  0.388368  1
