# generated using pymatgen
data_Sm2Fe3P7Ru7Rh2
_symmetry_space_group_name_H-M   'P 1'
_cell_length_a   9.32165003
_cell_length_b   9.36543185
_cell_length_c   3.87495100
_cell_angle_alpha   90.00000000
_cell_angle_beta   90.00000000
_cell_angle_gamma   119.85482397
_symmetry_Int_Tables_number   1
_chemical_formula_structural   Sm2Fe3P7Ru7Rh2
_chemical_formula_sum   'Sm2 Fe3 P7 Ru7 Rh2'
_cell_volume   293.39378970
_cell_formula_units_Z   1
loop_
 _symmetry_equiv_pos_site_id
 _symmetry_equiv_pos_as_xyz
  1  'x, y, z'
loop_
 _atom_site_type_symbol
 _atom_site_label
 _atom_site_symmetry_multiplicity
 _atom_site_fract_x
 _atom_site_fract_y
 _atom_site_fract_z
 _atom_site_occupancy
  Sm  Sm0  1  0.334168  0.667392  0.000000  1
  Sm  Sm1  1  0.666552  0.333497  0.500000  1
  Fe  Fe2  1  0.157822  0.888713  0.000000  1
  Fe  Fe3  1  0.110041  0.265553  0.000000  1
  Fe  Fe4  1  0.732505  0.843239  0.000000  1
  P  P5  1  0.405673  0.107180  0.000000  1
  P  P6  1  0.897214  0.303155  0.000000  1
  P  P7  1  0.693115  0.590951  0.000000  1
  P  P8  1  0.121037  0.723354  0.500000  1
  P  P9  1  0.281032  0.395372  0.500000  1
  P  P10  1  0.603615  0.880917  0.500000  1
  P  P11  1  0.999460  0.998735  0.000000  1
  Ru  Ru12  1  0.421249  0.361332  0.000000  1
  Ru  Ru13  1  0.389585  0.951891  0.500000  1
  Ru  Ru14  1  0.051384  0.437830  0.500000  1
  Ru  Ru15  1  0.563182  0.613915  0.500000  1
  Ru  Ru16  1  0.204456  0.117369  0.500000  1
  Ru  Ru17  1  0.879718  0.088619  0.500000  1
  Ru  Ru18  1  0.912098  0.790596  0.500000  1
  Rh  Rh19  1  0.639956  0.065094  0.000000  1
  Rh  Rh20  1  0.936136  0.575299  0.000000  1
