# generated using pymatgen
data_Pa2Co5C3
_symmetry_space_group_name_H-M   'P 1'
_cell_length_a   8.03221800
_cell_length_b   8.03221800
_cell_length_c   3.72806500
_cell_angle_alpha   90.00000000
_cell_angle_beta   90.00000000
_cell_angle_gamma   90.00000000
_symmetry_Int_Tables_number   1
_chemical_formula_structural   Pa2Co5C3
_chemical_formula_sum   'Pa4 Co10 C6'
_cell_volume   240.52180250
_cell_formula_units_Z   2
loop_
 _symmetry_equiv_pos_site_id
 _symmetry_equiv_pos_as_xyz
  1  'x, y, z'
loop_
 _atom_site_type_symbol
 _atom_site_label
 _atom_site_symmetry_multiplicity
 _atom_site_fract_x
 _atom_site_fract_y
 _atom_site_fract_z
 _atom_site_occupancy
  Pa  Pa0  1  0.334657  0.834657  0.000000  1
  Pa  Pa1  1  0.665343  0.165343  0.000000  1
  Pa  Pa2  1  0.165343  0.334657  0.000000  1
  Pa  Pa3  1  0.834657  0.665343  0.000000  1
  Co  Co4  1  0.581316  0.710752  0.500000  1
  Co  Co5  1  0.418684  0.289248  0.500000  1
  Co  Co6  1  0.918684  0.210752  0.500000  1
  Co  Co7  1  0.081316  0.789248  0.500000  1
  Co  Co8  1  0.710752  0.418684  0.500000  1
  Co  Co9  1  0.289248  0.581316  0.500000  1
  Co  Co10  1  0.210752  0.081316  0.500000  1
  Co  Co11  1  0.789248  0.918684  0.500000  1
  Co  Co12  1  0.500000  0.500000  0.000000  1
  Co  Co13  1  0.000000  0.000000  0.000000  1
  C  C14  1  0.500000  0.500000  0.500000  1
  C  C15  1  0.000000  0.000000  0.500000  1
  C  C16  1  0.060005  0.560005  0.500000  1
  C  C17  1  0.939995  0.439995  0.500000  1
  C  C18  1  0.439995  0.060005  0.500000  1
  C  C19  1  0.560005  0.939995  0.500000  1
