# generated using pymatgen
data_DyHo15In3Rh4Au
_symmetry_space_group_name_H-M   'P 1'
_cell_length_a   9.58769508
_cell_length_b   9.58769473
_cell_length_c   9.58817529
_cell_angle_alpha   59.95631923
_cell_angle_beta   59.95632872
_cell_angle_gamma   59.94266853
_symmetry_Int_Tables_number   1
_chemical_formula_structural   DyHo15In3Rh4Au
_chemical_formula_sum   'Dy1 Ho15 In3 Rh4 Au1'
_cell_volume   622.54977575
_cell_formula_units_Z   1
loop_
 _symmetry_equiv_pos_site_id
 _symmetry_equiv_pos_as_xyz
  1  'x, y, z'
loop_
 _atom_site_type_symbol
 _atom_site_label
 _atom_site_symmetry_multiplicity
 _atom_site_fract_x
 _atom_site_fract_y
 _atom_site_fract_z
 _atom_site_occupancy
  Dy  Dy0  1  0.186834  0.186834  0.812049  1
  Ho  Ho1  1  0.602000  0.602000  0.196635  1
  Ho  Ho2  1  0.440516  0.059110  0.440282  1
  Ho  Ho3  1  0.440448  0.440448  0.059096  1
  Ho  Ho4  1  0.812721  0.180243  0.812996  1
  Ho  Ho5  1  0.186914  0.811674  0.187200  1
  Ho  Ho6  1  0.438859  0.059696  0.059860  1
  Ho  Ho7  1  0.180243  0.812721  0.812996  1
  Ho  Ho8  1  0.059696  0.438859  0.059860  1
  Ho  Ho9  1  0.812941  0.812941  0.180290  1
  Ho  Ho10  1  0.196593  0.602128  0.601874  1
  Ho  Ho11  1  0.059110  0.440516  0.440282  1
  Ho  Ho12  1  0.059762  0.059762  0.438713  1
  Ho  Ho13  1  0.811674  0.186914  0.187200  1
  Ho  Ho14  1  0.602128  0.196593  0.601874  1
  Ho  Ho15  1  0.599646  0.599646  0.599531  1
  In  In16  1  0.832465  0.832465  0.504230  1
  In  In17  1  0.504638  0.832111  0.832392  1
  In  In18  1  0.832111  0.504638  0.832392  1
  Rh  Rh19  1  0.392151  0.822970  0.392079  1
  Rh  Rh20  1  0.393253  0.393253  0.392946  1
  Rh  Rh21  1  0.822970  0.392151  0.392079  1
  Rh  Rh22  1  0.392208  0.392208  0.822997  1
  Au  Au23  1  0.840119  0.840119  0.840146  1
