# generated using pymatgen
data_Sc3Al3SiHgPt
_symmetry_space_group_name_H-M   'P 1'
_cell_length_a   6.71485900
_cell_length_b   6.71485834
_cell_length_c   4.04888300
_cell_angle_alpha   90.00000000
_cell_angle_beta   90.00000000
_cell_angle_gamma   119.99999834
_symmetry_Int_Tables_number   1
_chemical_formula_structural   Sc3Al3SiHgPt
_chemical_formula_sum   'Sc3 Al3 Si1 Hg1 Pt1'
_cell_volume   158.10282087
_cell_formula_units_Z   1
loop_
 _symmetry_equiv_pos_site_id
 _symmetry_equiv_pos_as_xyz
  1  'x, y, z'
loop_
 _atom_site_type_symbol
 _atom_site_label
 _atom_site_symmetry_multiplicity
 _atom_site_fract_x
 _atom_site_fract_y
 _atom_site_fract_z
 _atom_site_occupancy
  Sc  Sc0  1  0.411266  0.988105  0.000000  1
  Sc  Sc1  1  0.011895  0.423161  0.000000  1
  Sc  Sc2  1  0.576838  0.588734  0.000000  1
  Al  Al3  1  0.756231  0.992765  0.500000  1
  Al  Al4  1  0.236534  0.243769  0.500000  1
  Al  Al5  1  0.007235  0.763465  0.500000  1
  Si  Si6  1  0.333333  0.666667  0.500000  1
  Hg  Hg7  1  0.666666  0.333333  0.500000  1
  Pt  Pt8  1  0.000000  0.000000  0.000000  1
