# generated using pymatgen
data_Lu11Ti(Si3Ir)4
_symmetry_space_group_name_H-M   'P 1'
_cell_length_a   4.14462100
_cell_length_b   10.42017838
_cell_length_c   11.98320391
_cell_angle_alpha   89.90756951
_cell_angle_beta   90.00000000
_cell_angle_gamma   90.00000000
_symmetry_Int_Tables_number   1
_chemical_formula_structural   Lu11Ti(Si3Ir)4
_chemical_formula_sum   'Lu11 Ti1 Si12 Ir4'
_cell_volume   517.52622387
_cell_formula_units_Z   1
loop_
 _symmetry_equiv_pos_site_id
 _symmetry_equiv_pos_as_xyz
  1  'x, y, z'
loop_
 _atom_site_type_symbol
 _atom_site_label
 _atom_site_symmetry_multiplicity
 _atom_site_fract_x
 _atom_site_fract_y
 _atom_site_fract_z
 _atom_site_occupancy
  Lu  Lu0  1  0.250000  0.621409  0.519514  1
  Lu  Lu1  1  0.750000  0.117482  0.980644  1
  Lu  Lu2  1  0.750000  0.379083  0.479167  1
  Lu  Lu3  1  0.250000  0.919804  0.604729  1
  Lu  Lu4  1  0.250000  0.584019  0.099554  1
  Lu  Lu5  1  0.750000  0.079497  0.396507  1
  Lu  Lu6  1  0.750000  0.420906  0.897957  1
  Lu  Lu7  1  0.250000  0.660297  0.803173  1
  Lu  Lu8  1  0.250000  0.841343  0.297927  1
  Lu  Lu9  1  0.750000  0.340497  0.198228  1
  Lu  Lu10  1  0.750000  0.157492  0.700755  1
  Ti  Ti11  1  0.250000  0.875565  0.020820  1
  Si  Si12  1  0.250000  0.006616  0.831952  1
  Si  Si13  1  0.250000  0.488296  0.320158  1
  Si  Si14  1  0.750000  0.984525  0.175418  1
  Si  Si15  1  0.750000  0.512322  0.678759  1
  Si  Si16  1  0.250000  0.246222  0.842354  1
  Si  Si17  1  0.250000  0.252055  0.339439  1
  Si  Si18  1  0.750000  0.756957  0.155966  1
  Si  Si19  1  0.750000  0.746743  0.658908  1
  Si  Si20  1  0.250000  0.196248  0.543874  1
  Si  Si21  1  0.250000  0.303839  0.043669  1
  Si  Si22  1  0.750000  0.804018  0.455630  1
  Si  Si23  1  0.750000  0.709147  0.958068  1
  Ir  Ir24  1  0.250000  0.388092  0.678686  1
  Ir  Ir25  1  0.250000  0.106572  0.178678  1
  Ir  Ir26  1  0.750000  0.611798  0.317958  1
  Ir  Ir27  1  0.750000  0.889157  0.821509  1
