# generated using pymatgen
data_NdThSc2(CrB6)2
_symmetry_space_group_name_H-M   'P 1'
_cell_length_a   3.55913600
_cell_length_b   9.08927922
_cell_length_c   11.53440327
_cell_angle_alpha   90.02496792
_cell_angle_beta   90.00000000
_cell_angle_gamma   90.00000000
_symmetry_Int_Tables_number   1
_chemical_formula_structural   NdThSc2(CrB6)2
_chemical_formula_sum   'Nd2 Th2 Sc4 Cr4 B24'
_cell_volume   373.13768983
_cell_formula_units_Z   2
loop_
 _symmetry_equiv_pos_site_id
 _symmetry_equiv_pos_as_xyz
  1  'x, y, z'
loop_
 _atom_site_type_symbol
 _atom_site_label
 _atom_site_symmetry_multiplicity
 _atom_site_fract_x
 _atom_site_fract_y
 _atom_site_fract_z
 _atom_site_occupancy
  Nd  Nd0  1  0.000000  0.822846  0.084655  1
  Nd  Nd1  1  0.000000  0.177154  0.915345  1
  Th  Th2  1  0.000000  0.321515  0.414686  1
  Th  Th3  1  0.000000  0.678485  0.585314  1
  Sc  Sc4  1  0.000000  0.443921  0.130142  1
  Sc  Sc5  1  0.000000  0.556079  0.869858  1
  Sc  Sc6  1  0.000000  0.943549  0.368910  1
  Sc  Sc7  1  0.000000  0.056451  0.631090  1
  Cr  Cr8  1  0.000000  0.142853  0.183595  1
  Cr  Cr9  1  0.000000  0.857147  0.816405  1
  Cr  Cr10  1  0.000000  0.641460  0.317208  1
  Cr  Cr11  1  0.000000  0.358540  0.682792  1
  B  B12  1  0.500000  0.056986  0.070922  1
  B  B13  1  0.500000  0.943014  0.929078  1
  B  B14  1  0.500000  0.557915  0.427611  1
  B  B15  1  0.500000  0.442085  0.572389  1
  B  B16  1  0.500000  0.253816  0.084549  1
  B  B17  1  0.500000  0.746184  0.915451  1
  B  B18  1  0.500000  0.754491  0.413749  1
  B  B19  1  0.500000  0.245509  0.586251  1
  B  B20  1  0.500000  0.294021  0.233586  1
  B  B21  1  0.500000  0.705979  0.766414  1
  B  B22  1  0.500000  0.794292  0.264924  1
  B  B23  1  0.500000  0.205708  0.735076  1
  B  B24  1  0.500000  0.127959  0.315250  1
  B  B25  1  0.500000  0.872041  0.684750  1
  B  B26  1  0.500000  0.628921  0.183469  1
  B  B27  1  0.500000  0.371079  0.816531  1
  B  B28  1  0.500000  0.484572  0.283610  1
  B  B29  1  0.500000  0.515428  0.716390  1
  B  B30  1  0.500000  0.983912  0.214842  1
  B  B31  1  0.500000  0.016088  0.785158  1
  B  B32  1  0.500000  0.094328  0.474833  1
  B  B33  1  0.500000  0.905672  0.525167  1
  B  B34  1  0.500000  0.594328  0.025077  1
  B  B35  1  0.500000  0.405672  0.974923  1
