# generated using pymatgen
data_HoErFe3Re14C3
_symmetry_space_group_name_H-M   'P 1'
_cell_length_a   6.92043014
_cell_length_b   6.92042977
_cell_length_c   6.92042808
_cell_angle_alpha   82.49361269
_cell_angle_beta   82.49361071
_cell_angle_gamma   82.49362020
_symmetry_Int_Tables_number   1
_chemical_formula_structural   HoErFe3Re14C3
_chemical_formula_sum   'Ho1 Er1 Fe3 Re14 C3'
_cell_volume   323.59741011
_cell_formula_units_Z   1
loop_
 _symmetry_equiv_pos_site_id
 _symmetry_equiv_pos_as_xyz
  1  'x, y, z'
loop_
 _atom_site_type_symbol
 _atom_site_label
 _atom_site_symmetry_multiplicity
 _atom_site_fract_x
 _atom_site_fract_y
 _atom_site_fract_z
 _atom_site_occupancy
  Ho  Ho0  1  0.649015  0.649015  0.649015  1
  Er  Er1  1  0.350986  0.350986  0.350986  1
  Fe  Fe2  1  0.000002  0.000002  0.499999  1
  Fe  Fe3  1  0.499999  0.000002  0.000002  1
  Fe  Fe4  1  0.000002  0.499999  0.000002  1
  Re  Re5  1  0.722178  0.277816  0.000010  1
  Re  Re6  1  0.000010  0.722178  0.277816  1
  Re  Re7  1  0.277816  0.000010  0.722178  1
  Re  Re8  1  0.000010  0.277816  0.722178  1
  Re  Re9  1  0.722178  0.000010  0.277816  1
  Re  Re10  1  0.277816  0.722178  0.000010  1
  Re  Re11  1  0.346675  0.860357  0.346675  1
  Re  Re12  1  0.346675  0.346675  0.860357  1
  Re  Re13  1  0.860357  0.346675  0.346675  1
  Re  Re14  1  0.653305  0.139656  0.653305  1
  Re  Re15  1  0.653305  0.653305  0.139656  1
  Re  Re16  1  0.139656  0.653305  0.653305  1
  Re  Re17  1  0.897411  0.897411  0.897411  1
  Re  Re18  1  0.102600  0.102600  0.102600  1
  C  C19  1  0.499983  0.499983  0.000038  1
  C  C20  1  0.000038  0.499983  0.499983  1
  C  C21  1  0.499983  0.000038  0.499983  1
