# generated using pymatgen
data_TbY9In8NiPd3
_symmetry_space_group_name_H-M   'P 1'
_cell_length_a   3.63022000
_cell_length_b   8.15819736
_cell_length_c   18.28336118
_cell_angle_alpha   90.08996521
_cell_angle_beta   90.00000000
_cell_angle_gamma   90.00000000
_symmetry_Int_Tables_number   1
_chemical_formula_structural   TbY9In8NiPd3
_chemical_formula_sum   'Tb1 Y9 In8 Ni1 Pd3'
_cell_volume   541.48029369
_cell_formula_units_Z   1
loop_
 _symmetry_equiv_pos_site_id
 _symmetry_equiv_pos_as_xyz
  1  'x, y, z'
loop_
 _atom_site_type_symbol
 _atom_site_label
 _atom_site_symmetry_multiplicity
 _atom_site_fract_x
 _atom_site_fract_y
 _atom_site_fract_z
 _atom_site_occupancy
  Tb  Tb0  1  0.500000  0.232937  0.777864  1
  Y  Y1  1  0.500000  0.760251  0.218718  1
  Y  Y2  1  0.500000  0.259850  0.281806  1
  Y  Y3  1  0.500000  0.749019  0.718157  1
  Y  Y4  1  0.500000  0.116273  0.587725  1
  Y  Y5  1  0.500000  0.881698  0.418453  1
  Y  Y6  1  0.500000  0.380240  0.082122  1
  Y  Y7  1  0.500000  0.619064  0.915851  1
  Y  Y8  1  0.500000  0.000023  0.999053  1
  Y  Y9  1  0.500000  0.500140  0.501297  1
  In  In10  1  0.000000  0.079572  0.150577  1
  In  In11  1  0.000000  0.921207  0.847110  1
  In  In12  1  0.000000  0.422079  0.650765  1
  In  In13  1  0.000000  0.580276  0.350090  1
  In  In14  1  0.000000  0.207178  0.433782  1
  In  In15  1  0.000000  0.794862  0.569362  1
  In  In16  1  0.000000  0.292383  0.930579  1
  In  In17  1  0.000000  0.707269  0.067109  1
  Ni  Ni18  1  0.000000  0.021875  0.695977  1
  Pd  Pd19  1  0.000000  0.975486  0.304720  1
  Pd  Pd20  1  0.000000  0.475163  0.195899  1
  Pd  Pd21  1  0.000000  0.523156  0.802984  1
