# generated using pymatgen
data_Pr2Ho3Tm3(WO6)4
_symmetry_space_group_name_H-M   'P 1'
_cell_length_a   5.43532175
_cell_length_b   7.75477755
_cell_length_c   11.49714538
_cell_angle_alpha   75.57228541
_cell_angle_beta   90.01486585
_cell_angle_gamma   90.06009343
_symmetry_Int_Tables_number   1
_chemical_formula_structural   Pr2Ho3Tm3(WO6)4
_chemical_formula_sum   'Pr2 Ho3 Tm3 W4 O24'
_cell_volume   469.31810541
_cell_formula_units_Z   1
loop_
 _symmetry_equiv_pos_site_id
 _symmetry_equiv_pos_as_xyz
  1  'x, y, z'
loop_
 _atom_site_type_symbol
 _atom_site_label
 _atom_site_symmetry_multiplicity
 _atom_site_fract_x
 _atom_site_fract_y
 _atom_site_fract_z
 _atom_site_occupancy
  Pr  Pr0  1  0.685693  0.499773  0.750513  1
  Pr  Pr1  1  0.314812  0.499534  0.249840  1
  Ho  Ho2  1  0.743575  0.000328  0.750989  1
  Ho  Ho3  1  0.256563  0.000175  0.249230  1
  Ho  Ho4  1  0.184546  0.797569  0.576738  1
  Tm  Tm5  1  0.816736  0.796242  0.077308  1
  Tm  Tm6  1  0.183820  0.203583  0.922682  1
  Tm  Tm7  1  0.815313  0.203697  0.422591  1
  W  W8  1  0.254680  0.728991  0.884726  1
  W  W9  1  0.746223  0.729117  0.383229  1
  W  W10  1  0.253850  0.270625  0.615968  1
  W  W11  1  0.745909  0.270779  0.115937  1
  O  O12  1  0.045740  0.943008  0.897286  1
  O  O13  1  0.539332  0.842560  0.932216  1
  O  O14  1  0.954415  0.943518  0.395955  1
  O  O15  1  0.454527  0.797300  0.726857  1
  O  O16  1  0.462263  0.843393  0.429404  1
  O  O17  1  0.984825  0.722428  0.769791  1
  O  O18  1  0.547528  0.797200  0.224755  1
  O  O19  1  0.853693  0.642261  0.545405  1
  O  O20  1  0.343720  0.492899  0.887118  1
  O  O21  1  0.015779  0.722779  0.268240  1
  O  O22  1  0.345437  0.506114  0.613078  1
  O  O23  1  0.856343  0.357105  0.954246  1
  O  O24  1  0.144032  0.642242  0.046213  1
  O  O25  1  0.656618  0.492675  0.386145  1
  O  O26  1  0.985701  0.277895  0.732004  1
  O  O27  1  0.656884  0.506878  0.112980  1
  O  O28  1  0.143581  0.357316  0.454189  1
  O  O29  1  0.452779  0.202187  0.774671  1
  O  O30  1  0.014704  0.277125  0.231478  1
  O  O31  1  0.537390  0.156345  0.568761  1
  O  O32  1  0.546885  0.202385  0.274492  1
  O  O33  1  0.041632  0.058674  0.603300  1
  O  O34  1  0.460082  0.158210  0.068689  1
  O  O35  1  0.954392  0.057088  0.102977  1
