# generated using pymatgen
data_Y4B8OsRu3
_symmetry_space_group_name_H-M   'P 1'
_cell_length_a   5.33581100
_cell_length_b   5.93362711
_cell_length_c   6.37422406
_cell_angle_alpha   89.75918155
_cell_angle_beta   90.00000000
_cell_angle_gamma   90.00000000
_symmetry_Int_Tables_number   1
_chemical_formula_structural   Y4B8OsRu3
_chemical_formula_sum   'Y4 B8 Os1 Ru3'
_cell_volume   201.81069497
_cell_formula_units_Z   1
loop_
 _symmetry_equiv_pos_site_id
 _symmetry_equiv_pos_as_xyz
  1  'x, y, z'
loop_
 _atom_site_type_symbol
 _atom_site_label
 _atom_site_symmetry_multiplicity
 _atom_site_fract_x
 _atom_site_fract_y
 _atom_site_fract_z
 _atom_site_occupancy
  Y  Y0  1  0.750000  0.488540  0.163595  1
  Y  Y1  1  0.750000  0.988054  0.335559  1
  Y  Y2  1  0.250000  0.511401  0.837784  1
  Y  Y3  1  0.250000  0.011749  0.663596  1
  B  B4  1  0.916711  0.131859  0.959757  1
  B  B5  1  0.584256  0.630528  0.538159  1
  B  B6  1  0.415131  0.869654  0.038290  1
  B  B7  1  0.083612  0.368449  0.461929  1
  B  B8  1  0.084869  0.869654  0.038290  1
  B  B9  1  0.416388  0.368449  0.461929  1
  B  B10  1  0.583289  0.131859  0.959757  1
  B  B11  1  0.915744  0.630528  0.538159  1
  Os  Os12  1  0.750000  0.319207  0.682679  1
  Ru  Ru13  1  0.750000  0.818854  0.818538  1
  Ru  Ru14  1  0.250000  0.680595  0.319570  1
  Ru  Ru15  1  0.250000  0.180621  0.182410  1
