# generated using pymatgen
data_HoTm(CuP)3
_symmetry_space_group_name_H-M   'P 1'
_cell_length_a   3.82155100
_cell_length_b   10.62405200
_cell_length_c   12.90835200
_cell_angle_alpha   90.00000000
_cell_angle_beta   90.00000000
_cell_angle_gamma   90.00000000
_symmetry_Int_Tables_number   1
_chemical_formula_structural   HoTm(CuP)3
_chemical_formula_sum   'Ho4 Tm4 Cu12 P12'
_cell_volume   524.08369360
_cell_formula_units_Z   4
loop_
 _symmetry_equiv_pos_site_id
 _symmetry_equiv_pos_as_xyz
  1  'x, y, z'
loop_
 _atom_site_type_symbol
 _atom_site_label
 _atom_site_symmetry_multiplicity
 _atom_site_fract_x
 _atom_site_fract_y
 _atom_site_fract_z
 _atom_site_occupancy
  Ho  Ho0  1  0.250000  0.931104  0.791930  1
  Ho  Ho1  1  0.750000  0.431104  0.708070  1
  Ho  Ho2  1  0.250000  0.568896  0.291930  1
  Ho  Ho3  1  0.750000  0.068896  0.208070  1
  Tm  Tm4  1  0.250000  0.840621  0.503547  1
  Tm  Tm5  1  0.750000  0.340621  0.996453  1
  Tm  Tm6  1  0.250000  0.659379  0.003547  1
  Tm  Tm7  1  0.750000  0.159379  0.496453  1
  Cu  Cu8  1  0.250000  0.405664  0.512926  1
  Cu  Cu9  1  0.750000  0.905664  0.987074  1
  Cu  Cu10  1  0.250000  0.094336  0.012926  1
  Cu  Cu11  1  0.750000  0.594336  0.487074  1
  Cu  Cu12  1  0.250000  0.271893  0.331634  1
  Cu  Cu13  1  0.750000  0.771893  0.168366  1
  Cu  Cu14  1  0.250000  0.228107  0.831634  1
  Cu  Cu15  1  0.750000  0.728107  0.668366  1
  Cu  Cu16  1  0.250000  0.859585  0.282406  1
  Cu  Cu17  1  0.750000  0.359585  0.217594  1
  Cu  Cu18  1  0.250000  0.640415  0.782406  1
  Cu  Cu19  1  0.750000  0.140415  0.717594  1
  P  P20  1  0.250000  0.243147  0.641255  1
  P  P21  1  0.750000  0.743147  0.858745  1
  P  P22  1  0.250000  0.256853  0.141255  1
  P  P23  1  0.750000  0.756853  0.358745  1
  P  P24  1  0.250000  0.605655  0.602580  1
  P  P25  1  0.750000  0.105655  0.897420  1
  P  P26  1  0.250000  0.894345  0.102580  1
  P  P27  1  0.750000  0.394345  0.397420  1
  P  P28  1  0.250000  0.056343  0.370993  1
  P  P29  1  0.750000  0.556343  0.129007  1
  P  P30  1  0.250000  0.443657  0.870993  1
  P  P31  1  0.750000  0.943657  0.629007  1
