# generated using pymatgen
data_TbYCI
_symmetry_space_group_name_H-M   'P 1'
_cell_length_a   3.77539800
_cell_length_b   3.77539750
_cell_length_c   14.81826300
_cell_angle_alpha   90.00000000
_cell_angle_beta   90.00000000
_cell_angle_gamma   120.00000438
_symmetry_Int_Tables_number   1
_chemical_formula_structural   TbYCI
_chemical_formula_sum   'Tb2 Y2 C2 I2'
_cell_volume   182.91669103
_cell_formula_units_Z   2
loop_
 _symmetry_equiv_pos_site_id
 _symmetry_equiv_pos_as_xyz
  1  'x, y, z'
loop_
 _atom_site_type_symbol
 _atom_site_label
 _atom_site_symmetry_multiplicity
 _atom_site_fract_x
 _atom_site_fract_y
 _atom_site_fract_z
 _atom_site_occupancy
  Tb  Tb0  1  0.666667  0.333333  0.085931  1
  Tb  Tb1  1  0.333333  0.666667  0.914069  1
  Y  Y2  1  0.333333  0.666667  0.585312  1
  Y  Y3  1  0.666667  0.333333  0.414688  1
  C  C4  1  0.000000  0.000000  0.000000  1
  C  C5  1  0.000000  0.000000  0.500000  1
  I  I6  1  0.333333  0.666667  0.250492  1
  I  I7  1  0.666667  0.333333  0.749508  1
