# generated using pymatgen
data_Ba5MnN5
_symmetry_space_group_name_H-M   'P 1'
_cell_length_a   7.95594450
_cell_length_b   7.95594417
_cell_length_c   9.49450158
_cell_angle_alpha   76.20024368
_cell_angle_beta   76.20024094
_cell_angle_gamma   96.21519763
_symmetry_Int_Tables_number   1
_chemical_formula_structural   Ba5MnN5
_chemical_formula_sum   'Ba10 Mn2 N10'
_cell_volume   558.02205294
_cell_formula_units_Z   2
loop_
 _symmetry_equiv_pos_site_id
 _symmetry_equiv_pos_as_xyz
  1  'x, y, z'
loop_
 _atom_site_type_symbol
 _atom_site_label
 _atom_site_symmetry_multiplicity
 _atom_site_fract_x
 _atom_site_fract_y
 _atom_site_fract_z
 _atom_site_occupancy
  Ba  Ba0  1  0.386346  0.386346  0.386541  1
  Ba  Ba1  1  0.613654  0.613654  0.613459  1
  Ba  Ba2  1  0.666134  0.666134  0.007548  1
  Ba  Ba3  1  0.333866  0.333866  0.992452  1
  Ba  Ba4  1  0.925090  0.925090  0.203827  1
  Ba  Ba5  1  0.074910  0.074910  0.796173  1
  Ba  Ba6  1  0.564810  0.093210  0.755948  1
  Ba  Ba7  1  0.906790  0.435190  0.244052  1
  Ba  Ba8  1  0.435190  0.906790  0.244052  1
  Ba  Ba9  1  0.093210  0.564810  0.755948  1
  Mn  Mn10  1  0.756876  0.243124  0.000000  1
  Mn  Mn11  1  0.243124  0.756876  0.000000  1
  N  N12  1  0.651084  0.651084  0.311275  1
  N  N13  1  0.348916  0.348916  0.688725  1
  N  N14  1  0.716457  0.024872  0.993138  1
  N  N15  1  0.975128  0.283543  0.006862  1
  N  N16  1  0.283543  0.975128  0.006862  1
  N  N17  1  0.024872  0.716457  0.993138  1
  N  N18  1  0.384606  0.730229  0.839715  1
  N  N19  1  0.269771  0.615394  0.160284  1
  N  N20  1  0.615394  0.269771  0.160284  1
  N  N21  1  0.730229  0.384606  0.839715  1
