# generated using pymatgen
data_Er11Th5(InCo)4
_symmetry_space_group_name_H-M   'P 1'
_cell_length_a   9.52218825
_cell_length_b   9.59219747
_cell_length_c   9.59219739
_cell_angle_alpha   59.76635554
_cell_angle_beta   60.24114796
_cell_angle_gamma   60.24114238
_symmetry_Int_Tables_number   1
_chemical_formula_structural   Er11Th5(InCo)4
_chemical_formula_sum   'Er11 Th5 In4 Co4'
_cell_volume   620.65909234
_cell_formula_units_Z   1
loop_
 _symmetry_equiv_pos_site_id
 _symmetry_equiv_pos_as_xyz
  1  'x, y, z'
loop_
 _atom_site_type_symbol
 _atom_site_label
 _atom_site_symmetry_multiplicity
 _atom_site_fract_x
 _atom_site_fract_y
 _atom_site_fract_z
 _atom_site_occupancy
  Er  Er0  1  0.436374  0.063626  0.063626  1
  Er  Er1  1  0.442778  0.058824  0.435971  1
  Er  Er2  1  0.062427  0.435971  0.058824  1
  Er  Er3  1  0.442778  0.435971  0.058824  1
  Er  Er4  1  0.062427  0.058824  0.435971  1
  Er  Er5  1  0.184902  0.815098  0.815098  1
  Er  Er6  1  0.813209  0.186791  0.186791  1
  Er  Er7  1  0.811960  0.185699  0.813480  1
  Er  Er8  1  0.188861  0.813480  0.185699  1
  Er  Er9  1  0.811960  0.813480  0.185699  1
  Er  Er10  1  0.188861  0.185699  0.813480  1
  Th  Th11  1  0.591833  0.597951  0.597951  1
  Th  Th12  1  0.594405  0.597149  0.214042  1
  Th  Th13  1  0.594405  0.214042  0.597149  1
  Th  Th14  1  0.212265  0.597951  0.597951  1
  Th  Th15  1  0.069994  0.430006  0.430006  1
  In  In16  1  0.831565  0.835580  0.835580  1
  In  In17  1  0.833182  0.835508  0.498127  1
  In  In18  1  0.833182  0.498127  0.835508  1
  In  In19  1  0.497275  0.835580  0.835580  1
  Co  Co20  1  0.377456  0.398405  0.398405  1
  Co  Co21  1  0.396083  0.390660  0.817175  1
  Co  Co22  1  0.396083  0.817175  0.390660  1
  Co  Co23  1  0.825734  0.398405  0.398405  1
