# generated using pymatgen
data_HfMnNbB2Ru5
_symmetry_space_group_name_H-M   'P 1'
_cell_length_a   9.32654008
_cell_length_b   9.32654007
_cell_length_c   3.03206100
_cell_angle_alpha   90.00000000
_cell_angle_beta   90.00000000
_cell_angle_gamma   90.03109741
_symmetry_Int_Tables_number   1
_chemical_formula_structural   HfMnNbB2Ru5
_chemical_formula_sum   'Hf2 Mn2 Nb2 B4 Ru10'
_cell_volume   263.74181579
_cell_formula_units_Z   2
loop_
 _symmetry_equiv_pos_site_id
 _symmetry_equiv_pos_as_xyz
  1  'x, y, z'
loop_
 _atom_site_type_symbol
 _atom_site_label
 _atom_site_symmetry_multiplicity
 _atom_site_fract_x
 _atom_site_fract_y
 _atom_site_fract_z
 _atom_site_occupancy
  Hf  Hf0  1  0.822971  0.677029  0.000000  1
  Hf  Hf1  1  0.177029  0.322971  0.000000  1
  Mn  Mn2  1  0.500000  0.500000  0.000000  1
  Mn  Mn3  1  0.000000  0.000000  0.000000  1
  Nb  Nb4  1  0.322505  0.822505  0.000000  1
  Nb  Nb5  1  0.677495  0.177495  0.000000  1
  B  B6  1  0.623927  0.876073  0.000000  1
  B  B7  1  0.376073  0.123927  0.000000  1
  B  B8  1  0.123602  0.623602  0.000000  1
  B  B9  1  0.876398  0.376398  0.000000  1
  Ru  Ru10  1  0.567291  0.715187  0.500000  1
  Ru  Ru11  1  0.432709  0.284813  0.500000  1
  Ru  Ru12  1  0.073261  0.787359  0.500000  1
  Ru  Ru13  1  0.926739  0.212641  0.500000  1
  Ru  Ru14  1  0.287359  0.573261  0.500000  1
  Ru  Ru15  1  0.712641  0.426739  0.500000  1
  Ru  Ru16  1  0.215187  0.067291  0.500000  1
  Ru  Ru17  1  0.784813  0.932709  0.500000  1
  Ru  Ru18  1  0.500000  0.000000  0.500000  1
  Ru  Ru19  1  0.000000  0.500000  0.500000  1
