# generated using pymatgen
data_Y3ZrAl16(SiRh3)2
_symmetry_space_group_name_H-M   'P 1'
_cell_length_a   7.52289004
_cell_length_b   7.50553980
_cell_length_c   9.32642900
_cell_angle_alpha   90.00000000
_cell_angle_beta   90.00000000
_cell_angle_gamma   119.51742201
_symmetry_Int_Tables_number   1
_chemical_formula_structural   Y3ZrAl16(SiRh3)2
_chemical_formula_sum   'Y3 Zr1 Al16 Si2 Rh6'
_cell_volume   458.25168423
_cell_formula_units_Z   1
loop_
 _symmetry_equiv_pos_site_id
 _symmetry_equiv_pos_as_xyz
  1  'x, y, z'
loop_
 _atom_site_type_symbol
 _atom_site_label
 _atom_site_symmetry_multiplicity
 _atom_site_fract_x
 _atom_site_fract_y
 _atom_site_fract_z
 _atom_site_occupancy
  Y  Y0  1  0.006200  0.323063  0.750000  1
  Y  Y1  1  0.675867  0.994145  0.250000  1
  Y  Y2  1  0.324449  0.006412  0.750000  1
  Zr  Zr3  1  0.993256  0.675990  0.250000  1
  Al  Al4  1  0.000594  0.339650  0.079208  1
  Al  Al5  1  0.999715  0.664081  0.929492  1
  Al  Al6  1  0.999715  0.664081  0.570508  1
  Al  Al7  1  0.333555  0.998705  0.419879  1
  Al  Al8  1  0.000594  0.339650  0.420792  1
  Al  Al9  1  0.663136  0.997938  0.575733  1
  Al  Al10  1  0.663136  0.997938  0.924267  1
  Al  Al11  1  0.333555  0.998705  0.080121  1
  Al  Al12  1  0.336062  0.336075  0.552128  1
  Al  Al13  1  0.667853  0.665103  0.441059  1
  Al  Al14  1  0.667853  0.665103  0.058941  1
  Al  Al15  1  0.336062  0.336075  0.947872  1
  Al  Al16  1  0.331240  0.550705  0.250000  1
  Al  Al17  1  0.665965  0.452534  0.750000  1
  Al  Al18  1  0.555517  0.339256  0.250000  1
  Al  Al19  1  0.449080  0.662493  0.750000  1
  Si  Si20  1  0.125012  0.123072  0.250000  1
  Si  Si21  1  0.869908  0.867714  0.750000  1
  Rh  Rh22  1  0.672503  0.328473  0.001066  1
  Rh  Rh23  1  0.328877  0.672672  0.001690  1
  Rh  Rh24  1  0.328877  0.672672  0.498310  1
  Rh  Rh25  1  0.672503  0.328473  0.498934  1
  Rh  Rh26  1  0.999459  0.999611  0.001615  1
  Rh  Rh27  1  0.999459  0.999611  0.498385  1
