# generated using pymatgen
data_Ho5Er11Tl4(PdRh)2
_symmetry_space_group_name_H-M   'P 1'
_cell_length_a   9.66101565
_cell_length_b   9.65439078
_cell_length_c   9.65784119
_cell_angle_alpha   59.76045333
_cell_angle_beta   59.83002490
_cell_angle_gamma   59.83573481
_symmetry_Int_Tables_number   1
_chemical_formula_structural   Ho5Er11Tl4(PdRh)2
_chemical_formula_sum   'Ho5 Er11 Tl4 Pd2 Rh2'
_cell_volume   634.19472156
_cell_formula_units_Z   1
loop_
 _symmetry_equiv_pos_site_id
 _symmetry_equiv_pos_as_xyz
  1  'x, y, z'
loop_
 _atom_site_type_symbol
 _atom_site_label
 _atom_site_symmetry_multiplicity
 _atom_site_fract_x
 _atom_site_fract_y
 _atom_site_fract_z
 _atom_site_occupancy
  Ho  Ho0  1  0.191854  0.184077  0.811721  1
  Ho  Ho1  1  0.438256  0.061340  0.061820  1
  Ho  Ho2  1  0.434831  0.065776  0.437460  1
  Ho  Ho3  1  0.060441  0.440843  0.062489  1
  Ho  Ho4  1  0.646232  0.052545  0.652126  1
  Er  Er5  1  0.187707  0.812181  0.812430  1
  Er  Er6  1  0.060440  0.061731  0.440641  1
  Er  Er7  1  0.811236  0.188603  0.188437  1
  Er  Er8  1  0.811826  0.812265  0.183848  1
  Er  Er9  1  0.646076  0.652418  0.052715  1
  Er  Er10  1  0.644857  0.651314  0.650863  1
  Er  Er11  1  0.063884  0.437607  0.437071  1
  Er  Er12  1  0.058480  0.648453  0.648231  1
  Er  Er13  1  0.811771  0.183678  0.812406  1
  Er  Er14  1  0.435486  0.438748  0.064890  1
  Er  Er15  1  0.192272  0.811490  0.184234  1
  Tl  Tl16  1  0.414399  0.758920  0.413490  1
  Tl  Tl17  1  0.414788  0.413489  0.759181  1
  Tl  Tl18  1  0.758622  0.414010  0.414377  1
  Tl  Tl19  1  0.413441  0.412971  0.412180  1
  Pd  Pd20  1  0.856845  0.431449  0.855463  1
  Pd  Pd21  1  0.858235  0.855062  0.430279  1
  Rh  Rh22  1  0.429572  0.855856  0.857938  1
  Rh  Rh23  1  0.858448  0.855175  0.855713  1
