# generated using pymatgen
data_Nd2ErTm(Ir2O7)2
_symmetry_space_group_name_H-M   'P 1'
_cell_length_a   7.35978420
_cell_length_b   7.29778397
_cell_length_c   7.30905361
_cell_angle_alpha   59.50168968
_cell_angle_beta   59.77013255
_cell_angle_gamma   59.71856325
_symmetry_Int_Tables_number   1
_chemical_formula_structural   Nd2ErTm(Ir2O7)2
_chemical_formula_sum   'Nd2 Er1 Tm1 Ir4 O14'
_cell_volume   275.46306563
_cell_formula_units_Z   1
loop_
 _symmetry_equiv_pos_site_id
 _symmetry_equiv_pos_as_xyz
  1  'x, y, z'
loop_
 _atom_site_type_symbol
 _atom_site_label
 _atom_site_symmetry_multiplicity
 _atom_site_fract_x
 _atom_site_fract_y
 _atom_site_fract_z
 _atom_site_occupancy
  Nd  Nd0  1  0.625000  0.125000  0.125000  1
  Nd  Nd1  1  0.125000  0.125000  0.125000  1
  Er  Er2  1  0.125000  0.125000  0.625000  1
  Tm  Tm3  1  0.125000  0.625000  0.125000  1
  Ir  Ir4  1  0.125000  0.625000  0.625000  1
  Ir  Ir5  1  0.625000  0.125000  0.625000  1
  Ir  Ir6  1  0.625000  0.625000  0.125000  1
  Ir  Ir7  1  0.625000  0.625000  0.625000  1
  O  O8  1  0.721981  0.699032  0.290091  1
  O  O9  1  0.288551  0.289771  0.700689  1
  O  O10  1  0.720989  0.289771  0.700689  1
  O  O11  1  0.288896  0.699032  0.290091  1
  O  O12  1  0.289655  0.708858  0.711832  1
  O  O13  1  0.710848  0.289114  0.289190  1
  O  O14  1  0.528019  0.550968  0.959909  1
  O  O15  1  0.961449  0.960229  0.549311  1
  O  O16  1  0.529011  0.960229  0.549311  1
  O  O17  1  0.961104  0.550968  0.959909  1
  O  O18  1  0.960345  0.541142  0.538168  1
  O  O19  1  0.539152  0.960886  0.960810  1
  O  O20  1  0.241622  0.259610  0.257146  1
  O  O21  1  0.008378  0.990390  0.992854  1
