# generated using pymatgen
data_Y4Er3Lu5Co5Bi
_symmetry_space_group_name_H-M   'P 1'
_cell_length_a   8.24034582
_cell_length_b   8.23967791
_cell_length_c   8.24034668
_cell_angle_alpha   110.92176847
_cell_angle_beta   110.63085369
_cell_angle_gamma   106.89471079
_symmetry_Int_Tables_number   1
_chemical_formula_structural   Y4Er3Lu5Co5Bi
_chemical_formula_sum   'Y4 Er3 Lu5 Co5 Bi1'
_cell_volume   430.03445029
_cell_formula_units_Z   1
loop_
 _symmetry_equiv_pos_site_id
 _symmetry_equiv_pos_as_xyz
  1  'x, y, z'
loop_
 _atom_site_type_symbol
 _atom_site_label
 _atom_site_symmetry_multiplicity
 _atom_site_fract_x
 _atom_site_fract_y
 _atom_site_fract_z
 _atom_site_occupancy
  Y  Y0  1  0.287174  0.185928  0.472458  1
  Y  Y1  1  0.712140  0.813879  0.526484  1
  Y  Y2  1  0.287395  0.813879  0.101739  1
  Y  Y3  1  0.713471  0.185928  0.898754  1
  Er  Er4  1  0.791355  0.596566  0.805212  1
  Er  Er5  1  0.208570  0.014302  0.805732  1
  Er  Er6  1  0.791638  0.986449  0.194811  1
  Lu  Lu7  1  0.623170  0.312115  0.311504  1
  Lu  Lu8  1  0.376245  0.687553  0.687833  1
  Lu  Lu9  1  0.000611  0.312115  0.688945  1
  Lu  Lu10  1  0.999720  0.687553  0.311308  1
  Lu  Lu11  1  0.208135  0.403040  0.194904  1
  Co  Co12  1  0.000376  0.376087  0.375711  1
  Co  Co13  1  0.999865  0.623829  0.623965  1
  Co  Co14  1  0.387392  0.887148  0.499756  1
  Co  Co15  1  0.612454  0.112499  0.500045  1
  Co  Co16  1  0.000561  0.001141  0.000580  1
  Bi  Bi17  1  0.499729  0.499988  0.000260  1
