# generated using pymatgen
data_CaEr5Ni12(B2Ir)2
_symmetry_space_group_name_H-M   'P 1'
_cell_length_a   5.06356100
_cell_length_b   5.06356085
_cell_length_c   14.63673900
_cell_angle_alpha   90.00000000
_cell_angle_beta   90.00000000
_cell_angle_gamma   120.00000750
_symmetry_Int_Tables_number   1
_chemical_formula_structural   CaEr5Ni12(B2Ir)2
_chemical_formula_sum   'Ca1 Er5 Ni12 B4 Ir2'
_cell_volume   325.00272868
_cell_formula_units_Z   1
loop_
 _symmetry_equiv_pos_site_id
 _symmetry_equiv_pos_as_xyz
  1  'x, y, z'
loop_
 _atom_site_type_symbol
 _atom_site_label
 _atom_site_symmetry_multiplicity
 _atom_site_fract_x
 _atom_site_fract_y
 _atom_site_fract_z
 _atom_site_occupancy
  Ca  Ca0  1  0.333333  0.666667  0.468340  1
  Er  Er1  1  0.666667  0.333333  0.968263  1
  Er  Er2  1  0.666667  0.333333  0.528604  1
  Er  Er3  1  0.333333  0.666667  0.031961  1
  Er  Er4  1  0.666667  0.333333  0.749306  1
  Er  Er5  1  0.333333  0.666667  0.251486  1
  Ni  Ni6  1  0.835213  0.164787  0.346810  1
  Ni  Ni7  1  0.835213  0.670424  0.346810  1
  Ni  Ni8  1  0.834493  0.668984  0.151962  1
  Ni  Ni9  1  0.164365  0.835635  0.653359  1
  Ni  Ni10  1  0.671270  0.835635  0.653359  1
  Ni  Ni11  1  0.331016  0.165507  0.151962  1
  Ni  Ni12  1  0.834493  0.165507  0.151962  1
  Ni  Ni13  1  0.165535  0.331071  0.848334  1
  Ni  Ni14  1  0.165535  0.834465  0.848334  1
  Ni  Ni15  1  0.164365  0.328730  0.653359  1
  Ni  Ni16  1  0.668929  0.834465  0.848334  1
  Ni  Ni17  1  0.329576  0.164787  0.346810  1
  B  B18  1  0.666667  0.333333  0.250108  1
  B  B19  1  0.333333  0.666667  0.749885  1
  B  B20  1  0.000000  0.000000  0.750727  1
  B  B21  1  0.000000  0.000000  0.249422  1
  Ir  Ir22  1  0.000000  0.000000  0.000023  1
  Ir  Ir23  1  0.000000  0.000000  0.500480  1
