# generated using pymatgen
data_Dy2Er2Al19Ga5Pt8Rh
_symmetry_space_group_name_H-M   'P 1'
_cell_length_a   7.51987039
_cell_length_b   7.51919916
_cell_length_c   13.16196700
_cell_angle_alpha   84.56143192
_cell_angle_beta   100.90158117
_cell_angle_gamma   119.79381019
_symmetry_Int_Tables_number   1
_chemical_formula_structural   Dy2Er2Al19Ga5Pt8Rh
_chemical_formula_sum   'Dy2 Er2 Al19 Ga5 Pt8 Rh1'
_cell_volume   634.19481739
_cell_formula_units_Z   1
loop_
 _symmetry_equiv_pos_site_id
 _symmetry_equiv_pos_as_xyz
  1  'x, y, z'
loop_
 _atom_site_type_symbol
 _atom_site_label
 _atom_site_symmetry_multiplicity
 _atom_site_fract_x
 _atom_site_fract_y
 _atom_site_fract_z
 _atom_site_occupancy
  Dy  Dy0  1  0.735492  0.999709  0.190739  1
  Dy  Dy1  1  0.264298  0.997646  0.809278  1
  Er  Er2  1  0.061238  0.667130  0.189334  1
  Er  Er3  1  0.941953  0.336065  0.810639  1
  Al  Al4  1  0.601431  0.335429  0.183337  1
  Al  Al5  1  0.881050  0.665074  0.669564  1
  Al  Al6  1  0.118162  0.334787  0.330295  1
  Al  Al7  1  0.602542  0.458046  0.816378  1
  Al  Al8  1  0.395347  0.540032  0.184040  1
  Al  Al9  1  0.229901  0.339615  0.668650  1
  Al  Al10  1  0.769499  0.659714  0.329589  1
  Al  Al11  1  0.853621  0.333439  0.558913  1
  Al  Al12  1  0.186233  0.999726  0.559023  1
  Al  Al13  1  0.813514  0.999758  0.440528  1
  Al  Al14  1  0.348196  0.999262  0.054632  1
  Al  Al15  1  0.651626  0.000684  0.945888  1
  Al  Al16  1  0.556922  0.994737  0.670133  1
  Al  Al17  1  0.443246  0.005594  0.328830  1
  Al  Al18  1  0.519882  0.668612  0.560328  1
  Al  Al19  1  0.479712  0.331263  0.438863  1
  Al  Al20  1  0.689027  0.671212  0.047366  1
  Al  Al21  1  0.311878  0.329208  0.955524  1
  Al  Al22  1  0.145808  0.666689  0.440381  1
  Ga  Ga23  1  0.806583  0.874853  0.817354  1
  Ga  Ga24  1  0.195539  0.128612  0.182805  1
  Ga  Ga25  1  0.981421  0.669548  0.940092  1
  Ga  Ga26  1  0.017166  0.330393  0.060098  1
  Ga  Ga27  1  0.401258  0.662225  0.817034  1
  Pt  Pt28  1  0.336147  0.675281  0.003395  1
  Pt  Pt29  1  0.547098  0.326043  0.637754  1
  Pt  Pt30  1  0.452824  0.674186  0.362186  1
  Pt  Pt31  1  0.887650  0.008499  0.636528  1
  Pt  Pt32  1  0.112041  0.991195  0.363239  1
  Pt  Pt33  1  0.663493  0.325860  0.999106  1
  Pt  Pt34  1  0.203504  0.667219  0.636754  1
  Pt  Pt35  1  0.795300  0.332753  0.361222  1
  Rh  Rh36  1  0.999399  0.999901  0.000181  1
