# generated using pymatgen
data_Cs6Hg7F26
_symmetry_space_group_name_H-M   'P 1'
_cell_length_a   11.57161926
_cell_length_b   11.57162043
_cell_length_c   11.57161934
_cell_angle_alpha   145.78052706
_cell_angle_beta   107.04008537
_cell_angle_gamma   83.11192715
_symmetry_Int_Tables_number   1
_chemical_formula_structural   Cs6Hg7F26
_chemical_formula_sum   'Cs6 Hg7 F26'
_cell_volume   811.24465785
_cell_formula_units_Z   1
loop_
 _symmetry_equiv_pos_site_id
 _symmetry_equiv_pos_as_xyz
  1  'x, y, z'
loop_
 _atom_site_type_symbol
 _atom_site_label
 _atom_site_symmetry_multiplicity
 _atom_site_fract_x
 _atom_site_fract_y
 _atom_site_fract_z
 _atom_site_occupancy
  Cs  Cs0  1  0.647576  0.147576  0.500000  1
  Cs  Cs1  1  0.352424  0.852424  0.500000  1
  Cs  Cs2  1  0.383348  0.648772  0.734575  1
  Cs  Cs3  1  0.914197  0.648772  0.265425  1
  Cs  Cs4  1  0.085803  0.351228  0.734575  1
  Cs  Cs5  1  0.616652  0.351228  0.265425  1
  Hg  Hg6  1  0.000000  0.252979  0.252979  1
  Hg  Hg7  1  0.275250  0.000000  0.275250  1
  Hg  Hg8  1  0.000000  0.747021  0.747021  1
  Hg  Hg9  1  0.724750  0.000000  0.724750  1
  Hg  Hg10  1  0.231858  0.231858  0.000000  1
  Hg  Hg11  1  0.768142  0.768142  0.000000  1
  Hg  Hg12  1  0.500000  0.500000  0.000000  1
  F  F13  1  0.133131  0.024351  0.676470  1
  F  F14  1  0.866869  0.543339  0.891220  1
  F  F15  1  0.652119  0.975649  0.108780  1
  F  F16  1  0.347881  0.456661  0.323530  1
  F  F17  1  0.866869  0.975649  0.323530  1
  F  F18  1  0.133131  0.456661  0.108780  1
  F  F19  1  0.347881  0.024351  0.891220  1
  F  F20  1  0.652119  0.543339  0.676470  1
  F  F21  1  0.611547  0.745479  0.357026  1
  F  F22  1  0.388453  0.745479  0.133933  1
  F  F23  1  0.611547  0.254521  0.866067  1
  F  F24  1  0.388453  0.254521  0.642974  1
  F  F25  1  0.837987  0.750295  0.588281  1
  F  F26  1  0.162013  0.750295  0.912308  1
  F  F27  1  0.837987  0.249705  0.087692  1
  F  F28  1  0.162013  0.249705  0.411719  1
  F  F29  1  0.910896  0.910896  0.000000  1
  F  F30  1  0.089104  0.089104  0.000000  1
  F  F31  1  0.621022  0.621022  0.000000  1
  F  F32  1  0.911010  0.411010  0.500000  1
  F  F33  1  0.838389  0.117997  0.720392  1
  F  F34  1  0.161611  0.882003  0.279608  1
  F  F35  1  0.602395  0.882003  0.720392  1
  F  F36  1  0.397605  0.117997  0.279608  1
  F  F37  1  0.088990  0.588990  0.500000  1
  F  F38  1  0.378978  0.378978  0.000000  1
