# generated using pymatgen
data_Hf8Al14SiOs7
_symmetry_space_group_name_H-M   'P 1'
_cell_length_a   8.87945912
_cell_length_b   8.87945993
_cell_length_c   8.87945900
_cell_angle_alpha   120.15156950
_cell_angle_beta   120.00115072
_cell_angle_gamma   89.86784462
_symmetry_Int_Tables_number   1
_chemical_formula_structural   Hf8Al14SiOs7
_chemical_formula_sum   'Hf8 Al14 Si1 Os7'
_cell_volume   494.47099633
_cell_formula_units_Z   1
loop_
 _symmetry_equiv_pos_site_id
 _symmetry_equiv_pos_as_xyz
  1  'x, y, z'
loop_
 _atom_site_type_symbol
 _atom_site_label
 _atom_site_symmetry_multiplicity
 _atom_site_fract_x
 _atom_site_fract_y
 _atom_site_fract_z
 _atom_site_occupancy
  Hf  Hf0  1  0.803235  0.292484  0.081642  1
  Hf  Hf1  1  0.210834  0.292467  0.489249  1
  Hf  Hf2  1  0.201285  0.701285  0.500000  1
  Hf  Hf3  1  0.210844  0.721594  0.918358  1
  Hf  Hf4  1  0.803219  0.721586  0.510751  1
  Hf  Hf5  1  0.782334  0.282334  0.500000  1
  Hf  Hf6  1  0.379143  0.119389  0.740254  1
  Hf  Hf7  1  0.379136  0.638889  0.259746  1
  Al  Al8  1  0.163297  0.332743  0.169453  1
  Al  Al9  1  0.163291  0.993845  0.830547  1
  Al  Al10  1  0.155586  0.339715  0.815878  1
  Al  Al11  1  0.523837  0.339707  0.184122  1
  Al  Al12  1  0.837249  0.661374  0.824145  1
  Al  Al13  1  0.837229  0.013104  0.175855  1
  Al  Al14  1  0.834778  0.662163  0.172617  1
  Al  Al15  1  0.489545  0.662162  0.827383  1
  Al  Al16  1  0.379304  0.121351  0.257952  1
  Al  Al17  1  0.863399  0.121352  0.742048  1
  Al  Al18  1  0.619737  0.874738  0.255002  1
  Al  Al19  1  0.619736  0.364735  0.744998  1
  Al  Al20  1  0.621285  0.879524  0.741772  1
  Al  Al21  1  0.137750  0.879513  0.258228  1
  Si  Si22  1  0.992057  0.492057  0.500000  1
  Os  Os23  1  0.995002  0.997061  0.498784  1
  Os  Os24  1  0.498267  0.997053  0.002053  1
  Os  Os25  1  0.498827  0.498827  0.000000  1
  Os  Os26  1  0.498277  0.496217  0.501216  1
  Os  Os27  1  0.995001  0.496214  0.997947  1
  Os  Os28  1  0.999632  0.999632  0.000000  1
  Os  Os29  1  0.506881  0.006881  0.500000  1
