# generated using pymatgen
data_TbY2Tm13(Ga3Co)2
_symmetry_space_group_name_H-M   'P 1'
_cell_length_a   9.89134000
_cell_length_b   9.89523500
_cell_length_c   6.88493001
_cell_angle_alpha   89.99379533
_cell_angle_beta   89.99998262
_cell_angle_gamma   119.98691569
_symmetry_Int_Tables_number   1
_chemical_formula_structural   TbY2Tm13(Ga3Co)2
_chemical_formula_sum   'Tb1 Y2 Tm13 Ga6 Co2'
_cell_volume   583.67171272
_cell_formula_units_Z   1
loop_
 _symmetry_equiv_pos_site_id
 _symmetry_equiv_pos_as_xyz
  1  'x, y, z'
loop_
 _atom_site_type_symbol
 _atom_site_label
 _atom_site_symmetry_multiplicity
 _atom_site_fract_x
 _atom_site_fract_y
 _atom_site_fract_z
 _atom_site_occupancy
  Tb  Tb0  1  0.536045  0.072091  0.792854  1
  Y  Y1  1  0.000063  0.000127  0.269783  1
  Y  Y2  1  0.999985  0.999969  0.769749  1
  Tm  Tm3  1  0.173625  0.825487  0.990739  1
  Tm  Tm4  1  0.826352  0.174248  0.489855  1
  Tm  Tm5  1  0.174164  0.348328  0.990346  1
  Tm  Tm6  1  0.651862  0.825486  0.990736  1
  Tm  Tm7  1  0.347897  0.174249  0.489855  1
  Tm  Tm8  1  0.825818  0.651638  0.490312  1
  Tm  Tm9  1  0.333106  0.666212  0.673054  1
  Tm  Tm10  1  0.666938  0.333875  0.173516  1
  Tm  Tm11  1  0.463540  0.536471  0.293123  1
  Tm  Tm12  1  0.536444  0.463869  0.793230  1
  Tm  Tm13  1  0.463370  0.926739  0.293041  1
  Tm  Tm14  1  0.072932  0.536472  0.293122  1
  Tm  Tm15  1  0.927425  0.463869  0.793231  1
  Ga  Ga16  1  0.163732  0.836212  0.540488  1
  Ga  Ga17  1  0.836676  0.163856  0.041089  1
  Ga  Ga18  1  0.163755  0.327510  0.540783  1
  Ga  Ga19  1  0.672475  0.836211  0.540487  1
  Ga  Ga20  1  0.327180  0.163856  0.041092  1
  Ga  Ga21  1  0.836215  0.672428  0.040616  1
  Co  Co22  1  0.333306  0.666612  0.057734  1
  Co  Co23  1  0.667093  0.334184  0.557283  1
