# generated using pymatgen
data_Yb2Ga2Co2C
_symmetry_space_group_name_H-M   'P 1'
_cell_length_a   5.75267743
_cell_length_b   5.75267748
_cell_length_c   7.03802166
_cell_angle_alpha   126.60312203
_cell_angle_beta   126.60312349
_cell_angle_gamma   40.97443961
_symmetry_Int_Tables_number   1
_chemical_formula_structural   Yb2Ga2Co2C
_chemical_formula_sum   'Yb2 Ga2 Co2 C1'
_cell_volume   117.78971390
_cell_formula_units_Z   1
loop_
 _symmetry_equiv_pos_site_id
 _symmetry_equiv_pos_as_xyz
  1  'x, y, z'
loop_
 _atom_site_type_symbol
 _atom_site_label
 _atom_site_symmetry_multiplicity
 _atom_site_fract_x
 _atom_site_fract_y
 _atom_site_fract_z
 _atom_site_occupancy
  Yb  Yb0  1  0.556234  0.556234  0.285553  1
  Yb  Yb1  1  0.443766  0.443766  0.714446  1
  Ga  Ga2  1  0.836852  0.836852  0.280266  1
  Ga  Ga3  1  0.163148  0.163148  0.719735  1
  Co  Co4  1  0.191461  0.191461  0.086197  1
  Co  Co5  1  0.808540  0.808540  0.913804  1
  C  C6  1  0.000000  0.000000  0.000000  1
