# generated using pymatgen
data_Y4FePt3O14
_symmetry_space_group_name_H-M   'P 1'
_cell_length_a   7.31076602
_cell_length_b   7.31076699
_cell_length_c   7.31076695
_cell_angle_alpha   59.31868167
_cell_angle_beta   59.31867717
_cell_angle_gamma   59.31867670
_symmetry_Int_Tables_number   1
_chemical_formula_structural   Y4FePt3O14
_chemical_formula_sum   'Y4 Fe1 Pt3 O14'
_cell_volume   272.00957295
_cell_formula_units_Z   1
loop_
 _symmetry_equiv_pos_site_id
 _symmetry_equiv_pos_as_xyz
  1  'x, y, z'
loop_
 _atom_site_type_symbol
 _atom_site_label
 _atom_site_symmetry_multiplicity
 _atom_site_fract_x
 _atom_site_fract_y
 _atom_site_fract_z
 _atom_site_occupancy
  Y  Y0  1  0.500000  0.500000  0.500000  1
  Y  Y1  1  0.500000  0.000000  0.500000  1
  Y  Y2  1  0.000000  0.500000  0.500000  1
  Y  Y3  1  0.500000  0.500000  0.000000  1
  Fe  Fe4  1  0.000000  0.000000  0.000000  1
  Pt  Pt5  1  0.000000  0.500000  0.000000  1
  Pt  Pt6  1  0.500000  0.000000  0.000000  1
  Pt  Pt7  1  0.000000  0.000000  0.500000  1
  O  O8  1  0.911824  0.911824  0.340090  1
  O  O9  1  0.340090  0.911824  0.911824  1
  O  O10  1  0.911824  0.340090  0.911824  1
  O  O11  1  0.338758  0.338758  0.909702  1
  O  O12  1  0.909702  0.338758  0.338758  1
  O  O13  1  0.338758  0.909702  0.338758  1
  O  O14  1  0.088176  0.088176  0.659910  1
  O  O15  1  0.659910  0.088176  0.088176  1
  O  O16  1  0.088176  0.659910  0.088176  1
  O  O17  1  0.661242  0.661242  0.090298  1
  O  O18  1  0.090298  0.661242  0.661242  1
  O  O19  1  0.661242  0.090298  0.661242  1
  O  O20  1  0.623436  0.623436  0.623436  1
  O  O21  1  0.376564  0.376564  0.376564  1
