# generated using pymatgen
data_Ho8Ta5Ti7Ge16
_symmetry_space_group_name_H-M   'P 1'
_cell_length_a   7.15146833
_cell_length_b   7.14144811
_cell_length_c   13.13876529
_cell_angle_alpha   90.02505553
_cell_angle_beta   90.06538260
_cell_angle_gamma   89.97873040
_symmetry_Int_Tables_number   1
_chemical_formula_structural   Ho8Ta5Ti7Ge16
_chemical_formula_sum   'Ho8 Ta5 Ti7 Ge16'
_cell_volume   671.02037077
_cell_formula_units_Z   1
loop_
 _symmetry_equiv_pos_site_id
 _symmetry_equiv_pos_as_xyz
  1  'x, y, z'
loop_
 _atom_site_type_symbol
 _atom_site_label
 _atom_site_symmetry_multiplicity
 _atom_site_fract_x
 _atom_site_fract_y
 _atom_site_fract_z
 _atom_site_occupancy
  Ho  Ho0  1  0.341286  0.000253  0.468230  1
  Ho  Ho1  1  0.499116  0.840553  0.718925  1
  Ho  Ho2  1  0.500425  0.159694  0.218569  1
  Ho  Ho3  1  0.840406  0.499548  0.281427  1
  Ho  Ho4  1  0.159930  0.500597  0.781142  1
  Ho  Ho5  1  0.658326  0.999327  0.968723  1
  Ho  Ho6  1  0.000387  0.340679  0.531413  1
  Ho  Ho7  1  0.000361  0.660884  0.031147  1
  Ta  Ta8  1  0.326205  0.326104  0.999471  1
  Ta  Ta9  1  0.171619  0.828167  0.250162  1
  Ta  Ta10  1  0.829878  0.170888  0.750712  1
  Ta  Ta11  1  0.672749  0.672549  0.499804  1
  Ta  Ta12  1  0.155244  0.008989  0.874553  1
  Ti  Ti13  1  0.491122  0.655268  0.124116  1
  Ti  Ti14  1  0.508907  0.344486  0.625179  1
  Ti  Ti15  1  0.655622  0.491174  0.874928  1
  Ti  Ti16  1  0.344756  0.508732  0.375347  1
  Ti  Ti17  1  0.844609  0.991581  0.374558  1
  Ti  Ti18  1  0.007678  0.154693  0.125484  1
  Ti  Ti19  1  0.992006  0.843753  0.625780  1
  Ge  Ge20  1  0.199624  0.128681  0.678517  1
  Ge  Ge21  1  0.372694  0.698093  0.929149  1
  Ge  Ge22  1  0.628345  0.301634  0.429846  1
  Ge  Ge23  1  0.698140  0.371775  0.070711  1
  Ge  Ge24  1  0.301977  0.628419  0.570340  1
  Ge  Ge25  1  0.801211  0.871494  0.179610  1
  Ge  Ge26  1  0.128495  0.199112  0.320499  1
  Ge  Ge27  1  0.867928  0.799065  0.820827  1
  Ge  Ge28  1  0.293218  0.959443  0.067992  1
  Ge  Ge29  1  0.540458  0.792261  0.316648  1
  Ge  Ge30  1  0.461141  0.208800  0.816252  1
  Ge  Ge31  1  0.793263  0.539754  0.682719  1
  Ge  Ge32  1  0.207234  0.459462  0.182999  1
  Ge  Ge33  1  0.707844  0.040209  0.567193  1
  Ge  Ge34  1  0.957253  0.296037  0.933818  1
  Ge  Ge35  1  0.040539  0.707838  0.433208  1
