# generated using pymatgen
data_TmThTcB6
_symmetry_space_group_name_H-M   'P 1'
_cell_length_a   3.75644900
_cell_length_b   9.21478400
_cell_length_c   11.64335900
_cell_angle_alpha   90.00000000
_cell_angle_beta   90.00000000
_cell_angle_gamma   90.00000000
_symmetry_Int_Tables_number   1
_chemical_formula_structural   TmThTcB6
_chemical_formula_sum   'Tm4 Th4 Tc4 B24'
_cell_volume   403.03331323
_cell_formula_units_Z   4
loop_
 _symmetry_equiv_pos_site_id
 _symmetry_equiv_pos_as_xyz
  1  'x, y, z'
loop_
 _atom_site_type_symbol
 _atom_site_label
 _atom_site_symmetry_multiplicity
 _atom_site_fract_x
 _atom_site_fract_y
 _atom_site_fract_z
 _atom_site_occupancy
  Tm  Tm0  1  0.000000  0.944722  0.372317  1
  Tm  Tm1  1  0.000000  0.055278  0.627683  1
  Tm  Tm2  1  0.000000  0.444722  0.127683  1
  Tm  Tm3  1  0.000000  0.555278  0.872317  1
  Th  Th4  1  0.000000  0.322168  0.414124  1
  Th  Th5  1  0.000000  0.677832  0.585876  1
  Th  Th6  1  0.000000  0.822168  0.085876  1
  Th  Th7  1  0.000000  0.177832  0.914124  1
  Tc  Tc8  1  0.000000  0.639597  0.319483  1
  Tc  Tc9  1  0.000000  0.360403  0.680517  1
  Tc  Tc10  1  0.000000  0.139597  0.180517  1
  Tc  Tc11  1  0.000000  0.860403  0.819483  1
  B  B12  1  0.500000  0.556319  0.429879  1
  B  B13  1  0.500000  0.443681  0.570121  1
  B  B14  1  0.500000  0.056319  0.070121  1
  B  B15  1  0.500000  0.943681  0.929879  1
  B  B16  1  0.500000  0.750525  0.417122  1
  B  B17  1  0.500000  0.249475  0.582878  1
  B  B18  1  0.500000  0.250525  0.082878  1
  B  B19  1  0.500000  0.749475  0.917122  1
  B  B20  1  0.500000  0.791406  0.266619  1
  B  B21  1  0.500000  0.208594  0.733381  1
  B  B22  1  0.500000  0.291406  0.233381  1
  B  B23  1  0.500000  0.708594  0.766619  1
  B  B24  1  0.500000  0.629974  0.185714  1
  B  B25  1  0.500000  0.370026  0.814286  1
  B  B26  1  0.500000  0.129974  0.314286  1
  B  B27  1  0.500000  0.870026  0.685714  1
  B  B28  1  0.500000  0.984822  0.214250  1
  B  B29  1  0.500000  0.015178  0.785750  1
  B  B30  1  0.500000  0.484822  0.285750  1
  B  B31  1  0.500000  0.515178  0.714250  1
  B  B32  1  0.500000  0.601635  0.027940  1
  B  B33  1  0.500000  0.398365  0.972060  1
  B  B34  1  0.500000  0.101635  0.472060  1
  B  B35  1  0.500000  0.898365  0.527940  1
