# generated using pymatgen
data_Tb3Bi(AuO5)2
_symmetry_space_group_name_H-M   'P 1'
_cell_length_a   8.55780215
_cell_length_b   8.55780215
_cell_length_c   5.75606675
_cell_angle_alpha   88.76761827
_cell_angle_beta   91.23238173
_cell_angle_gamma   90.04771515
_symmetry_Int_Tables_number   1
_chemical_formula_structural   Tb3Bi(AuO5)2
_chemical_formula_sum   'Tb6 Bi2 Au4 O20'
_cell_volume   421.35615023
_cell_formula_units_Z   2
loop_
 _symmetry_equiv_pos_site_id
 _symmetry_equiv_pos_as_xyz
  1  'x, y, z'
loop_
 _atom_site_type_symbol
 _atom_site_label
 _atom_site_symmetry_multiplicity
 _atom_site_fract_x
 _atom_site_fract_y
 _atom_site_fract_z
 _atom_site_occupancy
  Tb  Tb0  1  0.353515  0.655120  0.247255  1
  Tb  Tb1  1  0.844880  0.146485  0.747255  1
  Tb  Tb2  1  0.651741  0.651741  0.750000  1
  Tb  Tb3  1  0.655120  0.353515  0.252745  1
  Tb  Tb4  1  0.848259  0.848259  0.250000  1
  Tb  Tb5  1  0.146485  0.844880  0.752745  1
  Bi  Bi6  1  0.358077  0.358077  0.750000  1
  Bi  Bi7  1  0.141923  0.141923  0.250000  1
  Au  Au8  1  0.495587  0.999579  0.407281  1
  Au  Au9  1  0.500421  0.004413  0.907281  1
  Au  Au10  1  0.999579  0.495587  0.092719  1
  Au  Au11  1  0.004413  0.500421  0.592719  1
  O  O12  1  0.106876  0.289928  0.599890  1
  O  O13  1  0.911048  0.278477  0.112440  1
  O  O14  1  0.909603  0.716654  0.609360  1
  O  O15  1  0.716654  0.909603  0.890640  1
  O  O16  1  0.221523  0.588952  0.612440  1
  O  O17  1  0.406230  0.788679  0.894808  1
  O  O18  1  0.393124  0.210072  0.400110  1
  O  O19  1  0.783346  0.590397  0.109360  1
  O  O20  1  0.278477  0.911048  0.387560  1
  O  O21  1  0.588952  0.221523  0.887560  1
  O  O22  1  0.492392  0.498915  0.997489  1
  O  O23  1  0.498915  0.492392  0.502511  1
  O  O24  1  0.788679  0.406230  0.605192  1
  O  O25  1  0.093770  0.711321  0.105192  1
  O  O26  1  0.289928  0.106876  0.900110  1
  O  O27  1  0.590397  0.783346  0.390640  1
  O  O28  1  0.210072  0.393124  0.099890  1
  O  O29  1  0.007608  0.001085  0.002511  1
  O  O30  1  0.001085  0.007608  0.497489  1
  O  O31  1  0.711321  0.093770  0.394808  1
