# generated using pymatgen
data_Gd7Er2Th5Rh6
_symmetry_space_group_name_H-M   'P 1'
_cell_length_a   9.72366321
_cell_length_b   9.72366213
_cell_length_c   6.38026900
_cell_angle_alpha   89.77316529
_cell_angle_beta   90.22684058
_cell_angle_gamma   119.28409247
_symmetry_Int_Tables_number   1
_chemical_formula_structural   Gd7Er2Th5Rh6
_chemical_formula_sum   'Gd7 Er2 Th5 Rh6'
_cell_volume   526.15392327
_cell_formula_units_Z   1
loop_
 _symmetry_equiv_pos_site_id
 _symmetry_equiv_pos_as_xyz
  1  'x, y, z'
loop_
 _atom_site_type_symbol
 _atom_site_label
 _atom_site_symmetry_multiplicity
 _atom_site_fract_x
 _atom_site_fract_y
 _atom_site_fract_z
 _atom_site_occupancy
  Gd  Gd0  1  0.127545  0.872455  0.257372  1
  Gd  Gd1  1  0.462399  0.924464  0.548691  1
  Gd  Gd2  1  0.075536  0.537601  0.548691  1
  Gd  Gd3  1  0.460506  0.539494  0.546501  1
  Gd  Gd4  1  0.537911  0.077310  0.049615  1
  Gd  Gd5  1  0.922690  0.462089  0.049615  1
  Gd  Gd6  1  0.539075  0.460925  0.048981  1
  Er  Er7  1  0.666828  0.333172  0.530177  1
  Er  Er8  1  0.333394  0.666606  0.027770  1
  Th  Th9  1  0.873984  0.744863  0.759497  1
  Th  Th10  1  0.255137  0.126016  0.759497  1
  Th  Th11  1  0.871429  0.128571  0.760120  1
  Th  Th12  1  0.130328  0.256232  0.259573  1
  Th  Th13  1  0.743768  0.869672  0.259573  1
  Rh  Rh14  1  0.183097  0.364771  0.796348  1
  Rh  Rh15  1  0.635229  0.816903  0.796348  1
  Rh  Rh16  1  0.183821  0.816179  0.791671  1
  Rh  Rh17  1  0.808085  0.628340  0.300277  1
  Rh  Rh18  1  0.371660  0.191915  0.300277  1
  Rh  Rh19  1  0.817574  0.182426  0.290844  1
