# generated using pymatgen
data_Nd2Er(Ni3P2)3
_symmetry_space_group_name_H-M   'P 1'
_cell_length_a   3.82903700
_cell_length_b   10.52620700
_cell_length_c   12.40952000
_cell_angle_alpha   90.00000000
_cell_angle_beta   90.00000000
_cell_angle_gamma   90.00000000
_symmetry_Int_Tables_number   1
_chemical_formula_structural   Nd2Er(Ni3P2)3
_chemical_formula_sum   'Nd4 Er2 Ni18 P12'
_cell_volume   500.16863315
_cell_formula_units_Z   2
loop_
 _symmetry_equiv_pos_site_id
 _symmetry_equiv_pos_as_xyz
  1  'x, y, z'
loop_
 _atom_site_type_symbol
 _atom_site_label
 _atom_site_symmetry_multiplicity
 _atom_site_fract_x
 _atom_site_fract_y
 _atom_site_fract_z
 _atom_site_occupancy
  Nd  Nd0  1  0.000000  0.500000  0.521131  1
  Nd  Nd1  1  0.500000  0.000000  0.481390  1
  Nd  Nd2  1  0.500000  0.814063  0.204451  1
  Nd  Nd3  1  0.500000  0.185937  0.204451  1
  Er  Er4  1  0.000000  0.683337  0.795071  1
  Er  Er5  1  0.000000  0.316663  0.795071  1
  Ni  Ni6  1  0.000000  0.500000  0.979714  1
  Ni  Ni7  1  0.500000  0.000000  0.012665  1
  Ni  Ni8  1  0.500000  0.301009  0.428865  1
  Ni  Ni9  1  0.500000  0.698991  0.428865  1
  Ni  Ni10  1  0.000000  0.199753  0.576538  1
  Ni  Ni11  1  0.000000  0.800247  0.576538  1
  Ni  Ni12  1  0.500000  0.878757  0.714793  1
  Ni  Ni13  1  0.500000  0.121243  0.714793  1
  Ni  Ni14  1  0.000000  0.618056  0.288073  1
  Ni  Ni15  1  0.000000  0.381944  0.288073  1
  Ni  Ni16  1  0.500000  0.334808  0.993472  1
  Ni  Ni17  1  0.500000  0.665192  0.993472  1
  Ni  Ni18  1  0.000000  0.168742  0.000789  1
  Ni  Ni19  1  0.000000  0.831258  0.000789  1
  Ni  Ni20  1  0.500000  0.500000  0.155370  1
  Ni  Ni21  1  0.000000  0.000000  0.842566  1
  Ni  Ni22  1  0.500000  0.500000  0.701963  1
  Ni  Ni23  1  0.000000  0.000000  0.299366  1
  P  P24  1  0.500000  0.310364  0.617258  1
  P  P25  1  0.500000  0.689636  0.617258  1
  P  P26  1  0.000000  0.191185  0.388591  1
  P  P27  1  0.000000  0.808815  0.388591  1
  P  P28  1  0.500000  0.500000  0.875611  1
  P  P29  1  0.000000  0.000000  0.119016  1
  P  P30  1  0.500000  0.845554  0.893622  1
  P  P31  1  0.500000  0.154446  0.893622  1
  P  P32  1  0.000000  0.648590  0.103610  1
  P  P33  1  0.000000  0.351410  0.103610  1
  P  P34  1  0.500000  0.500000  0.339175  1
  P  P35  1  0.000000  0.000000  0.661764  1
