# generated using pymatgen
data_Zn6InSn5Rh12
_symmetry_space_group_name_H-M   'P 1'
_cell_length_a   4.43946200
_cell_length_b   6.27064200
_cell_length_c   13.36034700
_cell_angle_alpha   89.99942942
_cell_angle_beta   89.99774501
_cell_angle_gamma   90.00005322
_symmetry_Int_Tables_number   1
_chemical_formula_structural   Zn6InSn5Rh12
_chemical_formula_sum   'Zn6 In1 Sn5 Rh12'
_cell_volume   371.92903877
_cell_formula_units_Z   1
loop_
 _symmetry_equiv_pos_site_id
 _symmetry_equiv_pos_as_xyz
  1  'x, y, z'
loop_
 _atom_site_type_symbol
 _atom_site_label
 _atom_site_symmetry_multiplicity
 _atom_site_fract_x
 _atom_site_fract_y
 _atom_site_fract_z
 _atom_site_occupancy
  Zn  Zn0  1  0.000004  0.499999  0.996675  1
  Zn  Zn1  1  0.499881  0.000002  0.166625  1
  Zn  Zn2  1  0.999883  0.500000  0.333304  1
  Zn  Zn3  1  0.499993  0.000001  0.500045  1
  Zn  Zn4  1  0.000114  0.499998  0.670047  1
  Zn  Zn5  1  0.500107  0.000002  0.833307  1
  In  In6  1  0.500158  0.500000  0.833398  1
  Sn  Sn7  1  0.000000  0.999999  0.999955  1
  Sn  Sn8  1  0.499893  0.499999  0.166279  1
  Sn  Sn9  1  0.999849  0.000000  0.333382  1
  Sn  Sn10  1  0.499999  0.500000  0.500293  1
  Sn  Sn11  1  0.000115  0.999998  0.666694  1
  Rh  Rh12  1  0.499992  0.248507  0.002513  1
  Rh  Rh13  1  0.499987  0.751495  0.002511  1
  Rh  Rh14  1  0.999904  0.249570  0.167252  1
  Rh  Rh15  1  0.999909  0.750429  0.167255  1
  Rh  Rh16  1  0.499877  0.250779  0.333318  1
  Rh  Rh17  1  0.499866  0.749225  0.333320  1
  Rh  Rh18  1  0.999996  0.249665  0.499418  1
  Rh  Rh19  1  0.000005  0.750332  0.499418  1
  Rh  Rh20  1  0.500100  0.248577  0.664163  1
  Rh  Rh21  1  0.500105  0.751425  0.664164  1
  Rh  Rh22  1  0.000139  0.244995  0.833333  1
  Rh  Rh23  1  0.000128  0.754998  0.833329  1
