# generated using pymatgen
data_Tm8Mg3Sc9Si15Ge
_symmetry_space_group_name_H-M   'P 1'
_cell_length_a   6.95538912
_cell_length_b   7.38490665
_cell_length_c   13.88534119
_cell_angle_alpha   90.00287407
_cell_angle_beta   89.93739882
_cell_angle_gamma   89.88709946
_symmetry_Int_Tables_number   1
_chemical_formula_structural   Tm8Mg3Sc9Si15Ge
_chemical_formula_sum   'Tm8 Mg3 Sc9 Si15 Ge1'
_cell_volume   713.21734190
_cell_formula_units_Z   1
loop_
 _symmetry_equiv_pos_site_id
 _symmetry_equiv_pos_as_xyz
  1  'x, y, z'
loop_
 _atom_site_type_symbol
 _atom_site_label
 _atom_site_symmetry_multiplicity
 _atom_site_fract_x
 _atom_site_fract_y
 _atom_site_fract_z
 _atom_site_occupancy
  Tm  Tm0  1  0.012789  0.179518  0.096547  1
  Tm  Tm1  1  0.991178  0.819292  0.904518  1
  Tm  Tm2  1  0.487984  0.675519  0.905139  1
  Tm  Tm3  1  0.990487  0.820556  0.595843  1
  Tm  Tm4  1  0.511808  0.321155  0.095983  1
  Tm  Tm5  1  0.011595  0.178508  0.402576  1
  Tm  Tm6  1  0.512691  0.319265  0.402680  1
  Tm  Tm7  1  0.490311  0.677788  0.595574  1
  Mg  Mg8  1  0.160188  0.507927  0.751341  1
  Mg  Mg9  1  0.841176  0.494327  0.249817  1
  Mg  Mg10  1  0.341285  0.006761  0.249594  1
  Sc  Sc11  1  0.659430  0.996059  0.750430  1
  Sc  Sc12  1  0.328230  0.178683  0.626988  1
  Sc  Sc13  1  0.668314  0.821610  0.373689  1
  Sc  Sc14  1  0.168506  0.681866  0.373942  1
  Sc  Sc15  1  0.668931  0.820478  0.125389  1
  Sc  Sc16  1  0.832762  0.323042  0.626085  1
  Sc  Sc17  1  0.326056  0.181579  0.874409  1
  Sc  Sc18  1  0.834138  0.322701  0.874235  1
  Sc  Sc19  1  0.169544  0.681329  0.125261  1
  Si  Si20  1  0.027949  0.097270  0.750324  1
  Si  Si21  1  0.965601  0.897510  0.249364  1
  Si  Si22  1  0.465057  0.604517  0.249750  1
  Si  Si23  1  0.535954  0.386672  0.750349  1
  Si  Si24  1  0.289502  0.877025  0.750501  1
  Si  Si25  1  0.717868  0.123910  0.249300  1
  Si  Si26  1  0.218012  0.376121  0.249834  1
  Si  Si27  1  0.778451  0.630800  0.750273  1
  Si  Si28  1  0.831966  0.538526  0.465428  1
  Si  Si29  1  0.338189  0.965275  0.465691  1
  Si  Si30  1  0.836797  0.537323  0.033708  1
  Si  Si31  1  0.659911  0.034223  0.537562  1
  Si  Si32  1  0.161887  0.462421  0.967418  1
  Si  Si33  1  0.659452  0.033617  0.962136  1
  Si  Si34  1  0.339241  0.965608  0.034416  1
  Ge  Ge35  1  0.166766  0.461216  0.533907  1
