# generated using pymatgen
data_FeNi2P4PbO14
_symmetry_space_group_name_H-M   'P 1'
_cell_length_a   7.82696300
_cell_length_b   7.59392851
_cell_length_c   9.61534833
_cell_angle_alpha   67.62880486
_cell_angle_beta   90.00000000
_cell_angle_gamma   90.00000000
_symmetry_Int_Tables_number   1
_chemical_formula_structural   FeNi2P4PbO14
_chemical_formula_sum   'Fe2 Ni4 P8 Pb2 O28'
_cell_volume   528.49791048
_cell_formula_units_Z   2
loop_
 _symmetry_equiv_pos_site_id
 _symmetry_equiv_pos_as_xyz
  1  'x, y, z'
loop_
 _atom_site_type_symbol
 _atom_site_label
 _atom_site_symmetry_multiplicity
 _atom_site_fract_x
 _atom_site_fract_y
 _atom_site_fract_z
 _atom_site_occupancy
  Fe  Fe0  1  0.620272  0.813945  0.028395  1
  Fe  Fe1  1  0.879728  0.813945  0.528395  1
  Ni  Ni2  1  0.371839  0.185907  0.973906  1
  Ni  Ni3  1  0.128161  0.185907  0.473906  1
  Ni  Ni4  1  0.000448  0.998293  0.000001  1
  Ni  Ni5  1  0.499552  0.998293  0.500001  1
  P  P6  1  0.553655  0.604374  0.798214  1
  P  P7  1  0.203871  0.892131  0.305365  1
  P  P8  1  0.442903  0.391620  0.202852  1
  P  P9  1  0.057097  0.391620  0.702852  1
  P  P10  1  0.701447  0.112750  0.193414  1
  P  P11  1  0.798553  0.112750  0.693414  1
  P  P12  1  0.296129  0.892131  0.805365  1
  P  P13  1  0.946345  0.604374  0.298214  1
  Pb  Pb14  1  0.501097  0.498984  0.502117  1
  Pb  Pb15  1  0.998903  0.498984  0.002117  1
  O  O16  1  0.116535  0.263690  0.865216  1
  O  O17  1  0.868410  0.318273  0.682094  1
  O  O18  1  0.627142  0.152597  0.611540  1
  O  O19  1  0.371829  0.685588  0.826849  1
  O  O20  1  0.889952  0.731884  0.134662  1
  O  O21  1  0.124181  0.847928  0.886251  1
  O  O22  1  0.477177  0.594828  0.192622  1
  O  O23  1  0.419943  0.980999  0.884349  1
  O  O24  1  0.571218  0.036128  0.110957  1
  O  O25  1  0.375819  0.847928  0.386251  1
  O  O26  1  0.679058  0.619815  0.914214  1
  O  O27  1  0.928782  0.036128  0.610957  1
  O  O28  1  0.128171  0.685588  0.326849  1
  O  O29  1  0.820942  0.619815  0.414214  1
  O  O30  1  0.291017  0.996597  0.633503  1
  O  O31  1  0.174900  0.371042  0.583854  1
  O  O32  1  0.631590  0.318273  0.182094  1
  O  O33  1  0.383465  0.263690  0.365216  1
  O  O34  1  0.610048  0.731884  0.634662  1
  O  O35  1  0.022823  0.594828  0.692622  1
  O  O36  1  0.708744  0.998422  0.364048  1
  O  O37  1  0.325100  0.371042  0.083854  1
  O  O38  1  0.791256  0.998422  0.864048  1
  O  O39  1  0.080057  0.980999  0.384349  1
  O  O40  1  0.872858  0.152597  0.111540  1
  O  O41  1  0.510563  0.404204  0.805577  1
  O  O42  1  0.989437  0.404204  0.305577  1
  O  O43  1  0.208983  0.996597  0.133503  1
