# generated using pymatgen
data_Nb6Ga6TcOs11
_symmetry_space_group_name_H-M   'P 1'
_cell_length_a   4.42127300
_cell_length_b   6.27242100
_cell_length_c   13.26567800
_cell_angle_alpha   90.00000000
_cell_angle_beta   90.00038443
_cell_angle_gamma   90.00000000
_symmetry_Int_Tables_number   1
_chemical_formula_structural   Nb6Ga6TcOs11
_chemical_formula_sum   'Nb6 Ga6 Tc1 Os11'
_cell_volume   367.88491799
_cell_formula_units_Z   1
loop_
 _symmetry_equiv_pos_site_id
 _symmetry_equiv_pos_as_xyz
  1  'x, y, z'
loop_
 _atom_site_type_symbol
 _atom_site_label
 _atom_site_symmetry_multiplicity
 _atom_site_fract_x
 _atom_site_fract_y
 _atom_site_fract_z
 _atom_site_occupancy
  Nb  Nb0  1  0.000000  0.497430  0.000000  1
  Nb  Nb1  1  0.499841  0.001151  0.165203  1
  Nb  Nb2  1  0.999844  0.500222  0.332834  1
  Nb  Nb3  1  0.500000  0.999649  0.500000  1
  Nb  Nb4  1  0.000157  0.500222  0.667166  1
  Nb  Nb5  1  0.500159  0.001151  0.834798  1
  Ga  Ga6  1  0.000000  0.001232  0.000000  1
  Ga  Ga7  1  0.499822  0.499327  0.165971  1
  Ga  Ga8  1  0.999820  0.999989  0.333230  1
  Ga  Ga9  1  0.500000  0.500179  0.500000  1
  Ga  Ga10  1  0.000178  0.999989  0.666770  1
  Ga  Ga11  1  0.500176  0.499327  0.834029  1
  Tc  Tc12  1  0.500000  0.250318  0.000000  1
  Os  Os13  1  0.500000  0.750120  0.000000  1
  Os  Os14  1  0.999843  0.249347  0.167650  1
  Os  Os15  1  0.999838  0.750286  0.167427  1
  Os  Os16  1  0.499840  0.250624  0.334149  1
  Os  Os17  1  0.499842  0.749477  0.333714  1
  Os  Os18  1  0.000000  0.249714  0.500000  1
  Os  Os19  1  0.000000  0.750519  0.500000  1
  Os  Os20  1  0.500160  0.250624  0.665851  1
  Os  Os21  1  0.500158  0.749477  0.666286  1
  Os  Os22  1  0.000157  0.249347  0.832349  1
  Os  Os23  1  0.000162  0.750286  0.832572  1
