# generated using pymatgen
data_Pr16Dy3InIr12
_symmetry_space_group_name_H-M   'P 1'
_cell_length_a   11.29924500
_cell_length_b   11.29924500
_cell_length_c   6.48531600
_cell_angle_alpha   90.00000000
_cell_angle_beta   90.00000000
_cell_angle_gamma   90.00000000
_symmetry_Int_Tables_number   1
_chemical_formula_structural   Pr16Dy3InIr12
_chemical_formula_sum   'Pr16 Dy3 In1 Ir12'
_cell_volume   827.99934479
_cell_formula_units_Z   1
loop_
 _symmetry_equiv_pos_site_id
 _symmetry_equiv_pos_as_xyz
  1  'x, y, z'
loop_
 _atom_site_type_symbol
 _atom_site_label
 _atom_site_symmetry_multiplicity
 _atom_site_fract_x
 _atom_site_fract_y
 _atom_site_fract_z
 _atom_site_occupancy
  Pr  Pr0  1  0.278963  0.085318  0.384140  1
  Pr  Pr1  1  0.289034  0.912849  0.884025  1
  Pr  Pr2  1  0.710966  0.087151  0.884025  1
  Pr  Pr3  1  0.721037  0.914682  0.384140  1
  Pr  Pr4  1  0.588172  0.789384  0.885892  1
  Pr  Pr5  1  0.587710  0.209881  0.382408  1
  Pr  Pr6  1  0.412290  0.790119  0.382408  1
  Pr  Pr7  1  0.411828  0.210616  0.885892  1
  Pr  Pr8  1  0.209881  0.412290  0.617592  1
  Pr  Pr9  1  0.210616  0.588172  0.114108  1
  Pr  Pr10  1  0.789384  0.411828  0.114108  1
  Pr  Pr11  1  0.790119  0.587710  0.617592  1
  Pr  Pr12  1  0.912849  0.710966  0.115975  1
  Pr  Pr13  1  0.914682  0.278963  0.615860  1
  Pr  Pr14  1  0.085318  0.721037  0.615860  1
  Pr  Pr15  1  0.087151  0.289034  0.115975  1
  Dy  Dy16  1  0.000000  0.000000  0.000000  1
  Dy  Dy17  1  0.500000  0.500000  0.000000  1
  Dy  Dy18  1  0.500000  0.500000  0.500000  1
  In  In19  1  0.000000  0.000000  0.500000  1
  Ir  Ir20  1  0.850951  0.152258  0.242847  1
  Ir  Ir21  1  0.847742  0.850951  0.757153  1
  Ir  Ir22  1  0.152258  0.149049  0.757153  1
  Ir  Ir23  1  0.149049  0.847742  0.242847  1
  Ir  Ir24  1  0.649297  0.352462  0.746634  1
  Ir  Ir25  1  0.647538  0.649297  0.253366  1
  Ir  Ir26  1  0.352462  0.350703  0.253366  1
  Ir  Ir27  1  0.350703  0.647538  0.746634  1
  Ir  Ir28  1  0.500000  0.000000  0.121441  1
  Ir  Ir29  1  0.500000  0.000000  0.615537  1
  Ir  Ir30  1  0.000000  0.500000  0.878559  1
  Ir  Ir31  1  0.000000  0.500000  0.384463  1
