# generated using pymatgen
data_CaMn4As3
_symmetry_space_group_name_H-M   'P 1'
_cell_length_a   3.68297700
_cell_length_b   11.79904600
_cell_length_c   11.99433300
_cell_angle_alpha   90.00000000
_cell_angle_beta   90.00000000
_cell_angle_gamma   90.00000000
_symmetry_Int_Tables_number   1
_chemical_formula_structural   CaMn4As3
_chemical_formula_sum   'Ca4 Mn16 As12'
_cell_volume   521.22111751
_cell_formula_units_Z   4
loop_
 _symmetry_equiv_pos_site_id
 _symmetry_equiv_pos_as_xyz
  1  'x, y, z'
loop_
 _atom_site_type_symbol
 _atom_site_label
 _atom_site_symmetry_multiplicity
 _atom_site_fract_x
 _atom_site_fract_y
 _atom_site_fract_z
 _atom_site_occupancy
  Ca  Ca0  1  0.250000  0.071733  0.838007  1
  Ca  Ca1  1  0.750000  0.928267  0.161993  1
  Ca  Ca2  1  0.750000  0.571733  0.661993  1
  Ca  Ca3  1  0.250000  0.428267  0.338007  1
  Mn  Mn4  1  0.250000  0.774818  0.817634  1
  Mn  Mn5  1  0.750000  0.225182  0.182366  1
  Mn  Mn6  1  0.750000  0.274818  0.682366  1
  Mn  Mn7  1  0.250000  0.725182  0.317634  1
  Mn  Mn8  1  0.250000  0.376217  0.807014  1
  Mn  Mn9  1  0.750000  0.623783  0.192986  1
  Mn  Mn10  1  0.750000  0.876217  0.692986  1
  Mn  Mn11  1  0.250000  0.123783  0.307014  1
  Mn  Mn12  1  0.250000  0.312468  0.034518  1
  Mn  Mn13  1  0.750000  0.687532  0.965482  1
  Mn  Mn14  1  0.750000  0.812468  0.465482  1
  Mn  Mn15  1  0.250000  0.187532  0.534518  1
  Mn  Mn16  1  0.250000  0.537445  0.064701  1
  Mn  Mn17  1  0.750000  0.462555  0.935299  1
  Mn  Mn18  1  0.750000  0.037445  0.435299  1
  Mn  Mn19  1  0.250000  0.962555  0.564701  1
  As  As20  1  0.250000  0.576939  0.862835  1
  As  As21  1  0.750000  0.423061  0.137165  1
  As  As22  1  0.750000  0.076939  0.637165  1
  As  As23  1  0.250000  0.923061  0.362835  1
  As  As24  1  0.250000  0.764514  0.614325  1
  As  As25  1  0.750000  0.235486  0.385675  1
  As  As26  1  0.750000  0.264514  0.885675  1
  As  As27  1  0.250000  0.735486  0.114324  1
  As  As28  1  0.250000  0.381383  0.604406  1
  As  As29  1  0.750000  0.618617  0.395594  1
  As  As30  1  0.750000  0.881383  0.895594  1
  As  As31  1  0.250000  0.118617  0.104406  1
