# generated using pymatgen
data_Pr9Bi5NO4
_symmetry_space_group_name_H-M   'P 1'
_cell_length_a   10.44028800
_cell_length_b   10.44028800
_cell_length_c   9.49299700
_cell_angle_alpha   90.00000000
_cell_angle_beta   90.00000000
_cell_angle_gamma   90.00000000
_symmetry_Int_Tables_number   1
_chemical_formula_structural   Pr9Bi5NO4
_chemical_formula_sum   'Pr18 Bi10 N2 O8'
_cell_volume   1034.73300417
_cell_formula_units_Z   2
loop_
 _symmetry_equiv_pos_site_id
 _symmetry_equiv_pos_as_xyz
  1  'x, y, z'
loop_
 _atom_site_type_symbol
 _atom_site_label
 _atom_site_symmetry_multiplicity
 _atom_site_fract_x
 _atom_site_fract_y
 _atom_site_fract_z
 _atom_site_occupancy
  Pr  Pr0  1  0.723733  0.919302  0.001404  1
  Pr  Pr1  1  0.580698  0.223733  0.001404  1
  Pr  Pr2  1  0.000000  0.500000  0.316235  1
  Pr  Pr3  1  0.776267  0.580698  0.998596  1
  Pr  Pr4  1  0.223733  0.419302  0.998596  1
  Pr  Pr5  1  0.205110  0.895800  0.337607  1
  Pr  Pr6  1  0.276267  0.080698  0.001404  1
  Pr  Pr7  1  0.895800  0.794890  0.662393  1
  Pr  Pr8  1  0.919302  0.276267  0.998596  1
  Pr  Pr9  1  0.294890  0.604200  0.662393  1
  Pr  Pr10  1  0.419302  0.776267  0.001404  1
  Pr  Pr11  1  0.104200  0.205110  0.662393  1
  Pr  Pr12  1  0.794890  0.104200  0.337607  1
  Pr  Pr13  1  0.500000  0.000000  0.683765  1
  Pr  Pr14  1  0.080698  0.723733  0.998596  1
  Pr  Pr15  1  0.395800  0.294890  0.337607  1
  Pr  Pr16  1  0.705110  0.395800  0.662393  1
  Pr  Pr17  1  0.604200  0.705110  0.337607  1
  Bi  Bi18  1  0.500000  0.000000  0.317862  1
  Bi  Bi19  1  0.194302  0.903111  0.696820  1
  Bi  Bi20  1  0.403111  0.305698  0.696820  1
  Bi  Bi21  1  0.000000  0.500000  0.682138  1
  Bi  Bi22  1  0.694302  0.403111  0.303180  1
  Bi  Bi23  1  0.096889  0.194302  0.303180  1
  Bi  Bi24  1  0.596889  0.694302  0.696820  1
  Bi  Bi25  1  0.305698  0.596889  0.303180  1
  Bi  Bi26  1  0.805698  0.096889  0.696820  1
  Bi  Bi27  1  0.903111  0.805698  0.303180  1
  N  N28  1  0.500000  0.000000  0.933545  1
  N  N29  1  0.000000  0.500000  0.066455  1
  O  O30  1  0.726159  0.378639  0.910482  1
  O  O31  1  0.621361  0.726159  0.089518  1
  O  O32  1  0.378639  0.273841  0.089518  1
  O  O33  1  0.121361  0.226159  0.910482  1
  O  O34  1  0.273841  0.621361  0.910482  1
  O  O35  1  0.226159  0.878639  0.089518  1
  O  O36  1  0.878639  0.773841  0.910482  1
  O  O37  1  0.773841  0.121361  0.089518  1
