# generated using pymatgen
data_Ba3Sr(Te2O5)4
_symmetry_space_group_name_H-M   'P 1'
_cell_length_a   6.42956597
_cell_length_b   9.86155820
_cell_length_c   11.90032405
_cell_angle_alpha   113.01854745
_cell_angle_beta   90.05755776
_cell_angle_gamma   89.86682688
_symmetry_Int_Tables_number   1
_chemical_formula_structural   Ba3Sr(Te2O5)4
_chemical_formula_sum   'Ba3 Sr1 Te8 O20'
_cell_volume   694.46632484
_cell_formula_units_Z   1
loop_
 _symmetry_equiv_pos_site_id
 _symmetry_equiv_pos_as_xyz
  1  'x, y, z'
loop_
 _atom_site_type_symbol
 _atom_site_label
 _atom_site_symmetry_multiplicity
 _atom_site_fract_x
 _atom_site_fract_y
 _atom_site_fract_z
 _atom_site_occupancy
  Ba  Ba0  1  0.208326  0.124733  0.139809  1
  Ba  Ba1  1  0.709690  0.375569  0.359330  1
  Ba  Ba2  1  0.287983  0.626509  0.641607  1
  Sr  Sr3  1  0.799097  0.876935  0.853893  1
  Te  Te4  1  0.620189  0.359091  0.011111  1
  Te  Te5  1  0.678906  0.938379  0.203203  1
  Te  Te6  1  0.173205  0.558884  0.288034  1
  Te  Te7  1  0.114874  0.142349  0.494425  1
  Te  Te8  1  0.881497  0.866162  0.512720  1
  Te  Te9  1  0.819167  0.452579  0.717157  1
  Te  Te10  1  0.329548  0.051863  0.791714  1
  Te  Te11  1  0.388951  0.633155  0.986061  1
  O  O12  1  0.614055  0.595654  0.078637  1
  O  O13  1  0.833252  0.978740  0.086142  1
  O  O14  1  0.438544  0.854146  0.095676  1
  O  O15  1  0.477195  0.360503  0.148319  1
  O  O16  1  0.018099  0.386231  0.209415  1
  O  O17  1  0.528297  0.113036  0.281459  1
  O  O18  1  0.985769  0.146559  0.354675  1
  O  O19  1  0.944280  0.643067  0.405592  1
  O  O20  1  0.334146  0.512033  0.399101  1
  O  O21  1  0.111486  0.904461  0.424296  1
  O  O22  1  0.885608  0.102807  0.583033  1
  O  O23  1  0.654926  0.483658  0.599681  1
  O  O24  1  0.051417  0.364711  0.601083  1
  O  O25  1  0.013795  0.860148  0.651074  1
  O  O26  1  0.491478  0.880691  0.718549  1
  O  O27  1  0.968880  0.629685  0.787136  1
  O  O28  1  0.530622  0.645136  0.852575  1
  O  O29  1  0.551611  0.133473  0.913890  1
  O  O30  1  0.153827  0.005162  0.897279  1
  O  O31  1  0.401270  0.393899  0.913326  1
