# generated using pymatgen
data_GaMo6Pt3N2
_symmetry_space_group_name_H-M   'P 1'
_cell_length_a   6.89376250
_cell_length_b   6.87775967
_cell_length_c   6.90673600
_cell_angle_alpha   90.00000000
_cell_angle_beta   90.00000000
_cell_angle_gamma   89.77236383
_symmetry_Int_Tables_number   1
_chemical_formula_structural   GaMo6Pt3N2
_chemical_formula_sum   'Ga2 Mo12 Pt6 N4'
_cell_volume   327.47092159
_cell_formula_units_Z   2
loop_
 _symmetry_equiv_pos_site_id
 _symmetry_equiv_pos_as_xyz
  1  'x, y, z'
loop_
 _atom_site_type_symbol
 _atom_site_label
 _atom_site_symmetry_multiplicity
 _atom_site_fract_x
 _atom_site_fract_y
 _atom_site_fract_z
 _atom_site_occupancy
  Ga  Ga0  1  0.186626  0.178264  0.184884  1
  Ga  Ga1  1  0.313374  0.821736  0.684884  1
  Mo  Mo2  1  0.624239  0.699040  0.962631  1
  Mo  Mo3  1  0.465541  0.874971  0.299827  1
  Mo  Mo4  1  0.707641  0.955015  0.618433  1
  Mo  Mo5  1  0.547845  0.376034  0.204434  1
  Mo  Mo6  1  0.378756  0.207169  0.544621  1
  Mo  Mo7  1  0.195520  0.534996  0.368899  1
  Mo  Mo8  1  0.875761  0.300960  0.462631  1
  Mo  Mo9  1  0.034459  0.125029  0.799827  1
  Mo  Mo10  1  0.304480  0.465004  0.868899  1
  Mo  Mo11  1  0.121244  0.792831  0.044621  1
  Mo  Mo12  1  0.792359  0.044985  0.118433  1
  Mo  Mo13  1  0.952155  0.623966  0.704434  1
  Pt  Pt14  1  0.423783  0.058784  0.937204  1
  Pt  Pt15  1  0.816073  0.686867  0.311067  1
  Pt  Pt16  1  0.683927  0.313133  0.811067  1
  Pt  Pt17  1  0.548676  0.572735  0.562553  1
  Pt  Pt18  1  0.076217  0.941216  0.437204  1
  Pt  Pt19  1  0.951324  0.427265  0.062553  1
  N  N20  1  0.373431  0.625029  0.130605  1
  N  N21  1  0.868434  0.871633  0.874842  1
  N  N22  1  0.126569  0.374971  0.630605  1
  N  N23  1  0.631566  0.128367  0.374842  1
