# generated using pymatgen
data_Sr4TiCo2O9
_symmetry_space_group_name_H-M   'P 1'
_cell_length_a   9.50382400
_cell_length_b   9.50382399
_cell_length_c   7.75559400
_cell_angle_alpha   90.00000000
_cell_angle_beta   90.00000000
_cell_angle_gamma   120.00000005
_symmetry_Int_Tables_number   1
_chemical_formula_structural   Sr4TiCo2O9
_chemical_formula_sum   'Sr12 Ti3 Co6 O27'
_cell_volume   606.65595764
_cell_formula_units_Z   3
loop_
 _symmetry_equiv_pos_site_id
 _symmetry_equiv_pos_as_xyz
  1  'x, y, z'
loop_
 _atom_site_type_symbol
 _atom_site_label
 _atom_site_symmetry_multiplicity
 _atom_site_fract_x
 _atom_site_fract_y
 _atom_site_fract_z
 _atom_site_occupancy
  Sr  Sr0  1  0.368399  0.000000  0.000000  1
  Sr  Sr1  1  0.000000  0.368400  0.000000  1
  Sr  Sr2  1  0.631601  0.631601  0.000000  1
  Sr  Sr3  1  0.300345  0.334810  0.250986  1
  Sr  Sr4  1  0.034464  0.699654  0.250986  1
  Sr  Sr5  1  0.665190  0.965535  0.250986  1
  Sr  Sr6  1  0.326655  0.000000  0.499999  1
  Sr  Sr7  1  0.000000  0.326656  0.499999  1
  Sr  Sr8  1  0.673344  0.673344  0.499999  1
  Sr  Sr9  1  0.699654  0.034465  0.749012  1
  Sr  Sr10  1  0.334811  0.300345  0.749012  1
  Sr  Sr11  1  0.965535  0.665189  0.749012  1
  Ti  Ti12  1  0.000000  0.000000  0.000000  1
  Ti  Ti13  1  0.666667  0.333334  0.244932  1
  Ti  Ti14  1  0.333334  0.666667  0.755067  1
  Co  Co15  1  0.333334  0.666667  0.095394  1
  Co  Co16  1  0.000000  0.000000  0.336679  1
  Co  Co17  1  0.333334  0.666667  0.423439  1
  Co  Co18  1  0.666667  0.333334  0.576559  1
  Co  Co19  1  0.000000  0.000000  0.663319  1
  Co  Co20  1  0.666667  0.333334  0.904604  1
  O  O21  1  0.681872  0.185225  0.064895  1
  O  O22  1  0.503353  0.318128  0.064895  1
  O  O23  1  0.814775  0.496647  0.064895  1
  O  O24  1  0.160127  0.009077  0.175188  1
  O  O25  1  0.990922  0.151050  0.175188  1
  O  O26  1  0.848950  0.839872  0.175188  1
  O  O27  1  0.168201  0.518609  0.260249  1
  O  O28  1  0.481391  0.649592  0.260249  1
  O  O29  1  0.350407  0.831798  0.260249  1
  O  O30  1  0.682373  0.187970  0.416264  1
  O  O31  1  0.505597  0.317627  0.416264  1
  O  O32  1  0.812030  0.494403  0.416264  1
  O  O33  1  0.847084  0.000000  0.499999  1
  O  O34  1  0.152915  0.152916  0.499999  1
  O  O35  1  0.000000  0.847085  0.499999  1
  O  O36  1  0.317628  0.505598  0.583735  1
  O  O37  1  0.187971  0.682373  0.583735  1
  O  O38  1  0.494401  0.812029  0.583735  1
  O  O39  1  0.518609  0.168203  0.739749  1
  O  O40  1  0.831797  0.350406  0.739749  1
  O  O41  1  0.649593  0.481391  0.739749  1
  O  O42  1  0.009078  0.160127  0.824811  1
  O  O43  1  0.839872  0.848950  0.824811  1
  O  O44  1  0.151050  0.990922  0.824811  1
  O  O45  1  0.318128  0.503352  0.935103  1
  O  O46  1  0.185225  0.681872  0.935103  1
  O  O47  1  0.496647  0.814775  0.935103  1
