# generated using pymatgen
data_YLu2Rh9
_symmetry_space_group_name_H-M   'P 1'
_cell_length_a   5.24245700
_cell_length_b   5.24245767
_cell_length_c   17.47557000
_cell_angle_alpha   90.00000000
_cell_angle_beta   90.00000000
_cell_angle_gamma   119.99998948
_symmetry_Int_Tables_number   1
_chemical_formula_structural   YLu2Rh9
_chemical_formula_sum   'Y2 Lu4 Rh18'
_cell_volume   415.94110093
_cell_formula_units_Z   2
loop_
 _symmetry_equiv_pos_site_id
 _symmetry_equiv_pos_as_xyz
  1  'x, y, z'
loop_
 _atom_site_type_symbol
 _atom_site_label
 _atom_site_symmetry_multiplicity
 _atom_site_fract_x
 _atom_site_fract_y
 _atom_site_fract_z
 _atom_site_occupancy
  Y  Y0  1  0.333333  0.666667  0.750000  1
  Y  Y1  1  0.666667  0.333333  0.250000  1
  Lu  Lu2  1  0.333333  0.666667  0.958751  1
  Lu  Lu3  1  0.666667  0.333333  0.041249  1
  Lu  Lu4  1  0.666667  0.333333  0.458751  1
  Lu  Lu5  1  0.333333  0.666667  0.541249  1
  Rh  Rh6  1  0.167552  0.832448  0.375685  1
  Rh  Rh7  1  0.167552  0.335105  0.375685  1
  Rh  Rh8  1  0.664895  0.832448  0.375685  1
  Rh  Rh9  1  0.832448  0.167552  0.624315  1
  Rh  Rh10  1  0.832448  0.664895  0.624315  1
  Rh  Rh11  1  0.335105  0.167552  0.624315  1
  Rh  Rh12  1  0.832448  0.167552  0.875685  1
  Rh  Rh13  1  0.832448  0.664895  0.875685  1
  Rh  Rh14  1  0.335105  0.167552  0.875685  1
  Rh  Rh15  1  0.167552  0.832448  0.124315  1
  Rh  Rh16  1  0.167552  0.335105  0.124315  1
  Rh  Rh17  1  0.664895  0.832448  0.124315  1
  Rh  Rh18  1  0.333333  0.666667  0.250000  1
  Rh  Rh19  1  0.666667  0.333333  0.750000  1
  Rh  Rh20  1  0.000000  0.000000  0.250000  1
  Rh  Rh21  1  0.000000  0.000000  0.750000  1
  Rh  Rh22  1  0.000000  0.000000  0.500000  1
  Rh  Rh23  1  0.000000  0.000000  0.000000  1
