# generated using pymatgen
data_Gd2Er2TcB12Rh
_symmetry_space_group_name_H-M   'P 1'
_cell_length_a   3.68331200
_cell_length_b   9.14768241
_cell_length_c   11.55239401
_cell_angle_alpha   90.37161642
_cell_angle_beta   90.00000000
_cell_angle_gamma   90.00000000
_symmetry_Int_Tables_number   1
_chemical_formula_structural   Gd2Er2TcB12Rh
_chemical_formula_sum   'Gd4 Er4 Tc2 B24 Rh2'
_cell_volume   389.23550089
_cell_formula_units_Z   2
loop_
 _symmetry_equiv_pos_site_id
 _symmetry_equiv_pos_as_xyz
  1  'x, y, z'
loop_
 _atom_site_type_symbol
 _atom_site_label
 _atom_site_symmetry_multiplicity
 _atom_site_fract_x
 _atom_site_fract_y
 _atom_site_fract_z
 _atom_site_occupancy
  Gd  Gd0  1  0.500000  0.319466  0.411477  1
  Gd  Gd1  1  0.500000  0.680534  0.588523  1
  Gd  Gd2  1  0.500000  0.173805  0.916632  1
  Gd  Gd3  1  0.500000  0.826195  0.083368  1
  Er  Er4  1  0.500000  0.441833  0.126862  1
  Er  Er5  1  0.500000  0.558167  0.873138  1
  Er  Er6  1  0.500000  0.053499  0.628494  1
  Er  Er7  1  0.500000  0.946501  0.371506  1
  Tc  Tc8  1  0.500000  0.139829  0.180716  1
  Tc  Tc9  1  0.500000  0.860171  0.819284  1
  B  B10  1  0.000000  0.106140  0.471637  1
  B  B11  1  0.000000  0.893860  0.528363  1
  B  B12  1  0.000000  0.395368  0.970840  1
  B  B13  1  0.000000  0.604632  0.029160  1
  B  B14  1  0.000000  0.132230  0.315087  1
  B  B15  1  0.000000  0.867770  0.684913  1
  B  B16  1  0.000000  0.367977  0.816538  1
  B  B17  1  0.000000  0.632023  0.183462  1
  B  B18  1  0.000000  0.053879  0.068211  1
  B  B19  1  0.000000  0.946121  0.931789  1
  B  B20  1  0.000000  0.444703  0.566895  1
  B  B21  1  0.000000  0.555297  0.433105  1
  B  B22  1  0.000000  0.484185  0.287386  1
  B  B23  1  0.000000  0.515815  0.712614  1
  B  B24  1  0.000000  0.015900  0.786516  1
  B  B25  1  0.000000  0.984100  0.213484  1
  B  B26  1  0.000000  0.248829  0.081908  1
  B  B27  1  0.000000  0.751171  0.918092  1
  B  B28  1  0.000000  0.250030  0.579429  1
  B  B29  1  0.000000  0.749970  0.420571  1
  B  B30  1  0.000000  0.292856  0.234555  1
  B  B31  1  0.000000  0.707144  0.765445  1
  B  B32  1  0.000000  0.208346  0.734422  1
  B  B33  1  0.000000  0.791654  0.265578  1
  Rh  Rh34  1  0.500000  0.360939  0.679550  1
  Rh  Rh35  1  0.500000  0.639061  0.320450  1
