# generated using pymatgen
data_Ho4Er16(GaBi3)3
_symmetry_space_group_name_H-M   'P 1'
_cell_length_a   8.09254794
_cell_length_b   9.35158200
_cell_length_c   11.90258436
_cell_angle_alpha   90.00000000
_cell_angle_beta   90.17880915
_cell_angle_gamma   90.00000000
_symmetry_Int_Tables_number   1
_chemical_formula_structural   Ho4Er16(GaBi3)3
_chemical_formula_sum   'Ho4 Er16 Ga3 Bi9'
_cell_volume   900.76088843
_cell_formula_units_Z   1
loop_
 _symmetry_equiv_pos_site_id
 _symmetry_equiv_pos_as_xyz
  1  'x, y, z'
loop_
 _atom_site_type_symbol
 _atom_site_label
 _atom_site_symmetry_multiplicity
 _atom_site_fract_x
 _atom_site_fract_y
 _atom_site_fract_z
 _atom_site_occupancy
  Ho  Ho0  1  0.324914  0.250000  0.211220  1
  Ho  Ho1  1  0.807878  0.250000  0.277301  1
  Ho  Ho2  1  0.677070  0.750000  0.786291  1
  Ho  Ho3  1  0.178976  0.750000  0.713607  1
  Er  Er4  1  0.350330  0.750000  0.205801  1
  Er  Er5  1  0.853755  0.750000  0.292845  1
  Er  Er6  1  0.650247  0.250000  0.794468  1
  Er  Er7  1  0.152075  0.250000  0.715672  1
  Er  Er8  1  0.682750  0.556851  0.056084  1
  Er  Er9  1  0.186135  0.929818  0.443560  1
  Er  Er10  1  0.316804  0.056279  0.944707  1
  Er  Er11  1  0.808393  0.450281  0.560751  1
  Er  Er12  1  0.316804  0.443721  0.944707  1
  Er  Er13  1  0.808393  0.049719  0.560751  1
  Er  Er14  1  0.682750  0.943149  0.056084  1
  Er  Er15  1  0.186135  0.570182  0.443560  1
  Er  Er16  1  0.478298  0.250000  0.490207  1
  Er  Er17  1  0.964869  0.250000  0.008693  1
  Er  Er18  1  0.537047  0.750000  0.509664  1
  Er  Er19  1  0.035644  0.750000  0.990766  1
  Ga  Ga20  1  0.408416  0.750000  0.959780  1
  Ga  Ga21  1  0.908285  0.750000  0.539584  1
  Ga  Ga22  1  0.593893  0.250000  0.038888  1
  Bi  Bi23  1  0.091598  0.250000  0.455946  1
  Bi  Bi24  1  0.559128  0.996423  0.323420  1
  Bi  Bi25  1  0.059734  0.501397  0.176026  1
  Bi  Bi26  1  0.439216  0.497753  0.677125  1
  Bi  Bi27  1  0.941193  0.000753  0.822961  1
  Bi  Bi28  1  0.439216  0.002247  0.677125  1
  Bi  Bi29  1  0.941193  0.499247  0.822961  1
  Bi  Bi30  1  0.559128  0.503577  0.323420  1
  Bi  Bi31  1  0.059734  0.998603  0.176026  1
