# generated using pymatgen
data_K3Sc(SiO3)3
_symmetry_space_group_name_H-M   'P 1'
_cell_length_a   6.62021884
_cell_length_b   6.65478899
_cell_length_c   6.66780100
_cell_angle_alpha   108.90251109
_cell_angle_beta   106.72475485
_cell_angle_gamma   107.64892199
_symmetry_Int_Tables_number   1
_chemical_formula_structural   K3Sc(SiO3)3
_chemical_formula_sum   'K3 Sc1 Si3 O9'
_cell_volume   239.33347387
_cell_formula_units_Z   1
loop_
 _symmetry_equiv_pos_site_id
 _symmetry_equiv_pos_as_xyz
  1  'x, y, z'
loop_
 _atom_site_type_symbol
 _atom_site_label
 _atom_site_symmetry_multiplicity
 _atom_site_fract_x
 _atom_site_fract_y
 _atom_site_fract_z
 _atom_site_occupancy
  K  K0  1  0.741140  0.890267  0.223623  1
  K  K1  1  0.585351  0.813516  0.643926  1
  K  K2  1  0.330134  0.177595  0.668724  1
  Sc  Sc3  1  0.061145  0.371584  0.101032  1
  Si  Si4  1  0.184407  0.898599  0.081951  1
  Si  Si5  1  0.594890  0.344239  0.234774  1
  Si  Si6  1  0.037261  0.491008  0.634496  1
  O  O7  1  0.703369  0.256586  0.051293  1
  O  O8  1  0.426285  0.465994  0.161138  1
  O  O9  1  0.110522  0.730784  0.203990  1
  O  O10  1  0.451909  0.114195  0.272851  1
  O  O11  1  0.155759  0.421056  0.456914  1
  O  O12  1  0.806359  0.531997  0.503511  1
  O  O13  1  0.968071  0.301758  0.737473  1
  O  O14  1  0.230061  0.758165  0.853157  1
  O  O15  1  0.006946  0.011203  0.007647  1
