# generated using pymatgen
data_Dy3TmCd2Si3Ge
_symmetry_space_group_name_H-M   'P 1'
_cell_length_a   7.18749986
_cell_length_b   7.18749910
_cell_length_c   4.18917100
_cell_angle_alpha   90.00000000
_cell_angle_beta   90.00000000
_cell_angle_gamma   89.87494959
_symmetry_Int_Tables_number   1
_chemical_formula_structural   Dy3TmCd2Si3Ge
_chemical_formula_sum   'Dy3 Tm1 Cd2 Si3 Ge1'
_cell_volume   216.41268176
_cell_formula_units_Z   1
loop_
 _symmetry_equiv_pos_site_id
 _symmetry_equiv_pos_as_xyz
  1  'x, y, z'
loop_
 _atom_site_type_symbol
 _atom_site_label
 _atom_site_symmetry_multiplicity
 _atom_site_fract_x
 _atom_site_fract_y
 _atom_site_fract_z
 _atom_site_occupancy
  Dy  Dy0  1  0.680494  0.177625  0.500000  1
  Dy  Dy1  1  0.322375  0.819506  0.500000  1
  Dy  Dy2  1  0.175540  0.324460  0.500000  1
  Tm  Tm3  1  0.822927  0.677073  0.500000  1
  Cd  Cd4  1  0.501975  0.503359  0.000000  1
  Cd  Cd5  1  0.996641  0.998025  0.000000  1
  Si  Si6  1  0.115801  0.617968  0.000000  1
  Si  Si7  1  0.882032  0.384199  0.000000  1
  Si  Si8  1  0.621465  0.878535  0.000000  1
  Ge  Ge9  1  0.380750  0.119250  0.000000  1
