# generated using pymatgen
data_Cs2RbSe3
_symmetry_space_group_name_H-M   'P 1'
_cell_length_a   9.69141089
_cell_length_b   9.71413775
_cell_length_c   6.58608900
_cell_angle_alpha   90.00000000
_cell_angle_beta   90.00000000
_cell_angle_gamma   120.07760790
_symmetry_Int_Tables_number   1
_chemical_formula_structural   Cs2RbSe3
_chemical_formula_sum   'Cs4 Rb2 Se6'
_cell_volume   536.54892538
_cell_formula_units_Z   2
loop_
 _symmetry_equiv_pos_site_id
 _symmetry_equiv_pos_as_xyz
  1  'x, y, z'
loop_
 _atom_site_type_symbol
 _atom_site_label
 _atom_site_symmetry_multiplicity
 _atom_site_fract_x
 _atom_site_fract_y
 _atom_site_fract_z
 _atom_site_occupancy
  Cs  Cs0  1  0.000000  0.311739  0.500000  1
  Cs  Cs1  1  0.000000  0.645998  0.000000  1
  Cs  Cs2  1  0.353563  0.353752  0.000000  1
  Cs  Cs3  1  0.646437  0.000188  0.000000  1
  Rb  Rb4  1  0.685580  0.685534  0.500000  1
  Rb  Rb5  1  0.314420  0.999954  0.500000  1
  Se  Se6  1  0.661685  0.333800  0.315506  1
  Se  Se7  1  0.661685  0.333800  0.684494  1
  Se  Se8  1  0.338315  0.672116  0.684494  1
  Se  Se9  1  0.338315  0.672116  0.315506  1
  Se  Se10  1  0.000000  0.995502  0.815530  1
  Se  Se11  1  0.000000  0.995502  0.184470  1
