# generated using pymatgen
data_Tb4TmLu(Si3Ru)8
_symmetry_space_group_name_H-M   'P 1'
_cell_length_a   10.10557352
_cell_length_b   10.10557418
_cell_length_c   8.14457507
_cell_angle_alpha   90.00760775
_cell_angle_beta   90.00761448
_cell_angle_gamma   132.54304492
_symmetry_Int_Tables_number   1
_chemical_formula_structural   Tb4TmLu(Si3Ru)8
_chemical_formula_sum   'Tb4 Tm1 Lu1 Si24 Ru8'
_cell_volume   612.80464677
_cell_formula_units_Z   1
loop_
 _symmetry_equiv_pos_site_id
 _symmetry_equiv_pos_as_xyz
  1  'x, y, z'
loop_
 _atom_site_type_symbol
 _atom_site_label
 _atom_site_symmetry_multiplicity
 _atom_site_fract_x
 _atom_site_fract_y
 _atom_site_fract_z
 _atom_site_occupancy
  Tb  Tb0  1  0.502696  0.002537  0.749694  1
  Tb  Tb1  1  0.997463  0.497304  0.250306  1
  Tb  Tb2  1  0.497304  0.997463  0.250306  1
  Tb  Tb3  1  0.002537  0.502696  0.749694  1
  Tm  Tm4  1  0.500000  0.500000  0.500000  1
  Lu  Lu5  1  0.000000  0.000000  0.000000  1
  Si  Si6  1  0.794357  0.205643  0.500000  1
  Si  Si7  1  0.294546  0.705454  0.000000  1
  Si  Si8  1  0.205643  0.794357  0.500000  1
  Si  Si9  1  0.705454  0.294546  0.000000  1
  Si  Si10  1  0.331439  0.331439  0.832813  1
  Si  Si11  1  0.668561  0.668561  0.167187  1
  Si  Si12  1  0.168203  0.168203  0.332732  1
  Si  Si13  1  0.831797  0.831797  0.667268  1
  Si  Si14  1  0.120767  0.886853  0.728545  1
  Si  Si15  1  0.113147  0.879233  0.271455  1
  Si  Si16  1  0.611895  0.378133  0.228669  1
  Si  Si17  1  0.621867  0.388105  0.771331  1
  Si  Si18  1  0.879233  0.113147  0.271455  1
  Si  Si19  1  0.886853  0.120767  0.728545  1
  Si  Si20  1  0.388105  0.621867  0.771331  1
  Si  Si21  1  0.378133  0.611895  0.228669  1
  Si  Si22  1  0.344700  0.111808  0.504004  1
  Si  Si23  1  0.888192  0.655300  0.495996  1
  Si  Si24  1  0.387391  0.154850  0.004643  1
  Si  Si25  1  0.845150  0.612609  0.995357  1
  Si  Si26  1  0.655300  0.888192  0.495996  1
  Si  Si27  1  0.111808  0.344700  0.504004  1
  Si  Si28  1  0.612609  0.845150  0.995357  1
  Si  Si29  1  0.154850  0.387391  0.004643  1
  Ru  Ru30  1  0.668067  0.331933  0.500000  1
  Ru  Ru31  1  0.168130  0.831870  0.000000  1
  Ru  Ru32  1  0.331933  0.668067  0.500000  1
  Ru  Ru33  1  0.831870  0.168130  0.000000  1
  Ru  Ru34  1  0.125152  0.125152  0.627217  1
  Ru  Ru35  1  0.874848  0.874848  0.372783  1
  Ru  Ru36  1  0.373795  0.373795  0.126960  1
  Ru  Ru37  1  0.626205  0.626205  0.873040  1
