# generated using pymatgen
data_Tb9Y3Tc3Rh
_symmetry_space_group_name_H-M   'P 1'
_cell_length_a   6.32811630
_cell_length_b   7.42855592
_cell_length_c   9.24495616
_cell_angle_alpha   89.94332310
_cell_angle_beta   90.01059376
_cell_angle_gamma   90.14747503
_symmetry_Int_Tables_number   1
_chemical_formula_structural   Tb9Y3Tc3Rh
_chemical_formula_sum   'Tb9 Y3 Tc3 Rh1'
_cell_volume   434.59231942
_cell_formula_units_Z   1
loop_
 _symmetry_equiv_pos_site_id
 _symmetry_equiv_pos_as_xyz
  1  'x, y, z'
loop_
 _atom_site_type_symbol
 _atom_site_label
 _atom_site_symmetry_multiplicity
 _atom_site_fract_x
 _atom_site_fract_y
 _atom_site_fract_z
 _atom_site_occupancy
  Tb  Tb0  1  0.631952  0.044052  0.250056  1
  Tb  Tb1  1  0.372570  0.957134  0.750043  1
  Tb  Tb2  1  0.125207  0.460108  0.750070  1
  Tb  Tb3  1  0.870293  0.541815  0.250146  1
  Tb  Tb4  1  0.163005  0.178359  0.061801  1
  Tb  Tb5  1  0.833470  0.823580  0.933617  1
  Tb  Tb6  1  0.662025  0.323138  0.935736  1
  Tb  Tb7  1  0.832844  0.824029  0.566235  1
  Tb  Tb8  1  0.338284  0.674139  0.061993  1
  Y  Y9  1  0.163327  0.178292  0.438645  1
  Y  Y10  1  0.338301  0.673794  0.438603  1
  Y  Y11  1  0.662045  0.323503  0.563678  1
  Tc  Tc12  1  0.460821  0.383614  0.249336  1
  Tc  Tc13  1  0.538639  0.616517  0.750717  1
  Tc  Tc14  1  0.964121  0.113405  0.750115  1
  Rh  Rh15  1  0.043095  0.884520  0.249209  1
