# generated using pymatgen
data_TiCu6MoS8
_symmetry_space_group_name_H-M   'P 1'
_cell_length_a   7.73105700
_cell_length_b   7.73105700
_cell_length_c   5.45898000
_cell_angle_alpha   90.00000000
_cell_angle_beta   90.00000000
_cell_angle_gamma   90.00000000
_symmetry_Int_Tables_number   1
_chemical_formula_structural   TiCu6MoS8
_chemical_formula_sum   'Ti1 Cu6 Mo1 S8'
_cell_volume   326.27909853
_cell_formula_units_Z   1
loop_
 _symmetry_equiv_pos_site_id
 _symmetry_equiv_pos_as_xyz
  1  'x, y, z'
loop_
 _atom_site_type_symbol
 _atom_site_label
 _atom_site_symmetry_multiplicity
 _atom_site_fract_x
 _atom_site_fract_y
 _atom_site_fract_z
 _atom_site_occupancy
  Ti  Ti0  1  0.000000  0.000000  0.000000  1
  Cu  Cu1  1  0.250877  0.749123  0.000000  1
  Cu  Cu2  1  0.749123  0.250877  0.000000  1
  Cu  Cu3  1  0.250877  0.250877  0.000000  1
  Cu  Cu4  1  0.749123  0.749123  0.000000  1
  Cu  Cu5  1  0.000000  0.000000  0.500000  1
  Cu  Cu6  1  0.500000  0.500000  0.500000  1
  Mo  Mo7  1  0.500000  0.500000  0.000000  1
  S  S8  1  0.500000  0.259887  0.760274  1
  S  S9  1  0.000000  0.757662  0.758687  1
  S  S10  1  0.500000  0.740113  0.760274  1
  S  S11  1  0.000000  0.242338  0.758687  1
  S  S12  1  0.757662  0.000000  0.241313  1
  S  S13  1  0.259887  0.500000  0.239726  1
  S  S14  1  0.242338  0.000000  0.241313  1
  S  S15  1  0.740113  0.500000  0.239726  1
