# generated using pymatgen
data_Dy3HoZr4F28
_symmetry_space_group_name_H-M   'P 1'
_cell_length_a   5.74718529
_cell_length_b   9.09351416
_cell_length_c   12.23374107
_cell_angle_alpha   62.38064286
_cell_angle_beta   90.01186797
_cell_angle_gamma   90.00165472
_symmetry_Int_Tables_number   1
_chemical_formula_structural   Dy3HoZr4F28
_chemical_formula_sum   'Dy3 Ho1 Zr4 F28'
_cell_volume   566.50400306
_cell_formula_units_Z   1
loop_
 _symmetry_equiv_pos_site_id
 _symmetry_equiv_pos_as_xyz
  1  'x, y, z'
loop_
 _atom_site_type_symbol
 _atom_site_label
 _atom_site_symmetry_multiplicity
 _atom_site_fract_x
 _atom_site_fract_y
 _atom_site_fract_z
 _atom_site_occupancy
  Dy  Dy0  1  0.743320  0.815675  0.266265  1
  Dy  Dy1  1  0.243409  0.184348  0.233796  1
  Dy  Dy2  1  0.257047  0.183273  0.733898  1
  Ho  Ho3  1  0.756615  0.815461  0.766131  1
  Zr  Zr4  1  0.744528  0.274215  0.455120  1
  Zr  Zr5  1  0.244165  0.725806  0.044849  1
  Zr  Zr6  1  0.255092  0.725576  0.545377  1
  Zr  Zr7  1  0.755348  0.274527  0.954709  1
  F  F8  1  0.467950  0.712050  0.920863  1
  F  F9  1  0.967632  0.288795  0.578903  1
  F  F10  1  0.532790  0.288561  0.078964  1
  F  F11  1  0.033685  0.711017  0.420890  1
  F  F12  1  0.453069  0.280885  0.549832  1
  F  F13  1  0.952367  0.719884  0.949745  1
  F  F14  1  0.546095  0.718992  0.450246  1
  F  F15  1  0.046558  0.280818  0.049909  1
  F  F16  1  0.767790  0.526602  0.857842  1
  F  F17  1  0.267485  0.473859  0.641790  1
  F  F18  1  0.233153  0.474179  0.142546  1
  F  F19  1  0.732758  0.526014  0.357531  1
  F  F20  1  0.759795  0.023105  0.058144  1
  F  F21  1  0.259822  0.977016  0.441469  1
  F  F22  1  0.240177  0.977216  0.941495  1
  F  F23  1  0.739783  0.022857  0.558964  1
  F  F24  1  0.982886  0.734242  0.649552  1
  F  F25  1  0.483884  0.266239  0.850224  1
  F  F26  1  0.014590  0.266193  0.349849  1
  F  F27  1  0.514352  0.733939  0.150177  1
  F  F28  1  0.034007  0.746344  0.173294  1
  F  F29  1  0.532849  0.254025  0.327057  1
  F  F30  1  0.967262  0.253087  0.827348  1
  F  F31  1  0.467797  0.746767  0.672934  1
  F  F32  1  0.429315  0.973263  0.235077  1
  F  F33  1  0.928768  0.026891  0.265051  1
  F  F34  1  0.573344  0.026294  0.765146  1
  F  F35  1  0.070511  0.971986  0.735013  1
