# generated using pymatgen
data_HgPd(PtO3)2
_symmetry_space_group_name_H-M   'P 1'
_cell_length_a   6.42860617
_cell_length_b   6.42860545
_cell_length_c   3.20393800
_cell_angle_alpha   90.00000000
_cell_angle_beta   90.00000000
_cell_angle_gamma   109.94586800
_symmetry_Int_Tables_number   1
_chemical_formula_structural   HgPd(PtO3)2
_chemical_formula_sum   'Hg1 Pd1 Pt2 O6'
_cell_volume   124.46654527
_cell_formula_units_Z   1
loop_
 _symmetry_equiv_pos_site_id
 _symmetry_equiv_pos_as_xyz
  1  'x, y, z'
loop_
 _atom_site_type_symbol
 _atom_site_label
 _atom_site_symmetry_multiplicity
 _atom_site_fract_x
 _atom_site_fract_y
 _atom_site_fract_z
 _atom_site_occupancy
  Hg  Hg0  1  0.500000  0.500000  0.000000  1
  Pd  Pd1  1  0.000000  0.000000  0.000000  1
  Pt  Pt2  1  0.000000  0.500000  0.500000  1
  Pt  Pt3  1  0.500000  0.000000  0.500000  1
  O  O4  1  0.665045  0.927400  0.000000  1
  O  O5  1  0.334955  0.072600  0.000000  1
  O  O6  1  0.927400  0.665045  0.000000  1
  O  O7  1  0.072600  0.334955  0.000000  1
  O  O8  1  0.669325  0.330675  0.500000  1
  O  O9  1  0.330675  0.669325  0.500000  1
