# generated using pymatgen
data_Dy2Y2Al18Ir5Au
_symmetry_space_group_name_H-M   'P 1'
_cell_length_a   7.58621404
_cell_length_b   7.58617660
_cell_length_c   9.47671420
_cell_angle_alpha   89.97139144
_cell_angle_beta   89.96708774
_cell_angle_gamma   119.58366859
_symmetry_Int_Tables_number   1
_chemical_formula_structural   Dy2Y2Al18Ir5Au
_chemical_formula_sum   'Dy2 Y2 Al18 Ir5 Au1'
_cell_volume   474.28886532
_cell_formula_units_Z   1
loop_
 _symmetry_equiv_pos_site_id
 _symmetry_equiv_pos_as_xyz
  1  'x, y, z'
loop_
 _atom_site_type_symbol
 _atom_site_label
 _atom_site_symmetry_multiplicity
 _atom_site_fract_x
 _atom_site_fract_y
 _atom_site_fract_z
 _atom_site_occupancy
  Dy  Dy0  1  0.995726  0.673144  0.251125  1
  Dy  Dy1  1  0.004274  0.326856  0.748875  1
  Y  Y2  1  0.673152  0.995694  0.251106  1
  Y  Y3  1  0.326848  0.004306  0.748894  1
  Al  Al4  1  0.135056  0.135013  0.256355  1
  Al  Al5  1  0.864944  0.864987  0.743645  1
  Al  Al6  1  0.001494  0.344270  0.079038  1
  Al  Al7  1  0.998506  0.655730  0.920962  1
  Al  Al8  1  0.000200  0.664671  0.573383  1
  Al  Al9  1  0.335271  0.999766  0.426588  1
  Al  Al10  1  0.999800  0.335329  0.426617  1
  Al  Al11  1  0.664729  0.000234  0.573412  1
  Al  Al12  1  0.655796  0.998542  0.920929  1
  Al  Al13  1  0.344204  0.001458  0.079071  1
  Al  Al14  1  0.333189  0.333213  0.552023  1
  Al  Al15  1  0.666811  0.666787  0.447977  1
  Al  Al16  1  0.658036  0.658008  0.058491  1
  Al  Al17  1  0.341964  0.341992  0.941509  1
  Al  Al18  1  0.339095  0.549677  0.251319  1
  Al  Al19  1  0.660905  0.450323  0.748681  1
  Al  Al20  1  0.549718  0.339185  0.251319  1
  Al  Al21  1  0.450282  0.660815  0.748681  1
  Ir  Ir22  1  0.671749  0.328294  0.999994  1
  Ir  Ir23  1  0.328251  0.671706  0.000006  1
  Ir  Ir24  1  0.328265  0.671672  0.499998  1
  Ir  Ir25  1  0.671735  0.328328  0.500002  1
  Ir  Ir26  1  0.000000  0.000000  0.500000  1
  Au  Au27  1  0.000000  0.000000  0.000000  1
