# generated using pymatgen
data_Na4SmPaSe6
_symmetry_space_group_name_H-M   'P 1'
_cell_length_a   7.31070293
_cell_length_b   7.31070285
_cell_length_c   7.38721900
_cell_angle_alpha   80.40463995
_cell_angle_beta   80.40464801
_cell_angle_gamma   120.01187474
_symmetry_Int_Tables_number   1
_chemical_formula_structural   Na4SmPaSe6
_chemical_formula_sum   'Na4 Sm1 Pa1 Se6'
_cell_volume   322.31807837
_cell_formula_units_Z   1
loop_
 _symmetry_equiv_pos_site_id
 _symmetry_equiv_pos_as_xyz
  1  'x, y, z'
loop_
 _atom_site_type_symbol
 _atom_site_label
 _atom_site_symmetry_multiplicity
 _atom_site_fract_x
 _atom_site_fract_y
 _atom_site_fract_z
 _atom_site_occupancy
  Na  Na0  1  0.000012  0.999988  0.000000  1
  Na  Na1  1  0.499639  0.500361  0.500000  1
  Na  Na2  1  0.839321  0.160679  0.500000  1
  Na  Na3  1  0.160649  0.839351  0.500000  1
  Sm  Sm4  1  0.667198  0.332802  0.000000  1
  Pa  Pa5  1  0.332730  0.667270  0.000000  1
  Se  Se6  1  0.269394  0.281451  0.232962  1
  Se  Se7  1  0.425378  0.065463  0.767344  1
  Se  Se8  1  0.090516  0.437924  0.770153  1
  Se  Se9  1  0.718549  0.730606  0.767038  1
  Se  Se10  1  0.562076  0.909484  0.229847  1
  Se  Se11  1  0.934537  0.574622  0.232656  1
