# generated using pymatgen
data_Nd20Ir5Pt6Au
_symmetry_space_group_name_H-M   'P 1'
_cell_length_a   11.46567425
_cell_length_b   11.46567368
_cell_length_c   6.54329432
_cell_angle_alpha   89.97997036
_cell_angle_beta   89.97996460
_cell_angle_gamma   89.97435803
_symmetry_Int_Tables_number   1
_chemical_formula_structural   Nd20Ir5Pt6Au
_chemical_formula_sum   'Nd20 Ir5 Pt6 Au1'
_cell_volume   860.19226859
_cell_formula_units_Z   1
loop_
 _symmetry_equiv_pos_site_id
 _symmetry_equiv_pos_as_xyz
  1  'x, y, z'
loop_
 _atom_site_type_symbol
 _atom_site_label
 _atom_site_symmetry_multiplicity
 _atom_site_fract_x
 _atom_site_fract_y
 _atom_site_fract_z
 _atom_site_occupancy
  Nd  Nd0  1  0.085136  0.291999  0.126532  1
  Nd  Nd1  1  0.795513  0.405913  0.124527  1
  Nd  Nd2  1  0.205414  0.582443  0.125604  1
  Nd  Nd3  1  0.906929  0.701769  0.124425  1
  Nd  Nd4  1  0.417557  0.794586  0.374396  1
  Nd  Nd5  1  0.594087  0.204487  0.375473  1
  Nd  Nd6  1  0.298231  0.093071  0.375575  1
  Nd  Nd7  1  0.708001  0.914864  0.373468  1
  Nd  Nd8  1  0.411942  0.205650  0.875704  1
  Nd  Nd9  1  0.706091  0.092158  0.879734  1
  Nd  Nd10  1  0.298425  0.913023  0.866709  1
  Nd  Nd11  1  0.591372  0.796654  0.873994  1
  Nd  Nd12  1  0.086977  0.701575  0.633291  1
  Nd  Nd13  1  0.907842  0.293909  0.620266  1
  Nd  Nd14  1  0.203346  0.408628  0.626006  1
  Nd  Nd15  1  0.794350  0.588058  0.624296  1
  Nd  Nd16  1  0.994748  0.003326  0.999265  1
  Nd  Nd17  1  0.501224  0.501812  0.999700  1
  Nd  Nd18  1  0.498188  0.498776  0.500300  1
  Nd  Nd19  1  0.996674  0.005252  0.500735  1
  Ir  Ir20  1  0.846682  0.153318  0.250000  1
  Ir  Ir21  1  0.999702  0.501391  0.383435  1
  Ir  Ir22  1  0.498609  0.000298  0.116565  1
  Ir  Ir23  1  0.500767  0.999861  0.616318  1
  Ir  Ir24  1  0.000139  0.499233  0.883682  1
  Pt  Pt25  1  0.345117  0.347715  0.248169  1
  Pt  Pt26  1  0.652285  0.654883  0.251831  1
  Pt  Pt27  1  0.346328  0.653672  0.750000  1
  Pt  Pt28  1  0.154463  0.153574  0.749759  1
  Pt  Pt29  1  0.846426  0.845537  0.750241  1
  Pt  Pt30  1  0.652699  0.347301  0.750000  1
  Au  Au31  1  0.154739  0.845261  0.250000  1
