# generated using pymatgen
data_HfZrNb4Si7Ni16
_symmetry_space_group_name_H-M   'P 1'
_cell_length_a   8.00929578
_cell_length_b   8.01447649
_cell_length_c   8.02201848
_cell_angle_alpha   59.83683410
_cell_angle_beta   59.99019854
_cell_angle_gamma   60.08369253
_symmetry_Int_Tables_number   1
_chemical_formula_structural   HfZrNb4Si7Ni16
_chemical_formula_sum   'Hf1 Zr1 Nb4 Si7 Ni16'
_cell_volume   363.86549286
_cell_formula_units_Z   1
loop_
 _symmetry_equiv_pos_site_id
 _symmetry_equiv_pos_as_xyz
  1  'x, y, z'
loop_
 _atom_site_type_symbol
 _atom_site_label
 _atom_site_symmetry_multiplicity
 _atom_site_fract_x
 _atom_site_fract_y
 _atom_site_fract_z
 _atom_site_occupancy
  Hf  Hf0  1  0.795463  0.206597  0.793403  1
  Zr  Zr1  1  0.796217  0.794680  0.205320  1
  Nb  Nb2  1  0.204715  0.798606  0.201394  1
  Nb  Nb3  1  0.797352  0.205257  0.204817  1
  Nb  Nb4  1  0.207427  0.795183  0.794743  1
  Nb  Nb5  1  0.203929  0.201116  0.798884  1
  Si  Si6  1  0.502770  0.499967  0.500033  1
  Si  Si7  1  0.496484  0.003617  0.502213  1
  Si  Si8  1  0.002314  0.497787  0.996383  1
  Si  Si9  1  0.001864  0.996728  0.498162  1
  Si  Si10  1  0.494830  0.000385  0.999615  1
  Si  Si11  1  0.006204  0.499635  0.500364  1
  Si  Si12  1  0.496753  0.501838  0.003272  1
  Ni  Ni13  1  0.166259  0.168595  0.496003  1
  Ni  Ni14  1  0.495718  0.168746  0.167049  1
  Ni  Ni15  1  0.168219  0.169058  0.169210  1
  Ni  Ni16  1  0.506486  0.830790  0.830942  1
  Ni  Ni17  1  0.831511  0.832951  0.831254  1
  Ni  Ni18  1  0.831105  0.831524  0.505172  1
  Ni  Ni19  1  0.167801  0.494828  0.168476  1
  Ni  Ni20  1  0.616258  0.148949  0.615949  1
  Ni  Ni21  1  0.381156  0.384051  0.851051  1
  Ni  Ni22  1  0.853067  0.379940  0.381655  1
  Ni  Ni23  1  0.383968  0.383507  0.383451  1
  Ni  Ni24  1  0.150927  0.616549  0.616493  1
  Ni  Ni25  1  0.614662  0.618345  0.620060  1
  Ni  Ni26  1  0.615735  0.615496  0.148719  1
  Ni  Ni27  1  0.379950  0.851281  0.384504  1
  Ni  Ni28  1  0.830856  0.503997  0.831406  1
