# generated using pymatgen
data_Yb4Cu2Si3Pd2
_symmetry_space_group_name_H-M   'P 1'
_cell_length_a   10.63037577
_cell_length_b   10.63037537
_cell_length_c   7.80464138
_cell_angle_alpha   70.24013449
_cell_angle_beta   70.24012942
_cell_angle_gamma   30.41090148
_symmetry_Int_Tables_number   1
_chemical_formula_structural   Yb4Cu2Si3Pd2
_chemical_formula_sum   'Yb8 Cu4 Si6 Pd4'
_cell_volume   418.15225780
_cell_formula_units_Z   2
loop_
 _symmetry_equiv_pos_site_id
 _symmetry_equiv_pos_as_xyz
  1  'x, y, z'
loop_
 _atom_site_type_symbol
 _atom_site_label
 _atom_site_symmetry_multiplicity
 _atom_site_fract_x
 _atom_site_fract_y
 _atom_site_fract_z
 _atom_site_occupancy
  Yb  Yb0  1  0.926451  0.203705  0.329755  1
  Yb  Yb1  1  0.073549  0.796295  0.670245  1
  Yb  Yb2  1  0.796295  0.073549  0.170245  1
  Yb  Yb3  1  0.456696  0.206870  0.903474  1
  Yb  Yb4  1  0.793130  0.543304  0.596526  1
  Yb  Yb5  1  0.206870  0.456696  0.403474  1
  Yb  Yb6  1  0.203705  0.926451  0.829755  1
  Yb  Yb7  1  0.543304  0.793130  0.096526  1
  Cu  Cu8  1  0.571153  0.302451  0.523331  1
  Cu  Cu9  1  0.697549  0.428847  0.976669  1
  Cu  Cu10  1  0.302451  0.571153  0.023331  1
  Cu  Cu11  1  0.428847  0.697549  0.476669  1
  Si  Si12  1  0.299775  0.039059  0.438181  1
  Si  Si13  1  0.371445  0.628555  0.250000  1
  Si  Si14  1  0.039059  0.299775  0.938181  1
  Si  Si15  1  0.700225  0.960941  0.561819  1
  Si  Si16  1  0.960941  0.700225  0.061819  1
  Si  Si17  1  0.628555  0.371445  0.750000  1
  Pd  Pd18  1  0.637668  0.922623  0.317652  1
  Pd  Pd19  1  0.922623  0.637668  0.817652  1
  Pd  Pd20  1  0.362332  0.077377  0.682348  1
  Pd  Pd21  1  0.077377  0.362332  0.182348  1
