# generated using pymatgen
data_Ce2Fe2Si2C
_symmetry_space_group_name_H-M   'P 1'
_cell_length_a   5.74874404
_cell_length_b   5.74874339
_cell_length_c   7.01113721
_cell_angle_alpha   51.84104039
_cell_angle_beta   51.84104613
_cell_angle_gamma   40.40162996
_symmetry_Int_Tables_number   1
_chemical_formula_structural   Ce2Fe2Si2C
_chemical_formula_sum   'Ce2 Fe2 Si2 C1'
_cell_volume   113.04140239
_cell_formula_units_Z   1
loop_
 _symmetry_equiv_pos_site_id
 _symmetry_equiv_pos_as_xyz
  1  'x, y, z'
loop_
 _atom_site_type_symbol
 _atom_site_label
 _atom_site_symmetry_multiplicity
 _atom_site_fract_x
 _atom_site_fract_y
 _atom_site_fract_z
 _atom_site_occupancy
  Ce  Ce0  1  0.437812  0.437812  0.298066  1
  Ce  Ce1  1  0.562188  0.562188  0.701934  1
  Fe  Fe2  1  0.803147  0.803147  0.082520  1
  Fe  Fe3  1  0.196853  0.196853  0.917480  1
  Si  Si4  1  0.834920  0.834920  0.721113  1
  Si  Si5  1  0.165080  0.165080  0.278887  1
  C  C6  1  0.000000  0.000000  0.000000  1
