# generated using pymatgen
data_Ti(BeTc)2
_symmetry_space_group_name_H-M   'P 1'
_cell_length_a   6.11647000
_cell_length_b   6.11647000
_cell_length_c   3.17394400
_cell_angle_alpha   90.00000000
_cell_angle_beta   90.00000000
_cell_angle_gamma   90.00000000
_symmetry_Int_Tables_number   1
_chemical_formula_structural   Ti(BeTc)2
_chemical_formula_sum   'Ti2 Be4 Tc4'
_cell_volume   118.74107047
_cell_formula_units_Z   2
loop_
 _symmetry_equiv_pos_site_id
 _symmetry_equiv_pos_as_xyz
  1  'x, y, z'
loop_
 _atom_site_type_symbol
 _atom_site_label
 _atom_site_symmetry_multiplicity
 _atom_site_fract_x
 _atom_site_fract_y
 _atom_site_fract_z
 _atom_site_occupancy
  Ti  Ti0  1  0.000000  0.000000  0.000000  1
  Ti  Ti1  1  0.500000  0.500000  0.000000  1
  Be  Be2  1  0.883003  0.383003  0.000000  1
  Be  Be3  1  0.383003  0.116997  0.000000  1
  Be  Be4  1  0.616997  0.883003  0.000000  1
  Be  Be5  1  0.116997  0.616997  0.000000  1
  Tc  Tc6  1  0.676280  0.176280  0.500000  1
  Tc  Tc7  1  0.176280  0.323720  0.500000  1
  Tc  Tc8  1  0.823720  0.676280  0.500000  1
  Tc  Tc9  1  0.323720  0.823720  0.500000  1
