# generated using pymatgen
data_SmNbVB6
_symmetry_space_group_name_H-M   'P 1'
_cell_length_a   3.47966800
_cell_length_b   9.01474600
_cell_length_c   11.44810800
_cell_angle_alpha   90.00000000
_cell_angle_beta   90.00000000
_cell_angle_gamma   90.00000000
_symmetry_Int_Tables_number   1
_chemical_formula_structural   SmNbVB6
_chemical_formula_sum   'Sm4 Nb4 V4 B24'
_cell_volume   359.10795159
_cell_formula_units_Z   4
loop_
 _symmetry_equiv_pos_site_id
 _symmetry_equiv_pos_as_xyz
  1  'x, y, z'
loop_
 _atom_site_type_symbol
 _atom_site_label
 _atom_site_symmetry_multiplicity
 _atom_site_fract_x
 _atom_site_fract_y
 _atom_site_fract_z
 _atom_site_occupancy
  Sm  Sm0  1  0.000000  0.822158  0.084767  1
  Sm  Sm1  1  0.000000  0.177842  0.915233  1
  Sm  Sm2  1  0.000000  0.322158  0.415233  1
  Sm  Sm3  1  0.000000  0.677842  0.584767  1
  Nb  Nb4  1  0.000000  0.445577  0.128460  1
  Nb  Nb5  1  0.000000  0.554423  0.871540  1
  Nb  Nb6  1  0.000000  0.945577  0.371540  1
  Nb  Nb7  1  0.000000  0.054423  0.628460  1
  V  V8  1  0.000000  0.144873  0.184757  1
  V  V9  1  0.000000  0.855127  0.815243  1
  V  V10  1  0.000000  0.644873  0.315243  1
  V  V11  1  0.000000  0.355127  0.684757  1
  B  B12  1  0.500000  0.055182  0.068926  1
  B  B13  1  0.500000  0.944818  0.931074  1
  B  B14  1  0.500000  0.555182  0.431074  1
  B  B15  1  0.500000  0.444818  0.568926  1
  B  B16  1  0.500000  0.256003  0.083417  1
  B  B17  1  0.500000  0.743997  0.916583  1
  B  B18  1  0.500000  0.756003  0.416583  1
  B  B19  1  0.500000  0.243997  0.583417  1
  B  B20  1  0.500000  0.298305  0.235624  1
  B  B21  1  0.500000  0.701695  0.764376  1
  B  B22  1  0.500000  0.798305  0.264376  1
  B  B23  1  0.500000  0.201695  0.735624  1
  B  B24  1  0.500000  0.129229  0.318475  1
  B  B25  1  0.500000  0.870771  0.681525  1
  B  B26  1  0.500000  0.629229  0.181525  1
  B  B27  1  0.500000  0.370771  0.818475  1
  B  B28  1  0.500000  0.482257  0.284742  1
  B  B29  1  0.500000  0.517743  0.715258  1
  B  B30  1  0.500000  0.982257  0.215258  1
  B  B31  1  0.500000  0.017743  0.784742  1
  B  B32  1  0.500000  0.096977  0.474764  1
  B  B33  1  0.500000  0.903023  0.525236  1
  B  B34  1  0.500000  0.596977  0.025236  1
  B  B35  1  0.500000  0.403023  0.974764  1
