# generated using pymatgen
data_TmLu5Bi2Mo
_symmetry_space_group_name_H-M   'P 1'
_cell_length_a   8.15665100
_cell_length_b   8.15359526
_cell_length_c   4.32230900
_cell_angle_alpha   90.00000000
_cell_angle_beta   90.00000000
_cell_angle_gamma   120.01240220
_symmetry_Int_Tables_number   1
_chemical_formula_structural   TmLu5Bi2Mo
_chemical_formula_sum   'Tm1 Lu5 Bi2 Mo1'
_cell_volume   248.91621253
_cell_formula_units_Z   1
loop_
 _symmetry_equiv_pos_site_id
 _symmetry_equiv_pos_as_xyz
  1  'x, y, z'
loop_
 _atom_site_type_symbol
 _atom_site_label
 _atom_site_symmetry_multiplicity
 _atom_site_fract_x
 _atom_site_fract_y
 _atom_site_fract_z
 _atom_site_occupancy
  Tm  Tm0  1  0.614153  0.000000  0.000000  1
  Lu  Lu1  1  0.235181  0.000000  0.500000  1
  Lu  Lu2  1  0.000416  0.234449  0.500000  1
  Lu  Lu3  1  0.765968  0.765551  0.500000  1
  Lu  Lu4  1  0.999739  0.615814  0.000000  1
  Lu  Lu5  1  0.383924  0.384186  0.000000  1
  Bi  Bi6  1  0.332727  0.665909  0.500000  1
  Bi  Bi7  1  0.666819  0.334091  0.500000  1
  Mo  Mo8  1  0.001074  0.000000  0.000000  1
