# generated using pymatgen
data_CsCr2Si2MoP6O25
_symmetry_space_group_name_H-M   'P 1'
_cell_length_a   8.24459000
_cell_length_b   8.24459053
_cell_length_c   17.73813000
_cell_angle_alpha   90.00000000
_cell_angle_beta   90.00000000
_cell_angle_gamma   119.99999786
_symmetry_Int_Tables_number   1
_chemical_formula_structural   CsCr2Si2MoP6O25
_chemical_formula_sum   'Cs2 Cr4 Si4 Mo2 P12 O50'
_cell_volume   1044.18302590
_cell_formula_units_Z   2
loop_
 _symmetry_equiv_pos_site_id
 _symmetry_equiv_pos_as_xyz
  1  'x, y, z'
loop_
 _atom_site_type_symbol
 _atom_site_label
 _atom_site_symmetry_multiplicity
 _atom_site_fract_x
 _atom_site_fract_y
 _atom_site_fract_z
 _atom_site_occupancy
  Cs  Cs0  1  0.666667  0.333333  0.750000  1
  Cs  Cs1  1  0.333333  0.666667  0.250000  1
  Cr  Cr2  1  0.666667  0.333333  0.520778  1
  Cr  Cr3  1  0.333333  0.666667  0.479222  1
  Cr  Cr4  1  0.666667  0.333333  0.979222  1
  Cr  Cr5  1  0.333333  0.666667  0.020778  1
  Si  Si6  1  0.000000  0.000000  0.590295  1
  Si  Si7  1  0.000000  0.000000  0.409705  1
  Si  Si8  1  0.000000  0.000000  0.909705  1
  Si  Si9  1  0.000000  0.000000  0.090295  1
  Mo  Mo10  1  0.333333  0.666667  0.750000  1
  Mo  Mo11  1  0.666667  0.333333  0.250000  1
  P  P12  1  0.335406  0.383901  0.607231  1
  P  P13  1  0.664594  0.616099  0.392769  1
  P  P14  1  0.616099  0.951505  0.607231  1
  P  P15  1  0.335406  0.951505  0.892769  1
  P  P16  1  0.383901  0.048495  0.392769  1
  P  P17  1  0.664594  0.048495  0.107231  1
  P  P18  1  0.048495  0.664594  0.607231  1
  P  P19  1  0.616099  0.664594  0.892769  1
  P  P20  1  0.951505  0.335406  0.392769  1
  P  P21  1  0.383901  0.335406  0.107231  1
  P  P22  1  0.048495  0.383901  0.892769  1
  P  P23  1  0.951505  0.616099  0.107231  1
  O  O24  1  0.244991  0.441232  0.546074  1
  O  O25  1  0.755009  0.558768  0.453926  1
  O  O26  1  0.558768  0.803759  0.546074  1
  O  O27  1  0.244991  0.803759  0.953926  1
  O  O28  1  0.441232  0.196241  0.453926  1
  O  O29  1  0.755009  0.196241  0.046074  1
  O  O30  1  0.196241  0.755009  0.546074  1
  O  O31  1  0.558768  0.755009  0.953926  1
  O  O32  1  0.803759  0.244991  0.453926  1
  O  O33  1  0.441232  0.244991  0.046074  1
  O  O34  1  0.196241  0.441232  0.953926  1
  O  O35  1  0.803759  0.558768  0.046074  1
  O  O36  1  0.341790  0.472363  0.686584  1
  O  O37  1  0.658210  0.527637  0.313416  1
  O  O38  1  0.527637  0.869426  0.686584  1
  O  O39  1  0.341790  0.869426  0.813416  1
  O  O40  1  0.472363  0.130574  0.313416  1
  O  O41  1  0.658210  0.130574  0.186584  1
  O  O42  1  0.130574  0.658210  0.686584  1
  O  O43  1  0.527637  0.658210  0.813416  1
  O  O44  1  0.869426  0.341790  0.313416  1
  O  O45  1  0.472363  0.341790  0.186584  1
  O  O46  1  0.130574  0.472363  0.813416  1
  O  O47  1  0.869426  0.527637  0.186584  1
  O  O48  1  0.000000  0.000000  0.500000  1
  O  O49  1  0.000000  0.000000  0.000000  1
  O  O50  1  0.585348  0.114509  0.591750  1
  O  O51  1  0.414652  0.885491  0.408250  1
  O  O52  1  0.885491  0.470839  0.591750  1
  O  O53  1  0.585348  0.470839  0.908250  1
  O  O54  1  0.114509  0.529161  0.408250  1
  O  O55  1  0.414652  0.529161  0.091750  1
  O  O56  1  0.529161  0.414652  0.591750  1
  O  O57  1  0.885491  0.414652  0.908250  1
  O  O58  1  0.470839  0.585348  0.408250  1
  O  O59  1  0.114509  0.585348  0.091750  1
  O  O60  1  0.529161  0.114509  0.908250  1
  O  O61  1  0.470839  0.885491  0.091750  1
  O  O62  1  0.833434  0.031511  0.624137  1
  O  O63  1  0.166566  0.968489  0.375863  1
  O  O64  1  0.968489  0.801923  0.624137  1
  O  O65  1  0.833434  0.801923  0.875863  1
  O  O66  1  0.031511  0.198077  0.375863  1
  O  O67  1  0.166566  0.198077  0.124137  1
  O  O68  1  0.198077  0.166566  0.624137  1
  O  O69  1  0.968489  0.166566  0.875863  1
  O  O70  1  0.801923  0.833434  0.375863  1
  O  O71  1  0.031511  0.833434  0.124137  1
  O  O72  1  0.198077  0.031511  0.875863  1
  O  O73  1  0.801923  0.968489  0.124137  1
