# generated using pymatgen
data_NdTh2(AlIr)3
_symmetry_space_group_name_H-M   'P 1'
_cell_length_a   7.16633600
_cell_length_b   7.24921866
_cell_length_c   4.15290000
_cell_angle_alpha   90.00000000
_cell_angle_beta   90.00000000
_cell_angle_gamma   119.62250396
_symmetry_Int_Tables_number   1
_chemical_formula_structural   NdTh2(AlIr)3
_chemical_formula_sum   'Nd1 Th2 Al3 Ir3'
_cell_volume   187.54692509
_cell_formula_units_Z   1
loop_
 _symmetry_equiv_pos_site_id
 _symmetry_equiv_pos_as_xyz
  1  'x, y, z'
loop_
 _atom_site_type_symbol
 _atom_site_label
 _atom_site_symmetry_multiplicity
 _atom_site_fract_x
 _atom_site_fract_y
 _atom_site_fract_z
 _atom_site_occupancy
  Nd  Nd0  1  0.417371  0.000000  0.500000  1
  Th  Th1  1  0.001399  0.419116  0.500000  1
  Th  Th2  1  0.582284  0.580884  0.500000  1
  Al  Al3  1  0.762679  0.000000  0.000000  1
  Al  Al4  1  0.004737  0.775355  0.000000  1
  Al  Al5  1  0.229382  0.224645  0.000000  1
  Ir  Ir6  1  0.328628  0.643631  0.000000  1
  Ir  Ir7  1  0.684997  0.356369  0.000000  1
  Ir  Ir8  1  0.988522  0.000000  0.500000  1
