# generated using pymatgen
data_Er2Lu10Os3Rh
_symmetry_space_group_name_H-M   'P 1'
_cell_length_a   7.27124953
_cell_length_b   8.85217400
_cell_length_c   6.22409000
_cell_angle_alpha   90.00000000
_cell_angle_beta   90.12933867
_cell_angle_gamma   90.00000000
_symmetry_Int_Tables_number   1
_chemical_formula_structural   Er2Lu10Os3Rh
_chemical_formula_sum   'Er2 Lu10 Os3 Rh1'
_cell_volume   400.62103424
_cell_formula_units_Z   1
loop_
 _symmetry_equiv_pos_site_id
 _symmetry_equiv_pos_as_xyz
  1  'x, y, z'
loop_
 _atom_site_type_symbol
 _atom_site_label
 _atom_site_symmetry_multiplicity
 _atom_site_fract_x
 _atom_site_fract_y
 _atom_site_fract_z
 _atom_site_occupancy
  Er  Er0  1  0.539356  0.250000  0.874851  1
  Er  Er1  1  0.037680  0.250000  0.627568  1
  Lu  Lu2  1  0.671693  0.059076  0.334921  1
  Lu  Lu3  1  0.178740  0.440035  0.167766  1
  Lu  Lu4  1  0.324525  0.562599  0.668889  1
  Lu  Lu5  1  0.822718  0.933551  0.828383  1
  Lu  Lu6  1  0.324525  0.937401  0.668889  1
  Lu  Lu7  1  0.822718  0.566449  0.828383  1
  Lu  Lu8  1  0.671693  0.440924  0.334921  1
  Lu  Lu9  1  0.178740  0.059965  0.167766  1
  Lu  Lu10  1  0.462380  0.750000  0.123532  1
  Lu  Lu11  1  0.962985  0.750000  0.372615  1
  Os  Os12  1  0.383649  0.250000  0.462214  1
  Os  Os13  1  0.115990  0.750000  0.963375  1
  Os  Os14  1  0.616565  0.750000  0.534144  1
  Rh  Rh15  1  0.886044  0.250000  0.041782  1
