# generated using pymatgen
data_TbYRuC2
_symmetry_space_group_name_H-M   'P 1'
_cell_length_a   5.14701200
_cell_length_b   6.46095500
_cell_length_c   9.81780800
_cell_angle_alpha   90.00000000
_cell_angle_beta   90.00000000
_cell_angle_gamma   90.00000000
_symmetry_Int_Tables_number   1
_chemical_formula_structural   TbYRuC2
_chemical_formula_sum   'Tb4 Y4 Ru4 C8'
_cell_volume   326.48740473
_cell_formula_units_Z   4
loop_
 _symmetry_equiv_pos_site_id
 _symmetry_equiv_pos_as_xyz
  1  'x, y, z'
loop_
 _atom_site_type_symbol
 _atom_site_label
 _atom_site_symmetry_multiplicity
 _atom_site_fract_x
 _atom_site_fract_y
 _atom_site_fract_z
 _atom_site_occupancy
  Tb  Tb0  1  0.750000  0.474126  0.783192  1
  Tb  Tb1  1  0.250000  0.025874  0.283192  1
  Tb  Tb2  1  0.750000  0.974126  0.716808  1
  Tb  Tb3  1  0.250000  0.525874  0.216808  1
  Y  Y4  1  0.750000  0.820030  0.053467  1
  Y  Y5  1  0.250000  0.679970  0.553467  1
  Y  Y6  1  0.750000  0.320030  0.446533  1
  Y  Y7  1  0.250000  0.179970  0.946533  1
  Ru  Ru8  1  0.750000  0.278608  0.135024  1
  Ru  Ru9  1  0.250000  0.221392  0.635024  1
  Ru  Ru10  1  0.750000  0.778608  0.364976  1
  Ru  Ru11  1  0.250000  0.721392  0.864976  1
  C  C12  1  0.750000  0.175492  0.947749  1
  C  C13  1  0.250000  0.824508  0.052251  1
  C  C14  1  0.750000  0.675492  0.552251  1
  C  C15  1  0.250000  0.324508  0.447749  1
  C  C16  1  0.750000  0.042708  0.257232  1
  C  C17  1  0.250000  0.457292  0.757232  1
  C  C18  1  0.750000  0.542708  0.242768  1
  C  C19  1  0.250000  0.957292  0.742768  1
