# generated using pymatgen
data_Li4VCo3Ni6P7
_symmetry_space_group_name_H-M   'P 1'
_cell_length_a   9.06068446
_cell_length_b   9.02509519
_cell_length_c   3.53577200
_cell_angle_alpha   90.00000000
_cell_angle_beta   90.00000000
_cell_angle_gamma   120.25548205
_symmetry_Int_Tables_number   1
_chemical_formula_structural   Li4VCo3Ni6P7
_chemical_formula_sum   'Li4 V1 Co3 Ni6 P7'
_cell_volume   249.74906110
_cell_formula_units_Z   1
loop_
 _symmetry_equiv_pos_site_id
 _symmetry_equiv_pos_as_xyz
  1  'x, y, z'
loop_
 _atom_site_type_symbol
 _atom_site_label
 _atom_site_symmetry_multiplicity
 _atom_site_fract_x
 _atom_site_fract_y
 _atom_site_fract_z
 _atom_site_occupancy
  Li  Li0  1  0.900194  0.122999  0.500000  1
  Li  Li1  1  0.219803  0.097213  0.500000  1
  Li  Li2  1  0.333524  0.665754  0.000000  1
  Li  Li3  1  0.666018  0.333609  0.500000  1
  V  V4  1  0.874824  0.782307  0.500000  1
  Co  Co5  1  0.564457  0.953210  0.500000  1
  Co  Co6  1  0.391831  0.435896  0.500000  1
  Co  Co7  1  0.050082  0.611481  0.500000  1
  Ni  Ni8  1  0.713240  0.880837  0.000000  1
  Ni  Ni9  1  0.163048  0.282966  0.000000  1
  Ni  Ni10  1  0.123381  0.836451  0.000000  1
  Ni  Ni11  1  0.631018  0.569586  0.000000  1
  Ni  Ni12  1  0.939171  0.370640  0.000000  1
  Ni  Ni13  1  0.429578  0.059936  0.000000  1
  P  P14  1  0.581127  0.711390  0.500000  1
  P  P15  1  0.131999  0.420717  0.500000  1
  P  P16  1  0.291782  0.869268  0.500000  1
  P  P17  1  0.996779  0.992661  0.000000  1
  P  P18  1  0.883564  0.580670  0.000000  1
  P  P19  1  0.694745  0.121153  0.000000  1
  P  P20  1  0.419834  0.301259  0.000000  1
