# generated using pymatgen
data_Dy19Er(Ir2Os)4
_symmetry_space_group_name_H-M   'P 1'
_cell_length_a   10.86129300
_cell_length_b   10.86129300
_cell_length_c   6.41783300
_cell_angle_alpha   90.00000000
_cell_angle_beta   90.00000000
_cell_angle_gamma   90.00000000
_symmetry_Int_Tables_number   1
_chemical_formula_structural   Dy19Er(Ir2Os)4
_chemical_formula_sum   'Dy19 Er1 Ir8 Os4'
_cell_volume   757.09690578
_cell_formula_units_Z   1
loop_
 _symmetry_equiv_pos_site_id
 _symmetry_equiv_pos_as_xyz
  1  'x, y, z'
loop_
 _atom_site_type_symbol
 _atom_site_label
 _atom_site_symmetry_multiplicity
 _atom_site_fract_x
 _atom_site_fract_y
 _atom_site_fract_z
 _atom_site_occupancy
  Dy  Dy0  1  0.293548  0.086525  0.377933  1
  Dy  Dy1  1  0.293721  0.913423  0.877773  1
  Dy  Dy2  1  0.706279  0.086577  0.877773  1
  Dy  Dy3  1  0.706452  0.913475  0.377933  1
  Dy  Dy4  1  0.586563  0.793820  0.877932  1
  Dy  Dy5  1  0.586567  0.206164  0.377978  1
  Dy  Dy6  1  0.413433  0.793836  0.377978  1
  Dy  Dy7  1  0.413437  0.206180  0.877932  1
  Dy  Dy8  1  0.206164  0.413433  0.622022  1
  Dy  Dy9  1  0.206180  0.586563  0.122068  1
  Dy  Dy10  1  0.793820  0.413437  0.122068  1
  Dy  Dy11  1  0.793836  0.586567  0.622022  1
  Dy  Dy12  1  0.913423  0.706279  0.122227  1
  Dy  Dy13  1  0.913475  0.293548  0.622067  1
  Dy  Dy14  1  0.086525  0.706452  0.622067  1
  Dy  Dy15  1  0.086577  0.293721  0.122227  1
  Dy  Dy16  1  0.000000  0.000000  0.000000  1
  Dy  Dy17  1  0.500000  0.500000  0.000000  1
  Dy  Dy18  1  0.500000  0.500000  0.500000  1
  Er  Er19  1  0.000000  0.000000  0.500000  1
  Ir  Ir20  1  0.848324  0.151680  0.250625  1
  Ir  Ir21  1  0.848320  0.848324  0.749375  1
  Ir  Ir22  1  0.151680  0.151676  0.749375  1
  Ir  Ir23  1  0.151676  0.848320  0.250625  1
  Ir  Ir24  1  0.651976  0.348008  0.749953  1
  Ir  Ir25  1  0.651992  0.651976  0.250047  1
  Ir  Ir26  1  0.348008  0.348024  0.250047  1
  Ir  Ir27  1  0.348024  0.651992  0.749953  1
  Os  Os28  1  0.500000  0.000000  0.123814  1
  Os  Os29  1  0.500000  0.000000  0.623772  1
  Os  Os30  1  0.000000  0.500000  0.876186  1
  Os  Os31  1  0.000000  0.500000  0.376228  1
