# generated using pymatgen
data_Tb4Al18RePd5
_symmetry_space_group_name_H-M   'P 1'
_cell_length_a   7.64027210
_cell_length_b   7.64027176
_cell_length_c   9.52699688
_cell_angle_alpha   89.79520509
_cell_angle_beta   89.79520369
_cell_angle_gamma   119.36600751
_symmetry_Int_Tables_number   1
_chemical_formula_structural   Tb4Al18RePd5
_chemical_formula_sum   'Tb4 Al18 Re1 Pd5'
_cell_volume   484.65489268
_cell_formula_units_Z   1
loop_
 _symmetry_equiv_pos_site_id
 _symmetry_equiv_pos_as_xyz
  1  'x, y, z'
loop_
 _atom_site_type_symbol
 _atom_site_label
 _atom_site_symmetry_multiplicity
 _atom_site_fract_x
 _atom_site_fract_y
 _atom_site_fract_z
 _atom_site_occupancy
  Tb  Tb0  1  0.995475  0.672936  0.248328  1
  Tb  Tb1  1  0.004525  0.327064  0.751672  1
  Tb  Tb2  1  0.672936  0.995475  0.248328  1
  Tb  Tb3  1  0.327064  0.004525  0.751672  1
  Al  Al4  1  0.131223  0.131223  0.247355  1
  Al  Al5  1  0.868777  0.868777  0.752645  1
  Al  Al6  1  0.000146  0.330596  0.074108  1
  Al  Al7  1  0.999854  0.669404  0.925892  1
  Al  Al8  1  0.998352  0.663247  0.577901  1
  Al  Al9  1  0.336753  0.001648  0.422099  1
  Al  Al10  1  0.001648  0.336753  0.422099  1
  Al  Al11  1  0.663247  0.998352  0.577901  1
  Al  Al12  1  0.669404  0.999854  0.925892  1
  Al  Al13  1  0.330596  0.000146  0.074108  1
  Al  Al14  1  0.334239  0.334239  0.556365  1
  Al  Al15  1  0.665761  0.665761  0.443635  1
  Al  Al16  1  0.669998  0.669998  0.052905  1
  Al  Al17  1  0.330002  0.330002  0.947095  1
  Al  Al18  1  0.341676  0.548461  0.249234  1
  Al  Al19  1  0.658324  0.451539  0.750766  1
  Al  Al20  1  0.548461  0.341676  0.249234  1
  Al  Al21  1  0.451539  0.658324  0.750766  1
  Re  Re22  1  0.000000  0.000000  0.000000  1
  Pd  Pd23  1  0.671733  0.328267  0.000000  1
  Pd  Pd24  1  0.328267  0.671733  0.000000  1
  Pd  Pd25  1  0.327936  0.672064  0.500000  1
  Pd  Pd26  1  0.672064  0.327936  0.500000  1
  Pd  Pd27  1  0.000000  0.000000  0.500000  1
