# generated using pymatgen
data_CeNdGeIrI2
_symmetry_space_group_name_H-M   'P 1'
_cell_length_a   4.34677500
_cell_length_b   4.34677389
_cell_length_c   11.84743300
_cell_angle_alpha   90.00000000
_cell_angle_beta   90.00000000
_cell_angle_gamma   120.00001608
_symmetry_Int_Tables_number   1
_chemical_formula_structural   CeNdGeIrI2
_chemical_formula_sum   'Ce1 Nd1 Ge1 Ir1 I2'
_cell_volume   193.86036790
_cell_formula_units_Z   1
loop_
 _symmetry_equiv_pos_site_id
 _symmetry_equiv_pos_as_xyz
  1  'x, y, z'
loop_
 _atom_site_type_symbol
 _atom_site_label
 _atom_site_symmetry_multiplicity
 _atom_site_fract_x
 _atom_site_fract_y
 _atom_site_fract_z
 _atom_site_occupancy
  Ce  Ce0  1  0.000000  0.000000  0.848640  1
  Nd  Nd1  1  0.000000  0.000000  0.158580  1
  Ge  Ge2  1  0.666667  0.333333  0.010741  1
  Ir  Ir3  1  0.333333  0.666667  0.982293  1
  I  I4  1  0.666667  0.333333  0.664862  1
  I  I5  1  0.333333  0.666667  0.334883  1
