# generated using pymatgen
data_La6Dy2MgPt6
_symmetry_space_group_name_H-M   'P 1'
_cell_length_a   7.78248500
_cell_length_b   7.78248566
_cell_length_c   7.78248633
_cell_angle_alpha   70.14638857
_cell_angle_beta   70.14639072
_cell_angle_gamma   70.14638508
_symmetry_Int_Tables_number   1
_chemical_formula_structural   La6Dy2MgPt6
_chemical_formula_sum   'La6 Dy2 Mg1 Pt6'
_cell_volume   403.37225259
_cell_formula_units_Z   1
loop_
 _symmetry_equiv_pos_site_id
 _symmetry_equiv_pos_as_xyz
  1  'x, y, z'
loop_
 _atom_site_type_symbol
 _atom_site_label
 _atom_site_symmetry_multiplicity
 _atom_site_fract_x
 _atom_site_fract_y
 _atom_site_fract_z
 _atom_site_occupancy
  La  La0  1  0.318322  0.613624  0.852762  1
  La  La1  1  0.852762  0.318322  0.613624  1
  La  La2  1  0.613624  0.852762  0.318322  1
  La  La3  1  0.681678  0.386376  0.147238  1
  La  La4  1  0.147238  0.681678  0.386376  1
  La  La5  1  0.386376  0.147238  0.681678  1
  Dy  Dy6  1  0.812878  0.812878  0.812878  1
  Dy  Dy7  1  0.187122  0.187122  0.187122  1
  Mg  Mg8  1  0.000000  0.000000  0.000000  1
  Pt  Pt9  1  0.170264  0.959751  0.580115  1
  Pt  Pt10  1  0.580115  0.170264  0.959751  1
  Pt  Pt11  1  0.959751  0.580115  0.170264  1
  Pt  Pt12  1  0.829736  0.040249  0.419885  1
  Pt  Pt13  1  0.419885  0.829736  0.040249  1
  Pt  Pt14  1  0.040249  0.419885  0.829736  1
