# generated using pymatgen
data_La2Dy4(Ir5Rh)3
_symmetry_space_group_name_H-M   'P 1'
_cell_length_a   5.34749500
_cell_length_b   5.34749430
_cell_length_c   17.49041500
_cell_angle_alpha   90.00000000
_cell_angle_beta   90.00000000
_cell_angle_gamma   119.99999813
_symmetry_Int_Tables_number   1
_chemical_formula_structural   La2Dy4(Ir5Rh)3
_chemical_formula_sum   'La2 Dy4 Ir15 Rh3'
_cell_volume   433.14317118
_cell_formula_units_Z   1
loop_
 _symmetry_equiv_pos_site_id
 _symmetry_equiv_pos_as_xyz
  1  'x, y, z'
loop_
 _atom_site_type_symbol
 _atom_site_label
 _atom_site_symmetry_multiplicity
 _atom_site_fract_x
 _atom_site_fract_y
 _atom_site_fract_z
 _atom_site_occupancy
  La  La0  1  0.333333  0.666667  0.750000  1
  La  La1  1  0.666667  0.333333  0.250000  1
  Dy  Dy2  1  0.333333  0.666667  0.540661  1
  Dy  Dy3  1  0.666667  0.333333  0.040529  1
  Dy  Dy4  1  0.666667  0.333333  0.459471  1
  Dy  Dy5  1  0.333333  0.666667  0.959339  1
  Ir  Ir6  1  0.167656  0.335313  0.125008  1
  Ir  Ir7  1  0.832258  0.664517  0.624482  1
  Ir  Ir8  1  0.664687  0.832344  0.125008  1
  Ir  Ir9  1  0.167656  0.832344  0.125008  1
  Ir  Ir10  1  0.832258  0.167742  0.624482  1
  Ir  Ir11  1  0.335483  0.167742  0.624482  1
  Ir  Ir12  1  0.832258  0.664517  0.875518  1
  Ir  Ir13  1  0.832258  0.167742  0.875518  1
  Ir  Ir14  1  0.335483  0.167742  0.875518  1
  Ir  Ir15  1  0.664687  0.832344  0.374992  1
  Ir  Ir16  1  0.167656  0.832344  0.374992  1
  Ir  Ir17  1  0.167656  0.335313  0.374992  1
  Ir  Ir18  1  0.000000  0.000000  0.250000  1
  Ir  Ir19  1  0.000000  0.000000  0.000041  1
  Ir  Ir20  1  0.000000  0.000000  0.499959  1
  Rh  Rh21  1  0.000000  0.000000  0.750000  1
  Rh  Rh22  1  0.333333  0.666667  0.250000  1
  Rh  Rh23  1  0.666667  0.333333  0.750000  1
