# generated using pymatgen
data_Dy4Ho(ReO6)2
_symmetry_space_group_name_H-M   'P 1'
_cell_length_a   6.84201563
_cell_length_b   6.84201602
_cell_length_c   7.55080302
_cell_angle_alpha   73.73705475
_cell_angle_beta   73.73705491
_cell_angle_gamma   49.00007881
_symmetry_Int_Tables_number   1
_chemical_formula_structural   Dy4Ho(ReO6)2
_chemical_formula_sum   'Dy4 Ho1 Re2 O12'
_cell_volume   253.82514249
_cell_formula_units_Z   1
loop_
 _symmetry_equiv_pos_site_id
 _symmetry_equiv_pos_as_xyz
  1  'x, y, z'
loop_
 _atom_site_type_symbol
 _atom_site_label
 _atom_site_symmetry_multiplicity
 _atom_site_fract_x
 _atom_site_fract_y
 _atom_site_fract_z
 _atom_site_occupancy
  Dy  Dy0  1  0.314396  0.314396  0.824175  1
  Dy  Dy1  1  0.685604  0.685604  0.175825  1
  Dy  Dy2  1  0.696646  0.696646  0.641323  1
  Dy  Dy3  1  0.303354  0.303354  0.358677  1
  Ho  Ho4  1  0.000000  0.000000  0.500000  1
  Re  Re5  1  0.214268  0.785732  0.000000  1
  Re  Re6  1  0.785732  0.214268  0.000000  1
  O  O7  1  0.499055  0.499055  0.177285  1
  O  O8  1  0.500945  0.500945  0.822715  1
  O  O9  1  0.001322  0.001322  0.206448  1
  O  O10  1  0.998678  0.998678  0.793552  1
  O  O11  1  0.912110  0.418208  0.915170  1
  O  O12  1  0.581792  0.087890  0.084830  1
  O  O13  1  0.087890  0.581792  0.084830  1
  O  O14  1  0.595045  0.097950  0.573422  1
  O  O15  1  0.902050  0.404955  0.426578  1
  O  O16  1  0.404955  0.902050  0.426578  1
  O  O17  1  0.097950  0.595045  0.573422  1
  O  O18  1  0.418208  0.912110  0.915170  1
