# generated using pymatgen
data_Nd3Y5Np4O24
_symmetry_space_group_name_H-M   'P 1'
_cell_length_a   5.63676300
_cell_length_b   7.94536986
_cell_length_c   11.91056347
_cell_angle_alpha   74.59340686
_cell_angle_beta   90.00000000
_cell_angle_gamma   90.00000000
_symmetry_Int_Tables_number   1
_chemical_formula_structural   Nd3Y5Np4O24
_chemical_formula_sum   'Nd3 Y5 Np4 O24'
_cell_volume   514.25964469
_cell_formula_units_Z   1
loop_
 _symmetry_equiv_pos_site_id
 _symmetry_equiv_pos_as_xyz
  1  'x, y, z'
loop_
 _atom_site_type_symbol
 _atom_site_label
 _atom_site_symmetry_multiplicity
 _atom_site_fract_x
 _atom_site_fract_y
 _atom_site_fract_z
 _atom_site_occupancy
  Nd  Nd0  1  0.253026  0.000000  0.750000  1
  Nd  Nd1  1  0.745630  0.000000  0.250000  1
  Nd  Nd2  1  0.305813  0.500000  0.750000  1
  Y  Y3  1  0.184712  0.790245  0.081311  1
  Y  Y4  1  0.184712  0.209755  0.418689  1
  Y  Y5  1  0.697768  0.500000  0.250000  1
  Y  Y6  1  0.814426  0.208190  0.920146  1
  Y  Y7  1  0.814426  0.791810  0.579854  1
  Np  Np8  1  0.744423  0.721578  0.888572  1
  Np  Np9  1  0.256026  0.720186  0.386431  1
  Np  Np10  1  0.744423  0.278422  0.611428  1
  Np  Np11  1  0.256026  0.279814  0.113569  1
  O  O12  1  0.872392  0.371153  0.444904  1
  O  O13  1  0.446268  0.841504  0.935584  1
  O  O14  1  0.872392  0.628847  0.055096  1
  O  O15  1  0.028653  0.283940  0.732788  1
  O  O16  1  0.966158  0.291095  0.232054  1
  O  O17  1  0.124866  0.371470  0.948465  1
  O  O18  1  0.622416  0.483829  0.886390  1
  O  O19  1  0.551493  0.158350  0.065032  1
  O  O20  1  0.124866  0.628530  0.551535  1
  O  O21  1  0.028653  0.716060  0.767212  1
  O  O22  1  0.442540  0.202371  0.272457  1
  O  O23  1  0.054883  0.942590  0.397846  1
  O  O24  1  0.446268  0.158496  0.564416  1
  O  O25  1  0.966158  0.708905  0.267946  1
  O  O26  1  0.945352  0.057572  0.599689  1
  O  O27  1  0.556347  0.203449  0.771984  1
  O  O28  1  0.556347  0.796551  0.728016  1
  O  O29  1  0.054883  0.057410  0.102154  1
  O  O30  1  0.622416  0.516171  0.613610  1
  O  O31  1  0.387926  0.515697  0.117593  1
  O  O32  1  0.442540  0.797629  0.227543  1
  O  O33  1  0.387926  0.484303  0.382407  1
  O  O34  1  0.551493  0.841650  0.434968  1
  O  O35  1  0.945352  0.942428  0.900311  1
