# generated using pymatgen
data_Pr2Y3Mg2P12Ru17
_symmetry_space_group_name_H-M   'P 1'
_cell_length_a   12.80624400
_cell_length_b   12.63965345
_cell_length_c   4.00165400
_cell_angle_alpha   90.00000000
_cell_angle_beta   90.00000000
_cell_angle_gamma   120.43695689
_symmetry_Int_Tables_number   1
_chemical_formula_structural   Pr2Y3Mg2P12Ru17
_chemical_formula_sum   'Pr2 Y3 Mg2 P12 Ru17'
_cell_volume   558.46760821
_cell_formula_units_Z   1
loop_
 _symmetry_equiv_pos_site_id
 _symmetry_equiv_pos_as_xyz
  1  'x, y, z'
loop_
 _atom_site_type_symbol
 _atom_site_label
 _atom_site_symmetry_multiplicity
 _atom_site_fract_x
 _atom_site_fract_y
 _atom_site_fract_z
 _atom_site_occupancy
  Pr  Pr0  1  0.000395  0.181216  0.500000  1
  Pr  Pr1  1  0.819178  0.818784  0.500000  1
  Y  Y2  1  0.182920  0.000000  0.500000  1
  Y  Y3  1  0.663105  0.325782  0.000000  1
  Y  Y4  1  0.337322  0.674218  0.000000  1
  Mg  Mg5  1  0.001046  0.562781  0.000000  1
  Mg  Mg6  1  0.438265  0.437219  0.000000  1
  P  P7  1  0.001813  0.810643  0.000000  1
  P  P8  1  0.191170  0.189357  0.000000  1
  P  P9  1  0.814026  0.000000  0.000000  1
  P  P10  1  0.690537  0.170018  0.500000  1
  P  P11  1  0.815814  0.515448  0.500000  1
  P  P12  1  0.479102  0.299577  0.500000  1
  P  P13  1  0.179524  0.700423  0.500000  1
  P  P14  1  0.520519  0.829982  0.500000  1
  P  P15  1  0.300366  0.484552  0.500000  1
  P  P16  1  0.001079  0.364866  0.000000  1
  P  P17  1  0.636213  0.635134  0.000000  1
  P  P18  1  0.377047  0.000000  0.000000  1
  Ru  Ru19  1  0.556044  0.000000  0.000000  1
  Ru  Ru20  1  0.000578  0.713777  0.500000  1
  Ru  Ru21  1  0.286801  0.286223  0.500000  1
  Ru  Ru22  1  0.713624  0.000000  0.500000  1
  Ru  Ru23  1  0.805072  0.184519  0.000000  1
  Ru  Ru24  1  0.814150  0.614394  0.000000  1
  Ru  Ru25  1  0.378027  0.190913  0.000000  1
  Ru  Ru26  1  0.187115  0.809087  0.000000  1
  Ru  Ru27  1  0.620553  0.815481  0.000000  1
  Ru  Ru28  1  0.199757  0.385606  0.000000  1
  Ru  Ru29  1  0.870618  0.365141  0.500000  1
  Ru  Ru30  1  0.629447  0.511042  0.500000  1
  Ru  Ru31  1  0.491068  0.123349  0.500000  1
  Ru  Ru32  1  0.367719  0.876651  0.500000  1
  Ru  Ru33  1  0.505477  0.634859  0.500000  1
  Ru  Ru34  1  0.118405  0.488958  0.500000  1
  Ru  Ru35  1  0.006105  0.000000  0.000000  1
