# generated using pymatgen
data_Dy2Ho3Mg2Co17P12
_symmetry_space_group_name_H-M   'P 1'
_cell_length_a   12.09895012
_cell_length_b   12.08856354
_cell_length_c   3.70596700
_cell_angle_alpha   90.00000000
_cell_angle_beta   90.00000000
_cell_angle_gamma   119.97160166
_symmetry_Int_Tables_number   1
_chemical_formula_structural   Dy2Ho3Mg2Co17P12
_chemical_formula_sum   'Dy2 Ho3 Mg2 Co17 P12'
_cell_volume   469.54667553
_cell_formula_units_Z   1
loop_
 _symmetry_equiv_pos_site_id
 _symmetry_equiv_pos_as_xyz
  1  'x, y, z'
loop_
 _atom_site_type_symbol
 _atom_site_label
 _atom_site_symmetry_multiplicity
 _atom_site_fract_x
 _atom_site_fract_y
 _atom_site_fract_z
 _atom_site_occupancy
  Dy  Dy0  1  0.668534  0.334989  0.000000  1
  Dy  Dy1  1  0.331466  0.666456  0.000000  1
  Ho  Ho2  1  0.815559  0.814952  0.500000  1
  Ho  Ho3  1  0.184441  0.999393  0.500000  1
  Ho  Ho4  1  0.000000  0.189671  0.500000  1
  Mg  Mg5  1  0.439279  0.439942  0.000000  1
  Mg  Mg6  1  0.560721  0.000665  0.000000  1
  Co  Co7  1  0.876725  0.361579  0.500000  1
  Co  Co8  1  0.646154  0.517548  0.500000  1
  Co  Co9  1  0.481152  0.123314  0.500000  1
  Co  Co10  1  0.353846  0.871395  0.500000  1
  Co  Co11  1  0.518848  0.642163  0.500000  1
  Co  Co12  1  0.123275  0.484854  0.500000  1
  Co  Co13  1  0.000000  0.552630  0.000000  1
  Co  Co14  1  0.804867  0.182404  0.000000  1
  Co  Co15  1  0.825842  0.624064  0.000000  1
  Co  Co16  1  0.374386  0.196209  0.000000  1
  Co  Co17  1  0.174158  0.798224  0.000000  1
  Co  Co18  1  0.625614  0.821824  0.000000  1
  Co  Co19  1  0.195133  0.377538  0.000000  1
  Co  Co20  1  0.279429  0.281294  0.500000  1
  Co  Co21  1  0.720571  0.001864  0.500000  1
  Co  Co22  1  0.000000  0.715827  0.500000  1
  Co  Co23  1  0.000000  0.999328  0.000000  1
  P  P24  1  0.692221  0.173270  0.500000  1
  P  P25  1  0.835932  0.522149  0.500000  1
  P  P26  1  0.479255  0.306609  0.500000  1
  P  P27  1  0.164068  0.686216  0.500000  1
  P  P28  1  0.520745  0.827353  0.500000  1
  P  P29  1  0.307779  0.481048  0.500000  1
  P  P30  1  0.178295  0.180002  0.000000  1
  P  P31  1  0.821705  0.001707  0.000000  1
  P  P32  1  0.000000  0.818964  0.000000  1
  P  P33  1  0.642421  0.638625  0.000000  1
  P  P34  1  0.357579  0.996204  0.000000  1
  P  P35  1  0.000000  0.369719  0.000000  1
