# generated using pymatgen
data_YSc2(ReSi2)2
_symmetry_space_group_name_H-M   'P 1'
_cell_length_a   10.31316577
_cell_length_b   10.31316544
_cell_length_c   13.91173800
_cell_angle_alpha   55.56521059
_cell_angle_beta   124.43478814
_cell_angle_gamma   149.61582320
_symmetry_Int_Tables_number   1
_chemical_formula_structural   YSc2(ReSi2)2
_chemical_formula_sum   'Y4 Sc8 Re8 Si16'
_cell_volume   606.47571512
_cell_formula_units_Z   4
loop_
 _symmetry_equiv_pos_site_id
 _symmetry_equiv_pos_as_xyz
  1  'x, y, z'
loop_
 _atom_site_type_symbol
 _atom_site_label
 _atom_site_symmetry_multiplicity
 _atom_site_fract_x
 _atom_site_fract_y
 _atom_site_fract_z
 _atom_site_occupancy
  Y  Y0  1  0.291565  0.963319  0.361305  1
  Y  Y1  1  0.963319  0.291565  0.138696  1
  Y  Y2  1  0.708435  0.036681  0.638694  1
  Y  Y3  1  0.036680  0.708435  0.861305  1
  Sc  Sc4  1  0.533267  0.697051  0.341753  1
  Sc  Sc5  1  0.697051  0.533267  0.158247  1
  Sc  Sc6  1  0.466734  0.302951  0.658246  1
  Sc  Sc7  1  0.302950  0.466735  0.841753  1
  Sc  Sc8  1  0.518613  0.750779  0.046364  1
  Sc  Sc9  1  0.750779  0.518613  0.453637  1
  Sc  Sc10  1  0.481387  0.249221  0.953638  1
  Sc  Sc11  1  0.249221  0.481386  0.546363  1
  Re  Re12  1  0.640148  0.171233  0.217264  1
  Re  Re13  1  0.171233  0.640148  0.282736  1
  Re  Re14  1  0.359851  0.828767  0.782735  1
  Re  Re15  1  0.828766  0.359851  0.717264  1
  Re  Re16  1  0.135664  0.086913  0.422568  1
  Re  Re17  1  0.086913  0.135663  0.077432  1
  Re  Re18  1  0.864336  0.913086  0.577432  1
  Re  Re19  1  0.913087  0.864336  0.922568  1
  Si  Si20  1  0.600606  0.944505  0.425792  1
  Si  Si21  1  0.944504  0.600607  0.074207  1
  Si  Si22  1  0.399393  0.055495  0.574207  1
  Si  Si23  1  0.055495  0.399393  0.925792  1
  Si  Si24  1  0.389328  0.847655  0.112408  1
  Si  Si25  1  0.847655  0.389328  0.387592  1
  Si  Si26  1  0.610672  0.152344  0.887592  1
  Si  Si27  1  0.152344  0.610672  0.612408  1
  Si  Si28  1  0.228465  0.999966  0.121362  1
  Si  Si29  1  0.999966  0.228465  0.378638  1
  Si  Si30  1  0.771534  0.000033  0.878638  1
  Si  Si31  1  0.000033  0.771534  0.621362  1
  Si  Si32  1  0.886389  0.886390  0.249999  1
  Si  Si33  1  0.113610  0.113610  0.750000  1
  Si  Si34  1  0.362070  0.362071  0.249999  1
  Si  Si35  1  0.637929  0.637929  0.750000  1
