# generated using pymatgen
data_Yb8Si12HgPt3
_symmetry_space_group_name_H-M   'P 1'
_cell_length_a   8.27469000
_cell_length_b   8.27469145
_cell_length_c   8.40266000
_cell_angle_alpha   90.00000000
_cell_angle_beta   90.00000000
_cell_angle_gamma   119.99998621
_symmetry_Int_Tables_number   1
_chemical_formula_structural   Yb8Si12HgPt3
_chemical_formula_sum   'Yb8 Si12 Hg1 Pt3'
_cell_volume   498.25426400
_cell_formula_units_Z   1
loop_
 _symmetry_equiv_pos_site_id
 _symmetry_equiv_pos_as_xyz
  1  'x, y, z'
loop_
 _atom_site_type_symbol
 _atom_site_label
 _atom_site_symmetry_multiplicity
 _atom_site_fract_x
 _atom_site_fract_y
 _atom_site_fract_z
 _atom_site_occupancy
  Yb  Yb0  1  0.495985  0.504014  0.741474  1
  Yb  Yb1  1  0.496920  0.503080  0.258167  1
  Yb  Yb2  1  0.008028  0.504014  0.741474  1
  Yb  Yb3  1  0.006161  0.503080  0.258167  1
  Yb  Yb4  1  0.495986  0.991972  0.741474  1
  Yb  Yb5  1  0.496920  0.993839  0.258167  1
  Yb  Yb6  1  0.000000  0.000000  0.746107  1
  Yb  Yb7  1  0.000000  0.000000  0.254794  1
  Si  Si8  1  0.843918  0.156082  0.001603  1
  Si  Si9  1  0.167740  0.832260  0.999360  1
  Si  Si10  1  0.312165  0.156082  0.001603  1
  Si  Si11  1  0.164664  0.835336  0.499868  1
  Si  Si12  1  0.664519  0.832260  0.999360  1
  Si  Si13  1  0.834215  0.165785  0.500066  1
  Si  Si14  1  0.843918  0.687835  0.001603  1
  Si  Si15  1  0.670672  0.835336  0.499868  1
  Si  Si16  1  0.167740  0.335481  0.999360  1
  Si  Si17  1  0.331569  0.165785  0.500066  1
  Si  Si18  1  0.164664  0.329328  0.499868  1
  Si  Si19  1  0.834215  0.668431  0.500066  1
  Hg  Hg20  1  0.666667  0.333333  0.996274  1
  Pt  Pt21  1  0.333333  0.666667  0.000901  1
  Pt  Pt22  1  0.333333  0.666667  0.499074  1
  Pt  Pt23  1  0.666667  0.333333  0.501236  1
