# generated using pymatgen
data_NaYPa2(ReN3)4
_symmetry_space_group_name_H-M   'P 1'
_cell_length_a   5.37523492
_cell_length_b   5.63643468
_cell_length_c   7.84072900
_cell_angle_alpha   90.00000000
_cell_angle_beta   90.00000000
_cell_angle_gamma   90.43818590
_symmetry_Int_Tables_number   1
_chemical_formula_structural   NaYPa2(ReN3)4
_chemical_formula_sum   'Na1 Y1 Pa2 Re4 N12'
_cell_volume   237.54487806
_cell_formula_units_Z   1
loop_
 _symmetry_equiv_pos_site_id
 _symmetry_equiv_pos_as_xyz
  1  'x, y, z'
loop_
 _atom_site_type_symbol
 _atom_site_label
 _atom_site_symmetry_multiplicity
 _atom_site_fract_x
 _atom_site_fract_y
 _atom_site_fract_z
 _atom_site_occupancy
  Na  Na0  1  0.507585  0.545298  0.750000  1
  Y  Y1  1  0.991878  0.057114  0.750000  1
  Pa  Pa2  1  0.476450  0.433658  0.250000  1
  Pa  Pa3  1  0.015317  0.929967  0.250000  1
  Re  Re4  1  0.509490  0.000184  0.511950  1
  Re  Re5  1  0.987689  0.502169  0.986218  1
  Re  Re6  1  0.987689  0.502169  0.513782  1
  Re  Re7  1  0.509490  0.000184  0.988050  1
  N  N8  1  0.708552  0.287220  0.541048  1
  N  N9  1  0.301271  0.702254  0.066808  1
  N  N10  1  0.197446  0.197301  0.056816  1
  N  N11  1  0.430973  0.985896  0.750000  1
  N  N12  1  0.885886  0.538674  0.250000  1
  N  N13  1  0.301271  0.702254  0.433192  1
  N  N14  1  0.804275  0.797045  0.962717  1
  N  N15  1  0.708552  0.287220  0.958952  1
  N  N16  1  0.804275  0.797045  0.537283  1
  N  N17  1  0.065867  0.494479  0.750000  1
  N  N18  1  0.197446  0.197301  0.443184  1
  N  N19  1  0.608596  0.042568  0.250000  1
