# generated using pymatgen
data_Dy2Y3Tm3Pt4
_symmetry_space_group_name_H-M   'P 1'
_cell_length_a   4.75877500
_cell_length_b   7.14483896
_cell_length_c   8.73329425
_cell_angle_alpha   89.79224556
_cell_angle_beta   90.00000000
_cell_angle_gamma   90.00000000
_symmetry_Int_Tables_number   1
_chemical_formula_structural   Dy2Y3Tm3Pt4
_chemical_formula_sum   'Dy2 Y3 Tm3 Pt4'
_cell_volume   296.93600019
_cell_formula_units_Z   1
loop_
 _symmetry_equiv_pos_site_id
 _symmetry_equiv_pos_as_xyz
  1  'x, y, z'
loop_
 _atom_site_type_symbol
 _atom_site_label
 _atom_site_symmetry_multiplicity
 _atom_site_fract_x
 _atom_site_fract_y
 _atom_site_fract_z
 _atom_site_occupancy
  Dy  Dy0  1  0.750000  0.645215  0.420670  1
  Dy  Dy1  1  0.750000  0.011215  0.671112  1
  Y  Y2  1  0.250000  0.991166  0.330632  1
  Y  Y3  1  0.250000  0.488868  0.168106  1
  Y  Y4  1  0.750000  0.510539  0.829665  1
  Tm  Tm5  1  0.250000  0.856602  0.921654  1
  Tm  Tm6  1  0.250000  0.355122  0.579263  1
  Tm  Tm7  1  0.750000  0.143746  0.078459  1
  Pt  Pt8  1  0.250000  0.253171  0.905910  1
  Pt  Pt9  1  0.250000  0.755270  0.596957  1
  Pt  Pt10  1  0.750000  0.746564  0.090531  1
  Pt  Pt11  1  0.750000  0.242523  0.407042  1
