# generated using pymatgen
data_SmPa7S12
_symmetry_space_group_name_H-M   'P 1'
_cell_length_a   3.85699800
_cell_length_b   7.34793216
_cell_length_c   14.93284789
_cell_angle_alpha   90.30367398
_cell_angle_beta   90.00000000
_cell_angle_gamma   90.00000000
_symmetry_Int_Tables_number   1
_chemical_formula_structural   SmPa7S12
_chemical_formula_sum   'Sm1 Pa7 S12'
_cell_volume   423.20529496
_cell_formula_units_Z   1
loop_
 _symmetry_equiv_pos_site_id
 _symmetry_equiv_pos_as_xyz
  1  'x, y, z'
loop_
 _atom_site_type_symbol
 _atom_site_label
 _atom_site_symmetry_multiplicity
 _atom_site_fract_x
 _atom_site_fract_y
 _atom_site_fract_z
 _atom_site_occupancy
  Sm  Sm0  1  0.750000  0.741024  0.955333  1
  Pa  Pa1  1  0.250000  0.119167  0.787405  1
  Pa  Pa2  1  0.750000  0.889237  0.214230  1
  Pa  Pa3  1  0.250000  0.612841  0.709583  1
  Pa  Pa4  1  0.750000  0.387443  0.292293  1
  Pa  Pa5  1  0.250000  0.758666  0.459064  1
  Pa  Pa6  1  0.750000  0.243055  0.541796  1
  Pa  Pa7  1  0.250000  0.252412  0.041136  1
  S  S8  1  0.250000  0.373726  0.428972  1
  S  S9  1  0.750000  0.627345  0.571873  1
  S  S10  1  0.250000  0.875026  0.074834  1
  S  S11  1  0.750000  0.127816  0.925983  1
  S  S12  1  0.250000  0.160528  0.225335  1
  S  S13  1  0.750000  0.844470  0.772232  1
  S  S14  1  0.250000  0.658580  0.276360  1
  S  S15  1  0.750000  0.344879  0.723678  1
  S  S16  1  0.750000  0.487823  0.107492  1
  S  S17  1  0.250000  0.493315  0.891863  1
  S  S18  1  0.750000  0.001409  0.394484  1
  S  S19  1  0.250000  0.001239  0.606054  1
