# generated using pymatgen
data_Dy3Er2CoSb2
_symmetry_space_group_name_H-M   'P 1'
_cell_length_a   7.84786900
_cell_length_b   8.74128200
_cell_length_c   12.16446100
_cell_angle_alpha   90.00000000
_cell_angle_beta   90.00000000
_cell_angle_gamma   90.00000000
_symmetry_Int_Tables_number   1
_chemical_formula_structural   Dy3Er2CoSb2
_chemical_formula_sum   'Dy12 Er8 Co4 Sb8'
_cell_volume   834.48732865
_cell_formula_units_Z   4
loop_
 _symmetry_equiv_pos_site_id
 _symmetry_equiv_pos_as_xyz
  1  'x, y, z'
loop_
 _atom_site_type_symbol
 _atom_site_label
 _atom_site_symmetry_multiplicity
 _atom_site_fract_x
 _atom_site_fract_y
 _atom_site_fract_z
 _atom_site_occupancy
  Dy  Dy0  1  0.154998  0.750000  0.202954  1
  Dy  Dy1  1  0.345002  0.750000  0.702954  1
  Dy  Dy2  1  0.845002  0.250000  0.797046  1
  Dy  Dy3  1  0.654998  0.250000  0.297046  1
  Dy  Dy4  1  0.452827  0.750000  0.998219  1
  Dy  Dy5  1  0.047173  0.750000  0.498219  1
  Dy  Dy6  1  0.547173  0.250000  0.001781  1
  Dy  Dy7  1  0.952827  0.250000  0.501781  1
  Dy  Dy8  1  0.620424  0.750000  0.307493  1
  Dy  Dy9  1  0.879576  0.750000  0.807493  1
  Dy  Dy10  1  0.379576  0.250000  0.692507  1
  Dy  Dy11  1  0.120424  0.250000  0.192507  1
  Er  Er12  1  0.822408  0.536188  0.065094  1
  Er  Er13  1  0.677592  0.963812  0.565094  1
  Er  Er14  1  0.177592  0.036188  0.934906  1
  Er  Er15  1  0.322408  0.463812  0.434906  1
  Er  Er16  1  0.177592  0.463812  0.934906  1
  Er  Er17  1  0.322408  0.036188  0.434906  1
  Er  Er18  1  0.822408  0.963812  0.065094  1
  Er  Er19  1  0.677592  0.536188  0.565094  1
  Co  Co20  1  0.433671  0.750000  0.490947  1
  Co  Co21  1  0.066329  0.750000  0.990947  1
  Co  Co22  1  0.566329  0.250000  0.509053  1
  Co  Co23  1  0.933671  0.250000  0.009053  1
  Sb  Sb24  1  0.928874  0.509130  0.326831  1
  Sb  Sb25  1  0.571126  0.990870  0.826831  1
  Sb  Sb26  1  0.071126  0.009130  0.673169  1
  Sb  Sb27  1  0.428874  0.490870  0.173169  1
  Sb  Sb28  1  0.071126  0.490870  0.673169  1
  Sb  Sb29  1  0.428874  0.009130  0.173169  1
  Sb  Sb30  1  0.928874  0.990870  0.326831  1
  Sb  Sb31  1  0.571126  0.509130  0.826831  1
