# generated using pymatgen
data_Y4Er4Tm4Co5Bi
_symmetry_space_group_name_H-M   'P 1'
_cell_length_a   8.24639427
_cell_length_b   8.24639399
_cell_length_c   8.24639522
_cell_angle_alpha   110.91531171
_cell_angle_beta   110.61159408
_cell_angle_gamma   106.91671431
_symmetry_Int_Tables_number   1
_chemical_formula_structural   Y4Er4Tm4Co5Bi
_chemical_formula_sum   'Y4 Er4 Tm4 Co5 Bi1'
_cell_volume   431.04530297
_cell_formula_units_Z   1
loop_
 _symmetry_equiv_pos_site_id
 _symmetry_equiv_pos_as_xyz
  1  'x, y, z'
loop_
 _atom_site_type_symbol
 _atom_site_label
 _atom_site_symmetry_multiplicity
 _atom_site_fract_x
 _atom_site_fract_y
 _atom_site_fract_z
 _atom_site_occupancy
  Y  Y0  1  0.287297  0.185156  0.472454  1
  Y  Y1  1  0.712703  0.814844  0.527546  1
  Y  Y2  1  0.287297  0.814844  0.102141  1
  Y  Y3  1  0.712703  0.185156  0.897859  1
  Er  Er4  1  0.208134  0.402725  0.194590  1
  Er  Er5  1  0.791866  0.597275  0.805410  1
  Er  Er6  1  0.208134  0.013544  0.805410  1
  Er  Er7  1  0.791866  0.986456  0.194590  1
  Tm  Tm8  1  0.622524  0.311669  0.310855  1
  Tm  Tm9  1  0.377476  0.688331  0.689145  1
  Tm  Tm10  1  0.000814  0.311669  0.689145  1
  Tm  Tm11  1  0.999186  0.688331  0.310855  1
  Co  Co12  1  0.000000  0.375693  0.375693  1
  Co  Co13  1  0.000000  0.624307  0.624307  1
  Co  Co14  1  0.387887  0.887887  0.500000  1
  Co  Co15  1  0.612113  0.112113  0.500000  1
  Co  Co16  1  0.000000  0.000000  0.000000  1
  Bi  Bi17  1  0.500000  0.500000  0.000000  1
