# generated using pymatgen
data_Sm3MgCd2Pb2Au
_symmetry_space_group_name_H-M   'P 1'
_cell_length_a   7.62152121
_cell_length_b   7.62152196
_cell_length_c   4.67393900
_cell_angle_alpha   90.00000000
_cell_angle_beta   90.00000000
_cell_angle_gamma   120.57577493
_symmetry_Int_Tables_number   1
_chemical_formula_structural   Sm3MgCd2Pb2Au
_chemical_formula_sum   'Sm3 Mg1 Cd2 Pb2 Au1'
_cell_volume   233.74802943
_cell_formula_units_Z   1
loop_
 _symmetry_equiv_pos_site_id
 _symmetry_equiv_pos_as_xyz
  1  'x, y, z'
loop_
 _atom_site_type_symbol
 _atom_site_label
 _atom_site_symmetry_multiplicity
 _atom_site_fract_x
 _atom_site_fract_y
 _atom_site_fract_z
 _atom_site_occupancy
  Sm  Sm0  1  0.595135  0.003087  0.000000  1
  Sm  Sm1  1  0.003087  0.595135  0.000000  1
  Sm  Sm2  1  0.399666  0.399666  0.000000  1
  Mg  Mg3  1  0.776153  0.776153  0.500000  1
  Cd  Cd4  1  0.233103  0.998730  0.500000  1
  Cd  Cd5  1  0.998730  0.233103  0.500000  1
  Pb  Pb6  1  0.340003  0.667729  0.500000  1
  Pb  Pb7  1  0.667729  0.340003  0.500000  1
  Au  Au8  1  0.986394  0.986394  0.000000  1
