# generated using pymatgen
data_HoEr3Zr2MoO12
_symmetry_space_group_name_H-M   'P 1'
_cell_length_a   6.29967480
_cell_length_b   6.37924461
_cell_length_c   6.52490870
_cell_angle_alpha   100.25314619
_cell_angle_beta   98.52756860
_cell_angle_gamma   99.31468318
_symmetry_Int_Tables_number   1
_chemical_formula_structural   HoEr3Zr2MoO12
_chemical_formula_sum   'Ho1 Er3 Zr2 Mo1 O12'
_cell_volume   250.35759525
_cell_formula_units_Z   1
loop_
 _symmetry_equiv_pos_site_id
 _symmetry_equiv_pos_as_xyz
  1  'x, y, z'
loop_
 _atom_site_type_symbol
 _atom_site_label
 _atom_site_symmetry_multiplicity
 _atom_site_fract_x
 _atom_site_fract_y
 _atom_site_fract_z
 _atom_site_occupancy
  Ho  Ho0  1  0.387908  0.700214  0.865086  1
  Er  Er1  1  0.699531  0.865411  0.391193  1
  Er  Er2  1  0.612314  0.299734  0.135161  1
  Er  Er3  1  0.300729  0.134632  0.608682  1
  Zr  Zr4  1  0.848831  0.394868  0.674559  1
  Zr  Zr5  1  0.150881  0.604765  0.324941  1
  Mo  Mo6  1  0.000104  0.000244  0.000135  1
  O  O7  1  0.026247  0.682581  0.896524  1
  O  O8  1  0.690080  0.932371  0.058134  1
  O  O9  1  0.924918  0.084056  0.691501  1
  O  O10  1  0.972723  0.317762  0.103515  1
  O  O11  1  0.310415  0.069311  0.942857  1
  O  O12  1  0.075126  0.915874  0.308395  1
  O  O13  1  0.587305  0.185896  0.433168  1
  O  O14  1  0.174134  0.432214  0.575611  1
  O  O15  1  0.418307  0.582389  0.178312  1
  O  O16  1  0.412652  0.814595  0.565942  1
  O  O17  1  0.825563  0.567381  0.423728  1
  O  O18  1  0.582232  0.415705  0.822557  1
