# generated using pymatgen
data_Lu10Si6N
_symmetry_space_group_name_H-M   'P 1'
_cell_length_a   8.20706300
_cell_length_b   8.20706357
_cell_length_c   6.16921900
_cell_angle_alpha   90.00000000
_cell_angle_beta   90.00000000
_cell_angle_gamma   119.99999366
_symmetry_Int_Tables_number   1
_chemical_formula_structural   Lu10Si6N
_chemical_formula_sum   'Lu10 Si6 N1'
_cell_volume   359.86235003
_cell_formula_units_Z   1
loop_
 _symmetry_equiv_pos_site_id
 _symmetry_equiv_pos_as_xyz
  1  'x, y, z'
loop_
 _atom_site_type_symbol
 _atom_site_label
 _atom_site_symmetry_multiplicity
 _atom_site_fract_x
 _atom_site_fract_y
 _atom_site_fract_z
 _atom_site_occupancy
  Lu  Lu0  1  0.333333  0.666667  0.500000  1
  Lu  Lu1  1  0.666667  0.333333  0.500000  1
  Lu  Lu2  1  0.666667  0.333333  0.000000  1
  Lu  Lu3  1  0.333333  0.666667  0.000000  1
  Lu  Lu4  1  0.000000  0.767920  0.266409  1
  Lu  Lu5  1  0.232080  0.232080  0.266409  1
  Lu  Lu6  1  0.767920  0.000000  0.266409  1
  Lu  Lu7  1  0.000000  0.232080  0.733591  1
  Lu  Lu8  1  0.767920  0.767920  0.733591  1
  Lu  Lu9  1  0.232080  0.000000  0.733591  1
  Si  Si10  1  0.000000  0.399684  0.251385  1
  Si  Si11  1  0.600316  0.600316  0.251385  1
  Si  Si12  1  0.399684  0.000000  0.251385  1
  Si  Si13  1  0.000000  0.600316  0.748615  1
  Si  Si14  1  0.399684  0.399684  0.748615  1
  Si  Si15  1  0.600316  0.000000  0.748615  1
  N  N16  1  0.000000  0.000000  0.500000  1
