# generated using pymatgen
data_LaSiIr2Au
_symmetry_space_group_name_H-M   'P 1'
_cell_length_a   4.13509600
_cell_length_b   4.13509600
_cell_length_c   11.13720700
_cell_angle_alpha   90.00000000
_cell_angle_beta   90.00000000
_cell_angle_gamma   90.00000000
_symmetry_Int_Tables_number   1
_chemical_formula_structural   LaSiIr2Au
_chemical_formula_sum   'La2 Si2 Ir4 Au2'
_cell_volume   190.43531331
_cell_formula_units_Z   2
loop_
 _symmetry_equiv_pos_site_id
 _symmetry_equiv_pos_as_xyz
  1  'x, y, z'
loop_
 _atom_site_type_symbol
 _atom_site_label
 _atom_site_symmetry_multiplicity
 _atom_site_fract_x
 _atom_site_fract_y
 _atom_site_fract_z
 _atom_site_occupancy
  La  La0  1  0.500000  0.000000  0.254524  1
  La  La1  1  0.000000  0.500000  0.745476  1
  Si  Si2  1  0.000000  0.500000  0.112199  1
  Si  Si3  1  0.500000  0.000000  0.887801  1
  Ir  Ir4  1  0.000000  0.500000  0.320333  1
  Ir  Ir5  1  0.500000  0.000000  0.679667  1
  Ir  Ir6  1  0.000000  0.000000  0.000000  1
  Ir  Ir7  1  0.500000  0.500000  0.000000  1
  Au  Au8  1  0.000000  0.000000  0.500000  1
  Au  Au9  1  0.500000  0.500000  0.500000  1
