# generated using pymatgen
data_Sc2VNi2Rh7
_symmetry_space_group_name_H-M   'P 1'
_cell_length_a   3.83567600
_cell_length_b   3.89216700
_cell_length_c   11.47131700
_cell_angle_alpha   90.00000000
_cell_angle_beta   90.00000000
_cell_angle_gamma   90.00000000
_symmetry_Int_Tables_number   1
_chemical_formula_structural   Sc2VNi2Rh7
_chemical_formula_sum   'Sc2 V1 Ni2 Rh7'
_cell_volume   171.25634169
_cell_formula_units_Z   1
loop_
 _symmetry_equiv_pos_site_id
 _symmetry_equiv_pos_as_xyz
  1  'x, y, z'
loop_
 _atom_site_type_symbol
 _atom_site_label
 _atom_site_symmetry_multiplicity
 _atom_site_fract_x
 _atom_site_fract_y
 _atom_site_fract_z
 _atom_site_occupancy
  Sc  Sc0  1  0.000000  0.000000  0.332014  1
  Sc  Sc1  1  0.000000  0.000000  0.667986  1
  V  V2  1  0.000000  0.000000  0.000000  1
  Ni  Ni3  1  0.500000  0.500000  0.000000  1
  Ni  Ni4  1  0.000000  0.500000  0.500000  1
  Rh  Rh5  1  0.500000  0.500000  0.329579  1
  Rh  Rh6  1  0.500000  0.500000  0.670421  1
  Rh  Rh7  1  0.500000  0.000000  0.149812  1
  Rh  Rh8  1  0.500000  0.000000  0.500000  1
  Rh  Rh9  1  0.500000  0.000000  0.850188  1
  Rh  Rh10  1  0.000000  0.500000  0.151165  1
  Rh  Rh11  1  0.000000  0.500000  0.848835  1
