# generated using pymatgen
data_Cs6In(IrBr6)3
_symmetry_space_group_name_H-M   'P 1'
_cell_length_a   7.81625500
_cell_length_b   7.81625441
_cell_length_c   19.96328300
_cell_angle_alpha   90.00000000
_cell_angle_beta   90.00000000
_cell_angle_gamma   119.99999826
_symmetry_Int_Tables_number   1
_chemical_formula_structural   Cs6In(IrBr6)3
_chemical_formula_sum   'Cs6 In1 Ir3 Br18'
_cell_volume   1056.23367327
_cell_formula_units_Z   1
loop_
 _symmetry_equiv_pos_site_id
 _symmetry_equiv_pos_as_xyz
  1  'x, y, z'
loop_
 _atom_site_type_symbol
 _atom_site_label
 _atom_site_symmetry_multiplicity
 _atom_site_fract_x
 _atom_site_fract_y
 _atom_site_fract_z
 _atom_site_occupancy
  Cs  Cs0  1  0.333333  0.666667  0.066386  1
  Cs  Cs1  1  0.666667  0.333333  0.937667  1
  Cs  Cs2  1  0.666667  0.333333  0.567357  1
  Cs  Cs3  1  0.333333  0.666667  0.437564  1
  Cs  Cs4  1  0.000000  0.000000  0.251276  1
  Cs  Cs5  1  0.000000  0.000000  0.743981  1
  In  In6  1  0.333333  0.666667  0.843784  1
  Ir  Ir7  1  0.333333  0.666667  0.664714  1
  Ir  Ir8  1  0.666667  0.333333  0.333282  1
  Ir  Ir9  1  0.666667  0.333333  0.166954  1
  Br  Br10  1  0.181071  0.362143  0.593771  1
  Br  Br11  1  0.818079  0.636155  0.404248  1
  Br  Br12  1  0.637857  0.818929  0.593771  1
  Br  Br13  1  0.818279  0.636558  0.095911  1
  Br  Br14  1  0.363845  0.181921  0.404248  1
  Br  Br15  1  0.165549  0.331100  0.909085  1
  Br  Br16  1  0.181071  0.818929  0.593771  1
  Br  Br17  1  0.363442  0.181721  0.095911  1
  Br  Br18  1  0.818079  0.181921  0.404248  1
  Br  Br19  1  0.668900  0.834451  0.909085  1
  Br  Br20  1  0.818279  0.181721  0.095911  1
  Br  Br21  1  0.165549  0.834451  0.909085  1
  Br  Br22  1  0.523469  0.046940  0.249978  1
  Br  Br23  1  0.482186  0.964372  0.742684  1
  Br  Br24  1  0.953060  0.476531  0.249978  1
  Br  Br25  1  0.035628  0.517814  0.742684  1
  Br  Br26  1  0.523469  0.476531  0.249978  1
  Br  Br27  1  0.482186  0.517814  0.742684  1
