# generated using pymatgen
data_Dy8LuSc7(Ga3Co)2
_symmetry_space_group_name_H-M   'P 1'
_cell_length_a   9.59135100
_cell_length_b   9.59135108
_cell_length_c   6.97565800
_cell_angle_alpha   90.00000000
_cell_angle_beta   90.00000000
_cell_angle_gamma   119.99999629
_symmetry_Int_Tables_number   1
_chemical_formula_structural   Dy8LuSc7(Ga3Co)2
_chemical_formula_sum   'Dy8 Lu1 Sc7 Ga6 Co2'
_cell_volume   555.74479060
_cell_formula_units_Z   1
loop_
 _symmetry_equiv_pos_site_id
 _symmetry_equiv_pos_as_xyz
  1  'x, y, z'
loop_
 _atom_site_type_symbol
 _atom_site_label
 _atom_site_symmetry_multiplicity
 _atom_site_fract_x
 _atom_site_fract_y
 _atom_site_fract_z
 _atom_site_occupancy
  Dy  Dy0  1  0.464056  0.535944  0.211887  1
  Dy  Dy1  1  0.071887  0.535944  0.211887  1
  Dy  Dy2  1  0.464056  0.928113  0.211887  1
  Dy  Dy3  1  0.533345  0.466655  0.714144  1
  Dy  Dy4  1  0.933311  0.466655  0.714144  1
  Dy  Dy5  1  0.533345  0.066689  0.714144  1
  Dy  Dy6  1  0.000000  0.000000  0.229636  1
  Dy  Dy7  1  0.000000  0.000000  0.726565  1
  Lu  Lu8  1  0.666667  0.333333  0.328260  1
  Sc  Sc9  1  0.175363  0.824637  0.516127  1
  Sc  Sc10  1  0.649275  0.824637  0.516127  1
  Sc  Sc11  1  0.175363  0.350725  0.516127  1
  Sc  Sc12  1  0.825382  0.174618  0.012904  1
  Sc  Sc13  1  0.349237  0.174618  0.012904  1
  Sc  Sc14  1  0.825382  0.650763  0.012904  1
  Sc  Sc15  1  0.333333  0.666667  0.821729  1
  Ga  Ga16  1  0.164105  0.835895  0.945321  1
  Ga  Ga17  1  0.671791  0.835895  0.945321  1
  Ga  Ga18  1  0.164105  0.328209  0.945321  1
  Ga  Ga19  1  0.838467  0.161533  0.450854  1
  Ga  Ga20  1  0.323067  0.161533  0.450854  1
  Ga  Ga21  1  0.838467  0.676933  0.450854  1
  Co  Co22  1  0.333333  0.666667  0.460494  1
  Co  Co23  1  0.666667  0.333333  0.954434  1
