# generated using pymatgen
data_Tb2HoIn3IrPd2
_symmetry_space_group_name_H-M   'P 1'
_cell_length_a   7.75239593
_cell_length_b   7.75481320
_cell_length_c   3.80553300
_cell_angle_alpha   90.00000000
_cell_angle_beta   90.00000000
_cell_angle_gamma   120.04576395
_symmetry_Int_Tables_number   1
_chemical_formula_structural   Tb2HoIn3IrPd2
_chemical_formula_sum   'Tb2 Ho1 In3 Ir1 Pd2'
_cell_volume   198.04001528
_cell_formula_units_Z   1
loop_
 _symmetry_equiv_pos_site_id
 _symmetry_equiv_pos_as_xyz
  1  'x, y, z'
loop_
 _atom_site_type_symbol
 _atom_site_label
 _atom_site_symmetry_multiplicity
 _atom_site_fract_x
 _atom_site_fract_y
 _atom_site_fract_z
 _atom_site_occupancy
  Tb  Tb0  1  0.583229  0.599649  0.000000  1
  Tb  Tb1  1  0.400281  0.983656  0.000000  1
  Ho  Ho2  1  0.016823  0.416842  0.000000  1
  In  In3  1  0.996532  0.735996  0.500000  1
  In  In4  1  0.263316  0.260244  0.500000  1
  In  In5  1  0.740095  0.003806  0.500000  1
  Ir  Ir6  1  0.332421  0.665975  0.500000  1
  Pd  Pd7  1  0.999996  0.000339  0.000000  1
  Pd  Pd8  1  0.667307  0.333494  0.500000  1
