# generated using pymatgen
data_DyLu7(CoAg)2
_symmetry_space_group_name_H-M   'P 1'
_cell_length_a   9.23884263
_cell_length_b   9.23884271
_cell_length_c   9.23928400
_cell_angle_alpha   59.99841993
_cell_angle_beta   59.99841965
_cell_angle_gamma   60.00316781
_symmetry_Int_Tables_number   1
_chemical_formula_structural   DyLu7(CoAg)2
_chemical_formula_sum   'Dy2 Lu14 Co4 Ag4'
_cell_volume   557.64586205
_cell_formula_units_Z   2
loop_
 _symmetry_equiv_pos_site_id
 _symmetry_equiv_pos_as_xyz
  1  'x, y, z'
loop_
 _atom_site_type_symbol
 _atom_site_label
 _atom_site_symmetry_multiplicity
 _atom_site_fract_x
 _atom_site_fract_y
 _atom_site_fract_z
 _atom_site_occupancy
  Dy  Dy0  1  0.562705  0.562705  0.937295  1
  Dy  Dy1  1  0.937295  0.937295  0.562705  1
  Lu  Lu2  1  0.347642  0.347642  0.348112  1
  Lu  Lu3  1  0.347642  0.347642  0.956605  1
  Lu  Lu4  1  0.348112  0.956605  0.347642  1
  Lu  Lu5  1  0.956605  0.348112  0.347642  1
  Lu  Lu6  1  0.812303  0.187697  0.187697  1
  Lu  Lu7  1  0.187697  0.812303  0.812303  1
  Lu  Lu8  1  0.187697  0.812303  0.187697  1
  Lu  Lu9  1  0.812303  0.187697  0.812303  1
  Lu  Lu10  1  0.188274  0.188274  0.811726  1
  Lu  Lu11  1  0.811726  0.811726  0.188274  1
  Lu  Lu12  1  0.938182  0.561818  0.561818  1
  Lu  Lu13  1  0.561818  0.938182  0.938182  1
  Lu  Lu14  1  0.561818  0.938182  0.561818  1
  Lu  Lu15  1  0.938182  0.561818  0.938182  1
  Co  Co16  1  0.142004  0.142004  0.140360  1
  Co  Co17  1  0.142004  0.142004  0.575634  1
  Co  Co18  1  0.140360  0.575634  0.142004  1
  Co  Co19  1  0.575634  0.140360  0.142004  1
  Ag  Ag20  1  0.582137  0.582137  0.580655  1
  Ag  Ag21  1  0.582137  0.582137  0.255069  1
  Ag  Ag22  1  0.580655  0.255069  0.582137  1
  Ag  Ag23  1  0.255069  0.580655  0.582137  1
