# generated using pymatgen
data_Ti3Ni7
_symmetry_space_group_name_H-M   'P 1'
_cell_length_a   4.72302315
_cell_length_b   10.87481800
_cell_length_c   16.13699293
_cell_angle_alpha   93.64189473
_cell_angle_beta   90.72040784
_cell_angle_gamma   108.86900498
_symmetry_Int_Tables_number   1
_chemical_formula_structural   Ti3Ni7
_chemical_formula_sum   'Ti3 Ni7'
_cell_volume   782.22240005
_cell_formula_units_Z   1
loop_
 _symmetry_equiv_pos_site_id
 _symmetry_equiv_pos_as_xyz
  1  'x, y, z'
loop_
 _atom_site_type_symbol
 _atom_site_label
 _atom_site_symmetry_multiplicity
 _atom_site_fract_x
 _atom_site_fract_y
 _atom_site_fract_z
 _atom_site_occupancy
  Ti  Ti0  1  0.975282  0.104662  0.019121  1
  Ti  Ti1  1  0.416533  0.402789  0.691475  1
  Ti  Ti2  1  0.765871  0.394479  0.460305  1
  Ni  Ni3  1  0.665254  0.162162  0.441754  1
  Ni  Ni4  1  0.327129  0.031305  0.619474  1
  Ni  Ni5  1  0.232978  0.068424  0.228151  1
  Ni  Ni6  1  0.352625  0.841752  0.923332  1
  Ni  Ni7  1  0.091029  0.252743  0.897910  1
  Ni  Ni8  1  0.111402  0.712133  0.027830  1
  Ni  Ni9  1  0.777904  0.368446  0.002786  1
