# generated using pymatgen
data_TcSe23
_symmetry_space_group_name_H-M   'P 1'
_cell_length_a   5.47981727
_cell_length_b   10.19867044
_cell_length_c   16.83485300
_cell_angle_alpha   90.13933130
_cell_angle_beta   87.65978431
_cell_angle_gamma   90.47881021
_symmetry_Int_Tables_number   1
_chemical_formula_structural   TcSe23
_chemical_formula_sum   'Tc1 Se23'
_cell_volume   940.02734465
_cell_formula_units_Z   1
loop_
 _symmetry_equiv_pos_site_id
 _symmetry_equiv_pos_as_xyz
  1  'x, y, z'
loop_
 _atom_site_type_symbol
 _atom_site_label
 _atom_site_symmetry_multiplicity
 _atom_site_fract_x
 _atom_site_fract_y
 _atom_site_fract_z
 _atom_site_occupancy
  Tc  Tc0  1  0.521045  0.346325  0.434351  1
  Se  Se1  1  0.541880  0.771896  0.400114  1
  Se  Se2  1  0.019115  0.316181  0.114894  1
  Se  Se3  1  0.855806  0.200551  0.430562  1
  Se  Se4  1  0.260707  0.792249  0.504542  1
  Se  Se5  1  0.242856  0.252349  0.998149  1
  Se  Se6  1  0.750426  0.720410  0.003139  1
  Se  Se7  1  0.188796  0.309398  0.349865  1
  Se  Se8  1  0.754211  0.551611  0.407273  1
  Se  Se9  1  0.764970  0.136422  0.153459  1
  Se  Se10  1  0.223121  0.859759  0.139433  1
  Se  Se11  1  0.687019  0.641952  0.638383  1
  Se  Se12  1  0.144081  0.409231  0.636469  1
  Se  Se13  1  0.232501  0.856171  0.857613  1
  Se  Se14  1  0.777317  0.133082  0.851876  1
  Se  Se15  1  0.983489  0.671605  0.114009  1
  Se  Se16  1  0.490901  0.844016  0.618367  1
  Se  Se17  1  0.433014  0.268336  0.564323  1
  Se  Se18  1  0.990533  0.668397  0.887597  1
  Se  Se19  1  0.028392  0.313148  0.885121  1
  Se  Se20  1  0.659414  0.446084  0.289705  1
  Se  Se21  1  0.000819  0.994925  0.230157  1
  Se  Se22  1  0.430534  0.504747  0.719785  1
  Se  Se23  1  0.019049  0.991154  0.770818  1
