# generated using pymatgen
data_Dy6Tm9Lu5Pt16
_symmetry_space_group_name_H-M   'P 1'
_cell_length_a   7.42576147
_cell_length_b   7.50936139
_cell_length_c   14.59098300
_cell_angle_alpha   90.09364197
_cell_angle_beta   89.97952223
_cell_angle_gamma   90.06848144
_symmetry_Int_Tables_number   1
_chemical_formula_structural   Dy6Tm9Lu5Pt16
_chemical_formula_sum   'Dy6 Tm9 Lu5 Pt16'
_cell_volume   813.63127503
_cell_formula_units_Z   1
loop_
 _symmetry_equiv_pos_site_id
 _symmetry_equiv_pos_as_xyz
  1  'x, y, z'
loop_
 _atom_site_type_symbol
 _atom_site_label
 _atom_site_symmetry_multiplicity
 _atom_site_fract_x
 _atom_site_fract_y
 _atom_site_fract_z
 _atom_site_occupancy
  Dy  Dy0  1  0.501264  0.321520  0.593569  1
  Dy  Dy1  1  0.001333  0.178766  0.906124  1
  Dy  Dy2  1  0.000264  0.176003  0.593084  1
  Dy  Dy3  1  0.500638  0.323162  0.906558  1
  Dy  Dy4  1  0.499238  0.679087  0.407269  1
  Dy  Dy5  1  0.999020  0.821082  0.093473  1
  Tm  Tm6  1  0.155909  0.667097  0.877211  1
  Tm  Tm7  1  0.843020  0.331866  0.377393  1
  Tm  Tm8  1  0.343679  0.167980  0.122932  1
  Tm  Tm9  1  0.343525  0.167281  0.377656  1
  Tm  Tm10  1  0.843320  0.332503  0.122548  1
  Tm  Tm11  1  0.155137  0.668490  0.621830  1
  Tm  Tm12  1  0.655145  0.831568  0.877775  1
  Tm  Tm13  1  0.998347  0.820345  0.405848  1
  Tm  Tm14  1  0.498613  0.679748  0.094163  1
  Lu  Lu15  1  0.681384  0.989676  0.250115  1
  Lu  Lu16  1  0.181378  0.509988  0.250449  1
  Lu  Lu17  1  0.818695  0.490163  0.749291  1
  Lu  Lu18  1  0.319101  0.009980  0.749775  1
  Lu  Lu19  1  0.655927  0.832816  0.622817  1
  Pt  Pt20  1  0.819037  0.644438  0.250627  1
  Pt  Pt21  1  0.319207  0.855549  0.249632  1
  Pt  Pt22  1  0.682091  0.143358  0.749771  1
  Pt  Pt23  1  0.182132  0.356397  0.749524  1
  Pt  Pt24  1  0.546671  0.386167  0.250004  1
  Pt  Pt25  1  0.046867  0.113547  0.250310  1
  Pt  Pt26  1  0.952846  0.883833  0.749737  1
  Pt  Pt27  1  0.453878  0.616932  0.749269  1
  Pt  Pt28  1  0.815568  0.536262  0.541739  1
  Pt  Pt29  1  0.316765  0.965631  0.958219  1
  Pt  Pt30  1  0.685788  0.030311  0.457987  1
  Pt  Pt31  1  0.185238  0.469326  0.042929  1
  Pt  Pt32  1  0.181486  0.468792  0.456308  1
  Pt  Pt33  1  0.681769  0.030714  0.043680  1
  Pt  Pt34  1  0.318507  0.965927  0.541980  1
  Pt  Pt35  1  0.817213  0.533698  0.958409  1
