# generated using pymatgen
data_B8Pt3Rh7
_symmetry_space_group_name_H-M   'P 1'
_cell_length_a   3.37395600
_cell_length_b   3.37390687
_cell_length_c   20.57574500
_cell_angle_alpha   89.99985622
_cell_angle_beta   89.99991034
_cell_angle_gamma   119.99901705
_symmetry_Int_Tables_number   1
_chemical_formula_structural   B8Pt3Rh7
_chemical_formula_sum   'B8 Pt3 Rh7'
_cell_volume   202.84439294
_cell_formula_units_Z   1
loop_
 _symmetry_equiv_pos_site_id
 _symmetry_equiv_pos_as_xyz
  1  'x, y, z'
loop_
 _atom_site_type_symbol
 _atom_site_label
 _atom_site_symmetry_multiplicity
 _atom_site_fract_x
 _atom_site_fract_y
 _atom_site_fract_z
 _atom_site_occupancy
  B  B0  1  0.666681  0.333333  0.094421  1
  B  B1  1  0.333339  0.666667  0.589463  1
  B  B2  1  0.333336  0.666673  0.906054  1
  B  B3  1  0.666670  0.333338  0.410575  1
  B  B4  1  0.666673  0.333325  0.201030  1
  B  B5  1  0.333334  0.666669  0.697022  1
  B  B6  1  0.333336  0.666672  0.800012  1
  B  B7  1  0.666670  0.333324  0.304640  1
  Pt  Pt8  1  0.333343  0.666664  0.049279  1
  Pt  Pt9  1  0.666672  0.333334  0.548055  1
  Pt  Pt10  1  0.666677  0.333336  0.950244  1
  Rh  Rh11  1  0.333336  0.666662  0.450944  1
  Rh  Rh12  1  0.333342  0.666665  0.250425  1
  Rh  Rh13  1  0.666674  0.333337  0.749023  1
  Rh  Rh14  1  0.000005  0.999999  0.149345  1
  Rh  Rh15  1  0.000007  0.000003  0.647952  1
  Rh  Rh16  1  0.000006  0.999998  0.850150  1
  Rh  Rh17  1  0.000007  0.000000  0.351367  1
