# generated using pymatgen
data_Er6GaTcPd
_symmetry_space_group_name_H-M   'P 1'
_cell_length_a   8.39254797
_cell_length_b   8.39254832
_cell_length_c   8.39254828
_cell_angle_alpha   113.47533466
_cell_angle_beta   112.60004845
_cell_angle_gamma   102.55341787
_symmetry_Int_Tables_number   1
_chemical_formula_structural   Er6GaTcPd
_chemical_formula_sum   'Er12 Ga2 Tc2 Pd2'
_cell_volume   450.12877395
_cell_formula_units_Z   2
loop_
 _symmetry_equiv_pos_site_id
 _symmetry_equiv_pos_as_xyz
  1  'x, y, z'
loop_
 _atom_site_type_symbol
 _atom_site_label
 _atom_site_symmetry_multiplicity
 _atom_site_fract_x
 _atom_site_fract_y
 _atom_site_fract_z
 _atom_site_occupancy
  Er  Er0  1  0.049729  0.740016  0.309713  1
  Er  Er1  1  0.950271  0.259984  0.690287  1
  Er  Er2  1  0.569699  0.259984  0.309713  1
  Er  Er3  1  0.430301  0.740016  0.690287  1
  Er  Er4  1  0.659883  0.847987  0.188102  1
  Er  Er5  1  0.340117  0.528219  0.188102  1
  Er  Er6  1  0.340117  0.152013  0.811898  1
  Er  Er7  1  0.659883  0.471781  0.811898  1
  Er  Er8  1  0.181938  0.223033  0.404971  1
  Er  Er9  1  0.818062  0.223033  0.041095  1
  Er  Er10  1  0.181938  0.776967  0.958905  1
  Er  Er11  1  0.818062  0.776967  0.595029  1
  Ga  Ga12  1  0.000000  0.500000  0.500000  1
  Ga  Ga13  1  0.500000  0.000000  0.500000  1
  Tc  Tc14  1  0.681296  0.500000  0.181296  1
  Tc  Tc15  1  0.318704  0.500000  0.818704  1
  Pd  Pd16  1  0.870118  0.870118  0.000000  1
  Pd  Pd17  1  0.129882  0.129882  0.000000  1
