# generated using pymatgen
data_Tb2YTm2Sb3
_symmetry_space_group_name_H-M   'P 1'
_cell_length_a   8.96753120
_cell_length_b   8.95079128
_cell_length_c   6.28409100
_cell_angle_alpha   90.00000000
_cell_angle_beta   90.00000000
_cell_angle_gamma   119.93826874
_symmetry_Int_Tables_number   1
_chemical_formula_structural   Tb2YTm2Sb3
_chemical_formula_sum   'Tb4 Y2 Tm4 Sb6'
_cell_volume   437.09640899
_cell_formula_units_Z   2
loop_
 _symmetry_equiv_pos_site_id
 _symmetry_equiv_pos_as_xyz
  1  'x, y, z'
loop_
 _atom_site_type_symbol
 _atom_site_label
 _atom_site_symmetry_multiplicity
 _atom_site_fract_x
 _atom_site_fract_y
 _atom_site_fract_z
 _atom_site_occupancy
  Tb  Tb0  1  0.753061  0.752570  0.250000  1
  Tb  Tb1  1  0.753061  0.000491  0.750000  1
  Tb  Tb2  1  0.246939  0.247430  0.750000  1
  Tb  Tb3  1  0.246939  0.999509  0.250000  1
  Y  Y4  1  0.000000  0.752516  0.750000  1
  Y  Y5  1  0.000000  0.247484  0.250000  1
  Tm  Tm6  1  0.333388  0.666695  0.500000  1
  Tm  Tm7  1  0.666612  0.333305  0.000000  1
  Tm  Tm8  1  0.666612  0.333305  0.500000  1
  Tm  Tm9  1  0.333388  0.666695  0.000000  1
  Sb  Sb10  1  0.390188  0.000023  0.750000  1
  Sb  Sb11  1  0.390188  0.390166  0.250000  1
  Sb  Sb12  1  0.000000  0.608955  0.250000  1
  Sb  Sb13  1  0.000000  0.391045  0.750000  1
  Sb  Sb14  1  0.609812  0.609834  0.750000  1
  Sb  Sb15  1  0.609812  0.999977  0.250000  1
