# generated using pymatgen
data_Y16Lu4(Ir3Pt)3
_symmetry_space_group_name_H-M   'P 1'
_cell_length_a   10.95630786
_cell_length_b   10.95630786
_cell_length_c   6.35209303
_cell_angle_alpha   90.00818572
_cell_angle_beta   90.00818572
_cell_angle_gamma   90.15352679
_symmetry_Int_Tables_number   1
_chemical_formula_structural   Y16Lu4(Ir3Pt)3
_chemical_formula_sum   'Y16 Lu4 Ir9 Pt3'
_cell_volume   762.50682643
_cell_formula_units_Z   1
loop_
 _symmetry_equiv_pos_site_id
 _symmetry_equiv_pos_as_xyz
  1  'x, y, z'
loop_
 _atom_site_type_symbol
 _atom_site_label
 _atom_site_symmetry_multiplicity
 _atom_site_fract_x
 _atom_site_fract_y
 _atom_site_fract_z
 _atom_site_occupancy
  Y  Y0  1  0.292516  0.086429  0.373921  1
  Y  Y1  1  0.291688  0.909539  0.878354  1
  Y  Y2  1  0.706728  0.089254  0.875582  1
  Y  Y3  1  0.706090  0.910670  0.374863  1
  Y  Y4  1  0.584788  0.789466  0.879725  1
  Y  Y5  1  0.585063  0.210651  0.379602  1
  Y  Y6  1  0.411766  0.789830  0.379387  1
  Y  Y7  1  0.414712  0.210565  0.879385  1
  Y  Y8  1  0.210534  0.415212  0.620275  1
  Y  Y9  1  0.210170  0.588234  0.120613  1
  Y  Y10  1  0.789349  0.414937  0.120398  1
  Y  Y11  1  0.789435  0.585288  0.620615  1
  Y  Y12  1  0.913571  0.707484  0.126079  1
  Y  Y13  1  0.910746  0.293272  0.624418  1
  Y  Y14  1  0.090461  0.708312  0.621646  1
  Y  Y15  1  0.089330  0.293910  0.125137  1
  Lu  Lu16  1  0.001400  0.998316  0.498969  1
  Lu  Lu17  1  0.001684  0.998600  0.001031  1
  Lu  Lu18  1  0.499867  0.500043  0.000299  1
  Lu  Lu19  1  0.499957  0.500133  0.499701  1
  Ir  Ir20  1  0.149034  0.850966  0.250000  1
  Ir  Ir21  1  0.651253  0.348747  0.750000  1
  Ir  Ir22  1  0.651453  0.651316  0.249856  1
  Ir  Ir23  1  0.348684  0.348547  0.250144  1
  Ir  Ir24  1  0.349504  0.650496  0.750000  1
  Ir  Ir25  1  0.500428  0.000058  0.125169  1
  Ir  Ir26  1  0.500348  0.000209  0.626241  1
  Ir  Ir27  1  0.999791  0.499652  0.873759  1
  Ir  Ir28  1  0.999942  0.499572  0.374831  1
  Pt  Pt29  1  0.850472  0.149528  0.250000  1
  Pt  Pt30  1  0.849513  0.850276  0.749880  1
  Pt  Pt31  1  0.149724  0.150487  0.750120  1
