# generated using pymatgen
data_Y8Er12Si15Ir
_symmetry_space_group_name_H-M   'P 1'
_cell_length_a   7.39370085
_cell_length_b   7.64864025
_cell_length_c   14.52352504
_cell_angle_alpha   90.27228073
_cell_angle_beta   90.36915641
_cell_angle_gamma   90.29942679
_symmetry_Int_Tables_number   1
_chemical_formula_structural   Y8Er12Si15Ir
_chemical_formula_sum   'Y8 Er12 Si15 Ir1'
_cell_volume   821.29320270
_cell_formula_units_Z   1
loop_
 _symmetry_equiv_pos_site_id
 _symmetry_equiv_pos_as_xyz
  1  'x, y, z'
loop_
 _atom_site_type_symbol
 _atom_site_label
 _atom_site_symmetry_multiplicity
 _atom_site_fract_x
 _atom_site_fract_y
 _atom_site_fract_z
 _atom_site_occupancy
  Y  Y0  1  0.022915  0.820871  0.598434  1
  Y  Y1  1  0.525290  0.684189  0.597303  1
  Y  Y2  1  0.321467  0.818766  0.121218  1
  Y  Y3  1  0.817525  0.680553  0.122823  1
  Y  Y4  1  0.851584  0.506258  0.749023  1
  Y  Y5  1  0.472032  0.315469  0.099147  1
  Y  Y6  1  0.027569  0.818787  0.902346  1
  Y  Y7  1  0.473114  0.316572  0.402543  1
  Er  Er8  1  0.652826  0.012475  0.259313  1
  Er  Er9  1  0.530229  0.683041  0.899291  1
  Er  Er10  1  0.680873  0.179871  0.876588  1
  Er  Er11  1  0.178174  0.320883  0.623653  1
  Er  Er12  1  0.184832  0.322160  0.875761  1
  Er  Er13  1  0.816252  0.689826  0.382525  1
  Er  Er14  1  0.323855  0.825699  0.378383  1
  Er  Er15  1  0.351445  0.990825  0.747324  1
  Er  Er16  1  0.682842  0.165024  0.618607  1
  Er  Er17  1  0.147524  0.489503  0.252807  1
  Er  Er18  1  0.970011  0.181368  0.099129  1
  Er  Er19  1  0.969406  0.174938  0.402041  1
  Si  Si20  1  0.234474  0.628164  0.751045  1
  Si  Si21  1  0.344261  0.029076  0.540848  1
  Si  Si22  1  0.028116  0.894070  0.247131  1
  Si  Si23  1  0.732874  0.871339  0.752636  1
  Si  Si24  1  0.263798  0.127495  0.246565  1
  Si  Si25  1  0.851886  0.470291  0.540837  1
  Si  Si26  1  0.480054  0.391479  0.748816  1
  Si  Si27  1  0.146460  0.531556  0.461537  1
  Si  Si28  1  0.145706  0.525112  0.039822  1
  Si  Si29  1  0.977699  0.105525  0.751740  1
  Si  Si30  1  0.769386  0.376102  0.249484  1
  Si  Si31  1  0.354120  0.029515  0.958430  1
  Si  Si32  1  0.855230  0.467951  0.960011  1
  Si  Si33  1  0.648960  0.970973  0.037638  1
  Si  Si34  1  0.522206  0.603132  0.249401  1
  Ir  Ir35  1  0.645005  0.981140  0.455799  1
