# generated using pymatgen
data_Ti2PRh5
_symmetry_space_group_name_H-M   'P 1'
_cell_length_a   3.92830300
_cell_length_b   5.45372800
_cell_length_c   10.46759900
_cell_angle_alpha   90.00000000
_cell_angle_beta   90.00000000
_cell_angle_gamma   90.00000000
_symmetry_Int_Tables_number   1
_chemical_formula_structural   Ti2PRh5
_chemical_formula_sum   'Ti4 P2 Rh10'
_cell_volume   224.25675301
_cell_formula_units_Z   2
loop_
 _symmetry_equiv_pos_site_id
 _symmetry_equiv_pos_as_xyz
  1  'x, y, z'
loop_
 _atom_site_type_symbol
 _atom_site_label
 _atom_site_symmetry_multiplicity
 _atom_site_fract_x
 _atom_site_fract_y
 _atom_site_fract_z
 _atom_site_occupancy
  Ti  Ti0  1  0.500000  0.337972  0.143944  1
  Ti  Ti1  1  0.500000  0.662028  0.856056  1
  Ti  Ti2  1  0.500000  0.837972  0.356056  1
  Ti  Ti3  1  0.500000  0.162028  0.643944  1
  P  P4  1  0.000000  0.000000  0.000000  1
  P  P5  1  0.000000  0.500000  0.500000  1
  Rh  Rh6  1  0.000000  0.000000  0.500000  1
  Rh  Rh7  1  0.000000  0.500000  0.000000  1
  Rh  Rh8  1  0.000000  0.082896  0.236468  1
  Rh  Rh9  1  0.000000  0.917104  0.763532  1
  Rh  Rh10  1  0.000000  0.582896  0.263532  1
  Rh  Rh11  1  0.000000  0.417104  0.736468  1
  Rh  Rh12  1  0.500000  0.321041  0.398501  1
  Rh  Rh13  1  0.500000  0.678959  0.601499  1
  Rh  Rh14  1  0.500000  0.821041  0.101499  1
  Rh  Rh15  1  0.500000  0.178959  0.898501  1
