# generated using pymatgen
data_La8Cd2PdRh
_symmetry_space_group_name_H-M   'P 1'
_cell_length_a   10.16949168
_cell_length_b   10.16949141
_cell_length_c   10.18820400
_cell_angle_alpha   59.93911223
_cell_angle_beta   59.93911312
_cell_angle_gamma   59.90079576
_symmetry_Int_Tables_number   1
_chemical_formula_structural   La8Cd2PdRh
_chemical_formula_sum   'La16 Cd4 Pd2 Rh2'
_cell_volume   743.79755941
_cell_formula_units_Z   2
loop_
 _symmetry_equiv_pos_site_id
 _symmetry_equiv_pos_as_xyz
  1  'x, y, z'
loop_
 _atom_site_type_symbol
 _atom_site_label
 _atom_site_symmetry_multiplicity
 _atom_site_fract_x
 _atom_site_fract_y
 _atom_site_fract_z
 _atom_site_occupancy
  La  La0  1  0.347867  0.347867  0.353390  1
  La  La1  1  0.347867  0.347867  0.950875  1
  La  La2  1  0.345251  0.954331  0.350209  1
  La  La3  1  0.954331  0.345251  0.350209  1
  La  La4  1  0.813038  0.191121  0.191498  1
  La  La5  1  0.191121  0.813038  0.804343  1
  La  La6  1  0.191121  0.813038  0.191498  1
  La  La7  1  0.813038  0.191121  0.804343  1
  La  La8  1  0.189987  0.189987  0.810013  1
  La  La9  1  0.806949  0.806949  0.193051  1
  La  La10  1  0.935879  0.562463  0.564873  1
  La  La11  1  0.562463  0.935879  0.936785  1
  La  La12  1  0.562463  0.935879  0.564873  1
  La  La13  1  0.935879  0.562463  0.936785  1
  La  La14  1  0.564438  0.564438  0.935562  1
  La  La15  1  0.936950  0.936950  0.563050  1
  Cd  Cd16  1  0.579798  0.579798  0.579512  1
  Cd  Cd17  1  0.579798  0.579798  0.260893  1
  Cd  Cd18  1  0.579958  0.260710  0.579667  1
  Cd  Cd19  1  0.260710  0.579958  0.579667  1
  Pd  Pd20  1  0.143453  0.572781  0.141883  1
  Pd  Pd21  1  0.572781  0.143453  0.141883  1
  Rh  Rh22  1  0.142431  0.142431  0.141355  1
  Rh  Rh23  1  0.142431  0.142431  0.573785  1
