# generated using pymatgen
data_Tb5Co19(SiP5)2
_symmetry_space_group_name_H-M   'P 1'
_cell_length_a   12.04689607
_cell_length_b   12.03895473
_cell_length_c   3.69424700
_cell_angle_alpha   90.00000000
_cell_angle_beta   90.00000000
_cell_angle_gamma   119.97818549
_symmetry_Int_Tables_number   1
_chemical_formula_structural   Tb5Co19(SiP5)2
_chemical_formula_sum   'Tb5 Co19 Si2 P10'
_cell_volume   464.10466051
_cell_formula_units_Z   1
loop_
 _symmetry_equiv_pos_site_id
 _symmetry_equiv_pos_as_xyz
  1  'x, y, z'
loop_
 _atom_site_type_symbol
 _atom_site_label
 _atom_site_symmetry_multiplicity
 _atom_site_fract_x
 _atom_site_fract_y
 _atom_site_fract_z
 _atom_site_occupancy
  Tb  Tb0  1  0.665530  0.332889  0.000000  1
  Tb  Tb1  1  0.334470  0.667359  0.000000  1
  Tb  Tb2  1  0.184979  0.185229  0.500000  1
  Tb  Tb3  1  0.815021  0.000250  0.500000  1
  Tb  Tb4  1  0.000000  0.811792  0.500000  1
  Co  Co5  1  0.559276  0.556288  0.000000  1
  Co  Co6  1  0.440724  0.997012  0.000000  1
  Co  Co7  1  0.000000  0.447835  0.000000  1
  Co  Co8  1  0.824958  0.204038  0.000000  1
  Co  Co9  1  0.801406  0.622300  0.000000  1
  Co  Co10  1  0.377355  0.174324  0.000000  1
  Co  Co11  1  0.198594  0.820894  0.000000  1
  Co  Co12  1  0.622645  0.796969  0.000000  1
  Co  Co13  1  0.175042  0.379080  0.000000  1
  Co  Co14  1  0.640630  0.126479  0.500000  1
  Co  Co15  1  0.875197  0.516646  0.500000  1
  Co  Co16  1  0.485475  0.358344  0.500000  1
  Co  Co17  1  0.124803  0.641451  0.500000  1
  Co  Co18  1  0.514525  0.872869  0.500000  1
  Co  Co19  1  0.359370  0.485849  0.500000  1
  Co  Co20  1  0.716737  0.715271  0.500000  1
  Co  Co21  1  0.283263  0.998534  0.500000  1
  Co  Co22  1  0.000000  0.286317  0.500000  1
  Co  Co23  1  0.000000  0.000474  0.000000  1
  Si  Si24  1  0.370140  0.370198  0.000000  1
  Si  Si25  1  0.629860  0.000058  0.000000  1
  P  P26  1  0.000000  0.630713  0.000000  1
  P  P27  1  0.833164  0.313286  0.500000  1
  P  P28  1  0.686346  0.520767  0.500000  1
  P  P29  1  0.478070  0.164837  0.500000  1
  P  P30  1  0.313654  0.834421  0.500000  1
  P  P31  1  0.521930  0.686767  0.500000  1
  P  P32  1  0.166836  0.480122  0.500000  1
  P  P33  1  0.818621  0.817899  0.000000  1
  P  P34  1  0.181379  0.999278  0.000000  1
  P  P35  1  0.000000  0.183159  0.000000  1
