# generated using pymatgen
data_La3Pr8In(Hg2Ir)4
_symmetry_space_group_name_H-M   'P 1'
_cell_length_a   13.46817377
_cell_length_b   13.49276116
_cell_length_c   3.92802300
_cell_angle_alpha   90.00000000
_cell_angle_beta   90.00000000
_cell_angle_gamma   114.13677326
_symmetry_Int_Tables_number   1
_chemical_formula_structural   La3Pr8In(Hg2Ir)4
_chemical_formula_sum   'La3 Pr8 In1 Hg8 Ir4'
_cell_volume   651.40436750
_cell_formula_units_Z   1
loop_
 _symmetry_equiv_pos_site_id
 _symmetry_equiv_pos_as_xyz
  1  'x, y, z'
loop_
 _atom_site_type_symbol
 _atom_site_label
 _atom_site_symmetry_multiplicity
 _atom_site_fract_x
 _atom_site_fract_y
 _atom_site_fract_z
 _atom_site_occupancy
  La  La0  1  0.799480  0.798068  0.500000  1
  La  La1  1  0.201216  0.201109  0.500000  1
  La  La2  1  0.588659  0.919599  0.500000  1
  Pr  Pr3  1  0.500163  0.499589  0.500000  1
  Pr  Pr4  1  0.412853  0.080597  0.500000  1
  Pr  Pr5  1  0.919670  0.587207  0.500000  1
  Pr  Pr6  1  0.080718  0.412613  0.500000  1
  Pr  Pr7  1  0.129259  0.870701  0.500000  1
  Pr  Pr8  1  0.871757  0.130426  0.500000  1
  Pr  Pr9  1  0.332398  0.667535  0.500000  1
  Pr  Pr10  1  0.667279  0.332712  0.500000  1
  In  In11  1  0.000009  0.000069  0.000000  1
  Hg  Hg12  1  0.349004  0.866519  0.000000  1
  Hg  Hg13  1  0.651201  0.135297  0.000000  1
  Hg  Hg14  1  0.867006  0.349916  0.000000  1
  Hg  Hg15  1  0.132958  0.650172  0.000000  1
  Hg  Hg16  1  0.557001  0.708764  0.000000  1
  Hg  Hg17  1  0.442528  0.289281  0.000000  1
  Hg  Hg18  1  0.710547  0.557408  0.000000  1
  Hg  Hg19  1  0.289400  0.442708  0.000000  1
  Ir  Ir20  1  0.756769  0.947186  0.000000  1
  Ir  Ir21  1  0.240700  0.052511  0.000000  1
  Ir  Ir22  1  0.947434  0.759711  0.000000  1
  Ir  Ir23  1  0.051990  0.240304  0.000000  1
