# generated using pymatgen
data_Dy3IrAu3
_symmetry_space_group_name_H-M   'P 1'
_cell_length_a   8.03650785
_cell_length_b   8.03650805
_cell_length_c   8.03650798
_cell_angle_alpha   114.16721160
_cell_angle_beta   114.16721942
_cell_angle_gamma   114.16719473
_symmetry_Int_Tables_number   1
_chemical_formula_structural   Dy3IrAu3
_chemical_formula_sum   'Dy6 Ir2 Au6'
_cell_volume   311.39635922
_cell_formula_units_Z   2
loop_
 _symmetry_equiv_pos_site_id
 _symmetry_equiv_pos_as_xyz
  1  'x, y, z'
loop_
 _atom_site_type_symbol
 _atom_site_label
 _atom_site_symmetry_multiplicity
 _atom_site_fract_x
 _atom_site_fract_y
 _atom_site_fract_z
 _atom_site_occupancy
  Dy  Dy0  1  0.042373  0.393033  0.281023  1
  Dy  Dy1  1  0.393033  0.281023  0.042373  1
  Dy  Dy2  1  0.718977  0.957627  0.606967  1
  Dy  Dy3  1  0.281023  0.042373  0.393033  1
  Dy  Dy4  1  0.606967  0.718977  0.957627  1
  Dy  Dy5  1  0.957627  0.606967  0.718977  1
  Ir  Ir6  1  0.000000  0.000000  0.000000  1
  Ir  Ir7  1  0.500000  0.500000  0.500000  1
  Au  Au8  1  0.436249  0.937191  0.771333  1
  Au  Au9  1  0.937191  0.771333  0.436249  1
  Au  Au10  1  0.228667  0.563751  0.062809  1
  Au  Au11  1  0.771333  0.436249  0.937191  1
  Au  Au12  1  0.062809  0.228667  0.563751  1
  Au  Au13  1  0.563751  0.062809  0.228667  1
