# generated using pymatgen
data_LaH2BrO2
_symmetry_space_group_name_H-M   'P 1'
_cell_length_a   6.48887378
_cell_length_b   4.03808600
_cell_length_c   7.21192498
_cell_angle_alpha   90.00000000
_cell_angle_beta   112.37293810
_cell_angle_gamma   90.00000000
_symmetry_Int_Tables_number   1
_chemical_formula_structural   LaH2BrO2
_chemical_formula_sum   'La2 H4 Br2 O4'
_cell_volume   174.74675560
_cell_formula_units_Z   2
loop_
 _symmetry_equiv_pos_site_id
 _symmetry_equiv_pos_as_xyz
  1  'x, y, z'
loop_
 _atom_site_type_symbol
 _atom_site_label
 _atom_site_symmetry_multiplicity
 _atom_site_fract_x
 _atom_site_fract_y
 _atom_site_fract_z
 _atom_site_occupancy
  La  La0  1  0.694988  0.750000  0.378714  1
  La  La1  1  0.305012  0.250000  0.621286  1
  H  H2  1  0.322228  0.250000  0.204611  1
  H  H3  1  0.109729  0.750000  0.288825  1
  H  H4  1  0.890272  0.250000  0.711176  1
  H  H5  1  0.677773  0.750000  0.795388  1
  Br  Br6  1  0.761444  0.250000  0.057054  1
  Br  Br7  1  0.238556  0.750000  0.942947  1
  O  O8  1  0.434228  0.250000  0.341766  1
  O  O9  1  0.102189  0.750000  0.421828  1
  O  O10  1  0.897811  0.250000  0.578173  1
  O  O11  1  0.565772  0.750000  0.658234  1
