# generated using pymatgen
data_DyPa3(HgRh2)2
_symmetry_space_group_name_H-M   'P 1'
_cell_length_a   7.70426144
_cell_length_b   7.70426144
_cell_length_c   3.60039500
_cell_angle_alpha   90.00000000
_cell_angle_beta   90.00000000
_cell_angle_gamma   92.72761963
_symmetry_Int_Tables_number   1
_chemical_formula_structural   DyPa3(HgRh2)2
_chemical_formula_sum   'Dy1 Pa3 Hg2 Rh4'
_cell_volume   213.46164979
_cell_formula_units_Z   1
loop_
 _symmetry_equiv_pos_site_id
 _symmetry_equiv_pos_as_xyz
  1  'x, y, z'
loop_
 _atom_site_type_symbol
 _atom_site_label
 _atom_site_symmetry_multiplicity
 _atom_site_fract_x
 _atom_site_fract_y
 _atom_site_fract_z
 _atom_site_occupancy
  Dy  Dy0  1  0.671597  0.828404  0.500001  1
  Pa  Pa1  1  0.329427  0.170574  0.500001  1
  Pa  Pa2  1  0.827534  0.330288  0.500001  1
  Pa  Pa3  1  0.169713  0.672467  0.500001  1
  Hg  Hg4  1  0.988488  0.998698  0.000000  1
  Hg  Hg5  1  0.501302  0.511512  0.000000  1
  Rh  Rh6  1  0.627173  0.147636  0.000000  1
  Rh  Rh7  1  0.143452  0.356549  0.000000  1
  Rh  Rh8  1  0.888952  0.611047  0.000000  1
  Rh  Rh9  1  0.352365  0.872826  0.000000  1
