# generated using pymatgen
data_Sr6MgNi(PdO6)2
_symmetry_space_group_name_H-M   'P 1'
_cell_length_a   6.73647784
_cell_length_b   6.73632316
_cell_length_c   6.73649538
_cell_angle_alpha   92.27721259
_cell_angle_beta   92.27697269
_cell_angle_gamma   92.27656696
_symmetry_Int_Tables_number   1
_chemical_formula_structural   Sr6MgNi(PdO6)2
_chemical_formula_sum   'Sr6 Mg1 Ni1 Pd2 O12'
_cell_volume   304.95219464
_cell_formula_units_Z   1
loop_
 _symmetry_equiv_pos_site_id
 _symmetry_equiv_pos_as_xyz
  1  'x, y, z'
loop_
 _atom_site_type_symbol
 _atom_site_label
 _atom_site_symmetry_multiplicity
 _atom_site_fract_x
 _atom_site_fract_y
 _atom_site_fract_z
 _atom_site_occupancy
  Sr  Sr0  1  0.616900  0.883099  0.250009  1
  Sr  Sr1  1  0.250023  0.616900  0.883091  1
  Sr  Sr2  1  0.883113  0.250004  0.616882  1
  Sr  Sr3  1  0.384567  0.115432  0.749982  1
  Sr  Sr4  1  0.749989  0.384546  0.115446  1
  Sr  Sr5  1  0.115436  0.749985  0.384562  1
  Mg  Mg6  1  0.250074  0.250065  0.250075  1
  Ni  Ni7  1  0.749813  0.749980  0.749990  1
  Pd  Pd8  1  0.001084  0.001069  0.001063  1
  Pd  Pd9  1  0.498950  0.498947  0.498932  1
  O  O10  1  0.289624  0.965087  0.092220  1
  O  O11  1  0.092252  0.289599  0.965100  1
  O  O12  1  0.965106  0.092244  0.289641  1
  O  O13  1  0.534895  0.210411  0.407747  1
  O  O14  1  0.407767  0.534910  0.210400  1
  O  O15  1  0.210385  0.407769  0.534909  1
  O  O16  1  0.711369  0.035358  0.911671  1
  O  O17  1  0.911659  0.711378  0.035338  1
  O  O18  1  0.035347  0.911648  0.711331  1
  O  O19  1  0.464661  0.788607  0.588348  1
  O  O20  1  0.588342  0.464638  0.788624  1
  O  O21  1  0.788645  0.588323  0.464638  1
