# generated using pymatgen
data_Tb3ErSc6Ga7Si
_symmetry_space_group_name_H-M   'P 1'
_cell_length_a   7.26550521
_cell_length_b   7.48461572
_cell_length_c   14.52798854
_cell_angle_alpha   89.89964861
_cell_angle_beta   90.06049036
_cell_angle_gamma   90.36916169
_symmetry_Int_Tables_number   1
_chemical_formula_structural   Tb3ErSc6Ga7Si
_chemical_formula_sum   'Tb6 Er2 Sc12 Ga14 Si2'
_cell_volume   790.00692284
_cell_formula_units_Z   2
loop_
 _symmetry_equiv_pos_site_id
 _symmetry_equiv_pos_as_xyz
  1  'x, y, z'
loop_
 _atom_site_type_symbol
 _atom_site_label
 _atom_site_symmetry_multiplicity
 _atom_site_fract_x
 _atom_site_fract_y
 _atom_site_fract_z
 _atom_site_occupancy
  Tb  Tb0  1  0.012633  0.178071  0.097314  1
  Tb  Tb1  1  0.987367  0.821929  0.902686  1
  Tb  Tb2  1  0.489128  0.677655  0.904233  1
  Tb  Tb3  1  0.986972  0.821730  0.596600  1
  Tb  Tb4  1  0.510872  0.322345  0.095767  1
  Tb  Tb5  1  0.013028  0.178270  0.403400  1
  Er  Er6  1  0.510981  0.321573  0.404374  1
  Er  Er7  1  0.489019  0.678427  0.595626  1
  Sc  Sc8  1  0.160513  0.502903  0.749561  1
  Sc  Sc9  1  0.839487  0.497097  0.250439  1
  Sc  Sc10  1  0.336667  0.004732  0.250258  1
  Sc  Sc11  1  0.663333  0.995268  0.749742  1
  Sc  Sc12  1  0.332414  0.174228  0.622524  1
  Sc  Sc13  1  0.667586  0.825772  0.377476  1
  Sc  Sc14  1  0.172392  0.669658  0.376452  1
  Sc  Sc15  1  0.667880  0.826468  0.123073  1
  Sc  Sc16  1  0.827608  0.330342  0.623548  1
  Sc  Sc17  1  0.332120  0.173532  0.876927  1
  Sc  Sc18  1  0.828413  0.330647  0.875667  1
  Sc  Sc19  1  0.171587  0.669353  0.124333  1
  Ga  Ga20  1  0.032971  0.120782  0.749686  1
  Ga  Ga21  1  0.967029  0.879218  0.250314  1
  Ga  Ga22  1  0.468287  0.613233  0.250658  1
  Ga  Ga23  1  0.531713  0.386767  0.749342  1
  Ga  Ga24  1  0.286098  0.873202  0.749368  1
  Ga  Ga25  1  0.713902  0.126798  0.250632  1
  Ga  Ga26  1  0.159409  0.465219  0.540896  1
  Ga  Ga27  1  0.840591  0.534781  0.459104  1
  Ga  Ga28  1  0.339847  0.964052  0.459324  1
  Ga  Ga29  1  0.841785  0.535933  0.040751  1
  Ga  Ga30  1  0.660153  0.035948  0.540676  1
  Ga  Ga31  1  0.158215  0.464067  0.959249  1
  Ga  Ga32  1  0.661103  0.037126  0.959324  1
  Ga  Ga33  1  0.338897  0.962874  0.040676  1
  Si  Si34  1  0.216289  0.374678  0.250809  1
  Si  Si35  1  0.783711  0.625322  0.749191  1
