# generated using pymatgen
data_Yb3(PrGe2)2
_symmetry_space_group_name_H-M   'P 1'
_cell_length_a   7.63630000
_cell_length_b   15.44715800
_cell_length_c   8.02394500
_cell_angle_alpha   90.00000000
_cell_angle_beta   90.00000000
_cell_angle_gamma   90.00000000
_symmetry_Int_Tables_number   1
_chemical_formula_structural   Yb3(PrGe2)2
_chemical_formula_sum   'Yb12 Pr8 Ge16'
_cell_volume   946.49759251
_cell_formula_units_Z   4
loop_
 _symmetry_equiv_pos_site_id
 _symmetry_equiv_pos_as_xyz
  1  'x, y, z'
loop_
 _atom_site_type_symbol
 _atom_site_label
 _atom_site_symmetry_multiplicity
 _atom_site_fract_x
 _atom_site_fract_y
 _atom_site_fract_z
 _atom_site_occupancy
  Yb  Yb0  1  0.352943  0.250000  0.996679  1
  Yb  Yb1  1  0.852944  0.250000  0.503319  1
  Yb  Yb2  1  0.150996  0.750000  0.522255  1
  Yb  Yb3  1  0.180001  0.122147  0.678362  1
  Yb  Yb4  1  0.180001  0.377853  0.678362  1
  Yb  Yb5  1  0.475946  0.595307  0.687971  1
  Yb  Yb6  1  0.475946  0.904694  0.687971  1
  Yb  Yb7  1  0.975946  0.595307  0.812028  1
  Yb  Yb8  1  0.975946  0.904694  0.812028  1
  Yb  Yb9  1  0.680002  0.122147  0.821638  1
  Yb  Yb10  1  0.680002  0.377853  0.821638  1
  Yb  Yb11  1  0.650995  0.750000  0.977745  1
  Pr  Pr12  1  0.318574  0.621433  0.173019  1
  Pr  Pr13  1  0.318574  0.878567  0.173019  1
  Pr  Pr14  1  0.024405  0.101215  0.184655  1
  Pr  Pr15  1  0.024405  0.398785  0.184655  1
  Pr  Pr16  1  0.524404  0.101215  0.315345  1
  Pr  Pr17  1  0.524404  0.398785  0.315345  1
  Pr  Pr18  1  0.818573  0.621433  0.326982  1
  Pr  Pr19  1  0.818573  0.878567  0.326982  1
  Ge  Ge20  1  0.651186  0.536975  0.033188  1
  Ge  Ge21  1  0.651186  0.963025  0.033188  1
  Ge  Ge22  1  0.018937  0.750000  0.097685  1
  Ge  Ge23  1  0.735380  0.250000  0.130204  1
  Ge  Ge24  1  0.235379  0.250000  0.369795  1
  Ge  Ge25  1  0.518938  0.750000  0.402316  1
  Ge  Ge26  1  0.151186  0.536975  0.466812  1
  Ge  Ge27  1  0.151186  0.963025  0.466812  1
  Ge  Ge28  1  0.851917  0.043613  0.528772  1
  Ge  Ge29  1  0.851917  0.456387  0.528772  1
  Ge  Ge30  1  0.473385  0.250000  0.599500  1
  Ge  Ge31  1  0.764305  0.750000  0.622566  1
  Ge  Ge32  1  0.264306  0.750000  0.877435  1
  Ge  Ge33  1  0.973384  0.250000  0.900501  1
  Ge  Ge34  1  0.351918  0.043613  0.971227  1
  Ge  Ge35  1  0.351918  0.456387  0.971227  1
