# generated using pymatgen
data_Dy5Ti3P12(Ir3Rh5)2
_symmetry_space_group_name_H-M   'P 1'
_cell_length_a   12.77203442
_cell_length_b   12.76971508
_cell_length_c   3.91882500
_cell_angle_alpha   90.00000000
_cell_angle_beta   90.00000000
_cell_angle_gamma   120.03524547
_symmetry_Int_Tables_number   1
_chemical_formula_structural   Dy5Ti3P12(Ir3Rh5)2
_chemical_formula_sum   'Dy5 Ti3 P12 Ir6 Rh10'
_cell_volume   553.31626506
_cell_formula_units_Z   1
loop_
 _symmetry_equiv_pos_site_id
 _symmetry_equiv_pos_as_xyz
  1  'x, y, z'
loop_
 _atom_site_type_symbol
 _atom_site_label
 _atom_site_symmetry_multiplicity
 _atom_site_fract_x
 _atom_site_fract_y
 _atom_site_fract_z
 _atom_site_occupancy
  Dy  Dy0  1  0.333326  0.666629  0.500000  1
  Dy  Dy1  1  0.666649  0.333164  0.500000  1
  Dy  Dy2  1  0.000310  0.812149  0.000000  1
  Dy  Dy3  1  0.188310  0.188205  0.000000  1
  Dy  Dy4  1  0.811973  0.999974  0.000000  1
  Ti  Ti5  1  0.000376  0.446241  0.500000  1
  Ti  Ti6  1  0.553731  0.554166  0.500000  1
  Ti  Ti7  1  0.445752  0.999797  0.500000  1
  P  P8  1  0.999699  0.640342  0.500000  1
  P  P9  1  0.359864  0.359874  0.500000  1
  P  P10  1  0.640538  0.000382  0.500000  1
  P  P11  1  0.516690  0.683762  0.000000  1
  P  P12  1  0.316329  0.833172  0.000000  1
  P  P13  1  0.167081  0.483345  0.000000  1
  P  P14  1  0.482932  0.166979  0.000000  1
  P  P15  1  0.684267  0.516772  0.000000  1
  P  P16  1  0.832525  0.315597  0.000000  1
  P  P17  1  0.999710  0.176656  0.500000  1
  P  P18  1  0.823298  0.823079  0.500000  1
  P  P19  1  0.176916  0.999829  0.500000  1
  Ir  Ir20  1  0.000564  0.282521  0.000000  1
  Ir  Ir21  1  0.717563  0.718129  0.000000  1
  Ir  Ir22  1  0.282306  0.000022  0.000000  1
  Ir  Ir23  1  0.803169  0.624565  0.500000  1
  Ir  Ir24  1  0.821426  0.196680  0.500000  1
  Ir  Ir25  1  0.000099  0.000117  0.500000  1
  Rh  Rh26  1  0.512204  0.868896  0.000000  1
  Rh  Rh27  1  0.131322  0.643370  0.000000  1
  Rh  Rh28  1  0.356678  0.487490  0.000000  1
  Rh  Rh29  1  0.488114  0.357243  0.000000  1
  Rh  Rh30  1  0.868619  0.510801  0.000000  1
  Rh  Rh31  1  0.642613  0.131248  0.000000  1
  Rh  Rh32  1  0.625078  0.803777  0.500000  1
  Rh  Rh33  1  0.196351  0.821406  0.500000  1
  Rh  Rh34  1  0.178593  0.375045  0.500000  1
  Rh  Rh35  1  0.375026  0.178574  0.500000  1
