# generated using pymatgen
data_USn(PO4)3
_symmetry_space_group_name_H-M   'P 1'
_cell_length_a   8.98583848
_cell_length_b   8.98561197
_cell_length_c   9.31221116
_cell_angle_alpha   90.09820975
_cell_angle_beta   118.70327688
_cell_angle_gamma   119.98715752
_symmetry_Int_Tables_number   1
_chemical_formula_structural   USn(PO4)3
_chemical_formula_sum   'U2 Sn2 P6 O24'
_cell_volume   541.52622001
_cell_formula_units_Z   2
loop_
 _symmetry_equiv_pos_site_id
 _symmetry_equiv_pos_as_xyz
  1  'x, y, z'
loop_
 _atom_site_type_symbol
 _atom_site_label
 _atom_site_symmetry_multiplicity
 _atom_site_fract_x
 _atom_site_fract_y
 _atom_site_fract_z
 _atom_site_occupancy
  U  U0  1  0.208929  0.355609  0.563915  1
  U  U1  1  0.789747  0.143553  0.933747  1
  Sn  Sn2  1  0.212156  0.857826  0.069510  1
  Sn  Sn3  1  0.789832  0.643212  0.434101  1
  P  P4  1  0.997294  0.947576  0.248140  1
  P  P5  1  0.300534  0.550729  0.250884  1
  P  P6  1  0.272803  0.751556  0.747828  1
  P  P7  1  0.699176  0.249391  0.252054  1
  P  P8  1  0.729041  0.477803  0.749270  1
  P  P9  1  0.001212  0.023051  0.751876  1
  O  O10  1  0.309972  0.722141  0.224698  1
  O  O11  1  0.867041  0.980795  0.083012  1
  O  O12  1  0.851062  0.851418  0.595827  1
  O  O13  1  0.846155  0.790028  0.276304  1
  O  O14  1  0.140661  0.914707  0.231816  1
  O  O15  1  0.487709  0.559717  0.280030  1
  O  O16  1  0.097128  0.738869  0.583579  1
  O  O17  1  0.908852  0.639973  0.913459  1
  O  O18  1  0.276331  0.778651  0.911647  1
  O  O19  1  0.476827  0.912732  0.774680  1
  O  O20  1  0.739099  0.488982  0.589711  1
  O  O21  1  0.711848  0.425312  0.271307  1
  O  O22  1  0.268395  0.577723  0.721687  1
  O  O23  1  0.278499  0.517655  0.406790  1
  O  O24  1  0.505585  0.086863  0.231504  1
  O  O25  1  0.709113  0.214795  0.093048  1
  O  O26  1  0.102559  0.380161  0.091171  1
  O  O27  1  0.892132  0.270185  0.411698  1
  O  O28  1  0.528197  0.452832  0.712181  1
  O  O29  1  0.865777  0.068483  0.773839  1
  O  O30  1  0.143410  0.185972  0.716176  1
  O  O31  1  0.134333  0.127017  0.400317  1
  O  O32  1  0.143748  0.011899  0.922116  1
  O  O33  1  0.714845  0.302785  0.782079  1
