# generated using pymatgen
data_Rb4Zr6PI18
_symmetry_space_group_name_H-M   'P 1'
_cell_length_a   11.71789989
_cell_length_b   11.71790096
_cell_length_c   11.42893548
_cell_angle_alpha   77.44629992
_cell_angle_beta   77.44629684
_cell_angle_gamma   117.54164915
_symmetry_Int_Tables_number   1
_chemical_formula_structural   Rb4Zr6PI18
_chemical_formula_sum   'Rb4 Zr6 P1 I18'
_cell_volume   1263.27674158
_cell_formula_units_Z   1
loop_
 _symmetry_equiv_pos_site_id
 _symmetry_equiv_pos_as_xyz
  1  'x, y, z'
loop_
 _atom_site_type_symbol
 _atom_site_label
 _atom_site_symmetry_multiplicity
 _atom_site_fract_x
 _atom_site_fract_y
 _atom_site_fract_z
 _atom_site_occupancy
  Rb  Rb0  1  0.770981  0.445835  0.678061  1
  Rb  Rb1  1  0.554165  0.229019  0.321939  1
  Rb  Rb2  1  0.229019  0.554165  0.321939  1
  Rb  Rb3  1  0.445835  0.770981  0.678061  1
  Zr  Zr4  1  0.119385  0.119385  0.135655  1
  Zr  Zr5  1  0.880615  0.880615  0.864345  1
  Zr  Zr6  1  0.951742  0.773608  0.142351  1
  Zr  Zr7  1  0.226392  0.048258  0.857649  1
  Zr  Zr8  1  0.048258  0.226392  0.857649  1
  Zr  Zr9  1  0.773608  0.951742  0.142351  1
  P  P10  1  0.000000  0.000000  0.000000  1
  I  I11  1  0.807544  0.601100  0.008331  1
  I  I12  1  0.398901  0.192456  0.991669  1
  I  I13  1  0.192456  0.398901  0.991669  1
  I  I14  1  0.601099  0.807544  0.008331  1
  I  I15  1  0.205691  0.794309  0.000000  1
  I  I16  1  0.794309  0.205691  0.000000  1
  I  I17  1  0.317304  0.317304  0.674012  1
  I  I18  1  0.682696  0.682696  0.325988  1
  I  I19  1  0.889199  0.493367  0.323870  1
  I  I20  1  0.506633  0.110801  0.676130  1
  I  I21  1  0.110801  0.506633  0.676130  1
  I  I22  1  0.493367  0.889199  0.323870  1
  I  I23  1  0.263581  0.263581  0.300627  1
  I  I24  1  0.736419  0.736419  0.699373  1
  I  I25  1  0.079026  0.875684  0.319428  1
  I  I26  1  0.124316  0.920974  0.680572  1
  I  I27  1  0.920974  0.124316  0.680572  1
  I  I28  1  0.875684  0.079026  0.319428  1
