# generated using pymatgen
data_Tb17Dy3(IrRu)6
_symmetry_space_group_name_H-M   'P 1'
_cell_length_a   10.88372385
_cell_length_b   10.87986101
_cell_length_c   6.42291102
_cell_angle_alpha   89.99436369
_cell_angle_beta   89.96380234
_cell_angle_gamma   90.00034060
_symmetry_Int_Tables_number   1
_chemical_formula_structural   Tb17Dy3(IrRu)6
_chemical_formula_sum   'Tb17 Dy3 Ir6 Ru6'
_cell_volume   760.55859382
_cell_formula_units_Z   1
loop_
 _symmetry_equiv_pos_site_id
 _symmetry_equiv_pos_as_xyz
  1  'x, y, z'
loop_
 _atom_site_type_symbol
 _atom_site_label
 _atom_site_symmetry_multiplicity
 _atom_site_fract_x
 _atom_site_fract_y
 _atom_site_fract_z
 _atom_site_occupancy
  Tb  Tb0  1  0.292919  0.086712  0.379138  1
  Tb  Tb1  1  0.292875  0.913307  0.879198  1
  Tb  Tb2  1  0.707832  0.086790  0.878659  1
  Tb  Tb3  1  0.707755  0.913197  0.378584  1
  Tb  Tb4  1  0.587746  0.793346  0.879310  1
  Tb  Tb5  1  0.587749  0.206671  0.379295  1
  Tb  Tb6  1  0.413125  0.793497  0.378601  1
  Tb  Tb7  1  0.413112  0.206473  0.878596  1
  Tb  Tb8  1  0.206501  0.413130  0.620806  1
  Tb  Tb9  1  0.206479  0.586882  0.120798  1
  Tb  Tb10  1  0.793361  0.412318  0.121245  1
  Tb  Tb11  1  0.793345  0.587682  0.621263  1
  Tb  Tb12  1  0.913034  0.707382  0.120644  1
  Tb  Tb13  1  0.913019  0.292685  0.620737  1
  Tb  Tb14  1  0.086465  0.707634  0.621667  1
  Tb  Tb15  1  0.086445  0.292311  0.121590  1
  Tb  Tb16  1  0.998495  0.000616  0.499850  1
  Dy  Dy17  1  0.998572  0.999387  0.999845  1
  Dy  Dy18  1  0.500000  0.500310  0.000113  1
  Dy  Dy19  1  0.500009  0.499690  0.500117  1
  Ir  Ir20  1  0.153605  0.153373  0.750473  1
  Ir  Ir21  1  0.153619  0.846642  0.249946  1
  Ir  Ir22  1  0.652040  0.348303  0.749727  1
  Ir  Ir23  1  0.652021  0.651715  0.249733  1
  Ir  Ir24  1  0.347738  0.347312  0.250313  1
  Ir  Ir25  1  0.347719  0.652671  0.750321  1
  Ru  Ru26  1  0.847432  0.152630  0.249561  1
  Ru  Ru27  1  0.847463  0.847336  0.749919  1
  Ru  Ru28  1  0.500063  0.000125  0.123664  1
  Ru  Ru29  1  0.500063  0.999874  0.623690  1
  Ru  Ru30  1  0.999697  0.500326  0.876314  1
  Ru  Ru31  1  0.999698  0.499674  0.376281  1
