# generated using pymatgen
data_Tb9YAg3Ru
_symmetry_space_group_name_H-M   'P 1'
_cell_length_a   9.53755601
_cell_length_b   9.53755641
_cell_length_c   9.69415700
_cell_angle_alpha   90.00000000
_cell_angle_beta   90.00000000
_cell_angle_gamma   120.00425481
_symmetry_Int_Tables_number   1
_chemical_formula_structural   Tb9YAg3Ru
_chemical_formula_sum   'Tb18 Y2 Ag6 Ru2'
_cell_volume   763.65338236
_cell_formula_units_Z   2
loop_
 _symmetry_equiv_pos_site_id
 _symmetry_equiv_pos_as_xyz
  1  'x, y, z'
loop_
 _atom_site_type_symbol
 _atom_site_label
 _atom_site_symmetry_multiplicity
 _atom_site_fract_x
 _atom_site_fract_y
 _atom_site_fract_z
 _atom_site_occupancy
  Tb  Tb0  1  0.000004  0.999996  0.500050  1
  Tb  Tb1  1  0.000004  0.999996  0.999950  1
  Tb  Tb2  1  0.208715  0.791285  0.440850  1
  Tb  Tb3  1  0.208753  0.417480  0.440838  1
  Tb  Tb4  1  0.582520  0.791247  0.440838  1
  Tb  Tb5  1  0.791298  0.208702  0.559076  1
  Tb  Tb6  1  0.791296  0.582579  0.559093  1
  Tb  Tb7  1  0.417421  0.208704  0.559093  1
  Tb  Tb8  1  0.791298  0.208702  0.940924  1
  Tb  Tb9  1  0.791296  0.582579  0.940907  1
  Tb  Tb10  1  0.417421  0.208704  0.940907  1
  Tb  Tb11  1  0.208715  0.791285  0.059150  1
  Tb  Tb12  1  0.208753  0.417480  0.059162  1
  Tb  Tb13  1  0.582520  0.791247  0.059162  1
  Tb  Tb14  1  0.541259  0.458741  0.250000  1
  Tb  Tb15  1  0.541255  0.082456  0.250000  1
  Tb  Tb16  1  0.917544  0.458745  0.250000  1
  Tb  Tb17  1  0.458822  0.541178  0.750000  1
  Y  Y18  1  0.458782  0.917613  0.750000  1
  Y  Y19  1  0.082387  0.541218  0.750000  1
  Ag  Ag20  1  0.883930  0.116070  0.250000  1
  Ag  Ag21  1  0.883914  0.767861  0.250000  1
  Ag  Ag22  1  0.232139  0.116086  0.250000  1
  Ag  Ag23  1  0.116057  0.883943  0.750000  1
  Ag  Ag24  1  0.116058  0.232146  0.750000  1
  Ag  Ag25  1  0.767854  0.883942  0.750000  1
  Ru  Ru26  1  0.333350  0.666650  0.250000  1
  Ru  Ru27  1  0.666637  0.333363  0.750000  1
