# generated using pymatgen
data_Tb4HgPb11
_symmetry_space_group_name_H-M   'P 1'
_cell_length_a   9.75114300
_cell_length_b   6.88176306
_cell_length_c   6.88530626
_cell_angle_alpha   89.45620113
_cell_angle_beta   90.00000000
_cell_angle_gamma   90.00000000
_symmetry_Int_Tables_number   1
_chemical_formula_structural   Tb4HgPb11
_chemical_formula_sum   'Tb4 Hg1 Pb11'
_cell_volume   462.01804972
_cell_formula_units_Z   1
loop_
 _symmetry_equiv_pos_site_id
 _symmetry_equiv_pos_as_xyz
  1  'x, y, z'
loop_
 _atom_site_type_symbol
 _atom_site_label
 _atom_site_symmetry_multiplicity
 _atom_site_fract_x
 _atom_site_fract_y
 _atom_site_fract_z
 _atom_site_occupancy
  Tb  Tb0  1  0.250000  0.002738  0.001433  1
  Tb  Tb1  1  0.250000  0.497151  0.503038  1
  Tb  Tb2  1  0.750000  0.997542  0.996915  1
  Tb  Tb3  1  0.750000  0.501393  0.498581  1
  Hg  Hg4  1  0.750000  0.495529  0.997271  1
  Pb  Pb5  1  0.996068  0.250121  0.750599  1
  Pb  Pb6  1  0.504071  0.253728  0.246325  1
  Pb  Pb7  1  0.504735  0.751082  0.251152  1
  Pb  Pb8  1  0.995612  0.746734  0.752840  1
  Pb  Pb9  1  0.995265  0.751082  0.251152  1
  Pb  Pb10  1  0.504388  0.746734  0.752840  1
  Pb  Pb11  1  0.503932  0.250121  0.750599  1
  Pb  Pb12  1  0.995929  0.253728  0.246325  1
  Pb  Pb13  1  0.250000  0.998814  0.500055  1
  Pb  Pb14  1  0.250000  0.502241  0.002329  1
  Pb  Pb15  1  0.750000  0.001261  0.498542  1
