# generated using pymatgen
data_DyY2Er(Ga3Ir)6
_symmetry_space_group_name_H-M   'P 1'
_cell_length_a   7.58086495
_cell_length_b   7.58162245
_cell_length_c   9.50237900
_cell_angle_alpha   89.99989489
_cell_angle_beta   89.99984574
_cell_angle_gamma   119.90908967
_symmetry_Int_Tables_number   1
_chemical_formula_structural   DyY2Er(Ga3Ir)6
_chemical_formula_sum   'Dy1 Y2 Er1 Ga18 Ir6'
_cell_volume   473.41390574
_cell_formula_units_Z   1
loop_
 _symmetry_equiv_pos_site_id
 _symmetry_equiv_pos_as_xyz
  1  'x, y, z'
loop_
 _atom_site_type_symbol
 _atom_site_label
 _atom_site_symmetry_multiplicity
 _atom_site_fract_x
 _atom_site_fract_y
 _atom_site_fract_z
 _atom_site_occupancy
  Dy  Dy0  1  0.996894  0.668122  0.750003  1
  Y  Y1  1  0.003178  0.331901  0.249995  1
  Y  Y2  1  0.668170  0.996872  0.750004  1
  Er  Er3  1  0.331911  0.003060  0.249998  1
  Ga  Ga4  1  0.127422  0.127304  0.749999  1
  Ga  Ga5  1  0.873013  0.872760  0.250001  1
  Ga  Ga6  1  0.999114  0.333908  0.580534  1
  Ga  Ga7  1  0.001251  0.666496  0.419251  1
  Ga  Ga8  1  0.001240  0.666493  0.080747  1
  Ga  Ga9  1  0.333893  0.999096  0.919790  1
  Ga  Ga10  1  0.999121  0.333917  0.919467  1
  Ga  Ga11  1  0.665610  0.000852  0.080755  1
  Ga  Ga12  1  0.665611  0.000851  0.419244  1
  Ga  Ga13  1  0.333884  0.999093  0.580209  1
  Ga  Ga14  1  0.332403  0.332021  0.065142  1
  Ga  Ga15  1  0.667631  0.667637  0.935330  1
  Ga  Ga16  1  0.667634  0.667632  0.564663  1
  Ga  Ga17  1  0.332411  0.332024  0.434868  1
  Ga  Ga18  1  0.339150  0.546192  0.749998  1
  Ga  Ga19  1  0.660431  0.453404  0.250000  1
  Ga  Ga20  1  0.546251  0.339301  0.750001  1
  Ga  Ga21  1  0.453874  0.661134  0.250000  1
  Ir  Ir22  1  0.671390  0.328408  0.499865  1
  Ir  Ir23  1  0.328352  0.671518  0.499879  1
  Ir  Ir24  1  0.328356  0.671522  0.000119  1
  Ir  Ir25  1  0.671387  0.328407  0.000136  1
  Ir  Ir26  1  0.000210  0.000036  0.499826  1
  Ir  Ir27  1  0.000209  0.000038  0.000174  1
