# generated using pymatgen
data_Ce3Cu3(SnBi)2
_symmetry_space_group_name_H-M   'P 1'
_cell_length_a   8.51569699
_cell_length_b   8.51569797
_cell_length_c   8.51569700
_cell_angle_alpha   109.47122070
_cell_angle_beta   109.47122303
_cell_angle_gamma   109.47122263
_symmetry_Int_Tables_number   1
_chemical_formula_structural   Ce3Cu3(SnBi)2
_chemical_formula_sum   'Ce6 Cu6 Sn4 Bi4'
_cell_volume   475.37762365
_cell_formula_units_Z   2
loop_
 _symmetry_equiv_pos_site_id
 _symmetry_equiv_pos_as_xyz
  1  'x, y, z'
loop_
 _atom_site_type_symbol
 _atom_site_label
 _atom_site_symmetry_multiplicity
 _atom_site_fract_x
 _atom_site_fract_y
 _atom_site_fract_z
 _atom_site_occupancy
  Ce  Ce0  1  0.869704  0.250000  0.119704  1
  Ce  Ce1  1  0.630296  0.750000  0.380296  1
  Ce  Ce2  1  0.250000  0.119704  0.869704  1
  Ce  Ce3  1  0.750000  0.380296  0.630296  1
  Ce  Ce4  1  0.119704  0.869704  0.250000  1
  Ce  Ce5  1  0.380296  0.630296  0.750000  1
  Cu  Cu6  1  0.381741  0.250000  0.631741  1
  Cu  Cu7  1  0.118259  0.750000  0.868259  1
  Cu  Cu8  1  0.250000  0.631741  0.381741  1
  Cu  Cu9  1  0.750000  0.868259  0.118259  1
  Cu  Cu10  1  0.631741  0.381741  0.250000  1
  Cu  Cu11  1  0.868259  0.118259  0.750000  1
  Sn  Sn12  1  0.663666  0.500000  0.000000  1
  Sn  Sn13  1  0.500000  0.000000  0.663666  1
  Sn  Sn14  1  0.000000  0.663666  0.500000  1
  Sn  Sn15  1  0.836334  0.836334  0.836334  1
  Bi  Bi16  1  0.500000  0.000000  0.166213  1
  Bi  Bi17  1  0.166213  0.500000  0.000000  1
  Bi  Bi18  1  0.000000  0.166213  0.500000  1
  Bi  Bi19  1  0.333787  0.333787  0.333787  1
