# generated using pymatgen
data_Tb2Sm4C2Br7
_symmetry_space_group_name_H-M   'P 1'
_cell_length_a   10.70615956
_cell_length_b   10.70615917
_cell_length_c   12.14450335
_cell_angle_alpha   57.55185643
_cell_angle_beta   57.55185821
_cell_angle_gamma   20.90833880
_symmetry_Int_Tables_number   1
_chemical_formula_structural   Tb2Sm4C2Br7
_chemical_formula_sum   'Tb2 Sm4 C2 Br7'
_cell_volume   416.32472772
_cell_formula_units_Z   1
loop_
 _symmetry_equiv_pos_site_id
 _symmetry_equiv_pos_as_xyz
  1  'x, y, z'
loop_
 _atom_site_type_symbol
 _atom_site_label
 _atom_site_symmetry_multiplicity
 _atom_site_fract_x
 _atom_site_fract_y
 _atom_site_fract_z
 _atom_site_occupancy
  Tb  Tb0  1  0.687426  0.687426  0.633878  1
  Tb  Tb1  1  0.769551  0.769551  0.165729  1
  Sm  Sm2  1  0.229483  0.229483  0.838666  1
  Sm  Sm3  1  0.314850  0.314850  0.364390  1
  Sm  Sm4  1  0.129459  0.129459  0.442968  1
  Sm  Sm5  1  0.868301  0.868301  0.558955  1
  C  C6  1  0.277849  0.277849  0.607876  1
  C  C7  1  0.719966  0.719966  0.391854  1
  Br  Br8  1  0.166667  0.166667  0.163174  1
  Br  Br9  1  0.836663  0.836663  0.836977  1
  Br  Br10  1  0.060509  0.060509  0.719339  1
  Br  Br11  1  0.943046  0.943046  0.278729  1
  Br  Br12  1  0.499946  0.499946  0.499941  1
  Br  Br13  1  0.386935  0.386935  0.068028  1
  Br  Br14  1  0.609350  0.609350  0.929498  1
