# generated using pymatgen
data_Rb2Sn11RhO24
_symmetry_space_group_name_H-M   'P 1'
_cell_length_a   7.77158541
_cell_length_b   7.84768100
_cell_length_c   9.65689400
_cell_angle_alpha   101.98859044
_cell_angle_beta   102.08627333
_cell_angle_gamma   87.43811511
_symmetry_Int_Tables_number   1
_chemical_formula_structural   Rb2Sn11RhO24
_chemical_formula_sum   'Rb2 Sn11 Rh1 O24'
_cell_volume   563.34667038
_cell_formula_units_Z   1
loop_
 _symmetry_equiv_pos_site_id
 _symmetry_equiv_pos_as_xyz
  1  'x, y, z'
loop_
 _atom_site_type_symbol
 _atom_site_label
 _atom_site_symmetry_multiplicity
 _atom_site_fract_x
 _atom_site_fract_y
 _atom_site_fract_z
 _atom_site_occupancy
  Rb  Rb0  1  0.000127  0.998509  0.218228  1
  Rb  Rb1  1  0.014527  0.007786  0.790958  1
  Sn  Sn2  1  0.483772  0.185010  0.613956  1
  Sn  Sn3  1  0.485898  0.184670  0.275525  1
  Sn  Sn4  1  0.187059  0.509894  0.114136  1
  Sn  Sn5  1  0.183598  0.519956  0.450033  1
  Sn  Sn6  1  0.186887  0.510348  0.784951  1
  Sn  Sn7  1  0.811281  0.480745  0.213223  1
  Sn  Sn8  1  0.815276  0.482667  0.549732  1
  Sn  Sn9  1  0.809881  0.482535  0.882892  1
  Sn  Sn10  1  0.515849  0.820704  0.724064  1
  Sn  Sn11  1  0.510891  0.819192  0.053613  1
  Sn  Sn12  1  0.520043  0.817904  0.389619  1
  Rh  Rh13  1  0.486467  0.177084  0.944245  1
  O  O14  1  0.359118  0.052825  0.064514  1
  O  O15  1  0.363622  0.050979  0.401352  1
  O  O16  1  0.362316  0.052967  0.739607  1
  O  O17  1  0.291623  0.375591  0.278957  1
  O  O18  1  0.299407  0.377482  0.945926  1
  O  O19  1  0.294569  0.379955  0.610752  1
  O  O20  1  0.049310  0.635790  0.277799  1
  O  O21  1  0.050337  0.636948  0.616822  1
  O  O22  1  0.049061  0.636723  0.948330  1
  O  O23  1  0.619251  0.296036  0.485943  1
  O  O24  1  0.619173  0.292048  0.819385  1
  O  O25  1  0.620674  0.290480  0.151678  1
  O  O26  1  0.376193  0.708141  0.181787  1
  O  O27  1  0.380726  0.706677  0.514016  1
  O  O28  1  0.373045  0.708743  0.845530  1
  O  O29  1  0.947727  0.358764  0.049661  1
  O  O30  1  0.949252  0.361869  0.383809  1
  O  O31  1  0.947150  0.360684  0.719116  1
  O  O32  1  0.704609  0.623541  0.721645  1
  O  O33  1  0.702824  0.624261  0.054293  1
  O  O34  1  0.705141  0.619915  0.386815  1
  O  O35  1  0.640390  0.954086  0.934023  1
  O  O36  1  0.640857  0.948353  0.263856  1
  O  O37  1  0.642068  0.950133  0.599210  1
