# generated using pymatgen
data_Mg4P6SeN12
_symmetry_space_group_name_H-M   'P 1'
_cell_length_a   7.25664684
_cell_length_b   7.25664756
_cell_length_c   7.25664700
_cell_angle_alpha   109.47122464
_cell_angle_beta   109.47122666
_cell_angle_gamma   109.47121259
_symmetry_Int_Tables_number   1
_chemical_formula_structural   Mg4P6SeN12
_chemical_formula_sum   'Mg4 P6 Se1 N12'
_cell_volume   294.16169197
_cell_formula_units_Z   1
loop_
 _symmetry_equiv_pos_site_id
 _symmetry_equiv_pos_as_xyz
  1  'x, y, z'
loop_
 _atom_site_type_symbol
 _atom_site_label
 _atom_site_symmetry_multiplicity
 _atom_site_fract_x
 _atom_site_fract_y
 _atom_site_fract_z
 _atom_site_occupancy
  Mg  Mg0  1  0.352905  0.352905  0.352905  1
  Mg  Mg1  1  0.000000  0.647095  0.000000  1
  Mg  Mg2  1  0.647095  0.000000  0.000000  1
  Mg  Mg3  1  0.000000  0.000000  0.647095  1
  P  P4  1  0.500000  0.250000  0.750000  1
  P  P5  1  0.500000  0.750000  0.250000  1
  P  P6  1  0.750000  0.250000  0.500000  1
  P  P7  1  0.250000  0.500000  0.750000  1
  P  P8  1  0.750000  0.500000  0.250000  1
  P  P9  1  0.250000  0.750000  0.500000  1
  Se  Se10  1  0.000000  0.000000  0.000000  1
  N  N11  1  0.000000  0.723693  0.436776  1
  N  N12  1  0.276307  0.713082  0.276307  1
  N  N13  1  0.286918  0.563224  0.563224  1
  N  N14  1  0.563224  0.563224  0.286918  1
  N  N15  1  0.563224  0.286918  0.563224  1
  N  N16  1  0.723693  0.000000  0.436776  1
  N  N17  1  0.436776  0.000000  0.723693  1
  N  N18  1  0.723693  0.436776  0.000000  1
  N  N19  1  0.276307  0.276307  0.713082  1
  N  N20  1  0.713082  0.276307  0.276307  1
  N  N21  1  0.000000  0.436776  0.723693  1
  N  N22  1  0.436776  0.723693  0.000000  1
