# generated using pymatgen
data_Lu20Ir3Os4Pd5
_symmetry_space_group_name_H-M   'P 1'
_cell_length_a   10.87878115
_cell_length_b   10.87878131
_cell_length_c   6.38369500
_cell_angle_alpha   90.00947488
_cell_angle_beta   90.00947488
_cell_angle_gamma   89.49523223
_symmetry_Int_Tables_number   1
_chemical_formula_structural   Lu20Ir3Os4Pd5
_chemical_formula_sum   'Lu20 Ir3 Os4 Pd5'
_cell_volume   755.46743802
_cell_formula_units_Z   1
loop_
 _symmetry_equiv_pos_site_id
 _symmetry_equiv_pos_as_xyz
  1  'x, y, z'
loop_
 _atom_site_type_symbol
 _atom_site_label
 _atom_site_symmetry_multiplicity
 _atom_site_fract_x
 _atom_site_fract_y
 _atom_site_fract_z
 _atom_site_occupancy
  Lu  Lu0  1  0.299532  0.088466  0.370672  1
  Lu  Lu1  1  0.300293  0.910818  0.869567  1
  Lu  Lu2  1  0.699586  0.082448  0.869465  1
  Lu  Lu3  1  0.699675  0.910370  0.369485  1
  Lu  Lu4  1  0.581363  0.792038  0.876257  1
  Lu  Lu5  1  0.578931  0.203608  0.369646  1
  Lu  Lu6  1  0.418429  0.793920  0.375703  1
  Lu  Lu7  1  0.413603  0.204077  0.878724  1
  Lu  Lu8  1  0.207962  0.418637  0.623743  1
  Lu  Lu9  1  0.206080  0.581571  0.124297  1
  Lu  Lu10  1  0.796392  0.421069  0.130354  1
  Lu  Lu11  1  0.795923  0.586397  0.621276  1
  Lu  Lu12  1  0.911534  0.700468  0.129328  1
  Lu  Lu13  1  0.917552  0.300414  0.630535  1
  Lu  Lu14  1  0.089182  0.699707  0.630433  1
  Lu  Lu15  1  0.089630  0.300325  0.130515  1
  Lu  Lu16  1  0.999550  0.999648  0.499695  1
  Lu  Lu17  1  0.000352  0.000450  0.000305  1
  Lu  Lu18  1  0.497192  0.502136  0.002087  1
  Lu  Lu19  1  0.497864  0.502808  0.497913  1
  Ir  Ir20  1  0.652418  0.651266  0.250110  1
  Ir  Ir21  1  0.348734  0.347582  0.249890  1
  Ir  Ir22  1  0.346858  0.653142  0.750000  1
  Os  Os23  1  0.499886  0.000075  0.122682  1
  Os  Os24  1  0.499898  0.000144  0.623722  1
  Os  Os25  1  0.999856  0.500102  0.876278  1
  Os  Os26  1  0.999925  0.500114  0.377318  1
  Pd  Pd27  1  0.846643  0.153357  0.250000  1
  Pd  Pd28  1  0.847794  0.848574  0.750505  1
  Pd  Pd29  1  0.151426  0.152206  0.749495  1
  Pd  Pd30  1  0.152338  0.847662  0.250000  1
  Pd  Pd31  1  0.653599  0.346401  0.750000  1
