# generated using pymatgen
data_La3Tb3FeBr10
_symmetry_space_group_name_H-M   'P 1'
_cell_length_a   7.63230317
_cell_length_b   9.45738531
_cell_length_c   9.29540271
_cell_angle_alpha   107.08566649
_cell_angle_beta   95.93363853
_cell_angle_gamma   107.20902609
_symmetry_Int_Tables_number   1
_chemical_formula_structural   La3Tb3FeBr10
_chemical_formula_sum   'La3 Tb3 Fe1 Br10'
_cell_volume   599.18036377
_cell_formula_units_Z   1
loop_
 _symmetry_equiv_pos_site_id
 _symmetry_equiv_pos_as_xyz
  1  'x, y, z'
loop_
 _atom_site_type_symbol
 _atom_site_label
 _atom_site_symmetry_multiplicity
 _atom_site_fract_x
 _atom_site_fract_y
 _atom_site_fract_z
 _atom_site_occupancy
  La  La0  1  0.123550  0.850192  0.308942  1
  La  La1  1  0.385462  0.955763  0.725834  1
  La  La2  1  0.620570  0.049306  0.276376  1
  Tb  Tb3  1  0.475906  0.299667  0.595259  1
  Tb  Tb4  1  0.531912  0.703859  0.411878  1
  Tb  Tb5  1  0.861838  0.139391  0.678863  1
  Fe  Fe6  1  0.500570  0.000732  0.499898  1
  Br  Br7  1  0.421645  0.626502  0.671509  1
  Br  Br8  1  0.581350  0.376879  0.333985  1
  Br  Br9  1  0.285662  0.260525  0.837489  1
  Br  Br10  1  0.688858  0.732837  0.151797  1
  Br  Br11  1  0.848951  0.449284  0.770560  1
  Br  Br12  1  0.163254  0.538446  0.233428  1
  Br  Br13  1  0.050718  0.180617  0.423595  1
  Br  Br14  1  0.249502  0.919413  0.040584  1
  Br  Br15  1  0.765295  0.088450  0.949933  1
  Br  Br16  1  0.944958  0.828138  0.590071  1
