# generated using pymatgen
data_Er3Al12ZnFe3
_symmetry_space_group_name_H-M   'P 1'
_cell_length_a   8.71851999
_cell_length_b   8.74330592
_cell_length_c   9.32385257
_cell_angle_alpha   90.20123067
_cell_angle_beta   89.60539478
_cell_angle_gamma   119.90781151
_symmetry_Int_Tables_number   1
_chemical_formula_structural   Er3Al12ZnFe3
_chemical_formula_sum   'Er6 Al24 Zn2 Fe6'
_cell_volume   616.07964425
_cell_formula_units_Z   2
loop_
 _symmetry_equiv_pos_site_id
 _symmetry_equiv_pos_as_xyz
  1  'x, y, z'
loop_
 _atom_site_type_symbol
 _atom_site_label
 _atom_site_symmetry_multiplicity
 _atom_site_fract_x
 _atom_site_fract_y
 _atom_site_fract_z
 _atom_site_occupancy
  Er  Er0  1  0.193432  0.386602  0.249900  1
  Er  Er1  1  0.806568  0.613398  0.750100  1
  Er  Er2  1  0.610707  0.804635  0.242350  1
  Er  Er3  1  0.389293  0.195365  0.757650  1
  Er  Er4  1  0.194608  0.804599  0.257423  1
  Er  Er5  1  0.805392  0.195401  0.742577  1
  Al  Al6  1  0.325228  0.674291  0.019433  1
  Al  Al7  1  0.674772  0.325709  0.980567  1
  Al  Al8  1  0.650746  0.325698  0.519877  1
  Al  Al9  1  0.349254  0.674302  0.480123  1
  Al  Al10  1  0.172042  0.317704  0.576988  1
  Al  Al11  1  0.827958  0.682296  0.423012  1
  Al  Al12  1  0.678276  0.840435  0.574950  1
  Al  Al13  1  0.854580  0.682268  0.077295  1
  Al  Al14  1  0.321724  0.159565  0.425050  1
  Al  Al15  1  0.145420  0.317732  0.922705  1
  Al  Al16  1  0.172744  0.853493  0.580648  1
  Al  Al17  1  0.319417  0.146426  0.080726  1
  Al  Al18  1  0.827256  0.146507  0.419352  1
  Al  Al19  1  0.680583  0.853574  0.919274  1
  Al  Al20  1  0.838053  0.159659  0.074992  1
  Al  Al21  1  0.161947  0.840341  0.925008  1
  Al  Al22  1  0.556991  0.113596  0.250048  1
  Al  Al23  1  0.443009  0.886404  0.749952  1
  Al  Al24  1  0.875350  0.436130  0.238922  1
  Al  Al25  1  0.124650  0.563870  0.761078  1
  Al  Al26  1  0.561193  0.436113  0.261214  1
  Al  Al27  1  0.438807  0.563887  0.738786  1
  Al  Al28  1  0.000979  0.001163  0.250034  1
  Al  Al29  1  0.999021  0.998837  0.749966  1
  Zn  Zn30  1  0.500000  0.500000  0.000000  1
  Zn  Zn31  1  0.000000  0.500000  0.500000  1
  Fe  Fe32  1  0.500000  0.000000  0.000000  1
  Fe  Fe33  1  0.000000  0.500000  0.000000  1
  Fe  Fe34  1  0.500000  0.000000  0.500000  1
  Fe  Fe35  1  0.500000  0.500000  0.500000  1
  Fe  Fe36  1  0.000000  0.000000  0.000000  1
  Fe  Fe37  1  0.000000  0.000000  0.500000  1
