# generated using pymatgen
data_Ba3BI3N2
_symmetry_space_group_name_H-M   'P 1'
_cell_length_a   11.84335182
_cell_length_b   11.84335232
_cell_length_c   11.84335287
_cell_angle_alpha   106.59048854
_cell_angle_beta   106.59049199
_cell_angle_gamma   106.59048164
_symmetry_Int_Tables_number   1
_chemical_formula_structural   Ba3BI3N2
_chemical_formula_sum   'Ba12 B4 I12 N8'
_cell_volume   1398.63676476
_cell_formula_units_Z   4
loop_
 _symmetry_equiv_pos_site_id
 _symmetry_equiv_pos_as_xyz
  1  'x, y, z'
loop_
 _atom_site_type_symbol
 _atom_site_label
 _atom_site_symmetry_multiplicity
 _atom_site_fract_x
 _atom_site_fract_y
 _atom_site_fract_z
 _atom_site_occupancy
  Ba  Ba0  1  0.985040  0.763983  0.740469  1
  Ba  Ba1  1  0.763983  0.740469  0.985040  1
  Ba  Ba2  1  0.740469  0.985040  0.763983  1
  Ba  Ba3  1  0.014960  0.259531  0.236017  1
  Ba  Ba4  1  0.236017  0.014960  0.259530  1
  Ba  Ba5  1  0.259531  0.236017  0.014960  1
  Ba  Ba6  1  0.500000  0.225948  0.774052  1
  Ba  Ba7  1  0.225948  0.774052  0.500000  1
  Ba  Ba8  1  0.774052  0.500000  0.225948  1
  Ba  Ba9  1  0.500000  0.011561  0.988439  1
  Ba  Ba10  1  0.011561  0.988439  0.500000  1
  Ba  Ba11  1  0.988439  0.500000  0.011561  1
  B  B12  1  0.000000  0.759506  0.240494  1
  B  B13  1  0.759506  0.240494  0.000000  1
  B  B14  1  0.240494  0.000000  0.759506  1
  B  B15  1  0.000000  0.000000  0.000000  1
  I  I16  1  0.749073  0.476676  0.740379  1
  I  I17  1  0.476676  0.740379  0.749073  1
  I  I18  1  0.740379  0.749073  0.476676  1
  I  I19  1  0.250927  0.259621  0.523324  1
  I  I20  1  0.523324  0.250927  0.259621  1
  I  I21  1  0.259621  0.523324  0.250927  1
  I  I22  1  0.000000  0.504039  0.495961  1
  I  I23  1  0.504039  0.495961  0.000000  1
  I  I24  1  0.495961  0.000000  0.504039  1
  I  I25  1  0.000000  0.229410  0.770590  1
  I  I26  1  0.229410  0.770590  0.000000  1
  I  I27  1  0.770590  0.000000  0.229410  1
  N  N28  1  0.903221  0.656949  0.138804  1
  N  N29  1  0.656949  0.138804  0.903221  1
  N  N30  1  0.138804  0.903221  0.656949  1
  N  N31  1  0.096779  0.861196  0.343051  1
  N  N32  1  0.343051  0.096779  0.861196  1
  N  N33  1  0.861196  0.343051  0.096779  1
  N  N34  1  0.899115  0.899115  0.899115  1
  N  N35  1  0.100885  0.100885  0.100885  1
