# generated using pymatgen
data_DyHoCuNi9Sn2
_symmetry_space_group_name_H-M   'P 1'
_cell_length_a   4.91913400
_cell_length_b   8.02713326
_cell_length_c   10.25408200
_cell_angle_alpha   89.92874314
_cell_angle_beta   90.00000000
_cell_angle_gamma   90.00000000
_symmetry_Int_Tables_number   1
_chemical_formula_structural   DyHoCuNi9Sn2
_chemical_formula_sum   'Dy2 Ho2 Cu2 Ni18 Sn4'
_cell_volume   404.89794828
_cell_formula_units_Z   2
loop_
 _symmetry_equiv_pos_site_id
 _symmetry_equiv_pos_as_xyz
  1  'x, y, z'
loop_
 _atom_site_type_symbol
 _atom_site_label
 _atom_site_symmetry_multiplicity
 _atom_site_fract_x
 _atom_site_fract_y
 _atom_site_fract_z
 _atom_site_occupancy
  Dy  Dy0  1  0.250000  0.741234  0.059498  1
  Dy  Dy1  1  0.750000  0.258766  0.940502  1
  Ho  Ho2  1  0.750000  0.751705  0.558048  1
  Ho  Ho3  1  0.250000  0.248295  0.441952  1
  Cu  Cu4  1  0.750000  0.941785  0.102100  1
  Cu  Cu5  1  0.250000  0.058215  0.897900  1
  Ni  Ni6  1  0.250000  0.813659  0.745643  1
  Ni  Ni7  1  0.750000  0.186341  0.254357  1
  Ni  Ni8  1  0.750000  0.686219  0.247064  1
  Ni  Ni9  1  0.250000  0.313781  0.752936  1
  Ni  Ni10  1  0.500283  0.566236  0.810344  1
  Ni  Ni11  1  0.499717  0.433764  0.189656  1
  Ni  Ni12  1  0.498102  0.933489  0.312733  1
  Ni  Ni13  1  0.000283  0.433764  0.189656  1
  Ni  Ni14  1  0.501898  0.066511  0.687267  1
  Ni  Ni15  1  0.999717  0.566236  0.810344  1
  Ni  Ni16  1  0.998102  0.066511  0.687267  1
  Ni  Ni17  1  0.001898  0.933489  0.312733  1
  Ni  Ni18  1  0.250000  0.911455  0.518660  1
  Ni  Ni19  1  0.750000  0.088545  0.481340  1
  Ni  Ni20  1  0.750000  0.588213  0.018712  1
  Ni  Ni21  1  0.250000  0.411787  0.981288  1
  Ni  Ni22  1  0.250000  0.553819  0.600789  1
  Ni  Ni23  1  0.750000  0.446181  0.399211  1
  Sn  Sn24  1  0.250000  0.639454  0.360224  1
  Sn  Sn25  1  0.750000  0.360546  0.639776  1
  Sn  Sn26  1  0.750000  0.857697  0.856304  1
  Sn  Sn27  1  0.250000  0.142303  0.143696  1
