# generated using pymatgen
data_Sm2Mn4Fe8P7
_symmetry_space_group_name_H-M   'P 1'
_cell_length_a   9.22583681
_cell_length_b   9.10385663
_cell_length_c   3.62979200
_cell_angle_alpha   90.00000000
_cell_angle_beta   90.00000000
_cell_angle_gamma   120.19769100
_symmetry_Int_Tables_number   1
_chemical_formula_structural   Sm2Mn4Fe8P7
_chemical_formula_sum   'Sm2 Mn4 Fe8 P7'
_cell_volume   263.49656278
_cell_formula_units_Z   1
loop_
 _symmetry_equiv_pos_site_id
 _symmetry_equiv_pos_as_xyz
  1  'x, y, z'
loop_
 _atom_site_type_symbol
 _atom_site_label
 _atom_site_symmetry_multiplicity
 _atom_site_fract_x
 _atom_site_fract_y
 _atom_site_fract_z
 _atom_site_occupancy
  Sm  Sm0  1  0.660931  0.331173  0.000000  1
  Sm  Sm1  1  0.339985  0.669739  0.500000  1
  Mn  Mn2  1  0.048107  0.610986  0.000000  1
  Mn  Mn3  1  0.221712  0.103408  0.000000  1
  Mn  Mn4  1  0.891627  0.122564  0.000000  1
  Mn  Mn5  1  0.878300  0.773026  0.000000  1
  Fe  Fe6  1  0.425043  0.056718  0.500000  1
  Fe  Fe7  1  0.947703  0.376398  0.500000  1
  Fe  Fe8  1  0.628532  0.575155  0.500000  1
  Fe  Fe9  1  0.152308  0.270687  0.500000  1
  Fe  Fe10  1  0.730747  0.882282  0.500000  1
  Fe  Fe11  1  0.119160  0.842596  0.500000  1
  Fe  Fe12  1  0.386486  0.434273  0.000000  1
  Fe  Fe13  1  0.567956  0.950669  0.000000  1
  P  P14  1  0.125388  0.401141  0.000000  1
  P  P15  1  0.598146  0.712020  0.000000  1
  P  P16  1  0.295142  0.890343  0.000000  1
  P  P17  1  0.999983  0.997537  0.500000  1
  P  P18  1  0.408641  0.302491  0.500000  1
  P  P19  1  0.694615  0.105221  0.500000  1
  P  P20  1  0.879488  0.591574  0.500000  1
