# generated using pymatgen
data_Sc2Co3Si(P2Ru3)3
_symmetry_space_group_name_H-M   'P 1'
_cell_length_a   9.28123500
_cell_length_b   9.28123537
_cell_length_c   3.79041100
_cell_angle_alpha   90.00000000
_cell_angle_beta   90.00000000
_cell_angle_gamma   119.99999513
_symmetry_Int_Tables_number   1
_chemical_formula_structural   Sc2Co3Si(P2Ru3)3
_chemical_formula_sum   'Sc2 Co3 Si1 P6 Ru9'
_cell_volume   282.76686186
_cell_formula_units_Z   1
loop_
 _symmetry_equiv_pos_site_id
 _symmetry_equiv_pos_as_xyz
  1  'x, y, z'
loop_
 _atom_site_type_symbol
 _atom_site_label
 _atom_site_symmetry_multiplicity
 _atom_site_fract_x
 _atom_site_fract_y
 _atom_site_fract_z
 _atom_site_occupancy
  Sc  Sc0  1  0.666667  0.333333  0.500000  1
  Sc  Sc1  1  0.333333  0.666667  0.000000  1
  Co  Co2  1  0.720731  0.883800  0.000000  1
  Co  Co3  1  0.116200  0.836929  0.000000  1
  Co  Co4  1  0.163071  0.279269  0.000000  1
  Si  Si5  1  0.000000  0.000000  0.000000  1
  P  P6  1  0.599690  0.717663  0.500000  1
  P  P7  1  0.282337  0.882025  0.500000  1
  P  P8  1  0.117975  0.400310  0.500000  1
  P  P9  1  0.888637  0.585251  0.000000  1
  P  P10  1  0.414749  0.303385  0.000000  1
  P  P11  1  0.696615  0.111363  0.000000  1
  Ru  Ru12  1  0.558119  0.944455  0.500000  1
  Ru  Ru13  1  0.386337  0.441881  0.500000  1
  Ru  Ru14  1  0.912429  0.118464  0.500000  1
  Ru  Ru15  1  0.206035  0.087571  0.500000  1
  Ru  Ru16  1  0.881536  0.793965  0.500000  1
  Ru  Ru17  1  0.426972  0.065223  0.000000  1
  Ru  Ru18  1  0.934777  0.361751  0.000000  1
  Ru  Ru19  1  0.638249  0.573028  0.000000  1
  Ru  Ru20  1  0.055545  0.613663  0.500000  1
