# generated using pymatgen
data_Dy3Ho3Tl2F20
_symmetry_space_group_name_H-M   'P 1'
_cell_length_a   8.27875440
_cell_length_b   8.28645230
_cell_length_c   8.29413400
_cell_angle_alpha   59.90791028
_cell_angle_beta   59.99997760
_cell_angle_gamma   60.09210166
_symmetry_Int_Tables_number   1
_chemical_formula_structural   Dy3Ho3Tl2F20
_chemical_formula_sum   'Dy3 Ho3 Tl2 F20'
_cell_volume   402.33462022
_cell_formula_units_Z   1
loop_
 _symmetry_equiv_pos_site_id
 _symmetry_equiv_pos_as_xyz
  1  'x, y, z'
loop_
 _atom_site_type_symbol
 _atom_site_label
 _atom_site_symmetry_multiplicity
 _atom_site_fract_x
 _atom_site_fract_y
 _atom_site_fract_z
 _atom_site_occupancy
  Dy  Dy0  1  0.759200  0.240800  0.241014  1
  Dy  Dy1  1  0.241014  0.758986  0.759200  1
  Dy  Dy2  1  0.240889  0.759111  0.240889  1
  Ho  Ho3  1  0.759184  0.240816  0.759184  1
  Ho  Ho4  1  0.240907  0.240693  0.759307  1
  Ho  Ho5  1  0.759307  0.759093  0.240907  1
  Tl  Tl6  1  0.249975  0.250025  0.249975  1
  Tl  Tl7  1  0.749975  0.750025  0.749975  1
  F  F8  1  0.828062  0.500035  0.499965  1
  F  F9  1  0.171457  0.499100  0.500900  1
  F  F10  1  0.500900  0.828543  0.171457  1
  F  F11  1  0.499965  0.171938  0.828062  1
  F  F12  1  0.500949  0.828670  0.499096  1
  F  F13  1  0.171330  0.499051  0.828714  1
  F  F14  1  0.499096  0.171286  0.500949  1
  F  F15  1  0.828714  0.500904  0.171330  1
  F  F16  1  0.500867  0.499133  0.828810  1
  F  F17  1  0.499967  0.500033  0.170669  1
  F  F18  1  0.170669  0.829331  0.499967  1
  F  F19  1  0.828810  0.171190  0.500867  1
  F  F20  1  0.110615  0.110599  0.109357  1
  F  F21  1  0.889093  0.890322  0.890319  1
  F  F22  1  0.109678  0.110907  0.669734  1
  F  F23  1  0.109357  0.669430  0.110615  1
  F  F24  1  0.889401  0.889385  0.330570  1
  F  F25  1  0.890319  0.330266  0.889093  1
  F  F26  1  0.669734  0.109681  0.109678  1
  F  F27  1  0.330570  0.890643  0.889401  1
