# generated using pymatgen
data_K3Nd(AsO4)2
_symmetry_space_group_name_H-M   'P 1'
_cell_length_a   7.58205621
_cell_length_b   5.83921900
_cell_length_c   9.80686900
_cell_angle_alpha   90.00000000
_cell_angle_beta   91.87122773
_cell_angle_gamma   90.00000000
_symmetry_Int_Tables_number   1
_chemical_formula_structural   K3Nd(AsO4)2
_chemical_formula_sum   'K6 Nd2 As4 O16'
_cell_volume   433.95079045
_cell_formula_units_Z   2
loop_
 _symmetry_equiv_pos_site_id
 _symmetry_equiv_pos_as_xyz
  1  'x, y, z'
loop_
 _atom_site_type_symbol
 _atom_site_label
 _atom_site_symmetry_multiplicity
 _atom_site_fract_x
 _atom_site_fract_y
 _atom_site_fract_z
 _atom_site_occupancy
  K  K0  1  0.692851  0.503108  0.082968  1
  K  K1  1  0.010294  0.993145  0.191066  1
  K  K2  1  0.134253  0.485332  0.406402  1
  K  K3  1  0.865747  0.985331  0.593598  1
  K  K4  1  0.989706  0.493146  0.808934  1
  K  K5  1  0.307149  0.003107  0.917031  1
  Nd  Nd6  1  0.510998  0.009012  0.293274  1
  Nd  Nd7  1  0.489002  0.509012  0.706726  1
  As  As8  1  0.258679  0.504762  0.084626  1
  As  As9  1  0.696743  0.480299  0.427177  1
  As  As10  1  0.303257  0.980298  0.572823  1
  As  As11  1  0.741321  0.004763  0.915374  1
  O  O12  1  0.682745  0.010207  0.083224  1
  O  O13  1  0.037110  0.516903  0.103316  1
  O  O14  1  0.340331  0.256772  0.157125  1
  O  O15  1  0.356204  0.734552  0.167055  1
  O  O16  1  0.740521  0.721220  0.334077  1
  O  O17  1  0.776133  0.244276  0.343380  1
  O  O18  1  0.210229  0.001699  0.411484  1
  O  O19  1  0.477077  0.420103  0.451867  1
  O  O20  1  0.522923  0.920102  0.548133  1
  O  O21  1  0.789771  0.501698  0.588517  1
  O  O22  1  0.223867  0.744276  0.656621  1
  O  O23  1  0.259479  0.221221  0.665922  1
  O  O24  1  0.643796  0.234553  0.832944  1
  O  O25  1  0.659669  0.756773  0.842875  1
  O  O26  1  0.962890  0.016902  0.896683  1
  O  O27  1  0.317255  0.510208  0.916777  1
