# generated using pymatgen
data_Ca3Tb3(Si3Ru)8
_symmetry_space_group_name_H-M   'P 1'
_cell_length_a   10.16659315
_cell_length_b   10.16659329
_cell_length_c   8.15147014
_cell_angle_alpha   89.99148370
_cell_angle_beta   89.99148588
_cell_angle_gamma   132.72423550
_symmetry_Int_Tables_number   1
_chemical_formula_structural   Ca3Tb3(Si3Ru)8
_chemical_formula_sum   'Ca3 Tb3 Si24 Ru8'
_cell_volume   618.94789691
_cell_formula_units_Z   1
loop_
 _symmetry_equiv_pos_site_id
 _symmetry_equiv_pos_as_xyz
  1  'x, y, z'
loop_
 _atom_site_type_symbol
 _atom_site_label
 _atom_site_symmetry_multiplicity
 _atom_site_fract_x
 _atom_site_fract_y
 _atom_site_fract_z
 _atom_site_occupancy
  Ca  Ca0  1  0.500051  0.499949  0.500000  1
  Ca  Ca1  1  0.500388  0.000319  0.749874  1
  Ca  Ca2  1  0.999681  0.499612  0.250126  1
  Tb  Tb3  1  0.999961  0.000039  0.000000  1
  Tb  Tb4  1  0.498952  0.998925  0.250057  1
  Tb  Tb5  1  0.001075  0.501048  0.749943  1
  Si  Si6  1  0.795078  0.204922  0.500000  1
  Si  Si7  1  0.294363  0.705637  0.000000  1
  Si  Si8  1  0.205372  0.794628  0.500000  1
  Si  Si9  1  0.705210  0.294790  0.000000  1
  Si  Si10  1  0.332454  0.336860  0.831449  1
  Si  Si11  1  0.663140  0.667546  0.168551  1
  Si  Si12  1  0.170190  0.166112  0.334429  1
  Si  Si13  1  0.833888  0.829810  0.665571  1
  Si  Si14  1  0.122736  0.889228  0.727965  1
  Si  Si15  1  0.110772  0.877264  0.272035  1
  Si  Si16  1  0.608601  0.375913  0.229471  1
  Si  Si17  1  0.624087  0.391399  0.770529  1
  Si  Si18  1  0.875227  0.108703  0.271958  1
  Si  Si19  1  0.891297  0.124773  0.728042  1
  Si  Si20  1  0.389506  0.622316  0.770482  1
  Si  Si21  1  0.377684  0.610494  0.229518  1
  Si  Si22  1  0.346085  0.113027  0.505243  1
  Si  Si23  1  0.886973  0.653915  0.494757  1
  Si  Si24  1  0.388964  0.155631  0.006672  1
  Si  Si25  1  0.844369  0.611036  0.993328  1
  Si  Si26  1  0.653827  0.886335  0.492458  1
  Si  Si27  1  0.113665  0.346173  0.507542  1
  Si  Si28  1  0.610378  0.844118  0.996298  1
  Si  Si29  1  0.155882  0.389622  0.003702  1
  Ru  Ru30  1  0.670494  0.329506  0.500000  1
  Ru  Ru31  1  0.168867  0.831133  0.000000  1
  Ru  Ru32  1  0.330214  0.669786  0.500000  1
  Ru  Ru33  1  0.830427  0.169573  0.000000  1
  Ru  Ru34  1  0.124684  0.125109  0.627197  1
  Ru  Ru35  1  0.874891  0.875316  0.372803  1
  Ru  Ru36  1  0.372649  0.372079  0.124595  1
  Ru  Ru37  1  0.627921  0.627351  0.875405  1
