# generated using pymatgen
data_HfMg3(Ta3B10)2
_symmetry_space_group_name_H-M   'P 1'
_cell_length_a   6.15663513
_cell_length_b   7.02194016
_cell_length_c   7.47170222
_cell_angle_alpha   94.58229794
_cell_angle_beta   101.92737318
_cell_angle_gamma   115.95375125
_symmetry_Int_Tables_number   1
_chemical_formula_structural   HfMg3(Ta3B10)2
_chemical_formula_sum   'Hf1 Mg3 Ta6 B20'
_cell_volume   278.78827087
_cell_formula_units_Z   1
loop_
 _symmetry_equiv_pos_site_id
 _symmetry_equiv_pos_as_xyz
  1  'x, y, z'
loop_
 _atom_site_type_symbol
 _atom_site_label
 _atom_site_symmetry_multiplicity
 _atom_site_fract_x
 _atom_site_fract_y
 _atom_site_fract_z
 _atom_site_occupancy
  Hf  Hf0  1  0.998173  0.997246  0.000924  1
  Mg  Mg1  1  0.497697  0.997808  0.997236  1
  Mg  Mg2  1  0.000057  0.202891  0.603853  1
  Mg  Mg3  1  0.003725  0.601373  0.800476  1
  Ta  Ta4  1  0.499784  0.797835  0.401221  1
  Ta  Ta5  1  0.999895  0.400025  0.202267  1
  Ta  Ta6  1  0.501303  0.204405  0.597562  1
  Ta  Ta7  1  0.999691  0.802245  0.398068  1
  Ta  Ta8  1  0.499368  0.600760  0.798248  1
  Ta  Ta9  1  0.500005  0.395908  0.200548  1
  B  B10  1  0.334547  0.234199  0.866764  1
  B  B11  1  0.331797  0.631235  0.066943  1
  B  B12  1  0.165736  0.367675  0.930719  1
  B  B13  1  0.335243  0.033105  0.265579  1
  B  B14  1  0.166962  0.764023  0.132158  1
  B  B15  1  0.834175  0.234959  0.866234  1
  B  B16  1  0.165427  0.166099  0.337219  1
  B  B17  1  0.833081  0.630385  0.065423  1
  B  B18  1  0.332086  0.432953  0.467973  1
  B  B19  1  0.665961  0.365083  0.934382  1
  B  B20  1  0.830554  0.030983  0.268258  1
  B  B21  1  0.663912  0.765460  0.132726  1
  B  B22  1  0.333165  0.835295  0.667623  1
  B  B23  1  0.166472  0.567091  0.535584  1
  B  B24  1  0.667322  0.166438  0.335052  1
  B  B25  1  0.836059  0.434446  0.469245  1
  B  B26  1  0.167713  0.967346  0.729427  1
  B  B27  1  0.834147  0.835638  0.663282  1
  B  B28  1  0.670234  0.568965  0.533952  1
  B  B29  1  0.665708  0.968123  0.731054  1
