# generated using pymatgen
data_Tb11CeInCo4Ni
_symmetry_space_group_name_H-M   'P 1'
_cell_length_a   8.30303696
_cell_length_b   8.35389515
_cell_length_c   8.30303731
_cell_angle_alpha   111.44910258
_cell_angle_beta   109.22313325
_cell_angle_gamma   107.51732077
_symmetry_Int_Tables_number   1
_chemical_formula_structural   Tb11CeInCo4Ni
_chemical_formula_sum   'Tb11 Ce1 In1 Co4 Ni1'
_cell_volume   444.17017268
_cell_formula_units_Z   1
loop_
 _symmetry_equiv_pos_site_id
 _symmetry_equiv_pos_as_xyz
  1  'x, y, z'
loop_
 _atom_site_type_symbol
 _atom_site_label
 _atom_site_symmetry_multiplicity
 _atom_site_fract_x
 _atom_site_fract_y
 _atom_site_fract_z
 _atom_site_occupancy
  Tb  Tb0  1  0.405381  0.217318  0.189302  1
  Tb  Tb1  1  0.600000  0.794227  0.813741  1
  Tb  Tb2  1  0.028017  0.217318  0.811935  1
  Tb  Tb3  1  0.980485  0.794227  0.194228  1
  Tb  Tb4  1  0.187679  0.295474  0.476791  1
  Tb  Tb5  1  0.816784  0.709572  0.524373  1
  Tb  Tb6  1  0.185199  0.709572  0.892788  1
  Tb  Tb7  1  0.818683  0.295474  0.107795  1
  Tb  Tb8  1  0.314464  0.624175  0.309711  1
  Tb  Tb9  1  0.677386  0.377935  0.700549  1
  Tb  Tb10  1  0.320364  0.005576  0.685212  1
  Ce  Ce11  1  0.677346  0.011687  0.334341  1
  In  In12  1  0.502789  0.505441  0.002653  1
  Co  Co13  1  0.366817  0.990971  0.348558  1
  Co  Co14  1  0.642413  0.990971  0.624153  1
  Co  Co15  1  0.102354  0.603859  0.501506  1
  Co  Co16  1  0.869599  0.355010  0.485411  1
  Ni  Ni17  1  0.004239  0.001193  0.996953  1
