# generated using pymatgen
data_Er20Ir4Pd3Rh5
_symmetry_space_group_name_H-M   'P 1'
_cell_length_a   10.88894849
_cell_length_b   10.88894849
_cell_length_c   6.29545930
_cell_angle_alpha   89.97502081
_cell_angle_beta   89.97502081
_cell_angle_gamma   90.17177503
_symmetry_Int_Tables_number   1
_chemical_formula_structural   Er20Ir4Pd3Rh5
_chemical_formula_sum   'Er20 Ir4 Pd3 Rh5'
_cell_volume   746.44407143
_cell_formula_units_Z   1
loop_
 _symmetry_equiv_pos_site_id
 _symmetry_equiv_pos_as_xyz
  1  'x, y, z'
loop_
 _atom_site_type_symbol
 _atom_site_label
 _atom_site_symmetry_multiplicity
 _atom_site_fract_x
 _atom_site_fract_y
 _atom_site_fract_z
 _atom_site_occupancy
  Er  Er0  1  0.294321  0.088548  0.370262  1
  Er  Er1  1  0.293031  0.906629  0.876996  1
  Er  Er2  1  0.704872  0.091684  0.872374  1
  Er  Er3  1  0.703748  0.908175  0.372174  1
  Er  Er4  1  0.583832  0.788842  0.879253  1
  Er  Er5  1  0.584255  0.211123  0.379033  1
  Er  Er6  1  0.411566  0.789297  0.379233  1
  Er  Er7  1  0.415381  0.211182  0.879337  1
  Er  Er8  1  0.211158  0.416168  0.620747  1
  Er  Er9  1  0.210703  0.588434  0.120767  1
  Er  Er10  1  0.788877  0.415745  0.120967  1
  Er  Er11  1  0.788818  0.584619  0.620663  1
  Er  Er12  1  0.911452  0.705679  0.129738  1
  Er  Er13  1  0.908316  0.295128  0.627626  1
  Er  Er14  1  0.093371  0.706969  0.623004  1
  Er  Er15  1  0.091825  0.296252  0.127826  1
  Er  Er16  1  0.001720  0.997481  0.499307  1
  Er  Er17  1  0.002519  0.998280  0.000693  1
  Er  Er18  1  0.499734  0.499844  0.000499  1
  Er  Er19  1  0.500156  0.500266  0.499501  1
  Ir  Ir20  1  0.655442  0.344558  0.750000  1
  Ir  Ir21  1  0.655815  0.655483  0.249382  1
  Ir  Ir22  1  0.344517  0.344185  0.250618  1
  Ir  Ir23  1  0.345399  0.654601  0.750000  1
  Pd  Pd24  1  0.846473  0.153527  0.250000  1
  Pd  Pd25  1  0.845544  0.845702  0.749847  1
  Pd  Pd26  1  0.154298  0.154456  0.750153  1
  Rh  Rh27  1  0.152421  0.847579  0.250000  1
  Rh  Rh28  1  0.500409  0.999989  0.122998  1
  Rh  Rh29  1  0.500332  0.000316  0.623885  1
  Rh  Rh30  1  0.999684  0.499668  0.876115  1
  Rh  Rh31  1  0.000011  0.499591  0.377002  1
