# generated using pymatgen
data_Na3Y2Ni16(MoAs4)3
_symmetry_space_group_name_H-M   'P 1'
_cell_length_a   12.61015364
_cell_length_b   12.61015389
_cell_length_c   3.84475900
_cell_angle_alpha   90.00000000
_cell_angle_beta   90.00000000
_cell_angle_gamma   120.08701918
_symmetry_Int_Tables_number   1
_chemical_formula_structural   Na3Y2Ni16(MoAs4)3
_chemical_formula_sum   'Na3 Y2 Ni16 Mo3 As12'
_cell_volume   529.00409447
_cell_formula_units_Z   1
loop_
 _symmetry_equiv_pos_site_id
 _symmetry_equiv_pos_as_xyz
  1  'x, y, z'
loop_
 _atom_site_type_symbol
 _atom_site_label
 _atom_site_symmetry_multiplicity
 _atom_site_fract_x
 _atom_site_fract_y
 _atom_site_fract_z
 _atom_site_occupancy
  Na  Na0  1  0.185572  0.185572  0.500000  1
  Na  Na1  1  0.333245  0.667061  0.000000  1
  Na  Na2  1  0.667061  0.333245  0.000000  1
  Y  Y3  1  0.814196  0.000719  0.500000  1
  Y  Y4  1  0.000719  0.814196  0.500000  1
  Ni  Ni5  1  0.718385  0.718385  0.500000  1
  Ni  Ni6  1  0.281716  0.000151  0.500000  1
  Ni  Ni7  1  0.000151  0.281716  0.500000  1
  Ni  Ni8  1  0.183067  0.378999  0.000000  1
  Ni  Ni9  1  0.622746  0.805597  0.000000  1
  Ni  Ni10  1  0.193670  0.818560  0.000000  1
  Ni  Ni11  1  0.805597  0.622746  0.000000  1
  Ni  Ni12  1  0.818560  0.193670  0.000000  1
  Ni  Ni13  1  0.378999  0.183067  0.000000  1
  Ni  Ni14  1  0.358799  0.481393  0.500000  1
  Ni  Ni15  1  0.518877  0.877678  0.500000  1
  Ni  Ni16  1  0.121642  0.640566  0.500000  1
  Ni  Ni17  1  0.877678  0.518877  0.500000  1
  Ni  Ni18  1  0.640566  0.121642  0.500000  1
  Ni  Ni19  1  0.481393  0.358799  0.500000  1
  Ni  Ni20  1  0.999027  0.999027  0.000000  1
  Mo  Mo21  1  0.561365  0.561365  0.000000  1
  Mo  Mo22  1  0.436748  0.999789  0.000000  1
  Mo  Mo23  1  0.999789  0.436748  0.000000  1
  As  As24  1  0.820746  0.820746  0.000000  1
  As  As25  1  0.179381  0.002212  0.000000  1
  As  As26  1  0.002212  0.179381  0.000000  1
  As  As27  1  0.169130  0.483627  0.500000  1
  As  As28  1  0.516964  0.685546  0.500000  1
  As  As29  1  0.313861  0.830901  0.500000  1
  As  As30  1  0.685546  0.516964  0.500000  1
  As  As31  1  0.830901  0.313861  0.500000  1
  As  As32  1  0.483627  0.169130  0.500000  1
  As  As33  1  0.362490  0.362490  0.000000  1
  As  As34  1  0.635422  0.000152  0.000000  1
  As  As35  1  0.000152  0.635422  0.000000  1
