# generated using pymatgen
data_Mn2Fe6ReMo3
_symmetry_space_group_name_H-M   'P 1'
_cell_length_a   4.66616300
_cell_length_b   4.66616241
_cell_length_c   7.78530500
_cell_angle_alpha   89.99987721
_cell_angle_beta   90.00012279
_cell_angle_gamma   119.99968520
_symmetry_Int_Tables_number   1
_chemical_formula_structural   Mn2Fe6ReMo3
_chemical_formula_sum   'Mn2 Fe6 Re1 Mo3'
_cell_volume   146.80045330
_cell_formula_units_Z   1
loop_
 _symmetry_equiv_pos_site_id
 _symmetry_equiv_pos_as_xyz
  1  'x, y, z'
loop_
 _atom_site_type_symbol
 _atom_site_label
 _atom_site_symmetry_multiplicity
 _atom_site_fract_x
 _atom_site_fract_y
 _atom_site_fract_z
 _atom_site_occupancy
  Mn  Mn0  1  0.000192  0.999808  0.500523  1
  Mn  Mn1  1  0.000119  0.999881  0.999841  1
  Fe  Fe2  1  0.828410  0.656863  0.750434  1
  Fe  Fe3  1  0.828367  0.171633  0.750475  1
  Fe  Fe4  1  0.343137  0.171590  0.750434  1
  Fe  Fe5  1  0.171361  0.342896  0.249243  1
  Fe  Fe6  1  0.171270  0.828730  0.249125  1
  Fe  Fe7  1  0.657104  0.828639  0.249243  1
  Re  Re8  1  0.666654  0.333346  0.070458  1
  Mo  Mo9  1  0.333307  0.666693  0.932809  1
  Mo  Mo10  1  0.333345  0.666655  0.570217  1
  Mo  Mo11  1  0.666736  0.333264  0.427195  1
