# generated using pymatgen
data_Er7Tm13Sn16
_symmetry_space_group_name_H-M   'P 1'
_cell_length_a   7.98330709
_cell_length_b   8.05987602
_cell_length_c   15.28231716
_cell_angle_alpha   90.00469335
_cell_angle_beta   90.01601438
_cell_angle_gamma   89.99300699
_symmetry_Int_Tables_number   1
_chemical_formula_structural   Er7Tm13Sn16
_chemical_formula_sum   'Er7 Tm13 Sn16'
_cell_volume   983.33247902
_cell_formula_units_Z   1
loop_
 _symmetry_equiv_pos_site_id
 _symmetry_equiv_pos_as_xyz
  1  'x, y, z'
loop_
 _atom_site_type_symbol
 _atom_site_label
 _atom_site_symmetry_multiplicity
 _atom_site_fract_x
 _atom_site_fract_y
 _atom_site_fract_z
 _atom_site_occupancy
  Er  Er0  1  0.033682  0.177288  0.599814  1
  Er  Er1  1  0.466327  0.677274  0.400173  1
  Er  Er2  1  0.966292  0.822771  0.099804  1
  Er  Er3  1  0.466290  0.677249  0.099784  1
  Er  Er4  1  0.966327  0.822728  0.400159  1
  Er  Er5  1  0.533675  0.322762  0.599764  1
  Er  Er6  1  0.033702  0.177313  0.900252  1
  Tm  Tm7  1  0.377985  0.839391  0.878906  1
  Tm  Tm8  1  0.877955  0.660622  0.621102  1
  Tm  Tm9  1  0.622018  0.160648  0.378904  1
  Tm  Tm10  1  0.121963  0.339329  0.121107  1
  Tm  Tm11  1  0.621975  0.160680  0.121055  1
  Tm  Tm12  1  0.122025  0.339350  0.378897  1
  Tm  Tm13  1  0.377985  0.839383  0.621113  1
  Tm  Tm14  1  0.877956  0.660600  0.878904  1
  Tm  Tm15  1  0.533827  0.322786  0.900157  1
  Tm  Tm16  1  0.209201  0.504638  0.750044  1
  Tm  Tm17  1  0.709103  0.995369  0.750029  1
  Tm  Tm18  1  0.790866  0.495325  0.249998  1
  Tm  Tm19  1  0.290856  0.004677  0.249993  1
  Sn  Sn20  1  0.283406  0.033597  0.042436  1
  Sn  Sn21  1  0.783459  0.466373  0.457595  1
  Sn  Sn22  1  0.716523  0.966332  0.542378  1
  Sn  Sn23  1  0.216882  0.533355  0.957565  1
  Sn  Sn24  1  0.716420  0.966578  0.957575  1
  Sn  Sn25  1  0.216539  0.533654  0.542388  1
  Sn  Sn26  1  0.283457  0.033634  0.457602  1
  Sn  Sn27  1  0.783227  0.466195  0.042252  1
  Sn  Sn28  1  0.575221  0.622459  0.750011  1
  Sn  Sn29  1  0.075269  0.877380  0.750007  1
  Sn  Sn30  1  0.424734  0.377419  0.249987  1
  Sn  Sn31  1  0.924756  0.122602  0.250011  1
  Sn  Sn32  1  0.342842  0.148649  0.750175  1
  Sn  Sn33  1  0.842537  0.351585  0.750059  1
  Sn  Sn34  1  0.657370  0.851606  0.249993  1
  Sn  Sn35  1  0.157351  0.648401  0.250006  1
