# generated using pymatgen
data_LiPr4Dy5Si8
_symmetry_space_group_name_H-M   'P 1'
_cell_length_a   7.41188100
_cell_length_b   7.78894200
_cell_length_c   14.89362100
_cell_angle_alpha   90.00000000
_cell_angle_beta   90.00000000
_cell_angle_gamma   90.00000000
_symmetry_Int_Tables_number   1
_chemical_formula_structural   LiPr4Dy5Si8
_chemical_formula_sum   'Li2 Pr8 Dy10 Si16'
_cell_volume   859.81933297
_cell_formula_units_Z   2
loop_
 _symmetry_equiv_pos_site_id
 _symmetry_equiv_pos_as_xyz
  1  'x, y, z'
loop_
 _atom_site_type_symbol
 _atom_site_label
 _atom_site_symmetry_multiplicity
 _atom_site_fract_x
 _atom_site_fract_y
 _atom_site_fract_z
 _atom_site_occupancy
  Li  Li0  1  0.656026  0.990400  0.750000  1
  Li  Li1  1  0.843974  0.490400  0.250000  1
  Pr  Pr2  1  0.015956  0.188545  0.398448  1
  Pr  Pr3  1  0.526291  0.324416  0.398088  1
  Pr  Pr4  1  0.484044  0.688545  0.898448  1
  Pr  Pr5  1  0.484044  0.688545  0.601552  1
  Pr  Pr6  1  0.973709  0.824416  0.601912  1
  Pr  Pr7  1  0.973709  0.824416  0.898088  1
  Pr  Pr8  1  0.526291  0.324416  0.101912  1
  Pr  Pr9  1  0.015956  0.188545  0.101552  1
  Dy  Dy10  1  0.333085  0.173916  0.624176  1
  Dy  Dy11  1  0.678677  0.810220  0.374281  1
  Dy  Dy12  1  0.166915  0.673916  0.375824  1
  Dy  Dy13  1  0.821323  0.310220  0.874281  1
  Dy  Dy14  1  0.821323  0.310220  0.625719  1
  Dy  Dy15  1  0.344641  0.007533  0.250000  1
  Dy  Dy16  1  0.333085  0.173916  0.875824  1
  Dy  Dy17  1  0.166915  0.673916  0.124176  1
  Dy  Dy18  1  0.678677  0.810220  0.125719  1
  Dy  Dy19  1  0.155359  0.507533  0.750000  1
  Si  Si20  1  0.271291  0.880903  0.750000  1
  Si  Si21  1  0.464138  0.606307  0.250000  1
  Si  Si22  1  0.035862  0.106307  0.750000  1
  Si  Si23  1  0.529205  0.399063  0.750000  1
  Si  Si24  1  0.147900  0.469470  0.541446  1
  Si  Si25  1  0.970795  0.899063  0.250000  1
  Si  Si26  1  0.724226  0.111473  0.250000  1
  Si  Si27  1  0.849519  0.535594  0.028997  1
  Si  Si28  1  0.352100  0.969470  0.041446  1
  Si  Si29  1  0.147900  0.469470  0.958554  1
  Si  Si30  1  0.650481  0.035594  0.528997  1
  Si  Si31  1  0.352100  0.969470  0.458554  1
  Si  Si32  1  0.849519  0.535594  0.471003  1
  Si  Si33  1  0.775774  0.611473  0.750000  1
  Si  Si34  1  0.228709  0.380903  0.250000  1
  Si  Si35  1  0.650481  0.035594  0.971003  1
