# generated using pymatgen
data_Cd5Hg(Mo2O9)2
_symmetry_space_group_name_H-M   'P 1'
_cell_length_a   7.48246342
_cell_length_b   8.70241497
_cell_length_c   9.34791385
_cell_angle_alpha   118.80073201
_cell_angle_beta   89.23703052
_cell_angle_gamma   91.11767571
_symmetry_Int_Tables_number   1
_chemical_formula_structural   Cd5Hg(Mo2O9)2
_chemical_formula_sum   'Cd5 Hg1 Mo4 O18'
_cell_volume   533.29214162
_cell_formula_units_Z   1
loop_
 _symmetry_equiv_pos_site_id
 _symmetry_equiv_pos_as_xyz
  1  'x, y, z'
loop_
 _atom_site_type_symbol
 _atom_site_label
 _atom_site_symmetry_multiplicity
 _atom_site_fract_x
 _atom_site_fract_y
 _atom_site_fract_z
 _atom_site_occupancy
  Cd  Cd0  1  0.499999  0.000000  0.000000  1
  Cd  Cd1  1  0.252278  0.380033  0.216938  1
  Cd  Cd2  1  0.744333  0.889966  0.253979  1
  Cd  Cd3  1  0.255668  0.110034  0.746022  1
  Cd  Cd4  1  0.747720  0.619968  0.783062  1
  Hg  Hg5  1  0.000000  0.000000  0.000000  1
  Mo  Mo6  1  0.256975  0.834687  0.279828  1
  Mo  Mo7  1  0.737290  0.463044  0.307528  1
  Mo  Mo8  1  0.262709  0.536956  0.692471  1
  Mo  Mo9  1  0.743026  0.165314  0.720172  1
  O  O10  1  0.759869  0.885562  0.010303  1
  O  O11  1  0.253849  0.600405  0.162172  1
  O  O12  1  0.555775  0.310353  0.194043  1
  O  O13  1  0.945431  0.358595  0.221862  1
  O  O14  1  0.050099  0.918400  0.252600  1
  O  O15  1  0.441557  0.923391  0.210368  1
  O  O16  1  0.720040  0.661050  0.295333  1
  O  O17  1  0.272144  0.485489  0.483621  1
  O  O18  1  0.283672  0.895724  0.489524  1
  O  O19  1  0.716329  0.104275  0.510477  1
  O  O20  1  0.727855  0.514510  0.516378  1
  O  O21  1  0.279957  0.338951  0.704668  1
  O  O22  1  0.558444  0.076609  0.789632  1
  O  O23  1  0.949902  0.081603  0.747402  1
  O  O24  1  0.054568  0.641406  0.778138  1
  O  O25  1  0.444223  0.689647  0.805958  1
  O  O26  1  0.746149  0.399596  0.837828  1
  O  O27  1  0.240130  0.114439  0.989698  1
