# generated using pymatgen
data_Nd8Lu11ScPt16
_symmetry_space_group_name_H-M   'P 1'
_cell_length_a   7.57697100
_cell_length_b   7.73120407
_cell_length_c   14.57187000
_cell_angle_alpha   90.00000000
_cell_angle_beta   90.00000000
_cell_angle_gamma   90.00750732
_symmetry_Int_Tables_number   1
_chemical_formula_structural   Nd8Lu11ScPt16
_chemical_formula_sum   'Nd8 Lu11 Sc1 Pt16'
_cell_volume   853.60715382
_cell_formula_units_Z   1
loop_
 _symmetry_equiv_pos_site_id
 _symmetry_equiv_pos_as_xyz
  1  'x, y, z'
loop_
 _atom_site_type_symbol
 _atom_site_label
 _atom_site_symmetry_multiplicity
 _atom_site_fract_x
 _atom_site_fract_y
 _atom_site_fract_z
 _atom_site_occupancy
  Nd  Nd0  1  0.504386  0.328991  0.901137  1
  Nd  Nd1  1  0.009177  0.175614  0.599135  1
  Nd  Nd2  1  0.492889  0.673676  0.402926  1
  Nd  Nd3  1  0.993684  0.826478  0.096253  1
  Nd  Nd4  1  0.492889  0.673676  0.097074  1
  Nd  Nd5  1  0.993684  0.826478  0.403747  1
  Nd  Nd6  1  0.504386  0.328991  0.598863  1
  Nd  Nd7  1  0.009177  0.175614  0.900865  1
  Lu  Lu8  1  0.347253  0.829827  0.876237  1
  Lu  Lu9  1  0.852026  0.664931  0.624274  1
  Lu  Lu10  1  0.651046  0.167001  0.378046  1
  Lu  Lu11  1  0.151116  0.332481  0.122501  1
  Lu  Lu12  1  0.651046  0.167001  0.121954  1
  Lu  Lu13  1  0.151116  0.332481  0.377499  1
  Lu  Lu14  1  0.347253  0.829827  0.623763  1
  Lu  Lu15  1  0.852026  0.664931  0.875726  1
  Lu  Lu16  1  0.684287  0.003780  0.750000  1
  Lu  Lu17  1  0.814972  0.504630  0.250000  1
  Lu  Lu18  1  0.315095  0.995324  0.250000  1
  Sc  Sc19  1  0.185058  0.495553  0.750000  1
  Pt  Pt20  1  0.319800  0.036172  0.043568  1
  Pt  Pt21  1  0.818633  0.464609  0.455721  1
  Pt  Pt22  1  0.680923  0.962882  0.545797  1
  Pt  Pt23  1  0.180308  0.535791  0.954837  1
  Pt  Pt24  1  0.680923  0.962882  0.954203  1
  Pt  Pt25  1  0.180308  0.535791  0.545163  1
  Pt  Pt26  1  0.319800  0.036172  0.456432  1
  Pt  Pt27  1  0.818633  0.464609  0.044279  1
  Pt  Pt28  1  0.550902  0.626754  0.750000  1
  Pt  Pt29  1  0.054758  0.870483  0.750000  1
  Pt  Pt30  1  0.445950  0.369956  0.250000  1
  Pt  Pt31  1  0.945669  0.130028  0.250000  1
  Pt  Pt32  1  0.318428  0.138252  0.750000  1
  Pt  Pt33  1  0.824498  0.367409  0.750000  1
  Pt  Pt34  1  0.679505  0.866169  0.250000  1
  Pt  Pt35  1  0.178397  0.634756  0.250000  1
