# generated using pymatgen
data_YEr11(TcOs)2
_symmetry_space_group_name_H-M   'P 1'
_cell_length_a   6.24119360
_cell_length_b   7.38381490
_cell_length_c   8.98472900
_cell_angle_alpha   90.00000000
_cell_angle_beta   90.00000000
_cell_angle_gamma   89.91783877
_symmetry_Int_Tables_number   1
_chemical_formula_structural   YEr11(TcOs)2
_chemical_formula_sum   'Y1 Er11 Tc2 Os2'
_cell_volume   414.05019314
_cell_formula_units_Z   1
loop_
 _symmetry_equiv_pos_site_id
 _symmetry_equiv_pos_as_xyz
  1  'x, y, z'
loop_
 _atom_site_type_symbol
 _atom_site_label
 _atom_site_symmetry_multiplicity
 _atom_site_fract_x
 _atom_site_fract_y
 _atom_site_fract_z
 _atom_site_occupancy
  Y  Y0  1  0.876809  0.538819  0.250000  1
  Er  Er1  1  0.337977  0.675072  0.061806  1
  Er  Er2  1  0.163041  0.174530  0.438182  1
  Er  Er3  1  0.664105  0.324367  0.563243  1
  Er  Er4  1  0.835377  0.825272  0.936853  1
  Er  Er5  1  0.664105  0.324367  0.936757  1
  Er  Er6  1  0.835377  0.825272  0.563147  1
  Er  Er7  1  0.337977  0.675072  0.438194  1
  Er  Er8  1  0.163041  0.174530  0.061818  1
  Er  Er9  1  0.623710  0.039150  0.250000  1
  Er  Er10  1  0.129530  0.459589  0.750000  1
  Er  Er11  1  0.370384  0.959534  0.750000  1
  Tc  Tc12  1  0.039831  0.885253  0.250000  1
  Tc  Tc13  1  0.458780  0.383071  0.250000  1
  Os  Os14  1  0.959747  0.118023  0.750000  1
  Os  Os15  1  0.540209  0.618078  0.750000  1
