# generated using pymatgen
data_V12Re5Mo6W
_symmetry_space_group_name_H-M   'P 1'
_cell_length_a   4.29055400
_cell_length_b   6.12862500
_cell_length_c   13.09622200
_cell_angle_alpha   90.00000000
_cell_angle_beta   89.99977044
_cell_angle_gamma   90.00000000
_symmetry_Int_Tables_number   1
_chemical_formula_structural   V12Re5Mo6W
_chemical_formula_sum   'V12 Re5 Mo6 W1'
_cell_volume   344.36773100
_cell_formula_units_Z   1
loop_
 _symmetry_equiv_pos_site_id
 _symmetry_equiv_pos_as_xyz
  1  'x, y, z'
loop_
 _atom_site_type_symbol
 _atom_site_label
 _atom_site_symmetry_multiplicity
 _atom_site_fract_x
 _atom_site_fract_y
 _atom_site_fract_z
 _atom_site_occupancy
  V  V0  1  0.499999  0.252248  0.000000  1
  V  V1  1  0.499999  0.747751  0.000000  1
  V  V2  1  0.000004  0.251147  0.168023  1
  V  V3  1  0.000004  0.748852  0.168023  1
  V  V4  1  0.500032  0.249838  0.334038  1
  V  V5  1  0.500032  0.750163  0.334038  1
  V  V6  1  0.000000  0.250544  0.500000  1
  V  V7  1  0.000000  0.749457  0.500000  1
  V  V8  1  0.499969  0.249838  0.665962  1
  V  V9  1  0.499969  0.750163  0.665962  1
  V  V10  1  0.999996  0.251147  0.831977  1
  V  V11  1  0.999996  0.748852  0.831977  1
  Re  Re12  1  0.500028  0.500000  0.167440  1
  Re  Re13  1  0.999999  0.000000  0.334014  1
  Re  Re14  1  0.499999  0.500000  0.500000  1
  Re  Re15  1  0.000001  0.000000  0.665986  1
  Re  Re16  1  0.499971  0.500000  0.832560  1
  Mo  Mo17  1  0.000000  0.500000  0.000000  1
  Mo  Mo18  1  0.500029  0.000000  0.167113  1
  Mo  Mo19  1  0.000001  0.500000  0.333575  1
  Mo  Mo20  1  0.499999  0.000000  0.500000  1
  Mo  Mo21  1  0.999999  0.500000  0.666425  1
  Mo  Mo22  1  0.499969  0.000000  0.832886  1
  W  W23  1  0.000000  0.000000  0.000000  1
