# generated using pymatgen
data_NaCa21(Ga4Sn3)2
_symmetry_space_group_name_H-M   'P 1'
_cell_length_a   11.49297448
_cell_length_b   11.49297489
_cell_length_c   11.49297400
_cell_angle_alpha   60.00000256
_cell_angle_beta   60.00000137
_cell_angle_gamma   60.00000210
_symmetry_Int_Tables_number   1
_chemical_formula_structural   NaCa21(Ga4Sn3)2
_chemical_formula_sum   'Na1 Ca21 Ga8 Sn6'
_cell_volume   1073.45129998
_cell_formula_units_Z   1
loop_
 _symmetry_equiv_pos_site_id
 _symmetry_equiv_pos_as_xyz
  1  'x, y, z'
loop_
 _atom_site_type_symbol
 _atom_site_label
 _atom_site_symmetry_multiplicity
 _atom_site_fract_x
 _atom_site_fract_y
 _atom_site_fract_z
 _atom_site_occupancy
  Na  Na0  1  0.500000  0.500000  0.500000  1
  Ca  Ca1  1  0.869679  0.869679  0.390961  1
  Ca  Ca2  1  0.609039  0.130321  0.130321  1
  Ca  Ca3  1  0.869679  0.390961  0.869679  1
  Ca  Ca4  1  0.130321  0.130321  0.130321  1
  Ca  Ca5  1  0.390961  0.869679  0.869679  1
  Ca  Ca6  1  0.869679  0.869679  0.869679  1
  Ca  Ca7  1  0.170409  0.829591  0.500000  1
  Ca  Ca8  1  0.829591  0.500000  0.500000  1
  Ca  Ca9  1  0.130321  0.130321  0.609039  1
  Ca  Ca10  1  0.829591  0.170409  0.500000  1
  Ca  Ca11  1  0.170409  0.500000  0.500000  1
  Ca  Ca12  1  0.130321  0.609039  0.130321  1
  Ca  Ca13  1  0.500000  0.500000  0.170409  1
  Ca  Ca14  1  0.500000  0.170409  0.829591  1
  Ca  Ca15  1  0.500000  0.829591  0.170409  1
  Ca  Ca16  1  0.500000  0.500000  0.829591  1
  Ca  Ca17  1  0.500000  0.170409  0.500000  1
  Ca  Ca18  1  0.170409  0.500000  0.829591  1
  Ca  Ca19  1  0.000000  0.000000  0.000000  1
  Ca  Ca20  1  0.500000  0.829591  0.500000  1
  Ca  Ca21  1  0.829591  0.500000  0.170409  1
  Ga  Ga22  1  0.690905  0.927285  0.690905  1
  Ga  Ga23  1  0.690905  0.690905  0.927285  1
  Ga  Ga24  1  0.690905  0.690905  0.690905  1
  Ga  Ga25  1  0.309095  0.072715  0.309095  1
  Ga  Ga26  1  0.927285  0.690905  0.690905  1
  Ga  Ga27  1  0.309095  0.309095  0.072715  1
  Ga  Ga28  1  0.072715  0.309095  0.309095  1
  Ga  Ga29  1  0.309095  0.309095  0.309095  1
  Sn  Sn30  1  0.784243  0.215757  0.784243  1
  Sn  Sn31  1  0.784243  0.215757  0.215757  1
  Sn  Sn32  1  0.215757  0.784243  0.215757  1
  Sn  Sn33  1  0.215757  0.784243  0.784243  1
  Sn  Sn34  1  0.784243  0.784243  0.215757  1
  Sn  Sn35  1  0.215757  0.215757  0.784243  1
