# generated using pymatgen
data_Er3Mg(MnIr3)2
_symmetry_space_group_name_H-M   'P 1'
_cell_length_a   5.40790300
_cell_length_b   5.40790279
_cell_length_c   8.16985800
_cell_angle_alpha   90.00000000
_cell_angle_beta   90.00000000
_cell_angle_gamma   119.99998295
_symmetry_Int_Tables_number   1
_chemical_formula_structural   Er3Mg(MnIr3)2
_chemical_formula_sum   'Er3 Mg1 Mn2 Ir6'
_cell_volume   206.92024492
_cell_formula_units_Z   1
loop_
 _symmetry_equiv_pos_site_id
 _symmetry_equiv_pos_as_xyz
  1  'x, y, z'
loop_
 _atom_site_type_symbol
 _atom_site_label
 _atom_site_symmetry_multiplicity
 _atom_site_fract_x
 _atom_site_fract_y
 _atom_site_fract_z
 _atom_site_occupancy
  Er  Er0  1  0.666667  0.333333  0.557750  1
  Er  Er1  1  0.666667  0.333333  0.933540  1
  Er  Er2  1  0.333333  0.666667  0.078654  1
  Mg  Mg3  1  0.333333  0.666667  0.444260  1
  Mn  Mn4  1  0.000000  0.000000  0.500292  1
  Mn  Mn5  1  0.000000  0.000000  0.994621  1
  Ir  Ir6  1  0.831021  0.168979  0.248630  1
  Ir  Ir7  1  0.831021  0.662042  0.248630  1
  Ir  Ir8  1  0.337958  0.168979  0.248630  1
  Ir  Ir9  1  0.170546  0.829454  0.748331  1
  Ir  Ir10  1  0.170546  0.341092  0.748331  1
  Ir  Ir11  1  0.658908  0.829454  0.748331  1
