# generated using pymatgen
data_Y2Er2MnRu7
_symmetry_space_group_name_H-M   'P 1'
_cell_length_a   5.33050802
_cell_length_b   5.32927380
_cell_length_c   8.67106800
_cell_angle_alpha   89.99999710
_cell_angle_beta   89.99669572
_cell_angle_gamma   60.00765704
_symmetry_Int_Tables_number   1
_chemical_formula_structural   Y2Er2MnRu7
_chemical_formula_sum   'Y2 Er2 Mn1 Ru7'
_cell_volume   213.34052602
_cell_formula_units_Z   1
loop_
 _symmetry_equiv_pos_site_id
 _symmetry_equiv_pos_as_xyz
  1  'x, y, z'
loop_
 _atom_site_type_symbol
 _atom_site_label
 _atom_site_symmetry_multiplicity
 _atom_site_fract_x
 _atom_site_fract_y
 _atom_site_fract_z
 _atom_site_occupancy
  Y  Y0  1  0.333267  0.333367  0.565233  1
  Y  Y1  1  0.666733  0.666633  0.434767  1
  Er  Er2  1  0.666652  0.666675  0.067830  1
  Er  Er3  1  0.333348  0.333325  0.932170  1
  Mn  Mn4  1  0.000000  0.000000  0.000000  1
  Ru  Ru5  1  0.000000  0.000000  0.500000  1
  Ru  Ru6  1  0.828817  0.342338  0.754702  1
  Ru  Ru7  1  0.342463  0.828768  0.754658  1
  Ru  Ru8  1  0.828817  0.828846  0.754702  1
  Ru  Ru9  1  0.171183  0.657662  0.245298  1
  Ru  Ru10  1  0.657537  0.171232  0.245342  1
  Ru  Ru11  1  0.171183  0.171154  0.245298  1
