# generated using pymatgen
data_CsCr3Sb12Os
_symmetry_space_group_name_H-M   'P 1'
_cell_length_a   8.30418909
_cell_length_b   8.37847950
_cell_length_c   8.30418907
_cell_angle_alpha   109.65254247
_cell_angle_beta   109.28928441
_cell_angle_gamma   109.65255585
_symmetry_Int_Tables_number   1
_chemical_formula_structural   CsCr3Sb12Os
_chemical_formula_sum   'Cs1 Cr3 Sb12 Os1'
_cell_volume   443.77313204
_cell_formula_units_Z   1
loop_
 _symmetry_equiv_pos_site_id
 _symmetry_equiv_pos_as_xyz
  1  'x, y, z'
loop_
 _atom_site_type_symbol
 _atom_site_label
 _atom_site_symmetry_multiplicity
 _atom_site_fract_x
 _atom_site_fract_y
 _atom_site_fract_z
 _atom_site_occupancy
  Cs  Cs0  1  0.000000  0.000000  0.000000  1
  Cr  Cr1  1  0.000000  0.000000  0.500000  1
  Cr  Cr2  1  0.500000  0.000000  0.000000  1
  Cr  Cr3  1  0.500000  0.500000  0.500000  1
  Sb  Sb4  1  0.349553  0.194708  0.846971  1
  Sb  Sb5  1  0.650447  0.805292  0.153029  1
  Sb  Sb6  1  0.662342  0.500584  0.850449  1
  Sb  Sb7  1  0.337658  0.499416  0.149551  1
  Sb  Sb8  1  0.188106  0.838243  0.337658  1
  Sb  Sb9  1  0.811894  0.161757  0.662342  1
  Sb  Sb10  1  0.497418  0.845155  0.650447  1
  Sb  Sb11  1  0.502582  0.154845  0.349553  1
  Sb  Sb12  1  0.850449  0.349864  0.188106  1
  Sb  Sb13  1  0.149551  0.650136  0.811894  1
  Sb  Sb14  1  0.846971  0.652263  0.497418  1
  Sb  Sb15  1  0.153029  0.347737  0.502582  1
  Os  Os16  1  0.000000  0.500000  0.000000  1
