# generated using pymatgen
data_YTm(MgSn)2
_symmetry_space_group_name_H-M   'P 1'
_cell_length_a   4.39382622
_cell_length_b   4.39382550
_cell_length_c   8.49238807
_cell_angle_alpha   104.99246120
_cell_angle_beta   104.99245516
_cell_angle_gamma   89.99999004
_symmetry_Int_Tables_number   1
_chemical_formula_structural   YTm(MgSn)2
_chemical_formula_sum   'Y1 Tm1 Mg2 Sn2'
_cell_volume   152.58569845
_cell_formula_units_Z   1
loop_
 _symmetry_equiv_pos_site_id
 _symmetry_equiv_pos_as_xyz
  1  'x, y, z'
loop_
 _atom_site_type_symbol
 _atom_site_label
 _atom_site_symmetry_multiplicity
 _atom_site_fract_x
 _atom_site_fract_y
 _atom_site_fract_z
 _atom_site_occupancy
  Y  Y0  1  0.666390  0.666390  0.332779  1
  Tm  Tm1  1  0.333856  0.333856  0.667713  1
  Mg  Mg2  1  0.499476  0.999476  0.998952  1
  Mg  Mg3  1  0.999476  0.499476  0.998952  1
  Sn  Sn4  1  0.136802  0.136802  0.273604  1
  Sn  Sn5  1  0.864001  0.864001  0.728001  1
