# generated using pymatgen
data_Tm4VFe3B16
_symmetry_space_group_name_H-M   'P 1'
_cell_length_a   3.35989800
_cell_length_b   5.88610187
_cell_length_c   11.38869947
_cell_angle_alpha   90.13132887
_cell_angle_beta   90.00000000
_cell_angle_gamma   90.00000000
_symmetry_Int_Tables_number   1
_chemical_formula_structural   Tm4VFe3B16
_chemical_formula_sum   'Tm4 V1 Fe3 B16'
_cell_volume   225.23032281
_cell_formula_units_Z   1
loop_
 _symmetry_equiv_pos_site_id
 _symmetry_equiv_pos_as_xyz
  1  'x, y, z'
loop_
 _atom_site_type_symbol
 _atom_site_label
 _atom_site_symmetry_multiplicity
 _atom_site_fract_x
 _atom_site_fract_y
 _atom_site_fract_z
 _atom_site_occupancy
  Tm  Tm0  1  0.500000  0.373159  0.147292  1
  Tm  Tm1  1  0.500000  0.627498  0.851743  1
  Tm  Tm2  1  0.500000  0.123908  0.653280  1
  Tm  Tm3  1  0.500000  0.873550  0.345874  1
  V  V4  1  0.500000  0.372357  0.416744  1
  Fe  Fe5  1  0.500000  0.625270  0.584827  1
  Fe  Fe6  1  0.500000  0.135682  0.910573  1
  Fe  Fe7  1  0.500000  0.866355  0.086128  1
  B  B8  1  0.000000  0.112278  0.045611  1
  B  B9  1  0.000000  0.887947  0.953217  1
  B  B10  1  0.000000  0.389303  0.550110  1
  B  B11  1  0.000000  0.617455  0.455580  1
  B  B12  1  0.000000  0.132852  0.469973  1
  B  B13  1  0.000000  0.862391  0.534212  1
  B  B14  1  0.000000  0.362077  0.968087  1
  B  B15  1  0.000000  0.638673  0.031353  1
  B  B16  1  0.000000  0.022961  0.189409  1
  B  B17  1  0.000000  0.974671  0.809382  1
  B  B18  1  0.000000  0.477431  0.693400  1
  B  B19  1  0.000000  0.527230  0.306427  1
  B  B20  1  0.000000  0.212690  0.312642  1
  B  B21  1  0.000000  0.782243  0.684809  1
  B  B22  1  0.000000  0.283569  0.816372  1
  B  B23  1  0.000000  0.718450  0.182954  1
