# generated using pymatgen
data_Nd6Pd23S
_symmetry_space_group_name_H-M   'P 1'
_cell_length_a   9.22767081
_cell_length_b   9.22767053
_cell_length_c   9.22767000
_cell_angle_alpha   59.99999473
_cell_angle_beta   59.99999575
_cell_angle_gamma   59.99999615
_symmetry_Int_Tables_number   1
_chemical_formula_structural   Nd6Pd23S
_chemical_formula_sum   'Nd6 Pd23 S1'
_cell_volume   555.59865564
_cell_formula_units_Z   1
loop_
 _symmetry_equiv_pos_site_id
 _symmetry_equiv_pos_as_xyz
  1  'x, y, z'
loop_
 _atom_site_type_symbol
 _atom_site_label
 _atom_site_symmetry_multiplicity
 _atom_site_fract_x
 _atom_site_fract_y
 _atom_site_fract_z
 _atom_site_occupancy
  Nd  Nd0  1  0.721225  0.278775  0.278775  1
  Nd  Nd1  1  0.278775  0.721225  0.721225  1
  Nd  Nd2  1  0.278775  0.721225  0.278775  1
  Nd  Nd3  1  0.721225  0.278775  0.721225  1
  Nd  Nd4  1  0.278775  0.278775  0.721225  1
  Nd  Nd5  1  0.721225  0.721225  0.278775  1
  Pd  Pd6  1  0.000000  0.000000  0.000000  1
  Pd  Pd7  1  0.500000  0.000000  0.000000  1
  Pd  Pd8  1  0.000000  0.500000  0.500000  1
  Pd  Pd9  1  0.000000  0.500000  0.000000  1
  Pd  Pd10  1  0.500000  0.000000  0.500000  1
  Pd  Pd11  1  0.000000  0.000000  0.500000  1
  Pd  Pd12  1  0.500000  0.500000  0.000000  1
  Pd  Pd13  1  0.120112  0.120112  0.120112  1
  Pd  Pd14  1  0.879888  0.879888  0.879888  1
  Pd  Pd15  1  0.120112  0.120112  0.639665  1
  Pd  Pd16  1  0.120112  0.639665  0.120112  1
  Pd  Pd17  1  0.879888  0.879888  0.360335  1
  Pd  Pd18  1  0.879888  0.360335  0.879888  1
  Pd  Pd19  1  0.639665  0.120112  0.120112  1
  Pd  Pd20  1  0.360335  0.879888  0.879888  1
  Pd  Pd21  1  0.327803  0.327803  0.327803  1
  Pd  Pd22  1  0.672197  0.672197  0.672197  1
  Pd  Pd23  1  0.327803  0.327803  0.016590  1
  Pd  Pd24  1  0.327803  0.016590  0.327803  1
  Pd  Pd25  1  0.672197  0.672197  0.983410  1
  Pd  Pd26  1  0.672197  0.983410  0.672197  1
  Pd  Pd27  1  0.016590  0.327803  0.327803  1
  Pd  Pd28  1  0.983410  0.672197  0.672197  1
  S  S29  1  0.500000  0.500000  0.500000  1
