# generated using pymatgen
data_Dy2Nb3P7Rh9
_symmetry_space_group_name_H-M   'P 1'
_cell_length_a   3.94991600
_cell_length_b   9.61989681
_cell_length_c   9.61921370
_cell_angle_alpha   120.01238289
_cell_angle_beta   89.99815740
_cell_angle_gamma   90.00219840
_symmetry_Int_Tables_number   1
_chemical_formula_structural   Dy2Nb3P7Rh9
_chemical_formula_sum   'Dy2 Nb3 P7 Rh9'
_cell_volume   316.50040803
_cell_formula_units_Z   1
loop_
 _symmetry_equiv_pos_site_id
 _symmetry_equiv_pos_as_xyz
  1  'x, y, z'
loop_
 _atom_site_type_symbol
 _atom_site_label
 _atom_site_symmetry_multiplicity
 _atom_site_fract_x
 _atom_site_fract_y
 _atom_site_fract_z
 _atom_site_occupancy
  Dy  Dy0  1  0.261759  0.666657  0.333357  1
  Dy  Dy1  1  0.761934  0.333297  0.666638  1
  Nb  Nb2  1  0.761955  0.094475  0.872298  1
  Nb  Nb3  1  0.761945  0.127596  0.222116  1
  Nb  Nb4  1  0.761960  0.777897  0.905557  1
  P  P5  1  0.262070  0.999897  0.999958  1
  P  P6  1  0.761819  0.877151  0.591087  1
  P  P7  1  0.761834  0.408998  0.286104  1
  P  P8  1  0.761828  0.713914  0.122967  1
  P  P9  1  0.261880  0.117723  0.415805  1
  P  P10  1  0.261888  0.584056  0.701750  1
  P  P11  1  0.261904  0.298223  0.882256  1
  Rh  Rh12  1  0.261896  0.883545  0.162364  1
  Rh  Rh13  1  0.261889  0.837745  0.721266  1
  Rh  Rh14  1  0.261906  0.278511  0.116257  1
  Rh  Rh15  1  0.761856  0.609921  0.556366  1
  Rh  Rh16  1  0.761900  0.443638  0.053580  1
  Rh  Rh17  1  0.761874  0.946415  0.390282  1
  Rh  Rh18  1  0.261929  0.369567  0.439106  1
  Rh  Rh19  1  0.262007  0.560836  0.930240  1
  Rh  Rh20  1  0.261967  0.069940  0.630642  1
