# generated using pymatgen
data_Ho8Re(B8Ir)3
_symmetry_space_group_name_H-M   'P 1'
_cell_length_a   3.65281800
_cell_length_b   9.17105329
_cell_length_c   11.49851086
_cell_angle_alpha   90.12413126
_cell_angle_beta   90.00000000
_cell_angle_gamma   90.00000000
_symmetry_Int_Tables_number   1
_chemical_formula_structural   Ho8Re(B8Ir)3
_chemical_formula_sum   'Ho8 Re1 B24 Ir3'
_cell_volume   385.20137773
_cell_formula_units_Z   1
loop_
 _symmetry_equiv_pos_site_id
 _symmetry_equiv_pos_as_xyz
  1  'x, y, z'
loop_
 _atom_site_type_symbol
 _atom_site_label
 _atom_site_symmetry_multiplicity
 _atom_site_fract_x
 _atom_site_fract_y
 _atom_site_fract_z
 _atom_site_occupancy
  Ho  Ho0  1  0.000000  0.320997  0.413522  1
  Ho  Ho1  1  0.000000  0.682863  0.590691  1
  Ho  Ho2  1  0.000000  0.821060  0.082799  1
  Ho  Ho3  1  0.000000  0.175523  0.911975  1
  Ho  Ho4  1  0.000000  0.943894  0.373166  1
  Ho  Ho5  1  0.000000  0.053758  0.626134  1
  Ho  Ho6  1  0.000000  0.443649  0.126042  1
  Ho  Ho7  1  0.000000  0.557169  0.875225  1
  Re  Re8  1  0.000000  0.862481  0.821611  1
  B  B9  1  0.500000  0.553177  0.434153  1
  B  B10  1  0.500000  0.447840  0.566661  1
  B  B11  1  0.500000  0.053130  0.066314  1
  B  B12  1  0.500000  0.946933  0.933271  1
  B  B13  1  0.500000  0.750064  0.420624  1
  B  B14  1  0.500000  0.250916  0.578943  1
  B  B15  1  0.500000  0.248638  0.078913  1
  B  B16  1  0.500000  0.752431  0.920193  1
  B  B17  1  0.500000  0.792041  0.265586  1
  B  B18  1  0.500000  0.207901  0.732979  1
  B  B19  1  0.500000  0.292800  0.234714  1
  B  B20  1  0.500000  0.708149  0.766418  1
  B  B21  1  0.500000  0.631368  0.184928  1
  B  B22  1  0.500000  0.367969  0.815391  1
  B  B23  1  0.500000  0.132529  0.315211  1
  B  B24  1  0.500000  0.868525  0.685694  1
  B  B25  1  0.500000  0.981841  0.212648  1
  B  B26  1  0.500000  0.017146  0.786566  1
  B  B27  1  0.500000  0.481252  0.287494  1
  B  B28  1  0.500000  0.518035  0.714228  1
  B  B29  1  0.500000  0.610193  0.031844  1
  B  B30  1  0.500000  0.387408  0.969641  1
  B  B31  1  0.500000  0.110963  0.468714  1
  B  B32  1  0.500000  0.889974  0.529193  1
  Ir  Ir33  1  0.000000  0.637092  0.323044  1
  Ir  Ir34  1  0.000000  0.362969  0.677567  1
  Ir  Ir35  1  0.000000  0.137323  0.177905  1
