# generated using pymatgen
data_DyEr(SnIr)2
_symmetry_space_group_name_H-M   'P 1'
_cell_length_a   7.47395300
_cell_length_b   7.47395311
_cell_length_c   7.89295800
_cell_angle_alpha   90.00000000
_cell_angle_beta   90.00000000
_cell_angle_gamma   120.00000395
_symmetry_Int_Tables_number   1
_chemical_formula_structural   DyEr(SnIr)2
_chemical_formula_sum   'Dy3 Er3 Sn6 Ir6'
_cell_volume   381.83095826
_cell_formula_units_Z   3
loop_
 _symmetry_equiv_pos_site_id
 _symmetry_equiv_pos_as_xyz
  1  'x, y, z'
loop_
 _atom_site_type_symbol
 _atom_site_label
 _atom_site_symmetry_multiplicity
 _atom_site_fract_x
 _atom_site_fract_y
 _atom_site_fract_z
 _atom_site_occupancy
  Dy  Dy0  1  0.404127  0.999752  0.250000  1
  Dy  Dy1  1  0.595626  0.595873  0.250000  1
  Dy  Dy2  1  0.000248  0.404374  0.250000  1
  Er  Er3  1  0.598841  0.599459  0.750000  1
  Er  Er4  1  0.000618  0.401159  0.750000  1
  Er  Er5  1  0.400541  0.999382  0.750000  1
  Sn  Sn6  1  0.261118  0.260665  0.501605  1
  Sn  Sn7  1  0.261118  0.260665  0.998395  1
  Sn  Sn8  1  0.739335  0.000453  0.998395  1
  Sn  Sn9  1  0.999547  0.738882  0.501605  1
  Sn  Sn10  1  0.739335  0.000453  0.501605  1
  Sn  Sn11  1  0.999547  0.738882  0.998395  1
  Ir  Ir12  1  0.666667  0.333333  0.505239  1
  Ir  Ir13  1  0.666667  0.333333  0.994761  1
  Ir  Ir14  1  0.333333  0.666667  0.995971  1
  Ir  Ir15  1  0.333333  0.666667  0.504029  1
  Ir  Ir16  1  0.000000  0.000000  0.750000  1
  Ir  Ir17  1  0.000000  0.000000  0.250000  1
