# generated using pymatgen
data_Er2Tm10CdCo4Ru
_symmetry_space_group_name_H-M   'P 1'
_cell_length_a   8.18333430
_cell_length_b   8.18344317
_cell_length_c   8.18329403
_cell_angle_alpha   106.21533986
_cell_angle_beta   110.91940043
_cell_angle_gamma   111.32724988
_symmetry_Int_Tables_number   1
_chemical_formula_structural   Er2Tm10CdCo4Ru
_chemical_formula_sum   'Er2 Tm10 Cd1 Co4 Ru1'
_cell_volume   420.84526021
_cell_formula_units_Z   1
loop_
 _symmetry_equiv_pos_site_id
 _symmetry_equiv_pos_as_xyz
  1  'x, y, z'
loop_
 _atom_site_type_symbol
 _atom_site_label
 _atom_site_symmetry_multiplicity
 _atom_site_fract_x
 _atom_site_fract_y
 _atom_site_fract_z
 _atom_site_occupancy
  Er  Er0  1  0.035501  0.218997  0.816385  1
  Er  Er1  1  0.402561  0.218984  0.183472  1
  Tm  Tm2  1  0.694026  0.279512  0.973346  1
  Tm  Tm3  1  0.306095  0.720715  0.026685  1
  Tm  Tm4  1  0.694016  0.720659  0.414517  1
  Tm  Tm5  1  0.306122  0.279423  0.585378  1
  Tm  Tm6  1  0.807482  0.120985  0.313451  1
  Tm  Tm7  1  0.807487  0.494059  0.686521  1
  Tm  Tm8  1  0.192646  0.878733  0.686051  1
  Tm  Tm9  1  0.192643  0.506619  0.313938  1
  Tm  Tm10  1  0.597900  0.780591  0.817343  1
  Tm  Tm11  1  0.963249  0.780615  0.182671  1
  Cd  Cd12  1  0.499615  0.999522  0.500264  1
  Co  Co13  1  0.874217  0.500245  0.373990  1
  Co  Co14  1  0.126238  0.500232  0.626023  1
  Co  Co15  1  0.999620  0.111788  0.112205  1
  Co  Co16  1  0.999630  0.887386  0.887783  1
  Ru  Ru17  1  0.500952  0.500931  0.999980  1
