# generated using pymatgen
data_DyY7Ti5Si16Mo7
_symmetry_space_group_name_H-M   'P 1'
_cell_length_a   6.93939921
_cell_length_b   6.94731441
_cell_length_c   12.85157705
_cell_angle_alpha   90.01225963
_cell_angle_beta   90.11652102
_cell_angle_gamma   89.96802342
_symmetry_Int_Tables_number   1
_chemical_formula_structural   DyY7Ti5Si16Mo7
_chemical_formula_sum   'Dy1 Y7 Ti5 Si16 Mo7'
_cell_volume   619.57555601
_cell_formula_units_Z   1
loop_
 _symmetry_equiv_pos_site_id
 _symmetry_equiv_pos_as_xyz
  1  'x, y, z'
loop_
 _atom_site_type_symbol
 _atom_site_label
 _atom_site_symmetry_multiplicity
 _atom_site_fract_x
 _atom_site_fract_y
 _atom_site_fract_z
 _atom_site_occupancy
  Dy  Dy0  1  0.340253  0.002236  0.468487  1
  Y  Y1  1  0.997897  0.659423  0.032850  1
  Y  Y2  1  0.003467  0.340140  0.530957  1
  Y  Y3  1  0.659183  0.997369  0.968656  1
  Y  Y4  1  0.159778  0.502803  0.781894  1
  Y  Y5  1  0.839337  0.496298  0.281212  1
  Y  Y6  1  0.502739  0.159348  0.218344  1
  Y  Y7  1  0.496613  0.841076  0.717106  1
  Ti  Ti8  1  0.671004  0.669973  0.500042  1
  Ti  Ti9  1  0.832024  0.170053  0.749294  1
  Ti  Ti10  1  0.170238  0.829447  0.249502  1
  Ti  Ti11  1  0.327921  0.327669  0.000396  1
  Ti  Ti12  1  0.658906  0.493699  0.875665  1
  Si  Si13  1  0.041945  0.711385  0.436829  1
  Si  Si14  1  0.957111  0.288841  0.937574  1
  Si  Si15  1  0.711740  0.041480  0.562636  1
  Si  Si16  1  0.211045  0.458105  0.187487  1
  Si  Si17  1  0.788968  0.543578  0.687199  1
  Si  Si18  1  0.457024  0.211078  0.813288  1
  Si  Si19  1  0.541290  0.788738  0.312873  1
  Si  Si20  1  0.288518  0.957968  0.062743  1
  Si  Si21  1  0.799000  0.871600  0.184261  1
  Si  Si22  1  0.299634  0.627524  0.566014  1
  Si  Si23  1  0.699944  0.372366  0.065641  1
  Si  Si24  1  0.628522  0.299275  0.434089  1
  Si  Si25  1  0.370596  0.701880  0.934295  1
  Si  Si26  1  0.129313  0.199143  0.316038  1
  Si  Si27  1  0.200233  0.130106  0.684205  1
  Si  Si28  1  0.870922  0.800901  0.815062  1
  Mo  Mo29  1  0.340878  0.506932  0.376310  1
  Mo  Mo30  1  0.841197  0.992091  0.374355  1
  Mo  Mo31  1  0.008785  0.157780  0.127468  1
  Mo  Mo32  1  0.995028  0.842282  0.624539  1
  Mo  Mo33  1  0.509095  0.339642  0.623509  1
  Mo  Mo34  1  0.159012  0.007598  0.873696  1
  Mo  Mo35  1  0.490839  0.660174  0.125484  1
