# generated using pymatgen
data_LaY3Ho2Ta2O14
_symmetry_space_group_name_H-M   'P 1'
_cell_length_a   6.50829737
_cell_length_b   6.52462541
_cell_length_c   7.54888002
_cell_angle_alpha   89.86051115
_cell_angle_beta   90.14715417
_cell_angle_gamma   108.66790962
_symmetry_Int_Tables_number   1
_chemical_formula_structural   LaY3Ho2Ta2O14
_chemical_formula_sum   'La1 Y3 Ho2 Ta2 O14'
_cell_volume   303.69111817
_cell_formula_units_Z   1
loop_
 _symmetry_equiv_pos_site_id
 _symmetry_equiv_pos_as_xyz
  1  'x, y, z'
loop_
 _atom_site_type_symbol
 _atom_site_label
 _atom_site_symmetry_multiplicity
 _atom_site_fract_x
 _atom_site_fract_y
 _atom_site_fract_z
 _atom_site_occupancy
  La  La0  1  0.509384  0.509589  0.499999  1
  Y  Y1  1  0.461634  0.461120  0.999959  1
  Y  Y2  1  0.999355  0.534783  0.240462  1
  Y  Y3  1  0.998711  0.466211  0.746640  1
  Ho  Ho4  1  0.534301  0.000052  0.759629  1
  Ho  Ho5  1  0.466616  0.997983  0.252979  1
  Ta  Ta6  1  0.000774  0.000791  0.499984  1
  Ta  Ta7  1  0.997313  0.997375  0.000014  1
  O  O8  1  0.932980  0.065454  0.749654  1
  O  O9  1  0.067561  0.935290  0.250446  1
  O  O10  1  0.358968  0.643804  0.238840  1
  O  O11  1  0.641298  0.356415  0.761043  1
  O  O12  1  0.367731  0.634360  0.761020  1
  O  O13  1  0.631470  0.364793  0.239242  1
  O  O14  1  0.326173  0.078538  0.973736  1
  O  O15  1  0.676921  0.929957  0.471749  1
  O  O16  1  0.314559  0.060278  0.541445  1
  O  O17  1  0.692681  0.952802  0.042261  1
  O  O18  1  0.062182  0.314192  0.459590  1
  O  O19  1  0.950630  0.693174  0.958474  1
  O  O20  1  0.928026  0.677457  0.527286  1
  O  O21  1  0.080734  0.325583  0.025550  1
