# generated using pymatgen
data_DyEr3Th6(Si3C)2
_symmetry_space_group_name_H-M   'P 1'
_cell_length_a   8.73899600
_cell_length_b   8.73899640
_cell_length_c   6.35846200
_cell_angle_alpha   90.00000000
_cell_angle_beta   90.00000000
_cell_angle_gamma   119.99999849
_symmetry_Int_Tables_number   1
_chemical_formula_structural   DyEr3Th6(Si3C)2
_chemical_formula_sum   'Dy1 Er3 Th6 Si6 C2'
_cell_volume   420.53855626
_cell_formula_units_Z   1
loop_
 _symmetry_equiv_pos_site_id
 _symmetry_equiv_pos_as_xyz
  1  'x, y, z'
loop_
 _atom_site_type_symbol
 _atom_site_label
 _atom_site_symmetry_multiplicity
 _atom_site_fract_x
 _atom_site_fract_y
 _atom_site_fract_z
 _atom_site_occupancy
  Dy  Dy0  1  0.666667  0.333333  0.000000  1
  Er  Er1  1  0.333333  0.666667  0.000000  1
  Er  Er2  1  0.333333  0.666667  0.500000  1
  Er  Er3  1  0.666667  0.333333  0.500000  1
  Th  Th4  1  0.766260  0.766367  0.749866  1
  Th  Th5  1  0.233633  0.999892  0.749866  1
  Th  Th6  1  0.000108  0.233740  0.749866  1
  Th  Th7  1  0.233633  0.233740  0.250134  1
  Th  Th8  1  0.766260  0.999892  0.250134  1
  Th  Th9  1  0.000108  0.766367  0.250134  1
  Si  Si10  1  0.402435  0.402782  0.749738  1
  Si  Si11  1  0.597218  0.999653  0.749738  1
  Si  Si12  1  0.000347  0.597565  0.749738  1
  Si  Si13  1  0.597218  0.597565  0.250262  1
  Si  Si14  1  0.402435  0.999653  0.250262  1
  Si  Si15  1  0.000347  0.402782  0.250262  1
  C  C16  1  0.000000  0.000000  0.000000  1
  C  C17  1  0.000000  0.000000  0.500000  1
