# generated using pymatgen
data_Li25Si8Ni
_symmetry_space_group_name_H-M   'P 1'
_cell_length_a   7.89659291
_cell_length_b   14.84361267
_cell_length_c   4.39149100
_cell_angle_alpha   90.00000000
_cell_angle_beta   90.00000000
_cell_angle_gamma   89.78777988
_symmetry_Int_Tables_number   1
_chemical_formula_structural   Li25Si8Ni
_chemical_formula_sum   'Li25 Si8 Ni1'
_cell_volume   514.74054837
_cell_formula_units_Z   1
loop_
 _symmetry_equiv_pos_site_id
 _symmetry_equiv_pos_as_xyz
  1  'x, y, z'
loop_
 _atom_site_type_symbol
 _atom_site_label
 _atom_site_symmetry_multiplicity
 _atom_site_fract_x
 _atom_site_fract_y
 _atom_site_fract_z
 _atom_site_occupancy
  Li  Li0  1  0.160813  0.019707  0.000000  1
  Li  Li1  1  0.768122  0.151436  0.000000  1
  Li  Li2  1  0.095570  0.191210  0.000000  1
  Li  Li3  1  0.593254  0.306012  0.000000  1
  Li  Li4  1  0.266804  0.348621  0.000000  1
  Li  Li5  1  0.652158  0.474814  0.000000  1
  Li  Li6  1  0.999975  0.499979  0.000000  1
  Li  Li7  1  0.347796  0.525153  0.000000  1
  Li  Li8  1  0.733160  0.651349  0.000000  1
  Li  Li9  1  0.406686  0.693989  0.000000  1
  Li  Li10  1  0.904402  0.808785  0.000000  1
  Li  Li11  1  0.231846  0.848568  0.000000  1
  Li  Li12  1  0.839308  0.980290  0.000000  1
  Li  Li13  1  0.270378  0.083990  0.500000  1
  Li  Li14  1  0.599926  0.089169  0.500000  1
  Li  Li15  1  0.902727  0.245182  0.500000  1
  Li  Li16  1  0.409819  0.250897  0.500000  1
  Li  Li17  1  0.095169  0.393398  0.500000  1
  Li  Li18  1  0.758878  0.406962  0.500000  1
  Li  Li19  1  0.241075  0.593007  0.500000  1
  Li  Li20  1  0.904787  0.606568  0.500000  1
  Li  Li21  1  0.590108  0.749105  0.500000  1
  Li  Li22  1  0.097247  0.754814  0.500000  1
  Li  Li23  1  0.400050  0.910883  0.500000  1
  Li  Li24  1  0.729585  0.916017  0.500000  1
  Si  Si25  1  0.425488  0.148295  0.000000  1
  Si  Si26  1  0.915766  0.339434  0.000000  1
  Si  Si27  1  0.084193  0.660532  0.000000  1
  Si  Si28  1  0.574416  0.851764  0.000000  1
  Si  Si29  1  0.940925  0.072464  0.500000  1
  Si  Si30  1  0.425715  0.429346  0.500000  1
  Si  Si31  1  0.574235  0.570620  0.500000  1
  Si  Si32  1  0.059105  0.927554  0.500000  1
  Ni  Ni33  1  0.500523  0.000087  0.000000  1
