# generated using pymatgen
data_U3P6PbO24
_symmetry_space_group_name_H-M   'P 1'
_cell_length_a   9.17850465
_cell_length_b   9.17850466
_cell_length_c   9.41456000
_cell_angle_alpha   60.82601366
_cell_angle_beta   60.82600648
_cell_angle_gamma   59.99999725
_symmetry_Int_Tables_number   1
_chemical_formula_structural   U3P6PbO24
_chemical_formula_sum   'U3 P6 Pb1 O24'
_cell_volume   567.72726910
_cell_formula_units_Z   1
loop_
 _symmetry_equiv_pos_site_id
 _symmetry_equiv_pos_as_xyz
  1  'x, y, z'
loop_
 _atom_site_type_symbol
 _atom_site_label
 _atom_site_symmetry_multiplicity
 _atom_site_fract_x
 _atom_site_fract_y
 _atom_site_fract_z
 _atom_site_occupancy
  U  U0  1  0.142246  0.142246  0.573263  1
  U  U1  1  0.356643  0.356643  0.930071  1
  U  U2  1  0.642951  0.642951  0.071146  1
  P  P3  1  0.749843  0.041833  0.749361  1
  P  P4  1  0.041833  0.458963  0.749361  1
  P  P5  1  0.458963  0.749843  0.749361  1
  P  P6  1  0.523255  0.265024  0.247752  1
  P  P7  1  0.963969  0.523255  0.247752  1
  P  P8  1  0.265024  0.963969  0.247752  1
  Pb  Pb9  1  0.864281  0.864281  0.407156  1
  O  O10  1  0.357026  0.101365  0.093248  1
  O  O11  1  0.448362  0.357026  0.093248  1
  O  O12  1  0.935090  0.031374  0.727597  1
  O  O13  1  0.101365  0.448362  0.093248  1
  O  O14  1  0.614941  0.217390  0.796717  1
  O  O15  1  0.736438  0.048956  0.594538  1
  O  O16  1  0.031374  0.305939  0.727597  1
  O  O17  1  0.217390  0.370951  0.796717  1
  O  O18  1  0.370951  0.614941  0.796717  1
  O  O19  1  0.359014  0.240464  0.414009  1
  O  O20  1  0.674247  0.096890  0.230420  1
  O  O21  1  0.986514  0.359014  0.414009  1
  O  O22  1  0.048956  0.620068  0.594538  1
  O  O23  1  0.305939  0.935090  0.727597  1
  O  O24  1  0.620068  0.736438  0.594538  1
  O  O25  1  0.571973  0.409293  0.240397  1
  O  O26  1  0.778337  0.571973  0.240397  1
  O  O27  1  0.998443  0.674247  0.230420  1
  O  O28  1  0.240464  0.986514  0.414009  1
  O  O29  1  0.409293  0.778337  0.240397  1
  O  O30  1  0.879015  0.498481  0.912084  1
  O  O31  1  0.096890  0.998443  0.230420  1
  O  O32  1  0.498481  0.710420  0.912084  1
  O  O33  1  0.710420  0.879015  0.912084  1
