# generated using pymatgen
data_Sm5Si9Ge3Ir19
_symmetry_space_group_name_H-M   'P 1'
_cell_length_a   13.03350500
_cell_length_b   13.03350574
_cell_length_c   4.01301200
_cell_angle_alpha   90.00000000
_cell_angle_beta   90.00000000
_cell_angle_gamma   120.00000065
_symmetry_Int_Tables_number   1
_chemical_formula_structural   Sm5Si9Ge3Ir19
_chemical_formula_sum   'Sm5 Si9 Ge3 Ir19'
_cell_volume   590.36901763
_cell_formula_units_Z   1
loop_
 _symmetry_equiv_pos_site_id
 _symmetry_equiv_pos_as_xyz
  1  'x, y, z'
loop_
 _atom_site_type_symbol
 _atom_site_label
 _atom_site_symmetry_multiplicity
 _atom_site_fract_x
 _atom_site_fract_y
 _atom_site_fract_z
 _atom_site_occupancy
  Sm  Sm0  1  0.000000  0.810630  0.500000  1
  Sm  Sm1  1  0.189370  0.189370  0.500000  1
  Sm  Sm2  1  0.810630  0.000000  0.500000  1
  Sm  Sm3  1  0.333333  0.666667  0.000000  1
  Sm  Sm4  1  0.666667  0.333333  0.000000  1
  Si  Si5  1  0.518450  0.688559  0.500000  1
  Si  Si6  1  0.311441  0.829891  0.500000  1
  Si  Si7  1  0.170109  0.481550  0.500000  1
  Si  Si8  1  0.481550  0.170109  0.500000  1
  Si  Si9  1  0.688559  0.518450  0.500000  1
  Si  Si10  1  0.829891  0.311441  0.500000  1
  Si  Si11  1  0.000000  0.628924  0.000000  1
  Si  Si12  1  0.371076  0.371076  0.000000  1
  Si  Si13  1  0.628924  0.000000  0.000000  1
  Ge  Ge14  1  0.000000  0.182386  0.000000  1
  Ge  Ge15  1  0.817614  0.817614  0.000000  1
  Ge  Ge16  1  0.182386  0.000000  0.000000  1
  Ir  Ir17  1  0.000000  0.290494  0.500000  1
  Ir  Ir18  1  0.709506  0.709506  0.500000  1
  Ir  Ir19  1  0.290494  0.000000  0.500000  1
  Ir  Ir20  1  0.618083  0.803513  0.000000  1
  Ir  Ir21  1  0.196487  0.814570  0.000000  1
  Ir  Ir22  1  0.185430  0.381917  0.000000  1
  Ir  Ir23  1  0.381917  0.185430  0.000000  1
  Ir  Ir24  1  0.803513  0.618083  0.000000  1
  Ir  Ir25  1  0.814570  0.196487  0.000000  1
  Ir  Ir26  1  0.511530  0.874682  0.500000  1
  Ir  Ir27  1  0.125318  0.636850  0.500000  1
  Ir  Ir28  1  0.363150  0.488470  0.500000  1
  Ir  Ir29  1  0.488470  0.363150  0.500000  1
  Ir  Ir30  1  0.874682  0.511530  0.500000  1
  Ir  Ir31  1  0.636850  0.125318  0.500000  1
  Ir  Ir32  1  0.000000  0.000000  0.000000  1
  Ir  Ir33  1  0.000000  0.447322  0.000000  1
  Ir  Ir34  1  0.552678  0.552678  0.000000  1
  Ir  Ir35  1  0.447322  0.000000  0.000000  1
