# generated using pymatgen
data_HfTiSbP
_symmetry_space_group_name_H-M   'P 1'
_cell_length_a   3.72660500
_cell_length_b   3.72660510
_cell_length_c   12.91713900
_cell_angle_alpha   90.00000000
_cell_angle_beta   90.00000000
_cell_angle_gamma   119.99999027
_symmetry_Int_Tables_number   1
_chemical_formula_structural   HfTiSbP
_chemical_formula_sum   'Hf2 Ti2 Sb2 P2'
_cell_volume   155.35446625
_cell_formula_units_Z   2
loop_
 _symmetry_equiv_pos_site_id
 _symmetry_equiv_pos_as_xyz
  1  'x, y, z'
loop_
 _atom_site_type_symbol
 _atom_site_label
 _atom_site_symmetry_multiplicity
 _atom_site_fract_x
 _atom_site_fract_y
 _atom_site_fract_z
 _atom_site_occupancy
  Hf  Hf0  1  0.666667  0.333333  0.600832  1
  Hf  Hf1  1  0.333333  0.666667  0.100832  1
  Ti  Ti2  1  0.666667  0.333333  0.899248  1
  Ti  Ti3  1  0.333333  0.666667  0.399248  1
  Sb  Sb4  1  0.333333  0.666667  0.756853  1
  Sb  Sb5  1  0.666667  0.333333  0.256853  1
  P  P6  1  0.000000  0.000000  0.993067  1
  P  P7  1  0.000000  0.000000  0.493067  1
