# generated using pymatgen
data_Nb2Tl2F11
_symmetry_space_group_name_H-M   'P 1'
_cell_length_a   5.44616100
_cell_length_b   7.68907737
_cell_length_c   14.35319000
_cell_angle_alpha   80.15563884
_cell_angle_beta   90.00000000
_cell_angle_gamma   90.00000000
_symmetry_Int_Tables_number   1
_chemical_formula_structural   Nb2Tl2F11
_chemical_formula_sum   'Nb4 Tl4 F22'
_cell_volume   592.20349315
_cell_formula_units_Z   2
loop_
 _symmetry_equiv_pos_site_id
 _symmetry_equiv_pos_as_xyz
  1  'x, y, z'
loop_
 _atom_site_type_symbol
 _atom_site_label
 _atom_site_symmetry_multiplicity
 _atom_site_fract_x
 _atom_site_fract_y
 _atom_site_fract_z
 _atom_site_occupancy
  Nb  Nb0  1  0.028969  0.273025  0.344145  1
  Nb  Nb1  1  0.971031  0.273025  0.844145  1
  Nb  Nb2  1  0.028969  0.726975  0.155855  1
  Nb  Nb3  1  0.971031  0.726975  0.655855  1
  Tl  Tl4  1  0.461755  0.226076  0.604288  1
  Tl  Tl5  1  0.538245  0.226076  0.104288  1
  Tl  Tl6  1  0.538245  0.773924  0.395712  1
  Tl  Tl7  1  0.461755  0.773924  0.895712  1
  F  F8  1  0.089691  0.500000  0.750000  1
  F  F9  1  0.910309  0.500000  0.250000  1
  F  F10  1  0.736291  0.863434  0.182582  1
  F  F11  1  0.695439  0.580430  0.627385  1
  F  F12  1  0.167109  0.789565  0.272034  1
  F  F13  1  0.817740  0.071479  0.923147  1
  F  F14  1  0.304561  0.419570  0.372615  1
  F  F15  1  0.182260  0.928521  0.076853  1
  F  F16  1  0.167109  0.210435  0.227966  1
  F  F17  1  0.263709  0.863434  0.682582  1
  F  F18  1  0.832891  0.210435  0.727966  1
  F  F19  1  0.695439  0.419570  0.872615  1
  F  F20  1  0.182260  0.071479  0.423147  1
  F  F21  1  0.157042  0.357790  0.942890  1
  F  F22  1  0.263709  0.136566  0.817418  1
  F  F23  1  0.842958  0.642210  0.057110  1
  F  F24  1  0.832891  0.789565  0.772034  1
  F  F25  1  0.736291  0.136566  0.317418  1
  F  F26  1  0.817740  0.928521  0.576853  1
  F  F27  1  0.842958  0.357790  0.442890  1
  F  F28  1  0.304561  0.580430  0.127385  1
  F  F29  1  0.157042  0.642210  0.557110  1
