# generated using pymatgen
data_Cs4DyNpCl10
_symmetry_space_group_name_H-M   'P 1'
_cell_length_a   7.61759100
_cell_length_b   9.88626447
_cell_length_c   15.56528700
_cell_angle_alpha   89.26048032
_cell_angle_beta   90.00000000
_cell_angle_gamma   90.00000000
_symmetry_Int_Tables_number   1
_chemical_formula_structural   Cs4DyNpCl10
_chemical_formula_sum   'Cs8 Dy2 Np2 Cl20'
_cell_volume   1172.11664213
_cell_formula_units_Z   2
loop_
 _symmetry_equiv_pos_site_id
 _symmetry_equiv_pos_as_xyz
  1  'x, y, z'
loop_
 _atom_site_type_symbol
 _atom_site_label
 _atom_site_symmetry_multiplicity
 _atom_site_fract_x
 _atom_site_fract_y
 _atom_site_fract_z
 _atom_site_occupancy
  Cs  Cs0  1  0.250000  0.664152  0.918431  1
  Cs  Cs1  1  0.750000  0.335848  0.081569  1
  Cs  Cs2  1  0.750000  0.836555  0.415747  1
  Cs  Cs3  1  0.250000  0.163445  0.584253  1
  Cs  Cs4  1  0.250000  0.973360  0.208177  1
  Cs  Cs5  1  0.750000  0.026640  0.791823  1
  Cs  Cs6  1  0.750000  0.525484  0.711606  1
  Cs  Cs7  1  0.250000  0.474516  0.288394  1
  Dy  Dy8  1  0.750000  0.823226  0.063816  1
  Dy  Dy9  1  0.250000  0.176774  0.936184  1
  Np  Np10  1  0.250000  0.681849  0.566007  1
  Np  Np11  1  0.750000  0.318151  0.433993  1
  Cl  Cl12  1  0.250000  0.520549  0.706162  1
  Cl  Cl13  1  0.750000  0.479451  0.293838  1
  Cl  Cl14  1  0.750000  0.975178  0.199632  1
  Cl  Cl15  1  0.250000  0.024822  0.800368  1
  Cl  Cl16  1  0.510363  0.839801  0.619617  1
  Cl  Cl17  1  0.489637  0.160199  0.380383  1
  Cl  Cl18  1  0.498159  0.668983  0.116031  1
  Cl  Cl19  1  0.010363  0.160199  0.380383  1
  Cl  Cl20  1  0.501841  0.331017  0.883969  1
  Cl  Cl21  1  0.989637  0.839801  0.619617  1
  Cl  Cl22  1  0.998159  0.331017  0.883969  1
  Cl  Cl23  1  0.001841  0.668983  0.116031  1
  Cl  Cl24  1  0.250000  0.786542  0.401352  1
  Cl  Cl25  1  0.750000  0.213458  0.598648  1
  Cl  Cl26  1  0.750000  0.716134  0.907590  1
  Cl  Cl27  1  0.250000  0.283866  0.092410  1
  Cl  Cl28  1  0.000000  0.500000  0.500000  1
  Cl  Cl29  1  0.000000  0.000000  0.000000  1
  Cl  Cl30  1  0.500000  0.500000  0.500000  1
  Cl  Cl31  1  0.500000  0.000000  0.000000  1
