# generated using pymatgen
data_Li5Ga(Co2Si)6
_symmetry_space_group_name_H-M   'P 1'
_cell_length_a   3.88281100
_cell_length_b   5.48385500
_cell_length_c   11.64533700
_cell_angle_alpha   89.99966566
_cell_angle_beta   90.00029513
_cell_angle_gamma   89.99990597
_symmetry_Int_Tables_number   1
_chemical_formula_structural   Li5Ga(Co2Si)6
_chemical_formula_sum   'Li5 Ga1 Co12 Si6'
_cell_volume   247.96151162
_cell_formula_units_Z   1
loop_
 _symmetry_equiv_pos_site_id
 _symmetry_equiv_pos_as_xyz
  1  'x, y, z'
loop_
 _atom_site_type_symbol
 _atom_site_label
 _atom_site_symmetry_multiplicity
 _atom_site_fract_x
 _atom_site_fract_y
 _atom_site_fract_z
 _atom_site_occupancy
  Li  Li0  1  0.000007  0.500168  0.000766  1
  Li  Li1  1  0.499902  0.999772  0.167266  1
  Li  Li2  1  0.999907  0.500283  0.333504  1
  Li  Li3  1  0.500002  0.999766  0.499621  1
  Li  Li4  1  0.000073  0.500135  0.665731  1
  Ga  Ga5  1  0.500079  0.000015  0.833241  1
  Co  Co6  1  0.500010  0.252046  0.000457  1
  Co  Co7  1  0.500002  0.747943  0.000397  1
  Co  Co8  1  0.999921  0.250188  0.166750  1
  Co  Co9  1  0.999922  0.749826  0.166747  1
  Co  Co10  1  0.499932  0.248774  0.333408  1
  Co  Co11  1  0.499935  0.751257  0.333428  1
  Co  Co12  1  0.000006  0.250200  0.499950  1
  Co  Co13  1  0.000005  0.749817  0.500004  1
  Co  Co14  1  0.500070  0.252025  0.666136  1
  Co  Co15  1  0.500073  0.747964  0.666161  1
  Co  Co16  1  0.000071  0.252338  0.833226  1
  Co  Co17  1  0.000072  0.747592  0.833226  1
  Si  Si18  1  0.000007  0.000067  0.007366  1
  Si  Si19  1  0.499923  0.499867  0.169333  1
  Si  Si20  1  0.999933  0.000115  0.333385  1
  Si  Si21  1  0.499998  0.499882  0.497388  1
  Si  Si22  1  0.000075  0.000084  0.659252  1
  Si  Si23  1  0.500070  0.499874  0.833257  1
