# generated using pymatgen
data_Hf16TaCo4Au3
_symmetry_space_group_name_H-M   'P 1'
_cell_length_a   8.69436290
_cell_length_b   8.61017458
_cell_length_c   8.61017300
_cell_angle_alpha   60.00000224
_cell_angle_beta   60.31980271
_cell_angle_gamma   60.31980248
_symmetry_Int_Tables_number   1
_chemical_formula_structural   Hf16TaCo4Au3
_chemical_formula_sum   'Hf16 Ta1 Co4 Au3'
_cell_volume   457.96161796
_cell_formula_units_Z   1
loop_
 _symmetry_equiv_pos_site_id
 _symmetry_equiv_pos_as_xyz
  1  'x, y, z'
loop_
 _atom_site_type_symbol
 _atom_site_label
 _atom_site_symmetry_multiplicity
 _atom_site_fract_x
 _atom_site_fract_y
 _atom_site_fract_z
 _atom_site_occupancy
  Hf  Hf0  1  0.067386  0.644205  0.644205  1
  Hf  Hf1  1  0.652524  0.046515  0.650481  1
  Hf  Hf2  1  0.652524  0.650481  0.046515  1
  Hf  Hf3  1  0.652524  0.650481  0.650481  1
  Hf  Hf4  1  0.812530  0.801852  0.192809  1
  Hf  Hf5  1  0.192571  0.190314  0.808557  1
  Hf  Hf6  1  0.812530  0.192809  0.801852  1
  Hf  Hf7  1  0.192571  0.808557  0.190314  1
  Hf  Hf8  1  0.192571  0.808557  0.808557  1
  Hf  Hf9  1  0.812530  0.192809  0.192809  1
  Hf  Hf10  1  0.436372  0.437044  0.063292  1
  Hf  Hf11  1  0.048531  0.075366  0.438051  1
  Hf  Hf12  1  0.436372  0.063292  0.437044  1
  Hf  Hf13  1  0.048531  0.438051  0.075366  1
  Hf  Hf14  1  0.048531  0.438051  0.438051  1
  Hf  Hf15  1  0.436372  0.063292  0.063292  1
  Ta  Ta16  1  0.737110  0.420963  0.420963  1
  Co  Co17  1  0.423540  0.858820  0.858820  1
  Co  Co18  1  0.866629  0.426787  0.853293  1
  Co  Co19  1  0.866629  0.853293  0.426787  1
  Co  Co20  1  0.866629  0.853293  0.853293  1
  Au  Au21  1  0.414832  0.763176  0.410996  1
  Au  Au22  1  0.414832  0.410996  0.763176  1
  Au  Au23  1  0.414832  0.410996  0.410996  1
