# generated using pymatgen
data_Ho9TmBi6
_symmetry_space_group_name_H-M   'P 1'
_cell_length_a   8.22639600
_cell_length_b   9.50034600
_cell_length_c   12.00203100
_cell_angle_alpha   90.00097544
_cell_angle_beta   90.00000000
_cell_angle_gamma   90.00000000
_symmetry_Int_Tables_number   1
_chemical_formula_structural   Ho9TmBi6
_chemical_formula_sum   'Ho18 Tm2 Bi12'
_cell_volume   938.00202991
_cell_formula_units_Z   2
loop_
 _symmetry_equiv_pos_site_id
 _symmetry_equiv_pos_as_xyz
  1  'x, y, z'
loop_
 _atom_site_type_symbol
 _atom_site_label
 _atom_site_symmetry_multiplicity
 _atom_site_fract_x
 _atom_site_fract_y
 _atom_site_fract_z
 _atom_site_occupancy
  Ho  Ho0  1  0.353522  0.750061  0.216423  1
  Ho  Ho1  1  0.853522  0.749939  0.283577  1
  Ho  Ho2  1  0.646378  0.249985  0.783591  1
  Ho  Ho3  1  0.146378  0.250015  0.716409  1
  Ho  Ho4  1  0.308146  0.064332  0.941009  1
  Ho  Ho5  1  0.808146  0.435668  0.558991  1
  Ho  Ho6  1  0.308086  0.435697  0.940938  1
  Ho  Ho7  1  0.808086  0.064303  0.559062  1
  Ho  Ho8  1  0.691962  0.935498  0.059027  1
  Ho  Ho9  1  0.191962  0.564502  0.440973  1
  Ho  Ho10  1  0.476417  0.249918  0.488809  1
  Ho  Ho11  1  0.976417  0.250082  0.011191  1
  Ho  Ho12  1  0.523166  0.750135  0.511100  1
  Ho  Ho13  1  0.023166  0.749865  0.988900  1
  Ho  Ho14  1  0.314345  0.249993  0.218102  1
  Ho  Ho15  1  0.814345  0.250007  0.281898  1
  Ho  Ho16  1  0.685589  0.749899  0.781963  1
  Ho  Ho17  1  0.185589  0.750101  0.718037  1
  Tm  Tm18  1  0.692027  0.564695  0.059013  1
  Tm  Tm19  1  0.192027  0.935305  0.440987  1
  Bi  Bi20  1  0.405631  0.749779  0.957574  1
  Bi  Bi21  1  0.905631  0.750221  0.542426  1
  Bi  Bi22  1  0.594696  0.250679  0.042615  1
  Bi  Bi23  1  0.094696  0.249321  0.457385  1
  Bi  Bi24  1  0.566064  0.996160  0.325744  1
  Bi  Bi25  1  0.066064  0.503840  0.174256  1
  Bi  Bi26  1  0.433873  0.496189  0.674289  1
  Bi  Bi27  1  0.933873  0.003811  0.825711  1
  Bi  Bi28  1  0.433875  0.003853  0.674215  1
  Bi  Bi29  1  0.933875  0.496147  0.825785  1
  Bi  Bi30  1  0.566222  0.503844  0.325668  1
  Bi  Bi31  1  0.066222  0.996156  0.174332  1
