# generated using pymatgen
data_Dy3Er(GaSi)2
_symmetry_space_group_name_H-M   'P 1'
_cell_length_a   3.94649300
_cell_length_b   5.76825781
_cell_length_c   7.97878700
_cell_angle_alpha   89.95636519
_cell_angle_beta   90.00000000
_cell_angle_gamma   90.00000000
_symmetry_Int_Tables_number   1
_chemical_formula_structural   Dy3Er(GaSi)2
_chemical_formula_sum   'Dy3 Er1 Ga2 Si2'
_cell_volume   181.63215886
_cell_formula_units_Z   1
loop_
 _symmetry_equiv_pos_site_id
 _symmetry_equiv_pos_as_xyz
  1  'x, y, z'
loop_
 _atom_site_type_symbol
 _atom_site_label
 _atom_site_symmetry_multiplicity
 _atom_site_fract_x
 _atom_site_fract_y
 _atom_site_fract_z
 _atom_site_occupancy
  Dy  Dy0  1  0.250000  0.380530  0.679112  1
  Dy  Dy1  1  0.250000  0.119073  0.178490  1
  Dy  Dy2  1  0.750000  0.610609  0.321742  1
  Er  Er3  1  0.750000  0.889446  0.821293  1
  Ga  Ga4  1  0.250000  0.868716  0.538712  1
  Ga  Ga5  1  0.250000  0.632013  0.036551  1
  Si  Si6  1  0.750000  0.126811  0.462610  1
  Si  Si7  1  0.750000  0.372802  0.961488  1
