# generated using pymatgen
data_Dy3Si4Ni29B10
_symmetry_space_group_name_H-M   'P 1'
_cell_length_a   11.13335500
_cell_length_b   11.13335500
_cell_length_c   7.82503100
_cell_angle_alpha   90.00000000
_cell_angle_beta   90.00000000
_cell_angle_gamma   90.00000000
_symmetry_Int_Tables_number   1
_chemical_formula_structural   Dy3Si4Ni29B10
_chemical_formula_sum   'Dy6 Si8 Ni58 B20'
_cell_volume   969.92506208
_cell_formula_units_Z   2
loop_
 _symmetry_equiv_pos_site_id
 _symmetry_equiv_pos_as_xyz
  1  'x, y, z'
loop_
 _atom_site_type_symbol
 _atom_site_label
 _atom_site_symmetry_multiplicity
 _atom_site_fract_x
 _atom_site_fract_y
 _atom_site_fract_z
 _atom_site_occupancy
  Dy  Dy0  1  0.750000  0.250000  0.000000  1
  Dy  Dy1  1  0.250000  0.250000  0.000000  1
  Dy  Dy2  1  0.500000  0.500000  0.500000  1
  Dy  Dy3  1  0.750000  0.750000  0.000000  1
  Dy  Dy4  1  0.250000  0.750000  0.000000  1
  Dy  Dy5  1  0.000000  0.000000  0.500000  1
  Si  Si6  1  0.500000  0.316033  0.822837  1
  Si  Si7  1  0.316033  0.500000  0.177163  1
  Si  Si8  1  0.683967  0.500000  0.177163  1
  Si  Si9  1  0.500000  0.683967  0.822837  1
  Si  Si10  1  0.000000  0.816033  0.177163  1
  Si  Si11  1  0.816033  0.000000  0.822837  1
  Si  Si12  1  0.183967  0.000000  0.822837  1
  Si  Si13  1  0.000000  0.183967  0.177163  1
  Ni  Ni14  1  0.000000  0.270216  0.474197  1
  Ni  Ni15  1  0.340103  0.327180  0.332712  1
  Ni  Ni16  1  0.659897  0.327180  0.332712  1
  Ni  Ni17  1  0.000000  0.331935  0.972233  1
  Ni  Ni18  1  0.327180  0.340103  0.667288  1
  Ni  Ni19  1  0.672820  0.340103  0.667288  1
  Ni  Ni20  1  0.882568  0.382568  0.247101  1
  Ni  Ni21  1  0.117432  0.382568  0.247101  1
  Ni  Ni22  1  0.500000  0.389792  0.112507  1
  Ni  Ni23  1  0.889441  0.389441  0.700819  1
  Ni  Ni24  1  0.110559  0.389441  0.700819  1
  Ni  Ni25  1  0.831935  0.500000  0.972233  1
  Ni  Ni26  1  0.770216  0.500000  0.474197  1
  Ni  Ni27  1  0.000000  0.500000  0.464889  1
  Ni  Ni28  1  0.389792  0.500000  0.887493  1
  Ni  Ni29  1  0.610208  0.500000  0.887493  1
  Ni  Ni30  1  0.168065  0.500000  0.972233  1
  Ni  Ni31  1  0.229784  0.500000  0.474197  1
  Ni  Ni32  1  0.889441  0.610559  0.700819  1
  Ni  Ni33  1  0.110559  0.610559  0.700819  1
  Ni  Ni34  1  0.500000  0.610208  0.112507  1
  Ni  Ni35  1  0.882568  0.617432  0.247101  1
  Ni  Ni36  1  0.117432  0.617432  0.247101  1
  Ni  Ni37  1  0.327180  0.659897  0.667288  1
  Ni  Ni38  1  0.672820  0.659897  0.667288  1
  Ni  Ni39  1  0.000000  0.668065  0.972233  1
  Ni  Ni40  1  0.340103  0.672820  0.332712  1
  Ni  Ni41  1  0.659897  0.672820  0.332712  1
  Ni  Ni42  1  0.000000  0.729784  0.474197  1
  Ni  Ni43  1  0.500000  0.770216  0.525803  1
  Ni  Ni44  1  0.840103  0.827180  0.667288  1
  Ni  Ni45  1  0.159897  0.827180  0.667288  1
  Ni  Ni46  1  0.500000  0.831935  0.027767  1
  Ni  Ni47  1  0.827180  0.840103  0.332712  1
  Ni  Ni48  1  0.172820  0.840103  0.332712  1
  Ni  Ni49  1  0.382568  0.882568  0.752899  1
  Ni  Ni50  1  0.617432  0.882568  0.752899  1
  Ni  Ni51  1  0.000000  0.889792  0.887493  1
  Ni  Ni52  1  0.389441  0.889441  0.299181  1
  Ni  Ni53  1  0.610559  0.889441  0.299181  1
  Ni  Ni54  1  0.668065  0.000000  0.027767  1
  Ni  Ni55  1  0.729784  0.000000  0.525803  1
  Ni  Ni56  1  0.889792  0.000000  0.112507  1
  Ni  Ni57  1  0.110208  0.000000  0.112507  1
  Ni  Ni58  1  0.270216  0.000000  0.525803  1
  Ni  Ni59  1  0.331935  0.000000  0.027767  1
  Ni  Ni60  1  0.500000  0.000000  0.535111  1
  Ni  Ni61  1  0.389441  0.110559  0.299181  1
  Ni  Ni62  1  0.610559  0.110559  0.299181  1
  Ni  Ni63  1  0.000000  0.110208  0.887493  1
  Ni  Ni64  1  0.382568  0.117432  0.752899  1
  Ni  Ni65  1  0.617432  0.117432  0.752899  1
  Ni  Ni66  1  0.827180  0.159897  0.332712  1
  Ni  Ni67  1  0.172820  0.159897  0.332712  1
  Ni  Ni68  1  0.500000  0.168065  0.027767  1
  Ni  Ni69  1  0.840103  0.172820  0.667288  1
  Ni  Ni70  1  0.159897  0.172820  0.667288  1
  Ni  Ni71  1  0.500000  0.229784  0.525803  1
  B  B72  1  0.811785  0.311785  0.482269  1
  B  B73  1  0.188215  0.311785  0.482269  1
  B  B74  1  0.500000  0.254422  0.262945  1
  B  B75  1  0.000000  0.500000  0.103595  1
  B  B76  1  0.000000  0.500000  0.857992  1
  B  B77  1  0.254422  0.500000  0.737055  1
  B  B78  1  0.745578  0.500000  0.737055  1
  B  B79  1  0.500000  0.745578  0.262945  1
  B  B80  1  0.811785  0.688215  0.482269  1
  B  B81  1  0.188215  0.688215  0.482269  1
  B  B82  1  0.311785  0.811785  0.517731  1
  B  B83  1  0.688215  0.811785  0.517731  1
  B  B84  1  0.000000  0.754422  0.737055  1
  B  B85  1  0.754422  0.000000  0.262945  1
  B  B86  1  0.245578  0.000000  0.262945  1
  B  B87  1  0.500000  0.000000  0.142008  1
  B  B88  1  0.500000  0.000000  0.896405  1
  B  B89  1  0.000000  0.245578  0.737055  1
  B  B90  1  0.688215  0.188215  0.517731  1
  B  B91  1  0.311785  0.188215  0.517731  1
