# generated using pymatgen
data_Lu3AlGa4Pt
_symmetry_space_group_name_H-M   'P 1'
_cell_length_a   6.83104800
_cell_length_b   6.87750917
_cell_length_c   4.24212500
_cell_angle_alpha   90.00000000
_cell_angle_beta   90.00000000
_cell_angle_gamma   119.77678918
_symmetry_Int_Tables_number   1
_chemical_formula_structural   Lu3AlGa4Pt
_chemical_formula_sum   'Lu3 Al1 Ga4 Pt1'
_cell_volume   172.98364523
_cell_formula_units_Z   1
loop_
 _symmetry_equiv_pos_site_id
 _symmetry_equiv_pos_as_xyz
  1  'x, y, z'
loop_
 _atom_site_type_symbol
 _atom_site_label
 _atom_site_symmetry_multiplicity
 _atom_site_fract_x
 _atom_site_fract_y
 _atom_site_fract_z
 _atom_site_occupancy
  Lu  Lu0  1  0.585777  0.000000  0.500000  1
  Lu  Lu1  1  0.416194  0.416474  0.500000  1
  Lu  Lu2  1  0.999720  0.583526  0.500000  1
  Al  Al3  1  0.235008  0.000000  0.000000  1
  Ga  Ga4  1  0.002764  0.247034  0.000000  1
  Ga  Ga5  1  0.663620  0.329873  0.000000  1
  Ga  Ga6  1  0.333747  0.670127  0.000000  1
  Ga  Ga7  1  0.755729  0.752966  0.000000  1
  Pt  Pt8  1  0.007442  0.000000  0.500000  1
