# generated using pymatgen
data_Y4Al18Co5Ni
_symmetry_space_group_name_H-M   'P 1'
_cell_length_a   7.37471526
_cell_length_b   7.37471483
_cell_length_c   9.28846512
_cell_angle_alpha   89.97163085
_cell_angle_beta   89.97163308
_cell_angle_gamma   119.26618719
_symmetry_Int_Tables_number   1
_chemical_formula_structural   Y4Al18Co5Ni
_chemical_formula_sum   'Y4 Al18 Co5 Ni1'
_cell_volume   440.68568810
_cell_formula_units_Z   1
loop_
 _symmetry_equiv_pos_site_id
 _symmetry_equiv_pos_as_xyz
  1  'x, y, z'
loop_
 _atom_site_type_symbol
 _atom_site_label
 _atom_site_symmetry_multiplicity
 _atom_site_fract_x
 _atom_site_fract_y
 _atom_site_fract_z
 _atom_site_occupancy
  Y  Y0  1  0.993395  0.672053  0.250461  1
  Y  Y1  1  0.006793  0.327870  0.749656  1
  Y  Y2  1  0.672130  0.993207  0.250344  1
  Y  Y3  1  0.327947  0.006605  0.749539  1
  Al  Al4  1  0.125239  0.124791  0.250207  1
  Al  Al5  1  0.875209  0.874761  0.749793  1
  Al  Al6  1  0.332177  0.332074  0.541766  1
  Al  Al7  1  0.667552  0.670114  0.043144  1
  Al  Al8  1  0.329886  0.332448  0.956856  1
  Al  Al9  1  0.667926  0.667823  0.458234  1
  Al  Al10  1  0.339680  0.554083  0.250043  1
  Al  Al11  1  0.660382  0.447547  0.747477  1
  Al  Al12  1  0.552453  0.339618  0.252523  1
  Al  Al13  1  0.445917  0.660320  0.749957  1
  Al  Al14  1  0.000649  0.335509  0.071941  1
  Al  Al15  1  0.002284  0.664665  0.570747  1
  Al  Al16  1  0.335335  0.997716  0.429253  1
  Al  Al17  1  0.664491  0.999351  0.928059  1
  Al  Al18  1  0.004473  0.667482  0.928289  1
  Al  Al19  1  0.997903  0.334856  0.428869  1
  Al  Al20  1  0.665144  0.002097  0.571131  1
  Al  Al21  1  0.332518  0.995527  0.071711  1
  Co  Co22  1  0.999908  0.000092  0.000000  1
  Co  Co23  1  0.000245  0.999755  0.500000  1
  Co  Co24  1  0.329151  0.670849  0.500000  1
  Co  Co25  1  0.329078  0.670922  0.000000  1
  Co  Co26  1  0.671077  0.328923  0.500000  1
  Ni  Ni27  1  0.671058  0.328942  0.000000  1
