# generated using pymatgen
data_Th14Re2Ir3Os
_symmetry_space_group_name_H-M   'P 1'
_cell_length_a   10.04421061
_cell_length_b   10.13285723
_cell_length_c   6.33368148
_cell_angle_alpha   89.90522270
_cell_angle_beta   89.81725480
_cell_angle_gamma   120.27373244
_symmetry_Int_Tables_number   1
_chemical_formula_structural   Th14Re2Ir3Os
_chemical_formula_sum   'Th14 Re2 Ir3 Os1'
_cell_volume   556.70450791
_cell_formula_units_Z   1
loop_
 _symmetry_equiv_pos_site_id
 _symmetry_equiv_pos_as_xyz
  1  'x, y, z'
loop_
 _atom_site_type_symbol
 _atom_site_label
 _atom_site_symmetry_multiplicity
 _atom_site_fract_x
 _atom_site_fract_y
 _atom_site_fract_z
 _atom_site_occupancy
  Th  Th0  1  0.464612  0.541978  0.295266  1
  Th  Th1  1  0.076916  0.539820  0.296568  1
  Th  Th2  1  0.917252  0.459533  0.798751  1
  Th  Th3  1  0.254460  0.125415  0.501639  1
  Th  Th4  1  0.539672  0.080631  0.797938  1
  Th  Th5  1  0.751932  0.876125  0.003757  1
  Th  Th6  1  0.665966  0.332902  0.288274  1
  Th  Th7  1  0.124168  0.869861  0.001682  1
  Th  Th8  1  0.462054  0.920814  0.296463  1
  Th  Th9  1  0.541125  0.459639  0.796625  1
  Th  Th10  1  0.872909  0.129249  0.503683  1
  Th  Th11  1  0.123859  0.253612  0.002705  1
  Th  Th12  1  0.876797  0.747249  0.505150  1
  Th  Th13  1  0.333377  0.667790  0.790105  1
  Re  Re14  1  0.808803  0.625670  0.051609  1
  Re  Re15  1  0.810361  0.183903  0.051172  1
  Ir  Ir16  1  0.624293  0.810966  0.553429  1
  Ir  Ir17  1  0.370152  0.185440  0.049351  1
  Ir  Ir18  1  0.190576  0.376424  0.549600  1
  Os  Os19  1  0.190718  0.812977  0.550231  1
