# generated using pymatgen
data_Gd2HgPd2
_symmetry_space_group_name_H-M   'P 1'
_cell_length_a   7.75264031
_cell_length_b   7.75264081
_cell_length_c   3.81667500
_cell_angle_alpha   90.00000000
_cell_angle_beta   90.00000000
_cell_angle_gamma   90.03684158
_symmetry_Int_Tables_number   1
_chemical_formula_structural   Gd2HgPd2
_chemical_formula_sum   'Gd4 Hg2 Pd4'
_cell_volume   229.39523266
_cell_formula_units_Z   2
loop_
 _symmetry_equiv_pos_site_id
 _symmetry_equiv_pos_as_xyz
  1  'x, y, z'
loop_
 _atom_site_type_symbol
 _atom_site_label
 _atom_site_symmetry_multiplicity
 _atom_site_fract_x
 _atom_site_fract_y
 _atom_site_fract_z
 _atom_site_occupancy
  Gd  Gd0  1  0.325792  0.174209  0.500001  1
  Gd  Gd1  1  0.825905  0.325905  0.500001  1
  Gd  Gd2  1  0.174096  0.674096  0.500001  1
  Gd  Gd3  1  0.674209  0.825792  0.500001  1
  Hg  Hg4  1  0.000000  0.000000  0.000000  1
  Hg  Hg5  1  0.500000  0.500000  0.000000  1
  Pd  Pd6  1  0.627280  0.127280  0.000000  1
  Pd  Pd7  1  0.127201  0.372799  0.000000  1
  Pd  Pd8  1  0.872799  0.627201  0.000000  1
  Pd  Pd9  1  0.372720  0.872720  0.000000  1
