# generated using pymatgen
data_YThCoB10
_symmetry_space_group_name_H-M   'P 1'
_cell_length_a   4.16459800
_cell_length_b   5.59334886
_cell_length_c   11.16081274
_cell_angle_alpha   90.24594590
_cell_angle_beta   90.00000000
_cell_angle_gamma   90.00000000
_symmetry_Int_Tables_number   1
_chemical_formula_structural   YThCoB10
_chemical_formula_sum   'Y2 Th2 Co2 B20'
_cell_volume   259.97812922
_cell_formula_units_Z   2
loop_
 _symmetry_equiv_pos_site_id
 _symmetry_equiv_pos_as_xyz
  1  'x, y, z'
loop_
 _atom_site_type_symbol
 _atom_site_label
 _atom_site_symmetry_multiplicity
 _atom_site_fract_x
 _atom_site_fract_y
 _atom_site_fract_z
 _atom_site_occupancy
  Y  Y0  1  0.500000  0.301906  0.867821  1
  Y  Y1  1  0.500000  0.698094  0.132179  1
  Th  Th2  1  0.500000  0.802662  0.636668  1
  Th  Th3  1  0.500000  0.197338  0.363332  1
  Co  Co4  1  0.000000  0.500000  0.500000  1
  Co  Co5  1  0.000000  0.000000  0.000000  1
  B  B6  1  0.000000  0.126958  0.540602  1
  B  B7  1  0.000000  0.873042  0.459398  1
  B  B8  1  0.000000  0.627344  0.960698  1
  B  B9  1  0.000000  0.372656  0.039302  1
  B  B10  1  0.000000  0.153586  0.698349  1
  B  B11  1  0.000000  0.846414  0.301651  1
  B  B12  1  0.300293  0.201779  0.112018  1
  B  B13  1  0.300293  0.798221  0.887982  1
  B  B14  1  0.699636  0.700813  0.385373  1
  B  B15  1  0.699636  0.299187  0.614627  1
  B  B16  1  0.699707  0.798221  0.887982  1
  B  B17  1  0.699707  0.201779  0.112018  1
  B  B18  1  0.300364  0.299187  0.614627  1
  B  B19  1  0.300364  0.700813  0.385373  1
  B  B20  1  0.000000  0.032892  0.185936  1
  B  B21  1  0.000000  0.967108  0.814064  1
  B  B22  1  0.000000  0.533959  0.312390  1
  B  B23  1  0.000000  0.466041  0.687610  1
  B  B24  1  0.000000  0.345087  0.196312  1
  B  B25  1  0.000000  0.654913  0.803688  1
