# generated using pymatgen
data_Tb3YAl18Pd4RuRh
_symmetry_space_group_name_H-M   'P 1'
_cell_length_a   7.61143400
_cell_length_b   7.61189661
_cell_length_c   9.46560800
_cell_angle_alpha   90.00000000
_cell_angle_beta   90.00000000
_cell_angle_gamma   119.58786010
_symmetry_Int_Tables_number   1
_chemical_formula_structural   Tb3YAl18Pd4RuRh
_chemical_formula_sum   'Tb3 Y1 Al18 Pd4 Ru1 Rh1'
_cell_volume   476.89986202
_cell_formula_units_Z   1
loop_
 _symmetry_equiv_pos_site_id
 _symmetry_equiv_pos_as_xyz
  1  'x, y, z'
loop_
 _atom_site_type_symbol
 _atom_site_label
 _atom_site_symmetry_multiplicity
 _atom_site_fract_x
 _atom_site_fract_y
 _atom_site_fract_z
 _atom_site_occupancy
  Tb  Tb0  1  0.995087  0.668890  0.249816  1
  Tb  Tb1  1  0.004943  0.330878  0.750210  1
  Tb  Tb2  1  0.668981  0.995004  0.249832  1
  Y  Y3  1  0.330923  0.005385  0.749945  1
  Al  Al4  1  0.125001  0.124920  0.248968  1
  Al  Al5  1  0.875080  0.875066  0.751031  1
  Al  Al6  1  0.999770  0.328620  0.075300  1
  Al  Al7  1  0.000449  0.671557  0.924669  1
  Al  Al8  1  0.999388  0.668729  0.576387  1
  Al  Al9  1  0.331336  0.000655  0.423701  1
  Al  Al10  1  0.000716  0.331364  0.423673  1
  Al  Al11  1  0.668506  0.999238  0.576393  1
  Al  Al12  1  0.671220  0.000231  0.924687  1
  Al  Al13  1  0.328609  0.999684  0.075187  1
  Al  Al14  1  0.329973  0.329923  0.554102  1
  Al  Al15  1  0.670066  0.670037  0.446072  1
  Al  Al16  1  0.671632  0.671592  0.053222  1
  Al  Al17  1  0.328438  0.328327  0.946645  1
  Al  Al18  1  0.341200  0.546395  0.249724  1
  Al  Al19  1  0.658923  0.453564  0.750317  1
  Al  Al20  1  0.546417  0.341101  0.249729  1
  Al  Al21  1  0.453519  0.658744  0.750319  1
  Pd  Pd22  1  0.672203  0.327699  0.999922  1
  Pd  Pd23  1  0.327738  0.672262  0.999931  1
  Pd  Pd24  1  0.327611  0.672399  0.500095  1
  Pd  Pd25  1  0.672319  0.327563  0.500108  1
  Ru  Ru26  1  0.000018  0.000079  0.999914  1
  Rh  Rh27  1  0.999936  0.000092  0.500103  1
