# generated using pymatgen
data_Tb4Fe8Ni9(MoP4)3
_symmetry_space_group_name_H-M   'P 1'
_cell_length_a   3.73375300
_cell_length_b   10.39551191
_cell_length_c   11.98920094
_cell_angle_alpha   90.34053990
_cell_angle_beta   90.00000000
_cell_angle_gamma   90.00000000
_symmetry_Int_Tables_number   1
_chemical_formula_structural   Tb4Fe8Ni9(MoP4)3
_chemical_formula_sum   'Tb4 Fe8 Ni9 Mo3 P12'
_cell_volume   465.34390802
_cell_formula_units_Z   1
loop_
 _symmetry_equiv_pos_site_id
 _symmetry_equiv_pos_as_xyz
  1  'x, y, z'
loop_
 _atom_site_type_symbol
 _atom_site_label
 _atom_site_symmetry_multiplicity
 _atom_site_fract_x
 _atom_site_fract_y
 _atom_site_fract_z
 _atom_site_occupancy
  Tb  Tb0  1  0.250000  0.576155  0.704302  1
  Tb  Tb1  1  0.250000  0.919800  0.208739  1
  Tb  Tb2  1  0.750000  0.419526  0.292150  1
  Tb  Tb3  1  0.750000  0.078871  0.793139  1
  Fe  Fe4  1  0.250000  0.874662  0.701719  1
  Fe  Fe5  1  0.250000  0.621594  0.201606  1
  Fe  Fe6  1  0.750000  0.125069  0.303043  1
  Fe  Fe7  1  0.750000  0.377953  0.796117  1
  Fe  Fe8  1  0.250000  0.462496  0.933143  1
  Fe  Fe9  1  0.250000  0.042902  0.435761  1
  Fe  Fe10  1  0.750000  0.536324  0.065613  1
  Fe  Fe11  1  0.750000  0.966329  0.568312  1
  Ni  Ni12  1  0.750000  0.208750  0.511814  1
  Ni  Ni13  1  0.250000  0.408442  0.486170  1
  Ni  Ni14  1  0.250000  0.090851  0.987522  1
  Ni  Ni15  1  0.750000  0.592905  0.511782  1
  Ni  Ni16  1  0.750000  0.907959  0.015095  1
  Ni  Ni17  1  0.250000  0.224913  0.172704  1
  Ni  Ni18  1  0.250000  0.272329  0.671856  1
  Ni  Ni19  1  0.750000  0.772130  0.825998  1
  Ni  Ni20  1  0.750000  0.728015  0.326056  1
  Mo  Mo21  1  0.250000  0.705709  0.987994  1
  Mo  Mo22  1  0.250000  0.795399  0.487575  1
  Mo  Mo23  1  0.750000  0.293237  0.010649  1
  P  P24  1  0.250000  0.430199  0.112316  1
  P  P25  1  0.250000  0.067148  0.615494  1
  P  P26  1  0.750000  0.568687  0.886393  1
  P  P27  1  0.750000  0.933316  0.389556  1
  P  P28  1  0.250000  0.271898  0.860215  1
  P  P29  1  0.250000  0.231821  0.362195  1
  P  P30  1  0.750000  0.727280  0.138045  1
  P  P31  1  0.750000  0.773059  0.637031  1
  P  P32  1  0.250000  0.598773  0.388592  1
  P  P33  1  0.250000  0.900128  0.888072  1
  P  P34  1  0.750000  0.394842  0.608426  1
  P  P35  1  0.750000  0.100526  0.114810  1
