# generated using pymatgen
data_YbNb8CoSe16
_symmetry_space_group_name_H-M   'P 1'
_cell_length_a   6.99248100
_cell_length_b   6.99248023
_cell_length_c   13.69932100
_cell_angle_alpha   90.00000000
_cell_angle_beta   90.00000000
_cell_angle_gamma   120.00000839
_symmetry_Int_Tables_number   1
_chemical_formula_structural   YbNb8CoSe16
_chemical_formula_sum   'Yb1 Nb8 Co1 Se16'
_cell_volume   580.08572597
_cell_formula_units_Z   1
loop_
 _symmetry_equiv_pos_site_id
 _symmetry_equiv_pos_as_xyz
  1  'x, y, z'
loop_
 _atom_site_type_symbol
 _atom_site_label
 _atom_site_symmetry_multiplicity
 _atom_site_fract_x
 _atom_site_fract_y
 _atom_site_fract_z
 _atom_site_occupancy
  Yb  Yb0  1  0.000000  0.000000  0.500000  1
  Nb  Nb1  1  0.000000  0.000000  0.229056  1
  Nb  Nb2  1  0.000000  0.000000  0.770944  1
  Nb  Nb3  1  0.507863  0.015727  0.227885  1
  Nb  Nb4  1  0.984273  0.492137  0.227885  1
  Nb  Nb5  1  0.507863  0.492137  0.227885  1
  Nb  Nb6  1  0.492137  0.984273  0.772115  1
  Nb  Nb7  1  0.015727  0.507863  0.772115  1
  Nb  Nb8  1  0.492137  0.507863  0.772115  1
  Co  Co9  1  0.000000  0.000000  0.000000  1
  Se  Se10  1  0.333333  0.666667  0.898021  1
  Se  Se11  1  0.666667  0.333333  0.101979  1
  Se  Se12  1  0.666667  0.333333  0.356435  1
  Se  Se13  1  0.333333  0.666667  0.643565  1
  Se  Se14  1  0.169064  0.830936  0.350163  1
  Se  Se15  1  0.169064  0.338128  0.350163  1
  Se  Se16  1  0.661872  0.830936  0.350163  1
  Se  Se17  1  0.830936  0.169064  0.649837  1
  Se  Se18  1  0.830936  0.661872  0.649837  1
  Se  Se19  1  0.338128  0.169064  0.649837  1
  Se  Se20  1  0.832918  0.167082  0.891544  1
  Se  Se21  1  0.832918  0.665835  0.891544  1
  Se  Se22  1  0.334165  0.167082  0.891544  1
  Se  Se23  1  0.167082  0.832918  0.108456  1
  Se  Se24  1  0.167082  0.334165  0.108456  1
  Se  Se25  1  0.665835  0.832918  0.108456  1
