# generated using pymatgen
data_Dy12Er7Tm(CoSb2)4
_symmetry_space_group_name_H-M   'P 1'
_cell_length_a   7.84681608
_cell_length_b   8.75821105
_cell_length_c   12.17430610
_cell_angle_alpha   89.99225445
_cell_angle_beta   89.98749747
_cell_angle_gamma   90.01022739
_symmetry_Int_Tables_number   1
_chemical_formula_structural   Dy12Er7Tm(CoSb2)4
_chemical_formula_sum   'Dy12 Er7 Tm1 Co4 Sb8'
_cell_volume   836.66783981
_cell_formula_units_Z   1
loop_
 _symmetry_equiv_pos_site_id
 _symmetry_equiv_pos_as_xyz
  1  'x, y, z'
loop_
 _atom_site_type_symbol
 _atom_site_label
 _atom_site_symmetry_multiplicity
 _atom_site_fract_x
 _atom_site_fract_y
 _atom_site_fract_z
 _atom_site_occupancy
  Dy  Dy0  1  0.154195  0.749890  0.203154  1
  Dy  Dy1  1  0.345615  0.749972  0.703242  1
  Dy  Dy2  1  0.845635  0.250041  0.796864  1
  Dy  Dy3  1  0.654413  0.250036  0.296753  1
  Dy  Dy4  1  0.453504  0.749883  0.998078  1
  Dy  Dy5  1  0.046606  0.749975  0.498084  1
  Dy  Dy6  1  0.546971  0.250175  0.001950  1
  Dy  Dy7  1  0.953346  0.249995  0.501904  1
  Dy  Dy8  1  0.621566  0.750006  0.307520  1
  Dy  Dy9  1  0.878409  0.749834  0.807699  1
  Dy  Dy10  1  0.378514  0.250008  0.692425  1
  Dy  Dy11  1  0.121292  0.250095  0.192333  1
  Er  Er12  1  0.677057  0.964124  0.565075  1
  Er  Er13  1  0.177106  0.035759  0.934956  1
  Er  Er14  1  0.322916  0.464323  0.434919  1
  Er  Er15  1  0.176937  0.464250  0.935005  1
  Er  Er16  1  0.322890  0.035646  0.434915  1
  Er  Er17  1  0.822934  0.964239  0.065085  1
  Er  Er18  1  0.677066  0.535861  0.565086  1
  Tm  Tm19  1  0.823688  0.535897  0.065004  1
  Co  Co20  1  0.434679  0.749989  0.491125  1
  Co  Co21  1  0.064881  0.749757  0.991245  1
  Co  Co22  1  0.565309  0.249994  0.508869  1
  Co  Co23  1  0.934475  0.250198  0.008880  1
  Sb  Sb24  1  0.928960  0.508512  0.326899  1
  Sb  Sb25  1  0.570922  0.991505  0.827000  1
  Sb  Sb26  1  0.070921  0.008476  0.673040  1
  Sb  Sb27  1  0.429334  0.491575  0.172923  1
  Sb  Sb28  1  0.070944  0.491511  0.673006  1
  Sb  Sb29  1  0.429046  0.008484  0.172983  1
  Sb  Sb30  1  0.929040  0.991493  0.327003  1
  Sb  Sb31  1  0.570829  0.508497  0.826975  1
