# generated using pymatgen
data_Li4La3Tb(Si2Ge)2
_symmetry_space_group_name_H-M   'P 1'
_cell_length_a   9.63190722
_cell_length_b   9.63190708
_cell_length_c   6.81153000
_cell_angle_alpha   90.00000000
_cell_angle_beta   90.00000000
_cell_angle_gamma   153.08301938
_symmetry_Int_Tables_number   1
_chemical_formula_structural   Li4La3Tb(Si2Ge)2
_chemical_formula_sum   'Li4 La3 Tb1 Si4 Ge2'
_cell_volume   286.07425356
_cell_formula_units_Z   1
loop_
 _symmetry_equiv_pos_site_id
 _symmetry_equiv_pos_as_xyz
  1  'x, y, z'
loop_
 _atom_site_type_symbol
 _atom_site_label
 _atom_site_symmetry_multiplicity
 _atom_site_fract_x
 _atom_site_fract_y
 _atom_site_fract_z
 _atom_site_occupancy
  Li  Li0  1  0.812678  0.187322  0.441061  1
  Li  Li1  1  0.186274  0.813726  0.562089  1
  Li  Li2  1  0.812678  0.187322  0.058939  1
  Li  Li3  1  0.186274  0.813726  0.937911  1
  La  La4  1  0.449790  0.550210  0.250000  1
  La  La5  1  0.342189  0.657811  0.750000  1
  La  La6  1  0.658162  0.341838  0.250000  1
  Tb  Tb7  1  0.550599  0.449401  0.750000  1
  Si  Si8  1  0.943919  0.056081  0.923418  1
  Si  Si9  1  0.058384  0.941616  0.072081  1
  Si  Si10  1  0.943919  0.056081  0.576582  1
  Si  Si11  1  0.058384  0.941616  0.427919  1
  Ge  Ge12  1  0.716081  0.283919  0.750000  1
  Ge  Ge13  1  0.280670  0.719330  0.250000  1
