# generated using pymatgen
data_Lu5Sc15(SiBi5)2
_symmetry_space_group_name_H-M   'P 1'
_cell_length_a   7.72564604
_cell_length_b   8.99544300
_cell_length_c   11.42727044
_cell_angle_alpha   90.00000000
_cell_angle_beta   90.04560939
_cell_angle_gamma   90.00000000
_symmetry_Int_Tables_number   1
_chemical_formula_structural   Lu5Sc15(SiBi5)2
_chemical_formula_sum   'Lu5 Sc15 Si2 Bi10'
_cell_volume   794.14486191
_cell_formula_units_Z   1
loop_
 _symmetry_equiv_pos_site_id
 _symmetry_equiv_pos_as_xyz
  1  'x, y, z'
loop_
 _atom_site_type_symbol
 _atom_site_label
 _atom_site_symmetry_multiplicity
 _atom_site_fract_x
 _atom_site_fract_y
 _atom_site_fract_z
 _atom_site_occupancy
  Lu  Lu0  1  0.852702  0.250000  0.205460  1
  Lu  Lu1  1  0.174869  0.250000  0.785442  1
  Lu  Lu2  1  0.814302  0.750000  0.220523  1
  Lu  Lu3  1  0.315252  0.750000  0.279673  1
  Lu  Lu4  1  0.673733  0.250000  0.713075  1
  Sc  Sc5  1  0.036590  0.250000  0.513433  1
  Sc  Sc6  1  0.986055  0.750000  0.491675  1
  Sc  Sc7  1  0.485225  0.750000  0.008488  1
  Sc  Sc8  1  0.535277  0.250000  0.985754  1
  Sc  Sc9  1  0.352253  0.250000  0.295629  1
  Sc  Sc10  1  0.654277  0.750000  0.720832  1
  Sc  Sc11  1  0.154137  0.750000  0.779320  1
  Sc  Sc12  1  0.181999  0.076420  0.054850  1
  Sc  Sc13  1  0.810214  0.954014  0.940038  1
  Sc  Sc14  1  0.310930  0.953985  0.560661  1
  Sc  Sc15  1  0.810214  0.545986  0.940038  1
  Sc  Sc16  1  0.680308  0.076402  0.445169  1
  Sc  Sc17  1  0.181999  0.423580  0.054850  1
  Sc  Sc18  1  0.680308  0.423598  0.445169  1
  Sc  Sc19  1  0.310930  0.546015  0.560661  1
  Si  Si20  1  0.408287  0.250000  0.533975  1
  Si  Si21  1  0.908594  0.250000  0.961483  1
  Bi  Bi22  1  0.595475  0.750000  0.465580  1
  Bi  Bi23  1  0.094850  0.750000  0.034684  1
  Bi  Bi24  1  0.064790  0.006763  0.329206  1
  Bi  Bi25  1  0.935897  0.993179  0.673675  1
  Bi  Bi26  1  0.435951  0.993104  0.826315  1
  Bi  Bi27  1  0.935897  0.506821  0.673675  1
  Bi  Bi28  1  0.558975  0.007462  0.172572  1
  Bi  Bi29  1  0.064790  0.493237  0.329206  1
  Bi  Bi30  1  0.558975  0.492538  0.172572  1
  Bi  Bi31  1  0.435951  0.506896  0.826315  1
