# generated using pymatgen
data_Ho2Lu2GeSe3
_symmetry_space_group_name_H-M   'P 1'
_cell_length_a   7.02816500
_cell_length_b   7.02816388
_cell_length_c   7.02816473
_cell_angle_alpha   132.06053599
_cell_angle_beta   132.06053124
_cell_angle_gamma   70.13343694
_symmetry_Int_Tables_number   1
_chemical_formula_structural   Ho2Lu2GeSe3
_chemical_formula_sum   'Ho2 Lu2 Ge1 Se3'
_cell_volume   187.58194197
_cell_formula_units_Z   1
loop_
 _symmetry_equiv_pos_site_id
 _symmetry_equiv_pos_as_xyz
  1  'x, y, z'
loop_
 _atom_site_type_symbol
 _atom_site_label
 _atom_site_symmetry_multiplicity
 _atom_site_fract_x
 _atom_site_fract_y
 _atom_site_fract_z
 _atom_site_occupancy
  Ho  Ho0  1  0.242114  0.242114  0.000000  1
  Ho  Ho1  1  0.757886  0.757886  0.000000  1
  Lu  Lu2  1  0.499999  0.000000  0.499999  1
  Lu  Lu3  1  0.000000  0.499999  0.499999  1
  Ge  Ge4  1  0.000000  0.000000  0.000000  1
  Se  Se5  1  0.500000  0.500000  0.000000  1
  Se  Se6  1  0.749999  0.250000  0.499999  1
  Se  Se7  1  0.250000  0.749999  0.499999  1
