# generated using pymatgen
data_Ca3Ni6RhC2
_symmetry_space_group_name_H-M   'P 1'
_cell_length_a   7.71117449
_cell_length_b   7.71117379
_cell_length_c   7.71117262
_cell_angle_alpha   39.12974508
_cell_angle_beta   39.12974953
_cell_angle_gamma   39.12974071
_symmetry_Int_Tables_number   1
_chemical_formula_structural   Ca3Ni6RhC2
_chemical_formula_sum   'Ca3 Ni6 Rh1 C2'
_cell_volume   164.26560577
_cell_formula_units_Z   1
loop_
 _symmetry_equiv_pos_site_id
 _symmetry_equiv_pos_as_xyz
  1  'x, y, z'
loop_
 _atom_site_type_symbol
 _atom_site_label
 _atom_site_symmetry_multiplicity
 _atom_site_fract_x
 _atom_site_fract_y
 _atom_site_fract_z
 _atom_site_occupancy
  Ca  Ca0  1  0.646667  0.646667  0.646667  1
  Ca  Ca1  1  0.353333  0.353333  0.353333  1
  Ca  Ca2  1  0.500000  0.500000  0.500000  1
  Ni  Ni3  1  0.565047  0.056685  0.056685  1
  Ni  Ni4  1  0.056685  0.056685  0.565047  1
  Ni  Ni5  1  0.056685  0.565047  0.056685  1
  Ni  Ni6  1  0.943315  0.434953  0.943315  1
  Ni  Ni7  1  0.943315  0.943315  0.434953  1
  Ni  Ni8  1  0.434953  0.943315  0.943315  1
  Rh  Rh9  1  0.000000  0.000000  0.000000  1
  C  C10  1  0.830700  0.830700  0.830700  1
  C  C11  1  0.169300  0.169300  0.169300  1
