# generated using pymatgen
data_Er8V11Si16Mo
_symmetry_space_group_name_H-M   'P 1'
_cell_length_a   6.65446000
_cell_length_b   6.85144501
_cell_length_c   12.85786600
_cell_angle_alpha   90.00000000
_cell_angle_beta   90.00000000
_cell_angle_gamma   90.04384503
_symmetry_Int_Tables_number   1
_chemical_formula_structural   Er8V11Si16Mo
_chemical_formula_sum   'Er8 V11 Si16 Mo1'
_cell_volume   586.22422782
_cell_formula_units_Z   1
loop_
 _symmetry_equiv_pos_site_id
 _symmetry_equiv_pos_as_xyz
  1  'x, y, z'
loop_
 _atom_site_type_symbol
 _atom_site_label
 _atom_site_symmetry_multiplicity
 _atom_site_fract_x
 _atom_site_fract_y
 _atom_site_fract_z
 _atom_site_occupancy
  Er  Er0  1  0.498994  0.330891  0.094733  1
  Er  Er1  1  0.998654  0.169109  0.405290  1
  Er  Er2  1  0.500565  0.669543  0.596191  1
  Er  Er3  1  0.000699  0.831600  0.903807  1
  Er  Er4  1  0.500565  0.669543  0.903809  1
  Er  Er5  1  0.000699  0.831600  0.596193  1
  Er  Er6  1  0.498994  0.330891  0.405267  1
  Er  Er7  1  0.998654  0.169109  0.094710  1
  V  V8  1  0.837329  0.326966  0.626680  1
  V  V9  1  0.336919  0.173403  0.873452  1
  V  V10  1  0.163232  0.670902  0.126455  1
  V  V11  1  0.662253  0.827969  0.373580  1
  V  V12  1  0.163232  0.670902  0.373545  1
  V  V13  1  0.662253  0.827969  0.126420  1
  V  V14  1  0.837329  0.326966  0.873320  1
  V  V15  1  0.336919  0.173403  0.626548  1
  V  V16  1  0.665240  0.013365  0.750000  1
  V  V17  1  0.165050  0.486075  0.750000  1
  V  V18  1  0.335337  0.986524  0.250000  1
  Si  Si19  1  0.660465  0.043069  0.544623  1
  Si  Si20  1  0.161045  0.457302  0.955426  1
  Si  Si21  1  0.339117  0.956534  0.043945  1
  Si  Si22  1  0.838949  0.544328  0.457569  1
  Si  Si23  1  0.339117  0.956534  0.456055  1
  Si  Si24  1  0.838949  0.544328  0.042431  1
  Si  Si25  1  0.660465  0.043069  0.955377  1
  Si  Si26  1  0.161045  0.457302  0.544574  1
  Si  Si27  1  0.539907  0.366013  0.750000  1
  Si  Si28  1  0.039416  0.133452  0.750000  1
  Si  Si29  1  0.458695  0.634453  0.250000  1
  Si  Si30  1  0.962388  0.869509  0.250000  1
  Si  Si31  1  0.804887  0.617577  0.750000  1
  Si  Si32  1  0.304673  0.882730  0.750000  1
  Si  Si33  1  0.198584  0.377646  0.250000  1
  Si  Si34  1  0.694697  0.118753  0.250000  1
  Mo  Mo35  1  0.834686  0.510670  0.250000  1
