# generated using pymatgen
data_Ba3NiIr2N3
_symmetry_space_group_name_H-M   'P 1'
_cell_length_a   5.53248000
_cell_length_b   9.90685600
_cell_length_c   14.32088200
_cell_angle_alpha   90.00000000
_cell_angle_beta   90.00000000
_cell_angle_gamma   90.00000000
_symmetry_Int_Tables_number   1
_chemical_formula_structural   Ba3NiIr2N3
_chemical_formula_sum   'Ba12 Ni4 Ir8 N12'
_cell_volume   784.92013398
_cell_formula_units_Z   4
loop_
 _symmetry_equiv_pos_site_id
 _symmetry_equiv_pos_as_xyz
  1  'x, y, z'
loop_
 _atom_site_type_symbol
 _atom_site_label
 _atom_site_symmetry_multiplicity
 _atom_site_fract_x
 _atom_site_fract_y
 _atom_site_fract_z
 _atom_site_occupancy
  Ba  Ba0  1  0.486786  0.505580  0.747635  1
  Ba  Ba1  1  0.986786  0.994420  0.252365  1
  Ba  Ba2  1  0.013214  0.005580  0.752365  1
  Ba  Ba3  1  0.513214  0.494420  0.247635  1
  Ba  Ba4  1  0.970790  0.326242  0.411126  1
  Ba  Ba5  1  0.470790  0.173758  0.588874  1
  Ba  Ba6  1  0.529210  0.826242  0.088874  1
  Ba  Ba7  1  0.029210  0.673758  0.911126  1
  Ba  Ba8  1  0.029680  0.676407  0.586947  1
  Ba  Ba9  1  0.529680  0.823593  0.413053  1
  Ba  Ba10  1  0.470320  0.176407  0.913053  1
  Ba  Ba11  1  0.970320  0.323593  0.086947  1
  Ni  Ni12  1  0.548887  0.854112  0.840128  1
  Ni  Ni13  1  0.048887  0.645888  0.159872  1
  Ni  Ni14  1  0.951113  0.354112  0.659872  1
  Ni  Ni15  1  0.451113  0.145888  0.340128  1
  Ir  Ir16  1  0.446978  0.146126  0.167314  1
  Ir  Ir17  1  0.946978  0.353874  0.832686  1
  Ir  Ir18  1  0.053022  0.646126  0.332686  1
  Ir  Ir19  1  0.553022  0.853874  0.667314  1
  Ir  Ir20  1  0.996994  0.998229  0.998926  1
  Ir  Ir21  1  0.496994  0.501771  0.001074  1
  Ir  Ir22  1  0.503006  0.498229  0.501074  1
  Ir  Ir23  1  0.003006  0.001771  0.498926  1
  N  N24  1  0.328950  0.777389  0.757186  1
  N  N25  1  0.828950  0.722611  0.242814  1
  N  N26  1  0.171050  0.277389  0.742814  1
  N  N27  1  0.671050  0.222611  0.257186  1
  N  N28  1  0.242811  0.075928  0.421589  1
  N  N29  1  0.742811  0.424072  0.578411  1
  N  N30  1  0.257189  0.575928  0.078411  1
  N  N31  1  0.757189  0.924072  0.921589  1
  N  N32  1  0.768150  0.928477  0.578337  1
  N  N33  1  0.268150  0.571523  0.421663  1
  N  N34  1  0.731850  0.428477  0.921663  1
  N  N35  1  0.231850  0.071523  0.078337  1
