# generated using pymatgen
data_Ti5VTe8
_symmetry_space_group_name_H-M   'P 1'
_cell_length_a   10.55225896
_cell_length_b   10.50718503
_cell_length_c   3.88510000
_cell_angle_alpha   90.00000000
_cell_angle_beta   90.00000000
_cell_angle_gamma   119.98946425
_symmetry_Int_Tables_number   1
_chemical_formula_structural   Ti5VTe8
_chemical_formula_sum   'Ti5 V1 Te8'
_cell_volume   373.08754521
_cell_formula_units_Z   1
loop_
 _symmetry_equiv_pos_site_id
 _symmetry_equiv_pos_as_xyz
  1  'x, y, z'
loop_
 _atom_site_type_symbol
 _atom_site_label
 _atom_site_symmetry_multiplicity
 _atom_site_fract_x
 _atom_site_fract_y
 _atom_site_fract_z
 _atom_site_occupancy
  Ti  Ti0  1  0.128504  0.637684  0.750000  1
  Ti  Ti1  1  0.363307  0.491191  0.750000  1
  Ti  Ti2  1  0.506986  0.875196  0.750000  1
  Ti  Ti3  1  0.870957  0.363808  0.250000  1
  Ti  Ti4  1  0.636977  0.505631  0.250000  1
  V  V5  1  0.493043  0.127896  0.250000  1
  Te  Te6  1  0.663224  0.326763  0.750000  1
  Te  Te7  1  0.333566  0.668220  0.250000  1
  Te  Te8  1  0.298953  0.956406  0.750000  1
  Te  Te9  1  0.050422  0.345006  0.750000  1
  Te  Te10  1  0.654338  0.703884  0.750000  1
  Te  Te11  1  0.704400  0.049122  0.250000  1
  Te  Te12  1  0.949410  0.656215  0.250000  1
  Te  Te13  1  0.345914  0.292975  0.250000  1
