# generated using pymatgen
data_KCu2TeSe
_symmetry_space_group_name_H-M   'P 1'
_cell_length_a   8.09207550
_cell_length_b   8.09207576
_cell_length_c   8.09207602
_cell_angle_alpha   151.46925003
_cell_angle_beta   151.46924853
_cell_angle_gamma   40.78888448
_symmetry_Int_Tables_number   1
_chemical_formula_structural   KCu2TeSe
_chemical_formula_sum   'K1 Cu2 Te1 Se1'
_cell_volume   120.62971796
_cell_formula_units_Z   1
loop_
 _symmetry_equiv_pos_site_id
 _symmetry_equiv_pos_as_xyz
  1  'x, y, z'
loop_
 _atom_site_type_symbol
 _atom_site_label
 _atom_site_symmetry_multiplicity
 _atom_site_fract_x
 _atom_site_fract_y
 _atom_site_fract_z
 _atom_site_occupancy
  K  K0  1  0.479016  0.479016  0.000000  1
  Cu  Cu1  1  0.259447  0.759447  0.500000  1
  Cu  Cu2  1  0.759447  0.259447  0.500000  1
  Te  Te3  1  0.145444  0.145444  0.000000  1
  Se  Se4  1  0.856646  0.856646  0.000000  1
