# generated using pymatgen
data_K3Ba3YSb4
_symmetry_space_group_name_H-M   'P 1'
_cell_length_a   11.41943400
_cell_length_b   11.41943492
_cell_length_c   8.60832000
_cell_angle_alpha   90.00000000
_cell_angle_beta   90.00000000
_cell_angle_gamma   119.99999734
_symmetry_Int_Tables_number   1
_chemical_formula_structural   K3Ba3YSb4
_chemical_formula_sum   'K6 Ba6 Y2 Sb8'
_cell_volume   972.16109855
_cell_formula_units_Z   2
loop_
 _symmetry_equiv_pos_site_id
 _symmetry_equiv_pos_as_xyz
  1  'x, y, z'
loop_
 _atom_site_type_symbol
 _atom_site_label
 _atom_site_symmetry_multiplicity
 _atom_site_fract_x
 _atom_site_fract_y
 _atom_site_fract_z
 _atom_site_occupancy
  K  K0  1  0.863379  0.136621  0.557225  1
  K  K1  1  0.273241  0.136621  0.557225  1
  K  K2  1  0.863379  0.726759  0.557225  1
  K  K3  1  0.136621  0.863379  0.057225  1
  K  K4  1  0.726759  0.863379  0.057225  1
  K  K5  1  0.136621  0.273241  0.057225  1
  Ba  Ba6  1  0.471847  0.528153  0.731278  1
  Ba  Ba7  1  0.056307  0.528153  0.731278  1
  Ba  Ba8  1  0.471847  0.943693  0.731278  1
  Ba  Ba9  1  0.528153  0.471847  0.231278  1
  Ba  Ba10  1  0.943693  0.471847  0.231278  1
  Ba  Ba11  1  0.528153  0.056307  0.231278  1
  Y  Y12  1  0.666667  0.333333  0.843531  1
  Y  Y13  1  0.333333  0.666667  0.343531  1
  Sb  Sb14  1  0.807894  0.192106  0.960996  1
  Sb  Sb15  1  0.384212  0.192106  0.960996  1
  Sb  Sb16  1  0.807894  0.615788  0.960996  1
  Sb  Sb17  1  0.192106  0.807894  0.460996  1
  Sb  Sb18  1  0.615788  0.807894  0.460996  1
  Sb  Sb19  1  0.192106  0.384212  0.460996  1
  Sb  Sb20  1  0.666667  0.333333  0.493336  1
  Sb  Sb21  1  0.333333  0.666667  0.993336  1
