# generated using pymatgen
data_Pr4ZnSi7
_symmetry_space_group_name_H-M   'P 1'
_cell_length_a   4.23888100
_cell_length_b   4.28958300
_cell_length_c   13.92437500
_cell_angle_alpha   90.00000000
_cell_angle_beta   90.00000000
_cell_angle_gamma   90.00000000
_symmetry_Int_Tables_number   1
_chemical_formula_structural   Pr4ZnSi7
_chemical_formula_sum   'Pr4 Zn1 Si7'
_cell_volume   253.18735449
_cell_formula_units_Z   1
loop_
 _symmetry_equiv_pos_site_id
 _symmetry_equiv_pos_as_xyz
  1  'x, y, z'
loop_
 _atom_site_type_symbol
 _atom_site_label
 _atom_site_symmetry_multiplicity
 _atom_site_fract_x
 _atom_site_fract_y
 _atom_site_fract_z
 _atom_site_occupancy
  Pr  Pr0  1  0.500000  0.500000  0.006145  1
  Pr  Pr1  1  0.000000  0.000000  0.500287  1
  Pr  Pr2  1  0.500000  0.000000  0.743141  1
  Pr  Pr3  1  0.000000  0.500000  0.251884  1
  Zn  Zn4  1  0.000000  0.000000  0.913718  1
  Si  Si5  1  0.500000  0.500000  0.414984  1
  Si  Si6  1  0.000000  0.500000  0.833667  1
  Si  Si7  1  0.500000  0.000000  0.336057  1
  Si  Si8  1  0.000000  0.000000  0.085363  1
  Si  Si9  1  0.500000  0.500000  0.582395  1
  Si  Si10  1  0.500000  0.000000  0.167764  1
  Si  Si11  1  0.000000  0.500000  0.664595  1
