# generated using pymatgen
data_La3MnGaS7
_symmetry_space_group_name_H-M   'P 1'
_cell_length_a   10.19432500
_cell_length_b   10.19432438
_cell_length_c   6.21329400
_cell_angle_alpha   90.00000000
_cell_angle_beta   90.00000000
_cell_angle_gamma   119.99999876
_symmetry_Int_Tables_number   1
_chemical_formula_structural   La3MnGaS7
_chemical_formula_sum   'La6 Mn2 Ga2 S14'
_cell_volume   559.20296416
_cell_formula_units_Z   2
loop_
 _symmetry_equiv_pos_site_id
 _symmetry_equiv_pos_as_xyz
  1  'x, y, z'
loop_
 _atom_site_type_symbol
 _atom_site_label
 _atom_site_symmetry_multiplicity
 _atom_site_fract_x
 _atom_site_fract_y
 _atom_site_fract_z
 _atom_site_occupancy
  La  La0  1  0.769245  0.145425  0.738274  1
  La  La1  1  0.376179  0.230755  0.738274  1
  La  La2  1  0.854575  0.623821  0.738274  1
  La  La3  1  0.230755  0.854575  0.238274  1
  La  La4  1  0.623821  0.769245  0.238274  1
  La  La5  1  0.145425  0.376179  0.238274  1
  Mn  Mn6  1  0.000000  0.000000  0.528208  1
  Mn  Mn7  1  0.000000  0.000000  0.028208  1
  Ga  Ga8  1  0.666667  0.333333  0.158022  1
  Ga  Ga9  1  0.333333  0.666667  0.658022  1
  S  S10  1  0.859324  0.093582  0.304477  1
  S  S11  1  0.234257  0.140676  0.304477  1
  S  S12  1  0.906418  0.765743  0.304477  1
  S  S13  1  0.140676  0.906418  0.804477  1
  S  S14  1  0.765743  0.859324  0.804477  1
  S  S15  1  0.093582  0.234257  0.804477  1
  S  S16  1  0.902935  0.422113  0.008908  1
  S  S17  1  0.519178  0.097065  0.008908  1
  S  S18  1  0.577887  0.480822  0.008908  1
  S  S19  1  0.097065  0.577887  0.508908  1
  S  S20  1  0.480822  0.902935  0.508908  1
  S  S21  1  0.422113  0.519178  0.508908  1
  S  S22  1  0.666667  0.333333  0.522847  1
  S  S23  1  0.333333  0.666667  0.022847  1
