# generated using pymatgen
data_Ho8As(Pd3Pt5)3
_symmetry_space_group_name_H-M   'P 1'
_cell_length_a   8.33738736
_cell_length_b   8.33738672
_cell_length_c   8.33738700
_cell_angle_alpha   90.01689175
_cell_angle_beta   90.01689175
_cell_angle_gamma   89.98311015
_symmetry_Int_Tables_number   1
_chemical_formula_structural   Ho8As(Pd3Pt5)3
_chemical_formula_sum   'Ho8 As1 Pd9 Pt15'
_cell_volume   579.54855895
_cell_formula_units_Z   1
loop_
 _symmetry_equiv_pos_site_id
 _symmetry_equiv_pos_as_xyz
  1  'x, y, z'
loop_
 _atom_site_type_symbol
 _atom_site_label
 _atom_site_symmetry_multiplicity
 _atom_site_fract_x
 _atom_site_fract_y
 _atom_site_fract_z
 _atom_site_occupancy
  Ho  Ho0  1  0.255508  0.255508  0.744492  1
  Ho  Ho1  1  0.255523  0.744394  0.255606  1
  Ho  Ho2  1  0.744394  0.255523  0.255606  1
  Ho  Ho3  1  0.744394  0.744394  0.744477  1
  Ho  Ho4  1  0.744490  0.744490  0.255510  1
  Ho  Ho5  1  0.744545  0.255591  0.744409  1
  Ho  Ho6  1  0.255591  0.744545  0.744409  1
  Ho  Ho7  1  0.255591  0.255591  0.255455  1
  As  As8  1  0.000400  0.000400  0.999600  1
  Pd  Pd9  1  0.499993  0.499993  0.252454  1
  Pd  Pd10  1  0.499993  0.747546  0.500007  1
  Pd  Pd11  1  0.747546  0.499993  0.500007  1
  Pd  Pd12  1  0.999960  0.999960  0.713792  1
  Pd  Pd13  1  0.999960  0.286208  0.000040  1
  Pd  Pd14  1  0.286208  0.999960  0.000040  1
  Pd  Pd15  1  0.999779  0.999779  0.285681  1
  Pd  Pd16  1  0.999779  0.714319  0.000221  1
  Pd  Pd17  1  0.714319  0.999779  0.000221  1
  Pt  Pt18  1  0.499921  0.499921  0.747622  1
  Pt  Pt19  1  0.499921  0.252378  0.500079  1
  Pt  Pt20  1  0.252378  0.499921  0.500079  1
  Pt  Pt21  1  0.999910  0.500120  0.741949  1
  Pt  Pt22  1  0.500120  0.258051  0.000090  1
  Pt  Pt23  1  0.258051  0.999910  0.499880  1
  Pt  Pt24  1  0.999910  0.258051  0.499880  1
  Pt  Pt25  1  0.500120  0.999910  0.741949  1
  Pt  Pt26  1  0.258051  0.500120  0.000090  1
  Pt  Pt27  1  0.999977  0.500019  0.258172  1
  Pt  Pt28  1  0.500019  0.741828  0.000023  1
  Pt  Pt29  1  0.999977  0.741828  0.499981  1
  Pt  Pt30  1  0.500019  0.999977  0.258172  1
  Pt  Pt31  1  0.741828  0.999977  0.499981  1
  Pt  Pt32  1  0.741828  0.500019  0.000023  1
