# generated using pymatgen
data_Pa3CrGa3Pd2
_symmetry_space_group_name_H-M   'P 1'
_cell_length_a   7.05932300
_cell_length_b   7.05932184
_cell_length_c   8.02407000
_cell_angle_alpha   90.00000000
_cell_angle_beta   90.00000000
_cell_angle_gamma   119.99999264
_symmetry_Int_Tables_number   1
_chemical_formula_structural   Pa3CrGa3Pd2
_chemical_formula_sum   'Pa6 Cr2 Ga6 Pd4'
_cell_volume   346.29913623
_cell_formula_units_Z   2
loop_
 _symmetry_equiv_pos_site_id
 _symmetry_equiv_pos_as_xyz
  1  'x, y, z'
loop_
 _atom_site_type_symbol
 _atom_site_label
 _atom_site_symmetry_multiplicity
 _atom_site_fract_x
 _atom_site_fract_y
 _atom_site_fract_z
 _atom_site_occupancy
  Pa  Pa0  1  0.769175  0.083508  0.000000  1
  Pa  Pa1  1  0.314332  0.230825  0.000000  1
  Pa  Pa2  1  0.916492  0.685668  0.000000  1
  Pa  Pa3  1  0.315379  0.231441  0.500000  1
  Pa  Pa4  1  0.768559  0.083939  0.500000  1
  Pa  Pa5  1  0.916061  0.684621  0.500000  1
  Cr  Cr6  1  0.000000  0.000000  0.250028  1
  Cr  Cr7  1  0.000000  0.000000  0.749972  1
  Ga  Ga8  1  0.580502  0.672171  0.750030  1
  Ga  Ga9  1  0.091669  0.419498  0.750030  1
  Ga  Ga10  1  0.327829  0.908331  0.750030  1
  Ga  Ga11  1  0.580502  0.672171  0.249970  1
  Ga  Ga12  1  0.091669  0.419498  0.249970  1
  Ga  Ga13  1  0.327829  0.908331  0.249970  1
  Pd  Pd14  1  0.333333  0.666667  0.000000  1
  Pd  Pd15  1  0.333333  0.666667  0.500000  1
  Pd  Pd16  1  0.666667  0.333333  0.750510  1
  Pd  Pd17  1  0.666667  0.333333  0.249490  1
