# generated using pymatgen
data_CaLu2(ZnPt2)3
_symmetry_space_group_name_H-M   'P 1'
_cell_length_a   5.40964100
_cell_length_b   5.40964116
_cell_length_c   16.61549300
_cell_angle_alpha   90.00000000
_cell_angle_beta   90.00000000
_cell_angle_gamma   119.99999293
_symmetry_Int_Tables_number   1
_chemical_formula_structural   CaLu2(ZnPt2)3
_chemical_formula_sum   'Ca2 Lu4 Zn6 Pt12'
_cell_volume   421.09569053
_cell_formula_units_Z   2
loop_
 _symmetry_equiv_pos_site_id
 _symmetry_equiv_pos_as_xyz
  1  'x, y, z'
loop_
 _atom_site_type_symbol
 _atom_site_label
 _atom_site_symmetry_multiplicity
 _atom_site_fract_x
 _atom_site_fract_y
 _atom_site_fract_z
 _atom_site_occupancy
  Ca  Ca0  1  0.333333  0.666667  0.750000  1
  Ca  Ca1  1  0.666667  0.333333  0.250000  1
  Lu  Lu2  1  0.333333  0.666667  0.542845  1
  Lu  Lu3  1  0.666667  0.333333  0.457155  1
  Lu  Lu4  1  0.666667  0.333333  0.042845  1
  Lu  Lu5  1  0.333333  0.666667  0.957155  1
  Zn  Zn6  1  0.000000  0.000000  0.250000  1
  Zn  Zn7  1  0.000000  0.000000  0.750000  1
  Zn  Zn8  1  0.333333  0.666667  0.250000  1
  Zn  Zn9  1  0.666667  0.333333  0.750000  1
  Zn  Zn10  1  0.000000  0.000000  0.000000  1
  Zn  Zn11  1  0.000000  0.000000  0.500000  1
  Pt  Pt12  1  0.168835  0.337669  0.121397  1
  Pt  Pt13  1  0.831165  0.662331  0.878603  1
  Pt  Pt14  1  0.662331  0.831165  0.121397  1
  Pt  Pt15  1  0.831165  0.662331  0.621397  1
  Pt  Pt16  1  0.337669  0.168835  0.878603  1
  Pt  Pt17  1  0.168835  0.337669  0.378603  1
  Pt  Pt18  1  0.168835  0.831165  0.121397  1
  Pt  Pt19  1  0.337669  0.168835  0.621397  1
  Pt  Pt20  1  0.831165  0.168835  0.878603  1
  Pt  Pt21  1  0.662331  0.831165  0.378603  1
  Pt  Pt22  1  0.831165  0.168835  0.621397  1
  Pt  Pt23  1  0.168835  0.831165  0.378603  1
