# generated using pymatgen
data_Ca12Ir3Rh
_symmetry_space_group_name_H-M   'P 1'
_cell_length_a   6.49164800
_cell_length_b   7.71698048
_cell_length_c   9.48764300
_cell_angle_alpha   90.00000000
_cell_angle_beta   90.00000000
_cell_angle_gamma   89.75512730
_symmetry_Int_Tables_number   1
_chemical_formula_structural   Ca12Ir3Rh
_chemical_formula_sum   'Ca12 Ir3 Rh1'
_cell_volume   475.28787235
_cell_formula_units_Z   1
loop_
 _symmetry_equiv_pos_site_id
 _symmetry_equiv_pos_as_xyz
  1  'x, y, z'
loop_
 _atom_site_type_symbol
 _atom_site_label
 _atom_site_symmetry_multiplicity
 _atom_site_fract_x
 _atom_site_fract_y
 _atom_site_fract_z
 _atom_site_occupancy
  Ca  Ca0  1  0.338517  0.666946  0.068343  1
  Ca  Ca1  1  0.160909  0.169057  0.431684  1
  Ca  Ca2  1  0.660072  0.330286  0.564913  1
  Ca  Ca3  1  0.843083  0.834820  0.935037  1
  Ca  Ca4  1  0.660072  0.330286  0.935087  1
  Ca  Ca5  1  0.843083  0.834820  0.564963  1
  Ca  Ca6  1  0.338517  0.666946  0.431657  1
  Ca  Ca7  1  0.160909  0.169057  0.068316  1
  Ca  Ca8  1  0.857288  0.543779  0.250000  1
  Ca  Ca9  1  0.639876  0.039806  0.250000  1
  Ca  Ca10  1  0.137166  0.457231  0.750000  1
  Ca  Ca11  1  0.359603  0.958663  0.750000  1
  Ir  Ir12  1  0.044957  0.876560  0.250000  1
  Ir  Ir13  1  0.457669  0.375169  0.250000  1
  Ir  Ir14  1  0.951989  0.123891  0.750000  1
  Rh  Rh15  1  0.546291  0.622682  0.750000  1
