# generated using pymatgen
data_HoLu3CoCu3
_symmetry_space_group_name_H-M   'P 1'
_cell_length_a   4.29418200
_cell_length_b   5.32811581
_cell_length_c   6.95003534
_cell_angle_alpha   90.50848379
_cell_angle_beta   90.00000000
_cell_angle_gamma   90.00000000
_symmetry_Int_Tables_number   1
_chemical_formula_structural   HoLu3CoCu3
_chemical_formula_sum   'Ho1 Lu3 Co1 Cu3'
_cell_volume   159.00984463
_cell_formula_units_Z   1
loop_
 _symmetry_equiv_pos_site_id
 _symmetry_equiv_pos_as_xyz
  1  'x, y, z'
loop_
 _atom_site_type_symbol
 _atom_site_label
 _atom_site_symmetry_multiplicity
 _atom_site_fract_x
 _atom_site_fract_y
 _atom_site_fract_z
 _atom_site_occupancy
  Ho  Ho0  1  0.500000  0.135222  0.193717  1
  Lu  Lu1  1  0.000000  0.629509  0.326172  1
  Lu  Lu2  1  0.000000  0.873545  0.811735  1
  Lu  Lu3  1  0.500000  0.359088  0.669341  1
  Co  Co4  1  0.000000  0.130901  0.469603  1
  Cu  Cu5  1  0.000000  0.379192  0.962510  1
  Cu  Cu6  1  0.500000  0.867045  0.538374  1
  Cu  Cu7  1  0.500000  0.625498  0.028550  1
