# generated using pymatgen
data_Ca4Mn3Fe(SiO4)4
_symmetry_space_group_name_H-M   'P 1'
_cell_length_a   4.96760895
_cell_length_b   6.55951984
_cell_length_c   11.30111335
_cell_angle_alpha   89.72319320
_cell_angle_beta   89.96440582
_cell_angle_gamma   89.78757262
_symmetry_Int_Tables_number   1
_chemical_formula_structural   Ca4Mn3Fe(SiO4)4
_chemical_formula_sum   'Ca4 Mn3 Fe1 Si4 O16'
_cell_volume   368.24134624
_cell_formula_units_Z   1
loop_
 _symmetry_equiv_pos_site_id
 _symmetry_equiv_pos_as_xyz
  1  'x, y, z'
loop_
 _atom_site_type_symbol
 _atom_site_label
 _atom_site_symmetry_multiplicity
 _atom_site_fract_x
 _atom_site_fract_y
 _atom_site_fract_z
 _atom_site_occupancy
  Ca  Ca0  1  0.482062  0.748170  0.222737  1
  Ca  Ca1  1  0.980355  0.250025  0.278265  1
  Ca  Ca2  1  0.019645  0.749974  0.721735  1
  Ca  Ca3  1  0.517938  0.251829  0.777263  1
  Mn  Mn4  1  0.000000  0.000000  0.000000  1
  Mn  Mn5  1  0.000000  0.500000  0.000000  1
  Mn  Mn6  1  0.499999  0.000000  0.500000  1
  Fe  Fe7  1  0.499999  0.500000  0.500000  1
  Si  Si8  1  0.416147  0.249466  0.087438  1
  Si  Si9  1  0.915540  0.746021  0.414482  1
  Si  Si10  1  0.084459  0.253978  0.585518  1
  Si  Si11  1  0.583855  0.750533  0.912562  1
  O  O12  1  0.726566  0.750073  0.046950  1
  O  O13  1  0.745796  0.249405  0.084863  1
  O  O14  1  0.282230  0.048047  0.154177  1
  O  O15  1  0.281517  0.451223  0.153407  1
  O  O16  1  0.780251  0.546560  0.348034  1
  O  O17  1  0.785334  0.949333  0.347314  1
  O  O18  1  0.246750  0.741523  0.418371  1
  O  O19  1  0.229851  0.252503  0.451990  1
  O  O20  1  0.770149  0.747496  0.548011  1
  O  O21  1  0.753250  0.258476  0.581628  1
  O  O22  1  0.214668  0.050664  0.652685  1
  O  O23  1  0.219751  0.453441  0.651965  1
  O  O24  1  0.718483  0.548778  0.846593  1
  O  O25  1  0.717770  0.951950  0.845823  1
  O  O26  1  0.254204  0.750594  0.915137  1
  O  O27  1  0.273434  0.249926  0.953051  1
