# generated using pymatgen
data_Nd8ZnSi12AgRh2
_symmetry_space_group_name_H-M   'P 1'
_cell_length_a   8.27832300
_cell_length_b   8.27832273
_cell_length_c   8.50794200
_cell_angle_alpha   90.00000000
_cell_angle_beta   90.00000000
_cell_angle_gamma   119.99999707
_symmetry_Int_Tables_number   1
_chemical_formula_structural   Nd8ZnSi12AgRh2
_chemical_formula_sum   'Nd8 Zn1 Si12 Ag1 Rh2'
_cell_volume   504.94012842
_cell_formula_units_Z   1
loop_
 _symmetry_equiv_pos_site_id
 _symmetry_equiv_pos_as_xyz
  1  'x, y, z'
loop_
 _atom_site_type_symbol
 _atom_site_label
 _atom_site_symmetry_multiplicity
 _atom_site_fract_x
 _atom_site_fract_y
 _atom_site_fract_z
 _atom_site_occupancy
  Nd  Nd0  1  0.000000  0.000000  0.750174  1
  Nd  Nd1  1  0.000000  0.000000  0.249832  1
  Nd  Nd2  1  0.495397  0.504603  0.748920  1
  Nd  Nd3  1  0.495397  0.990796  0.748920  1
  Nd  Nd4  1  0.009204  0.504603  0.748920  1
  Nd  Nd5  1  0.496831  0.503169  0.250856  1
  Nd  Nd6  1  0.006341  0.503169  0.250856  1
  Nd  Nd7  1  0.496831  0.993659  0.250856  1
  Zn  Zn8  1  0.666667  0.333333  0.504452  1
  Si  Si9  1  0.839023  0.160977  0.000041  1
  Si  Si10  1  0.839023  0.678046  0.000041  1
  Si  Si11  1  0.321954  0.160977  0.000041  1
  Si  Si12  1  0.836255  0.163745  0.499950  1
  Si  Si13  1  0.836255  0.672511  0.499950  1
  Si  Si14  1  0.327489  0.163745  0.499950  1
  Si  Si15  1  0.168822  0.831178  0.499673  1
  Si  Si16  1  0.662356  0.831178  0.499673  1
  Si  Si17  1  0.168822  0.337644  0.499673  1
  Si  Si18  1  0.169093  0.830907  0.000284  1
  Si  Si19  1  0.661814  0.830907  0.000284  1
  Si  Si20  1  0.169093  0.338186  0.000284  1
  Ag  Ag21  1  0.666667  0.333333  0.996487  1
  Rh  Rh22  1  0.333333  0.666667  0.497989  1
  Rh  Rh23  1  0.333333  0.666667  0.001892  1
