# generated using pymatgen
data_SrLu(Cu2P)4
_symmetry_space_group_name_H-M   'P 1'
_cell_length_a   7.31462727
_cell_length_b   7.31462744
_cell_length_c   3.81408200
_cell_angle_alpha   90.00000000
_cell_angle_beta   90.00000000
_cell_angle_gamma   88.79958793
_symmetry_Int_Tables_number   1
_chemical_formula_structural   SrLu(Cu2P)4
_chemical_formula_sum   'Sr1 Lu1 Cu8 P4'
_cell_volume   204.02299272
_cell_formula_units_Z   1
loop_
 _symmetry_equiv_pos_site_id
 _symmetry_equiv_pos_as_xyz
  1  'x, y, z'
loop_
 _atom_site_type_symbol
 _atom_site_label
 _atom_site_symmetry_multiplicity
 _atom_site_fract_x
 _atom_site_fract_y
 _atom_site_fract_z
 _atom_site_occupancy
  Sr  Sr0  1  0.500000  0.500000  0.500000  1
  Lu  Lu1  1  0.000000  0.000000  0.000000  1
  Cu  Cu2  1  0.667105  0.917996  0.500000  1
  Cu  Cu3  1  0.157665  0.586179  0.000000  1
  Cu  Cu4  1  0.413821  0.842335  0.000000  1
  Cu  Cu5  1  0.917996  0.667105  0.500000  1
  Cu  Cu6  1  0.842335  0.413821  0.000000  1
  Cu  Cu7  1  0.586179  0.157665  0.000000  1
  Cu  Cu8  1  0.082004  0.332895  0.500000  1
  Cu  Cu9  1  0.332895  0.082004  0.500000  1
  P  P10  1  0.274021  0.274021  0.000000  1
  P  P11  1  0.725979  0.725979  0.000000  1
  P  P12  1  0.792204  0.207796  0.500000  1
  P  P13  1  0.207796  0.792204  0.500000  1
