# generated using pymatgen
data_Y6HoTm13(Cd3Ru)2
_symmetry_space_group_name_H-M   'P 1'
_cell_length_a   9.53236512
_cell_length_b   9.53236461
_cell_length_c   9.74249107
_cell_angle_alpha   89.98845694
_cell_angle_beta   90.01153991
_cell_angle_gamma   120.01363027
_symmetry_Int_Tables_number   1
_chemical_formula_structural   Y6HoTm13(Cd3Ru)2
_chemical_formula_sum   'Y6 Ho1 Tm13 Cd6 Ru2'
_cell_volume   766.55317172
_cell_formula_units_Z   1
loop_
 _symmetry_equiv_pos_site_id
 _symmetry_equiv_pos_as_xyz
  1  'x, y, z'
loop_
 _atom_site_type_symbol
 _atom_site_label
 _atom_site_symmetry_multiplicity
 _atom_site_fract_x
 _atom_site_fract_y
 _atom_site_fract_z
 _atom_site_occupancy
  Y  Y0  1  0.540451  0.459549  0.250019  1
  Y  Y1  1  0.540670  0.081134  0.249862  1
  Y  Y2  1  0.918866  0.459330  0.249862  1
  Y  Y3  1  0.459528  0.540472  0.750020  1
  Y  Y4  1  0.459676  0.919143  0.750162  1
  Y  Y5  1  0.080857  0.540324  0.750162  1
  Ho  Ho6  1  0.209796  0.790204  0.440063  1
  Tm  Tm7  1  0.999894  0.000106  0.500039  1
  Tm  Tm8  1  0.999995  0.000005  0.000042  1
  Tm  Tm9  1  0.209905  0.419555  0.440079  1
  Tm  Tm10  1  0.580445  0.790095  0.440079  1
  Tm  Tm11  1  0.790051  0.209949  0.559960  1
  Tm  Tm12  1  0.789930  0.580075  0.560022  1
  Tm  Tm13  1  0.419925  0.210070  0.560022  1
  Tm  Tm14  1  0.790064  0.209936  0.940033  1
  Tm  Tm15  1  0.790092  0.580138  0.940052  1
  Tm  Tm16  1  0.419862  0.209908  0.940052  1
  Tm  Tm17  1  0.209876  0.790124  0.059765  1
  Tm  Tm18  1  0.210001  0.419861  0.059945  1
  Tm  Tm19  1  0.580139  0.789999  0.059945  1
  Cd  Cd20  1  0.885870  0.114130  0.250005  1
  Cd  Cd21  1  0.885798  0.771712  0.249954  1
  Cd  Cd22  1  0.228288  0.114202  0.249954  1
  Cd  Cd23  1  0.114096  0.885904  0.750113  1
  Cd  Cd24  1  0.114132  0.228298  0.750031  1
  Cd  Cd25  1  0.771702  0.885868  0.750031  1
  Ru  Ru26  1  0.333433  0.666567  0.249747  1
  Ru  Ru27  1  0.666657  0.333343  0.749976  1
