# generated using pymatgen
data_Bi4Pt3PbO14
_symmetry_space_group_name_H-M   'P 1'
_cell_length_a   7.50426601
_cell_length_b   7.50426638
_cell_length_c   7.57196062
_cell_angle_alpha   60.29529561
_cell_angle_beta   60.29529634
_cell_angle_gamma   60.00000168
_symmetry_Int_Tables_number   1
_chemical_formula_structural   Bi4Pt3PbO14
_chemical_formula_sum   'Bi4 Pt3 Pb1 O14'
_cell_volume   302.85440424
_cell_formula_units_Z   1
loop_
 _symmetry_equiv_pos_site_id
 _symmetry_equiv_pos_as_xyz
  1  'x, y, z'
loop_
 _atom_site_type_symbol
 _atom_site_label
 _atom_site_symmetry_multiplicity
 _atom_site_fract_x
 _atom_site_fract_y
 _atom_site_fract_z
 _atom_site_occupancy
  Bi  Bi0  1  0.125000  0.125000  0.625000  1
  Bi  Bi1  1  0.125000  0.625000  0.125000  1
  Bi  Bi2  1  0.625000  0.125000  0.125000  1
  Bi  Bi3  1  0.125000  0.125000  0.125000  1
  Pt  Pt4  1  0.625000  0.125000  0.625000  1
  Pt  Pt5  1  0.125000  0.625000  0.625000  1
  Pt  Pt6  1  0.625000  0.625000  0.625000  1
  Pb  Pb7  1  0.625000  0.625000  0.125000  1
  O  O8  1  0.248130  0.248130  0.255611  1
  O  O9  1  0.001870  0.001870  0.994389  1
  O  O10  1  0.537265  0.955015  0.552706  1
  O  O11  1  0.269427  0.715523  0.299527  1
  O  O12  1  0.534477  0.534477  0.950473  1
  O  O13  1  0.955015  0.537265  0.552706  1
  O  O14  1  0.534477  0.980573  0.950473  1
  O  O15  1  0.955015  0.955015  0.552706  1
  O  O16  1  0.980573  0.534477  0.950473  1
  O  O17  1  0.715523  0.269427  0.299527  1
  O  O18  1  0.294985  0.712735  0.697294  1
  O  O19  1  0.712735  0.294985  0.697294  1
  O  O20  1  0.294985  0.294985  0.697294  1
  O  O21  1  0.715523  0.715523  0.299527  1
