# generated using pymatgen
data_Ca5Si2Bi
_symmetry_space_group_name_H-M   'P 1'
_cell_length_a   9.32294788
_cell_length_b   9.32294662
_cell_length_c   9.32294749
_cell_angle_alpha   130.31095036
_cell_angle_beta   130.31095521
_cell_angle_gamma   72.91014756
_symmetry_Int_Tables_number   1
_chemical_formula_structural   Ca5Si2Bi
_chemical_formula_sum   'Ca10 Si4 Bi2'
_cell_volume   460.22919352
_cell_formula_units_Z   2
loop_
 _symmetry_equiv_pos_site_id
 _symmetry_equiv_pos_as_xyz
  1  'x, y, z'
loop_
 _atom_site_type_symbol
 _atom_site_label
 _atom_site_symmetry_multiplicity
 _atom_site_fract_x
 _atom_site_fract_y
 _atom_site_fract_z
 _atom_site_occupancy
  Ca  Ca0  1  0.808307  0.308307  0.842482  1
  Ca  Ca1  1  0.191693  0.691693  0.157518  1
  Ca  Ca2  1  0.465825  0.965825  0.157518  1
  Ca  Ca3  1  0.308307  0.465825  0.500000  1
  Ca  Ca4  1  0.034175  0.191693  0.500000  1
  Ca  Ca5  1  0.534175  0.034175  0.842482  1
  Ca  Ca6  1  0.691693  0.534175  0.500000  1
  Ca  Ca7  1  0.965825  0.808307  0.500000  1
  Ca  Ca8  1  0.000000  0.000000  0.000000  1
  Ca  Ca9  1  0.500000  0.500000  0.000000  1
  Si  Si10  1  0.114153  0.614153  0.728307  1
  Si  Si11  1  0.885847  0.385847  0.271693  1
  Si  Si12  1  0.614153  0.885847  0.500000  1
  Si  Si13  1  0.385847  0.114153  0.500000  1
  Bi  Bi14  1  0.250000  0.250000  0.000000  1
  Bi  Bi15  1  0.750000  0.750000  0.000000  1
