# generated using pymatgen
data_Dy2Mn2Co10As7
_symmetry_space_group_name_H-M   'P 1'
_cell_length_a   3.73610000
_cell_length_b   9.40449610
_cell_length_c   9.41349493
_cell_angle_alpha   119.97146507
_cell_angle_beta   90.00000000
_cell_angle_gamma   90.00000000
_symmetry_Int_Tables_number   1
_chemical_formula_structural   Dy2Mn2Co10As7
_chemical_formula_sum   'Dy2 Mn2 Co10 As7'
_cell_volume   286.52356849
_cell_formula_units_Z   1
loop_
 _symmetry_equiv_pos_site_id
 _symmetry_equiv_pos_as_xyz
  1  'x, y, z'
loop_
 _atom_site_type_symbol
 _atom_site_label
 _atom_site_symmetry_multiplicity
 _atom_site_fract_x
 _atom_site_fract_y
 _atom_site_fract_z
 _atom_site_occupancy
  Dy  Dy0  1  0.000000  0.669643  0.334319  1
  Dy  Dy1  1  0.500000  0.332058  0.667440  1
  Mn  Mn2  1  0.500000  0.780350  0.894806  1
  Mn  Mn3  1  0.500000  0.119904  0.221265  1
  Co  Co4  1  0.000000  0.568245  0.941189  1
  Co  Co5  1  0.000000  0.369732  0.430187  1
  Co  Co6  1  0.000000  0.057491  0.629977  1
  Co  Co7  1  0.500000  0.095460  0.878019  1
  Co  Co8  1  0.000000  0.883017  0.156260  1
  Co  Co9  1  0.000000  0.280385  0.121547  1
  Co  Co10  1  0.000000  0.842492  0.722738  1
  Co  Co11  1  0.500000  0.948290  0.383431  1
  Co  Co12  1  0.500000  0.432472  0.049574  1
  Co  Co13  1  0.500000  0.617117  0.566222  1
  As  As14  1  0.000000  0.003806  0.998262  1
  As  As15  1  0.500000  0.708361  0.116049  1
  As  As16  1  0.500000  0.412098  0.292527  1
  As  As17  1  0.500000  0.885107  0.595139  1
  As  As18  1  0.000000  0.584825  0.700704  1
  As  As19  1  0.000000  0.114018  0.414752  1
  As  As20  1  0.000000  0.295128  0.885592  1
