# generated using pymatgen
data_TbTh2(GeRh)3
_symmetry_space_group_name_H-M   'P 1'
_cell_length_a   7.27195899
_cell_length_b   7.27195851
_cell_length_c   3.94013600
_cell_angle_alpha   90.00000000
_cell_angle_beta   90.00000000
_cell_angle_gamma   119.65607750
_symmetry_Int_Tables_number   1
_chemical_formula_structural   TbTh2(GeRh)3
_chemical_formula_sum   'Tb1 Th2 Ge3 Rh3'
_cell_volume   181.06701259
_cell_formula_units_Z   1
loop_
 _symmetry_equiv_pos_site_id
 _symmetry_equiv_pos_as_xyz
  1  'x, y, z'
loop_
 _atom_site_type_symbol
 _atom_site_label
 _atom_site_symmetry_multiplicity
 _atom_site_fract_x
 _atom_site_fract_y
 _atom_site_fract_z
 _atom_site_occupancy
  Tb  Tb0  1  0.594204  0.594204  0.500000  1
  Th  Th1  1  0.411848  0.999832  0.500000  1
  Th  Th2  1  0.999832  0.411848  0.500000  1
  Ge  Ge3  1  0.749297  0.989513  0.000000  1
  Ge  Ge4  1  0.989513  0.749297  0.000000  1
  Ge  Ge5  1  0.259184  0.259184  0.000000  1
  Rh  Rh6  1  0.324345  0.667153  0.000000  1
  Rh  Rh7  1  0.667153  0.324345  0.000000  1
  Rh  Rh8  1  0.004622  0.004622  0.500000  1
