# generated using pymatgen
data_Dy12Si12Tc3Ru
_symmetry_space_group_name_H-M   'P 1'
_cell_length_a   4.16645700
_cell_length_b   10.87325122
_cell_length_c   12.49724286
_cell_angle_alpha   89.93607281
_cell_angle_beta   90.00000000
_cell_angle_gamma   90.00000000
_symmetry_Int_Tables_number   1
_chemical_formula_structural   Dy12Si12Tc3Ru
_chemical_formula_sum   'Dy12 Si12 Tc3 Ru1'
_cell_volume   566.16141214
_cell_formula_units_Z   1
loop_
 _symmetry_equiv_pos_site_id
 _symmetry_equiv_pos_as_xyz
  1  'x, y, z'
loop_
 _atom_site_type_symbol
 _atom_site_label
 _atom_site_symmetry_multiplicity
 _atom_site_fract_x
 _atom_site_fract_y
 _atom_site_fract_z
 _atom_site_occupancy
  Dy  Dy0  1  0.250000  0.880030  0.021336  1
  Dy  Dy1  1  0.250000  0.621183  0.522392  1
  Dy  Dy2  1  0.750000  0.119626  0.979092  1
  Dy  Dy3  1  0.750000  0.379761  0.478979  1
  Dy  Dy4  1  0.250000  0.922733  0.605399  1
  Dy  Dy5  1  0.250000  0.577382  0.104194  1
  Dy  Dy6  1  0.750000  0.077453  0.394787  1
  Dy  Dy7  1  0.750000  0.422195  0.894040  1
  Dy  Dy8  1  0.250000  0.667508  0.800324  1
  Dy  Dy9  1  0.250000  0.834007  0.299928  1
  Dy  Dy10  1  0.750000  0.334401  0.200072  1
  Dy  Dy11  1  0.750000  0.162225  0.699643  1
  Si  Si12  1  0.250000  0.010239  0.821484  1
  Si  Si13  1  0.250000  0.490475  0.321187  1
  Si  Si14  1  0.750000  0.989181  0.178755  1
  Si  Si15  1  0.750000  0.511760  0.678984  1
  Si  Si16  1  0.250000  0.249217  0.843536  1
  Si  Si17  1  0.250000  0.249082  0.344233  1
  Si  Si18  1  0.750000  0.749218  0.155419  1
  Si  Si19  1  0.750000  0.751446  0.656821  1
  Si  Si20  1  0.250000  0.199665  0.541224  1
  Si  Si21  1  0.250000  0.299154  0.040926  1
  Si  Si22  1  0.750000  0.800900  0.459184  1
  Si  Si23  1  0.750000  0.700978  0.958393  1
  Tc  Tc24  1  0.250000  0.388558  0.681122  1
  Tc  Tc25  1  0.250000  0.111980  0.180364  1
  Tc  Tc26  1  0.750000  0.613128  0.319066  1
  Ru  Ru27  1  0.750000  0.886514  0.819117  1
