# generated using pymatgen
data_Rb3Re2Br10N
_symmetry_space_group_name_H-M   'P 1'
_cell_length_a   7.56394700
_cell_length_b   7.56394700
_cell_length_c   19.51227200
_cell_angle_alpha   90.00000000
_cell_angle_beta   90.00000000
_cell_angle_gamma   90.00000000
_symmetry_Int_Tables_number   1
_chemical_formula_structural   Rb3Re2Br10N
_chemical_formula_sum   'Rb6 Re4 Br20 N2'
_cell_volume   1116.36135881
_cell_formula_units_Z   2
loop_
 _symmetry_equiv_pos_site_id
 _symmetry_equiv_pos_as_xyz
  1  'x, y, z'
loop_
 _atom_site_type_symbol
 _atom_site_label
 _atom_site_symmetry_multiplicity
 _atom_site_fract_x
 _atom_site_fract_y
 _atom_site_fract_z
 _atom_site_occupancy
  Rb  Rb0  1  0.500000  0.500000  0.000000  1
  Rb  Rb1  1  0.000000  0.000000  0.500000  1
  Rb  Rb2  1  0.000000  0.500000  0.250000  1
  Rb  Rb3  1  0.500000  0.000000  0.750000  1
  Rb  Rb4  1  0.500000  0.000000  0.250000  1
  Rb  Rb5  1  0.000000  0.500000  0.750000  1
  Re  Re6  1  0.500000  0.500000  0.406640  1
  Re  Re7  1  0.000000  0.000000  0.906640  1
  Re  Re8  1  0.500000  0.500000  0.593360  1
  Re  Re9  1  0.000000  0.000000  0.093360  1
  Br  Br10  1  0.779127  0.680998  0.397297  1
  Br  Br11  1  0.220873  0.319002  0.397297  1
  Br  Br12  1  0.720873  0.180998  0.897297  1
  Br  Br13  1  0.279127  0.819002  0.897297  1
  Br  Br14  1  0.680998  0.220873  0.397297  1
  Br  Br15  1  0.319002  0.779127  0.397297  1
  Br  Br16  1  0.180998  0.279127  0.897297  1
  Br  Br17  1  0.819002  0.720873  0.897297  1
  Br  Br18  1  0.220873  0.319002  0.602703  1
  Br  Br19  1  0.779127  0.680998  0.602703  1
  Br  Br20  1  0.279127  0.819002  0.102703  1
  Br  Br21  1  0.720873  0.180998  0.102703  1
  Br  Br22  1  0.319002  0.779127  0.602703  1
  Br  Br23  1  0.680998  0.220873  0.602703  1
  Br  Br24  1  0.819002  0.720873  0.102703  1
  Br  Br25  1  0.180998  0.279127  0.102703  1
  Br  Br26  1  0.500000  0.500000  0.268070  1
  Br  Br27  1  0.000000  0.000000  0.768070  1
  Br  Br28  1  0.500000  0.500000  0.731930  1
  Br  Br29  1  0.000000  0.000000  0.231930  1
  N  N30  1  0.500000  0.500000  0.500000  1
  N  N31  1  0.000000  0.000000  0.000000  1
