# generated using pymatgen
data_NbReSe3S
_symmetry_space_group_name_H-M   'P 1'
_cell_length_a   3.32862600
_cell_length_b   5.74727629
_cell_length_c   7.40396100
_cell_angle_alpha   74.42725631
_cell_angle_beta   90.00000000
_cell_angle_gamma   90.00000000
_symmetry_Int_Tables_number   1
_chemical_formula_structural   NbReSe3S
_chemical_formula_sum   'Nb1 Re1 Se3 S1'
_cell_volume   136.44210952
_cell_formula_units_Z   1
loop_
 _symmetry_equiv_pos_site_id
 _symmetry_equiv_pos_as_xyz
  1  'x, y, z'
loop_
 _atom_site_type_symbol
 _atom_site_label
 _atom_site_symmetry_multiplicity
 _atom_site_fract_x
 _atom_site_fract_y
 _atom_site_fract_z
 _atom_site_occupancy
  Nb  Nb0  1  0.500000  0.493066  0.005441  1
  Re  Re1  1  0.000000  0.005726  0.004333  1
  Se  Se2  1  0.000000  0.409218  0.760040  1
  Se  Se3  1  0.500000  0.917592  0.772621  1
  Se  Se4  1  0.500000  0.759059  0.238315  1
  S  S5  1  0.000000  0.247334  0.223252  1
