# generated using pymatgen
data_Ho12Fe2Br17
_symmetry_space_group_name_H-M   'P 1'
_cell_length_a   9.17332021
_cell_length_b   11.04332217
_cell_length_c   11.09871384
_cell_angle_alpha   93.42451620
_cell_angle_beta   104.67252802
_cell_angle_gamma   113.82554910
_symmetry_Int_Tables_number   1
_chemical_formula_structural   Ho12Fe2Br17
_chemical_formula_sum   'Ho12 Fe2 Br17'
_cell_volume   978.16062047
_cell_formula_units_Z   1
loop_
 _symmetry_equiv_pos_site_id
 _symmetry_equiv_pos_as_xyz
  1  'x, y, z'
loop_
 _atom_site_type_symbol
 _atom_site_label
 _atom_site_symmetry_multiplicity
 _atom_site_fract_x
 _atom_site_fract_y
 _atom_site_fract_z
 _atom_site_occupancy
  Ho  Ho0  1  0.056762  0.510353  0.319351  1
  Ho  Ho1  1  0.984736  0.809599  0.580525  1
  Ho  Ho2  1  0.646480  0.238972  0.285621  1
  Ho  Ho3  1  0.015264  0.190401  0.419475  1
  Ho  Ho4  1  0.226820  0.672250  0.989839  1
  Ho  Ho5  1  0.255019  0.986752  0.888142  1
  Ho  Ho6  1  0.353520  0.761028  0.714379  1
  Ho  Ho7  1  0.943238  0.489647  0.680649  1
  Ho  Ho8  1  0.744981  0.013248  0.111858  1
  Ho  Ho9  1  0.152517  0.288093  0.151271  1
  Ho  Ho10  1  0.773180  0.327750  0.010161  1
  Ho  Ho11  1  0.847483  0.711907  0.848729  1
  Fe  Fe12  1  0.103609  0.738876  0.785570  1
  Fe  Fe13  1  0.896391  0.261124  0.214430  1
  Br  Br14  1  0.792304  0.525794  0.422000  1
  Br  Br15  1  0.649202  0.422990  0.763675  1
  Br  Br16  1  0.849885  0.901586  0.330798  1
  Br  Br17  1  0.326932  0.214017  0.363584  1
  Br  Br18  1  0.150115  0.098414  0.669202  1
  Br  Br19  1  0.583093  0.051692  0.849806  1
  Br  Br20  1  0.764296  0.192251  0.537696  1
  Br  Br21  1  0.551036  0.712670  0.951735  1
  Br  Br22  1  0.350798  0.577010  0.236325  1
  Br  Br23  1  0.207696  0.474206  0.578000  1
  Br  Br24  1  0.055495  0.372920  0.901962  1
  Br  Br25  1  0.448964  0.287330  0.048265  1
  Br  Br26  1  0.000000  0.000000  0.000000  1
  Br  Br27  1  0.235704  0.807749  0.462304  1
  Br  Br28  1  0.416907  0.948308  0.150194  1
  Br  Br29  1  0.673068  0.785983  0.636416  1
  Br  Br30  1  0.944505  0.627080  0.098038  1
