# generated using pymatgen
data_Eu3MnAgRu3O14
_symmetry_space_group_name_H-M   'P 1'
_cell_length_a   7.41228885
_cell_length_b   7.21507940
_cell_length_c   7.40905787
_cell_angle_alpha   59.14287622
_cell_angle_beta   60.12776051
_cell_angle_gamma   59.16239029
_symmetry_Int_Tables_number   1
_chemical_formula_structural   Eu3MnAgRu3O14
_chemical_formula_sum   'Eu3 Mn1 Ag1 Ru3 O14'
_cell_volume   276.79932622
_cell_formula_units_Z   1
loop_
 _symmetry_equiv_pos_site_id
 _symmetry_equiv_pos_as_xyz
  1  'x, y, z'
loop_
 _atom_site_type_symbol
 _atom_site_label
 _atom_site_symmetry_multiplicity
 _atom_site_fract_x
 _atom_site_fract_y
 _atom_site_fract_z
 _atom_site_occupancy
  Eu  Eu0  1  0.624994  0.624979  0.125018  1
  Eu  Eu1  1  0.624989  0.624989  0.624996  1
  Eu  Eu2  1  0.125013  0.624972  0.624994  1
  Mn  Mn3  1  0.124984  0.625054  0.124974  1
  Ag  Ag4  1  0.625053  0.124923  0.625034  1
  Ru  Ru5  1  0.124995  0.125024  0.124999  1
  Ru  Ru6  1  0.624993  0.125022  0.124999  1
  Ru  Ru7  1  0.124997  0.125024  0.624991  1
  O  O8  1  0.440819  0.056509  0.061869  1
  O  O9  1  0.797661  0.794487  0.204276  1
  O  O10  1  0.444054  0.057650  0.443931  1
  O  O11  1  0.204373  0.794407  0.797405  1
  O  O12  1  0.061036  0.056926  0.441005  1
  O  O13  1  0.045353  0.458940  0.045258  1
  O  O14  1  0.045613  0.455628  0.452553  1
  O  O15  1  0.746652  0.760408  0.746748  1
  O  O16  1  0.809179  0.193510  0.188130  1
  O  O17  1  0.204643  0.791092  0.204744  1
  O  O18  1  0.503392  0.489426  0.503307  1
  O  O19  1  0.452317  0.455559  0.045701  1
  O  O20  1  0.805939  0.192399  0.806061  1
  O  O21  1  0.188951  0.193071  0.809009  1
