# generated using pymatgen
data_Tb4Y2PdI10
_symmetry_space_group_name_H-M   'P 1'
_cell_length_a   7.74362548
_cell_length_b   9.75721594
_cell_length_c   9.82502697
_cell_angle_alpha   106.98786276
_cell_angle_beta   96.96016376
_cell_angle_gamma   104.42137458
_symmetry_Int_Tables_number   1
_chemical_formula_structural   Tb4Y2PdI10
_chemical_formula_sum   'Tb4 Y2 Pd1 I10'
_cell_volume   672.33852789
_cell_formula_units_Z   1
loop_
 _symmetry_equiv_pos_site_id
 _symmetry_equiv_pos_as_xyz
  1  'x, y, z'
loop_
 _atom_site_type_symbol
 _atom_site_label
 _atom_site_symmetry_multiplicity
 _atom_site_fract_x
 _atom_site_fract_y
 _atom_site_fract_z
 _atom_site_occupancy
  Tb  Tb0  1  0.116066  0.042186  0.759000  1
  Tb  Tb1  1  0.883934  0.957814  0.241000  1
  Tb  Tb2  1  0.968047  0.286685  0.085500  1
  Tb  Tb3  1  0.031953  0.713315  0.914500  1
  Y  Y4  1  0.350110  0.125649  0.166628  1
  Y  Y5  1  0.649890  0.874351  0.833372  1
  Pd  Pd6  1  0.000000  0.000000  0.000000  1
  I  I7  1  0.351545  0.450292  0.272530  1
  I  I8  1  0.648455  0.549708  0.727470  1
  I  I9  1  0.258346  0.087473  0.462718  1
  I  I10  1  0.741654  0.912527  0.537282  1
  I  I11  1  0.085815  0.373197  0.820646  1
  I  I12  1  0.914185  0.626803  0.179354  1
  I  I13  1  0.454360  0.817002  0.091748  1
  I  I14  1  0.545640  0.182998  0.908252  1
  I  I15  1  0.776435  0.256300  0.345368  1
  I  I16  1  0.223565  0.743700  0.654632  1
