# generated using pymatgen
data_NdEr3(Lu4Bi3)4
_symmetry_space_group_name_H-M   'P 1'
_cell_length_a   8.17550402
_cell_length_b   9.40573300
_cell_length_c   11.87795946
_cell_angle_alpha   90.00000000
_cell_angle_beta   89.94299172
_cell_angle_gamma   90.00000000
_symmetry_Int_Tables_number   1
_chemical_formula_structural   NdEr3(Lu4Bi3)4
_chemical_formula_sum   'Nd1 Er3 Lu16 Bi12'
_cell_volume   913.37433959
_cell_formula_units_Z   1
loop_
 _symmetry_equiv_pos_site_id
 _symmetry_equiv_pos_as_xyz
  1  'x, y, z'
loop_
 _atom_site_type_symbol
 _atom_site_label
 _atom_site_symmetry_multiplicity
 _atom_site_fract_x
 _atom_site_fract_y
 _atom_site_fract_z
 _atom_site_occupancy
  Nd  Nd0  1  0.314220  0.250000  0.218272  1
  Er  Er1  1  0.813534  0.250000  0.282917  1
  Er  Er2  1  0.686992  0.750000  0.783479  1
  Er  Er3  1  0.187103  0.750000  0.716734  1
  Lu  Lu4  1  0.352362  0.750000  0.218357  1
  Lu  Lu5  1  0.851970  0.750000  0.282077  1
  Lu  Lu6  1  0.647986  0.250000  0.780876  1
  Lu  Lu7  1  0.147175  0.250000  0.718503  1
  Lu  Lu8  1  0.691143  0.567673  0.059583  1
  Lu  Lu9  1  0.191912  0.932436  0.440622  1
  Lu  Lu10  1  0.308683  0.067419  0.939916  1
  Lu  Lu11  1  0.807696  0.432647  0.559900  1
  Lu  Lu12  1  0.308683  0.432581  0.939916  1
  Lu  Lu13  1  0.807696  0.067353  0.559900  1
  Lu  Lu14  1  0.691143  0.932327  0.059583  1
  Lu  Lu15  1  0.191912  0.567564  0.440622  1
  Lu  Lu16  1  0.477803  0.250000  0.489595  1
  Lu  Lu17  1  0.978036  0.250000  0.010038  1
  Lu  Lu18  1  0.522486  0.750000  0.511052  1
  Lu  Lu19  1  0.021772  0.750000  0.988653  1
  Bi  Bi20  1  0.401456  0.750000  0.958368  1
  Bi  Bi21  1  0.902243  0.750000  0.541848  1
  Bi  Bi22  1  0.601825  0.250000  0.038489  1
  Bi  Bi23  1  0.095321  0.250000  0.460408  1
  Bi  Bi24  1  0.569026  0.992841  0.326999  1
  Bi  Bi25  1  0.061493  0.507416  0.173950  1
  Bi  Bi26  1  0.434145  0.495116  0.674334  1
  Bi  Bi27  1  0.934761  0.004463  0.824862  1
  Bi  Bi28  1  0.434145  0.004884  0.674334  1
  Bi  Bi29  1  0.934761  0.495537  0.824862  1
  Bi  Bi30  1  0.569026  0.507159  0.326999  1
  Bi  Bi31  1  0.061493  0.992584  0.173950  1
