# generated using pymatgen
data_Sr(FeCl4)2
_symmetry_space_group_name_H-M   'P 1'
_cell_length_a   7.16845100
_cell_length_b   7.54168715
_cell_length_c   13.14134259
_cell_angle_alpha   85.58030082
_cell_angle_beta   90.00000000
_cell_angle_gamma   90.00000000
_symmetry_Int_Tables_number   1
_chemical_formula_structural   Sr(FeCl4)2
_chemical_formula_sum   'Sr2 Fe4 Cl16'
_cell_volume   708.33743237
_cell_formula_units_Z   2
loop_
 _symmetry_equiv_pos_site_id
 _symmetry_equiv_pos_as_xyz
  1  'x, y, z'
loop_
 _atom_site_type_symbol
 _atom_site_label
 _atom_site_symmetry_multiplicity
 _atom_site_fract_x
 _atom_site_fract_y
 _atom_site_fract_z
 _atom_site_occupancy
  Sr  Sr0  1  0.841457  0.500000  0.750000  1
  Sr  Sr1  1  0.158543  0.500000  0.250000  1
  Fe  Fe2  1  0.261736  0.325043  0.919193  1
  Fe  Fe3  1  0.738264  0.674957  0.080807  1
  Fe  Fe4  1  0.261736  0.674957  0.580807  1
  Fe  Fe5  1  0.738264  0.325043  0.419193  1
  Cl  Cl6  1  0.304830  0.267959  0.085515  1
  Cl  Cl7  1  0.175924  0.603749  0.881569  1
  Cl  Cl8  1  0.026269  0.171086  0.861424  1
  Cl  Cl9  1  0.824076  0.603749  0.381569  1
  Cl  Cl10  1  0.525930  0.738526  0.657643  1
  Cl  Cl11  1  0.474070  0.738526  0.157643  1
  Cl  Cl12  1  0.695170  0.267959  0.585515  1
  Cl  Cl13  1  0.304830  0.732041  0.414485  1
  Cl  Cl14  1  0.525930  0.261474  0.842357  1
  Cl  Cl15  1  0.474070  0.261474  0.342357  1
  Cl  Cl16  1  0.175924  0.396251  0.618431  1
  Cl  Cl17  1  0.824076  0.396251  0.118431  1
  Cl  Cl18  1  0.695170  0.732041  0.914485  1
  Cl  Cl19  1  0.973731  0.828914  0.138576  1
  Cl  Cl20  1  0.973731  0.171086  0.361424  1
  Cl  Cl21  1  0.026269  0.828914  0.638576  1
