# generated using pymatgen
data_Ho3In3GePd2
_symmetry_space_group_name_H-M   'P 1'
_cell_length_a   7.49812200
_cell_length_b   7.49812239
_cell_length_c   4.10399100
_cell_angle_alpha   90.00000000
_cell_angle_beta   90.00000000
_cell_angle_gamma   119.99999948
_symmetry_Int_Tables_number   1
_chemical_formula_structural   Ho3In3GePd2
_chemical_formula_sum   'Ho3 In3 Ge1 Pd2'
_cell_volume   199.82142918
_cell_formula_units_Z   1
loop_
 _symmetry_equiv_pos_site_id
 _symmetry_equiv_pos_as_xyz
  1  'x, y, z'
loop_
 _atom_site_type_symbol
 _atom_site_label
 _atom_site_symmetry_multiplicity
 _atom_site_fract_x
 _atom_site_fract_y
 _atom_site_fract_z
 _atom_site_occupancy
  Ho  Ho0  1  0.994550  0.587581  0.000000  1
  Ho  Ho1  1  0.412419  0.406969  0.000000  1
  Ho  Ho2  1  0.593031  0.005450  0.000000  1
  In  In3  1  0.751150  0.741152  0.500000  1
  In  In4  1  0.990002  0.248850  0.500000  1
  In  In5  1  0.258848  0.009998  0.500000  1
  Ge  Ge6  1  0.333333  0.666667  0.500000  1
  Pd  Pd7  1  0.000000  0.000000  0.000000  1
  Pd  Pd8  1  0.666667  0.333333  0.500000  1
