# generated using pymatgen
data_Dy3Tm(ZrGa5)2
_symmetry_space_group_name_H-M   'P 1'
_cell_length_a   5.96925001
_cell_length_b   9.44843202
_cell_length_c   11.35682500
_cell_angle_alpha   90.00000000
_cell_angle_beta   90.00000000
_cell_angle_gamma   89.99313755
_symmetry_Int_Tables_number   1
_chemical_formula_structural   Dy3Tm(ZrGa5)2
_chemical_formula_sum   'Dy6 Tm2 Zr4 Ga20'
_cell_volume   640.52552639
_cell_formula_units_Z   2
loop_
 _symmetry_equiv_pos_site_id
 _symmetry_equiv_pos_as_xyz
  1  'x, y, z'
loop_
 _atom_site_type_symbol
 _atom_site_label
 _atom_site_symmetry_multiplicity
 _atom_site_fract_x
 _atom_site_fract_y
 _atom_site_fract_z
 _atom_site_occupancy
  Dy  Dy0  1  0.886757  0.506993  0.352675  1
  Dy  Dy1  1  0.613243  0.993007  0.852675  1
  Dy  Dy2  1  0.113088  0.006967  0.646955  1
  Dy  Dy3  1  0.386912  0.493033  0.146955  1
  Dy  Dy4  1  0.113053  0.492988  0.647501  1
  Dy  Dy5  1  0.386947  0.007012  0.147501  1
  Tm  Tm6  1  0.886934  0.993027  0.352786  1
  Tm  Tm7  1  0.613066  0.506973  0.852786  1
  Zr  Zr8  1  0.857794  0.749958  0.074420  1
  Zr  Zr9  1  0.642206  0.750042  0.574420  1
  Zr  Zr10  1  0.142508  0.249978  0.925524  1
  Zr  Zr11  1  0.357492  0.250022  0.425524  1
  Ga  Ga12  1  0.875386  0.052960  0.089659  1
  Ga  Ga13  1  0.624614  0.447040  0.589659  1
  Ga  Ga14  1  0.124862  0.552898  0.910615  1
  Ga  Ga15  1  0.375138  0.947102  0.410615  1
  Ga  Ga16  1  0.124653  0.946902  0.910716  1
  Ga  Ga17  1  0.375347  0.553098  0.410716  1
  Ga  Ga18  1  0.875316  0.447023  0.089073  1
  Ga  Ga19  1  0.624684  0.052977  0.589073  1
  Ga  Ga20  1  0.161843  0.750337  0.254273  1
  Ga  Ga21  1  0.338157  0.749663  0.754273  1
  Ga  Ga22  1  0.837541  0.250368  0.746000  1
  Ga  Ga23  1  0.662459  0.249632  0.246000  1
  Ga  Ga24  1  0.389281  0.749819  0.002614  1
  Ga  Ga25  1  0.110719  0.750181  0.502614  1
  Ga  Ga26  1  0.610909  0.250458  0.996957  1
  Ga  Ga27  1  0.889091  0.249542  0.496957  1
  Ga  Ga28  1  0.607559  0.750474  0.294083  1
  Ga  Ga29  1  0.892441  0.749526  0.794083  1
  Ga  Ga30  1  0.393083  0.250128  0.706149  1
  Ga  Ga31  1  0.106917  0.249872  0.206149  1
