# generated using pymatgen
data_Ho3Hg2Pb5
_symmetry_space_group_name_H-M   'P 1'
_cell_length_a   12.33046906
_cell_length_b   12.33047048
_cell_length_c   4.60643300
_cell_angle_alpha   90.00000000
_cell_angle_beta   90.00000000
_cell_angle_gamma   157.00205823
_symmetry_Int_Tables_number   1
_chemical_formula_structural   Ho3Hg2Pb5
_chemical_formula_sum   'Ho3 Hg2 Pb5'
_cell_volume   273.63097655
_cell_formula_units_Z   1
loop_
 _symmetry_equiv_pos_site_id
 _symmetry_equiv_pos_as_xyz
  1  'x, y, z'
loop_
 _atom_site_type_symbol
 _atom_site_label
 _atom_site_symmetry_multiplicity
 _atom_site_fract_x
 _atom_site_fract_y
 _atom_site_fract_z
 _atom_site_occupancy
  Ho  Ho0  1  0.000000  0.000000  0.000000  1
  Ho  Ho1  1  0.811721  0.188278  0.000000  1
  Ho  Ho2  1  0.188278  0.811721  0.000000  1
  Hg  Hg3  1  0.597596  0.402404  0.000000  1
  Hg  Hg4  1  0.402404  0.597596  0.000000  1
  Pb  Pb5  1  0.903279  0.096721  0.500000  1
  Pb  Pb6  1  0.704756  0.295244  0.500000  1
  Pb  Pb7  1  0.500000  0.500000  0.500000  1
  Pb  Pb8  1  0.295244  0.704756  0.500000  1
  Pb  Pb9  1  0.096721  0.903279  0.500000  1
