# generated using pymatgen
data_Hf3Ga3PdPt2
_symmetry_space_group_name_H-M   'P 1'
_cell_length_a   7.16399600
_cell_length_b   7.16399604
_cell_length_c   7.07813900
_cell_angle_alpha   90.00000000
_cell_angle_beta   90.00000000
_cell_angle_gamma   120.00000904
_symmetry_Int_Tables_number   1
_chemical_formula_structural   Hf3Ga3PdPt2
_chemical_formula_sum   'Hf6 Ga6 Pd2 Pt4'
_cell_volume   314.60118280
_cell_formula_units_Z   2
loop_
 _symmetry_equiv_pos_site_id
 _symmetry_equiv_pos_as_xyz
  1  'x, y, z'
loop_
 _atom_site_type_symbol
 _atom_site_label
 _atom_site_symmetry_multiplicity
 _atom_site_fract_x
 _atom_site_fract_y
 _atom_site_fract_z
 _atom_site_occupancy
  Hf  Hf0  1  0.417140  0.387986  0.250000  1
  Hf  Hf1  1  0.582860  0.970846  0.750000  1
  Hf  Hf2  1  0.387986  0.417140  0.750000  1
  Hf  Hf3  1  0.029154  0.612014  0.750000  1
  Hf  Hf4  1  0.970846  0.582860  0.250000  1
  Hf  Hf5  1  0.612014  0.029154  0.250000  1
  Ga  Ga6  1  0.265899  0.000000  0.000000  1
  Ga  Ga7  1  0.265899  0.000000  0.500000  1
  Ga  Ga8  1  0.000000  0.265899  0.500000  1
  Ga  Ga9  1  0.000000  0.265899  0.000000  1
  Ga  Ga10  1  0.734101  0.734101  0.000000  1
  Ga  Ga11  1  0.734101  0.734101  0.500000  1
  Pd  Pd12  1  0.000000  0.000000  0.750000  1
  Pd  Pd13  1  0.000000  0.000000  0.250000  1
  Pt  Pt14  1  0.666667  0.333333  0.538148  1
  Pt  Pt15  1  0.666667  0.333333  0.961852  1
  Pt  Pt16  1  0.333333  0.666667  0.038148  1
  Pt  Pt17  1  0.333333  0.666667  0.461852  1
