# generated using pymatgen
data_La3Yb3(Co7C2)2
_symmetry_space_group_name_H-M   'P 1'
_cell_length_a   5.06504800
_cell_length_b   5.06504743
_cell_length_c   14.04487600
_cell_angle_alpha   90.00000000
_cell_angle_beta   90.00000000
_cell_angle_gamma   120.00001681
_symmetry_Int_Tables_number   1
_chemical_formula_structural   La3Yb3(Co7C2)2
_chemical_formula_sum   'La3 Yb3 Co14 C4'
_cell_volume   312.04379355
_cell_formula_units_Z   1
loop_
 _symmetry_equiv_pos_site_id
 _symmetry_equiv_pos_as_xyz
  1  'x, y, z'
loop_
 _atom_site_type_symbol
 _atom_site_label
 _atom_site_symmetry_multiplicity
 _atom_site_fract_x
 _atom_site_fract_y
 _atom_site_fract_z
 _atom_site_occupancy
  La  La0  1  0.666667  0.333333  0.542385  1
  La  La1  1  0.333333  0.666667  0.459199  1
  La  La2  1  0.333333  0.666667  0.035475  1
  Yb  Yb3  1  0.666667  0.333333  0.756185  1
  Yb  Yb4  1  0.666667  0.333333  0.962076  1
  Yb  Yb5  1  0.333333  0.666667  0.247366  1
  Co  Co6  1  0.163988  0.327975  0.660325  1
  Co  Co7  1  0.327944  0.163972  0.339911  1
  Co  Co8  1  0.327979  0.163990  0.156483  1
  Co  Co9  1  0.163038  0.836962  0.843140  1
  Co  Co10  1  0.836028  0.672056  0.339911  1
  Co  Co11  1  0.836010  0.163990  0.156483  1
  Co  Co12  1  0.672025  0.836012  0.660325  1
  Co  Co13  1  0.673925  0.836962  0.843140  1
  Co  Co14  1  0.163988  0.836012  0.660325  1
  Co  Co15  1  0.836010  0.672021  0.156483  1
  Co  Co16  1  0.000000  0.000000  0.997633  1
  Co  Co17  1  0.163038  0.326075  0.843140  1
  Co  Co18  1  0.836028  0.163972  0.339911  1
  Co  Co19  1  0.000000  0.000000  0.500350  1
  C  C20  1  0.666667  0.333333  0.248287  1
  C  C21  1  0.000000  0.000000  0.751270  1
  C  C22  1  0.333333  0.666667  0.752048  1
  C  C23  1  0.000000  0.000000  0.248151  1
