# generated using pymatgen
data_Dy5Ho3Ti11Si16Ir
_symmetry_space_group_name_H-M   'P 1'
_cell_length_a   7.03122163
_cell_length_b   7.03063445
_cell_length_c   12.87234581
_cell_angle_alpha   90.13126455
_cell_angle_beta   89.86582355
_cell_angle_gamma   89.87522223
_symmetry_Int_Tables_number   1
_chemical_formula_structural   Dy5Ho3Ti11Si16Ir
_chemical_formula_sum   'Dy5 Ho3 Ti11 Si16 Ir1'
_cell_volume   636.32595519
_cell_formula_units_Z   1
loop_
 _symmetry_equiv_pos_site_id
 _symmetry_equiv_pos_as_xyz
  1  'x, y, z'
loop_
 _atom_site_type_symbol
 _atom_site_label
 _atom_site_symmetry_multiplicity
 _atom_site_fract_x
 _atom_site_fract_y
 _atom_site_fract_z
 _atom_site_occupancy
  Dy  Dy0  1  0.340519  0.004321  0.467397  1
  Dy  Dy1  1  0.496461  0.841609  0.718125  1
  Dy  Dy2  1  0.501105  0.158515  0.215031  1
  Dy  Dy3  1  0.841672  0.496393  0.281936  1
  Dy  Dy4  1  0.158472  0.501063  0.784950  1
  Ho  Ho5  1  0.657792  0.998053  0.968540  1
  Ho  Ho6  1  0.003959  0.340785  0.532671  1
  Ho  Ho7  1  0.998000  0.657741  0.031376  1
  Ti  Ti8  1  0.175452  0.827055  0.248070  1
  Ti  Ti9  1  0.827081  0.175520  0.751908  1
  Ti  Ti10  1  0.673761  0.673570  0.499998  1
  Ti  Ti11  1  0.149275  0.002360  0.875789  1
  Ti  Ti12  1  0.493921  0.656556  0.124600  1
  Ti  Ti13  1  0.506620  0.349458  0.627989  1
  Ti  Ti14  1  0.656597  0.493896  0.875378  1
  Ti  Ti15  1  0.349430  0.506569  0.372036  1
  Ti  Ti16  1  0.848935  0.994076  0.374939  1
  Ti  Ti17  1  0.002304  0.149331  0.124217  1
  Ti  Ti18  1  0.994011  0.848973  0.625081  1
  Si  Si19  1  0.202230  0.132946  0.685251  1
  Si  Si20  1  0.372263  0.701921  0.933645  1
  Si  Si21  1  0.631470  0.295817  0.434327  1
  Si  Si22  1  0.701962  0.372233  0.066326  1
  Si  Si23  1  0.295586  0.630962  0.565702  1
  Si  Si24  1  0.796523  0.867873  0.183625  1
  Si  Si25  1  0.132711  0.202507  0.314697  1
  Si  Si26  1  0.867841  0.796513  0.816394  1
  Si  Si27  1  0.286474  0.951820  0.063909  1
  Si  Si28  1  0.547325  0.791880  0.315602  1
  Si  Si29  1  0.449784  0.209869  0.818420  1
  Si  Si30  1  0.792069  0.547069  0.684304  1
  Si  Si31  1  0.209824  0.449708  0.181593  1
  Si  Si32  1  0.708981  0.048489  0.565706  1
  Si  Si33  1  0.951749  0.286484  0.936097  1
  Si  Si34  1  0.048240  0.708480  0.434375  1
  Ir  Ir35  1  0.329600  0.329585  0.999996  1
