# generated using pymatgen
data_Sr2Eu2Al18CuIr5
_symmetry_space_group_name_H-M   'P 1'
_cell_length_a   7.63740370
_cell_length_b   7.63094579
_cell_length_c   9.78103413
_cell_angle_alpha   90.04996737
_cell_angle_beta   90.07335945
_cell_angle_gamma   119.21852132
_symmetry_Int_Tables_number   1
_chemical_formula_structural   Sr2Eu2Al18CuIr5
_chemical_formula_sum   'Sr2 Eu2 Al18 Cu1 Ir5'
_cell_volume   497.51351371
_cell_formula_units_Z   1
loop_
 _symmetry_equiv_pos_site_id
 _symmetry_equiv_pos_as_xyz
  1  'x, y, z'
loop_
 _atom_site_type_symbol
 _atom_site_label
 _atom_site_symmetry_multiplicity
 _atom_site_fract_x
 _atom_site_fract_y
 _atom_site_fract_z
 _atom_site_occupancy
  Sr  Sr0  1  0.672185  0.994444  0.249991  1
  Sr  Sr1  1  0.327815  0.005556  0.750009  1
  Eu  Eu2  1  0.995149  0.672675  0.249546  1
  Eu  Eu3  1  0.004851  0.327325  0.750454  1
  Al  Al4  1  0.136537  0.133379  0.252905  1
  Al  Al5  1  0.863463  0.866621  0.747095  1
  Al  Al6  1  0.004325  0.340636  0.071092  1
  Al  Al7  1  0.995675  0.659364  0.928908  1
  Al  Al8  1  0.997268  0.663142  0.567693  1
  Al  Al9  1  0.334308  0.001296  0.430625  1
  Al  Al10  1  0.002732  0.336858  0.432307  1
  Al  Al11  1  0.665692  0.998704  0.569375  1
  Al  Al12  1  0.662476  0.997200  0.927329  1
  Al  Al13  1  0.337524  0.002800  0.072671  1
  Al  Al14  1  0.333802  0.334997  0.543492  1
  Al  Al15  1  0.666198  0.665003  0.456508  1
  Al  Al16  1  0.662103  0.660897  0.045980  1
  Al  Al17  1  0.337897  0.339103  0.954020  1
  Al  Al18  1  0.332770  0.543304  0.249630  1
  Al  Al19  1  0.667230  0.456696  0.750370  1
  Al  Al20  1  0.546819  0.341318  0.249914  1
  Al  Al21  1  0.453181  0.658682  0.750086  1
  Cu  Cu22  1  0.000000  0.000000  0.000000  1
  Ir  Ir23  1  0.670451  0.328848  0.000241  1
  Ir  Ir24  1  0.329549  0.671152  0.999759  1
  Ir  Ir25  1  0.330213  0.670119  0.499859  1
  Ir  Ir26  1  0.669787  0.329881  0.500141  1
  Ir  Ir27  1  0.000000  0.000000  0.500000  1
