# generated using pymatgen
data_Er3Tm2Be3P9Ir19
_symmetry_space_group_name_H-M   'P 1'
_cell_length_a   12.61018900
_cell_length_b   12.61018923
_cell_length_c   3.93910600
_cell_angle_alpha   90.00000000
_cell_angle_beta   90.00000000
_cell_angle_gamma   120.00000201
_symmetry_Int_Tables_number   1
_chemical_formula_structural   Er3Tm2Be3P9Ir19
_chemical_formula_sum   'Er3 Tm2 Be3 P9 Ir19'
_cell_volume   542.46470959
_cell_formula_units_Z   1
loop_
 _symmetry_equiv_pos_site_id
 _symmetry_equiv_pos_as_xyz
  1  'x, y, z'
loop_
 _atom_site_type_symbol
 _atom_site_label
 _atom_site_symmetry_multiplicity
 _atom_site_fract_x
 _atom_site_fract_y
 _atom_site_fract_z
 _atom_site_occupancy
  Er  Er0  1  0.815554  0.809112  0.500000  1
  Er  Er1  1  0.190888  0.006443  0.500000  1
  Er  Er2  1  0.993557  0.184446  0.500000  1
  Tm  Tm3  1  0.666667  0.333333  0.000000  1
  Tm  Tm4  1  0.333333  0.666667  0.000000  1
  Be  Be5  1  0.683096  0.162629  0.500000  1
  Be  Be6  1  0.837371  0.520467  0.500000  1
  Be  Be7  1  0.479533  0.316904  0.500000  1
  P  P8  1  0.178163  0.696355  0.500000  1
  P  P9  1  0.518193  0.821837  0.500000  1
  P  P10  1  0.303645  0.481807  0.500000  1
  P  P11  1  0.639913  0.627084  0.000000  1
  P  P12  1  0.372916  0.012827  0.000000  1
  P  P13  1  0.987173  0.360087  0.000000  1
  P  P14  1  0.178487  0.181152  0.000000  1
  P  P15  1  0.818848  0.997336  0.000000  1
  P  P16  1  0.002664  0.821513  0.000000  1
  Ir  Ir17  1  0.801797  0.175525  0.000000  1
  Ir  Ir18  1  0.824475  0.626272  0.000000  1
  Ir  Ir19  1  0.373728  0.198203  0.000000  1
  Ir  Ir20  1  0.190433  0.813149  0.000000  1
  Ir  Ir21  1  0.622716  0.809567  0.000000  1
  Ir  Ir22  1  0.186851  0.377284  0.000000  1
  Ir  Ir23  1  0.455109  0.446437  0.000000  1
  Ir  Ir24  1  0.553563  0.008672  0.000000  1
  Ir  Ir25  1  0.991328  0.544891  0.000000  1
  Ir  Ir26  1  0.280411  0.287653  0.500000  1
  Ir  Ir27  1  0.712347  0.992758  0.500000  1
  Ir  Ir28  1  0.007242  0.719589  0.500000  1
  Ir  Ir29  1  0.870469  0.354405  0.500000  1
  Ir  Ir30  1  0.645595  0.516065  0.500000  1
  Ir  Ir31  1  0.483935  0.129531  0.500000  1
  Ir  Ir32  1  0.369305  0.870301  0.500000  1
  Ir  Ir33  1  0.500998  0.630695  0.500000  1
  Ir  Ir34  1  0.129699  0.499002  0.500000  1
  Ir  Ir35  1  0.000000  0.000000  0.000000  1
