# generated using pymatgen
data_Ac8HoPd6
_symmetry_space_group_name_H-M   'P 1'
_cell_length_a   8.09347785
_cell_length_b   8.09347678
_cell_length_c   8.09347733
_cell_angle_alpha   72.39767396
_cell_angle_beta   72.39768283
_cell_angle_gamma   72.39767863
_symmetry_Int_Tables_number   1
_chemical_formula_structural   Ac8HoPd6
_chemical_formula_sum   'Ac8 Ho1 Pd6'
_cell_volume   468.51057288
_cell_formula_units_Z   1
loop_
 _symmetry_equiv_pos_site_id
 _symmetry_equiv_pos_as_xyz
  1  'x, y, z'
loop_
 _atom_site_type_symbol
 _atom_site_label
 _atom_site_symmetry_multiplicity
 _atom_site_fract_x
 _atom_site_fract_y
 _atom_site_fract_z
 _atom_site_occupancy
  Ac  Ac0  1  0.798552  0.798552  0.798552  1
  Ac  Ac1  1  0.201448  0.201448  0.201448  1
  Ac  Ac2  1  0.326485  0.620271  0.832852  1
  Ac  Ac3  1  0.832852  0.326485  0.620271  1
  Ac  Ac4  1  0.620270  0.832852  0.326485  1
  Ac  Ac5  1  0.673515  0.379729  0.167148  1
  Ac  Ac6  1  0.167148  0.673515  0.379729  1
  Ac  Ac7  1  0.379729  0.167148  0.673515  1
  Ho  Ho8  1  0.000000  0.000000  0.000000  1
  Pd  Pd9  1  0.147368  0.962455  0.602015  1
  Pd  Pd10  1  0.602015  0.147368  0.962455  1
  Pd  Pd11  1  0.962455  0.602015  0.147368  1
  Pd  Pd12  1  0.852632  0.037545  0.397985  1
  Pd  Pd13  1  0.397985  0.852632  0.037545  1
  Pd  Pd14  1  0.037545  0.397985  0.852632  1
