# generated using pymatgen
data_La2Lu4TaRuO14
_symmetry_space_group_name_H-M   'P 1'
_cell_length_a   6.42836676
_cell_length_b   6.42834949
_cell_length_c   7.52738503
_cell_angle_alpha   90.01662290
_cell_angle_beta   89.98295220
_cell_angle_gamma   109.00242376
_symmetry_Int_Tables_number   1
_chemical_formula_structural   La2Lu4TaRuO14
_chemical_formula_sum   'La2 Lu4 Ta1 Ru1 O14'
_cell_volume   294.10876588
_cell_formula_units_Z   1
loop_
 _symmetry_equiv_pos_site_id
 _symmetry_equiv_pos_as_xyz
  1  'x, y, z'
loop_
 _atom_site_type_symbol
 _atom_site_label
 _atom_site_symmetry_multiplicity
 _atom_site_fract_x
 _atom_site_fract_y
 _atom_site_fract_z
 _atom_site_occupancy
  La  La0  1  0.500000  0.500000  0.500000  1
  La  La1  1  0.500000  0.500000  0.000000  1
  Lu  Lu2  1  0.532537  0.001330  0.750141  1
  Lu  Lu3  1  0.001332  0.532543  0.249866  1
  Lu  Lu4  1  0.467463  0.998670  0.249859  1
  Lu  Lu5  1  0.998668  0.467457  0.750134  1
  Ta  Ta6  1  0.000000  0.000000  0.000000  1
  Ru  Ru7  1  0.000000  0.000000  0.500000  1
  O  O8  1  0.678995  0.934880  0.468584  1
  O  O9  1  0.934877  0.678988  0.531416  1
  O  O10  1  0.676960  0.934116  0.032648  1
  O  O11  1  0.934112  0.676959  0.967353  1
  O  O12  1  0.321005  0.065120  0.531416  1
  O  O13  1  0.065123  0.321012  0.468584  1
  O  O14  1  0.323040  0.065884  0.967352  1
  O  O15  1  0.065888  0.323041  0.032647  1
  O  O16  1  0.933632  0.066371  0.748597  1
  O  O17  1  0.066368  0.933629  0.251403  1
  O  O18  1  0.357896  0.642103  0.750398  1
  O  O19  1  0.642104  0.357897  0.249602  1
  O  O20  1  0.648354  0.351645  0.748978  1
  O  O21  1  0.351646  0.648355  0.251022  1
