# generated using pymatgen
data_Lu4(PbO4)3
_symmetry_space_group_name_H-M   'P 1'
_cell_length_a   6.39728257
_cell_length_b   6.44430092
_cell_length_c   6.63021820
_cell_angle_alpha   100.48730187
_cell_angle_beta   98.80019116
_cell_angle_gamma   99.36730782
_symmetry_Int_Tables_number   1
_chemical_formula_structural   Lu4(PbO4)3
_chemical_formula_sum   'Lu4 Pb3 O12'
_cell_volume   260.44733506
_cell_formula_units_Z   1
loop_
 _symmetry_equiv_pos_site_id
 _symmetry_equiv_pos_as_xyz
  1  'x, y, z'
loop_
 _atom_site_type_symbol
 _atom_site_label
 _atom_site_symmetry_multiplicity
 _atom_site_fract_x
 _atom_site_fract_y
 _atom_site_fract_z
 _atom_site_occupancy
  Lu  Lu0  1  0.397603  0.698999  0.862360  1
  Lu  Lu1  1  0.691337  0.868741  0.388716  1
  Lu  Lu2  1  0.602397  0.301001  0.137640  1
  Lu  Lu3  1  0.308663  0.131259  0.611284  1
  Pb  Pb4  1  0.000000  0.000000  0.000000  1
  Pb  Pb5  1  0.850276  0.396957  0.675424  1
  Pb  Pb6  1  0.149724  0.603043  0.324576  1
  O  O7  1  0.053607  0.675492  0.895018  1
  O  O8  1  0.678148  0.930341  0.064356  1
  O  O9  1  0.921263  0.070978  0.680055  1
  O  O10  1  0.946393  0.324508  0.104982  1
  O  O11  1  0.321852  0.069659  0.935644  1
  O  O12  1  0.078737  0.929022  0.319945  1
  O  O13  1  0.570067  0.181075  0.422581  1
  O  O14  1  0.181128  0.421739  0.581003  1
  O  O15  1  0.425238  0.585689  0.173362  1
  O  O16  1  0.429933  0.818925  0.577419  1
  O  O17  1  0.818872  0.578261  0.418997  1
  O  O18  1  0.574762  0.414311  0.826638  1
