# generated using pymatgen
data_Rb2Sn(TeO4)3
_symmetry_space_group_name_H-M   'P 1'
_cell_length_a   7.30134551
_cell_length_b   7.33556814
_cell_length_c   7.30169311
_cell_angle_alpha   89.99999890
_cell_angle_beta   60.31834771
_cell_angle_gamma   120.15517064
_symmetry_Int_Tables_number   1
_chemical_formula_structural   Rb2Sn(TeO4)3
_chemical_formula_sum   'Rb2 Sn1 Te3 O12'
_cell_volume   277.20780585
_cell_formula_units_Z   1
loop_
 _symmetry_equiv_pos_site_id
 _symmetry_equiv_pos_as_xyz
  1  'x, y, z'
loop_
 _atom_site_type_symbol
 _atom_site_label
 _atom_site_symmetry_multiplicity
 _atom_site_fract_x
 _atom_site_fract_y
 _atom_site_fract_z
 _atom_site_occupancy
  Rb  Rb0  1  0.257849  0.126301  0.628921  1
  Rb  Rb1  1  0.742151  0.868452  0.371079  1
  Sn  Sn2  1  0.000000  0.497485  0.000000  1
  Te  Te3  1  0.499937  0.497306  0.999993  1
  Te  Te4  1  0.500063  0.997369  0.000007  1
  Te  Te5  1  0.000000  0.497317  0.500000  1
  O  O6  1  0.641523  0.818093  0.924748  1
  O  O7  1  0.846494  0.420586  0.338572  1
  O  O8  1  0.261903  0.420576  0.923275  1
  O  O9  1  0.245530  0.818077  0.320725  1
  O  O10  1  0.261735  0.835840  0.923209  1
  O  O11  1  0.245516  0.422065  0.320773  1
  O  O12  1  0.358477  0.176569  0.075252  1
  O  O13  1  0.153506  0.574092  0.661428  1
  O  O14  1  0.738265  0.574104  0.076791  1
  O  O15  1  0.754484  0.176549  0.679227  1
  O  O16  1  0.738097  0.158673  0.076725  1
  O  O17  1  0.754470  0.572548  0.679275  1
