# generated using pymatgen
data_Tb6Y7Th3(CdIr)4
_symmetry_space_group_name_H-M   'P 1'
_cell_length_a   9.75286235
_cell_length_b   9.76170236
_cell_length_c   9.76410100
_cell_angle_alpha   59.99187474
_cell_angle_beta   59.96187684
_cell_angle_gamma   59.98813734
_symmetry_Int_Tables_number   1
_chemical_formula_structural   Tb6Y7Th3(CdIr)4
_chemical_formula_sum   'Tb6 Y7 Th3 Cd4 Ir4'
_cell_volume   657.02826791
_cell_formula_units_Z   1
loop_
 _symmetry_equiv_pos_site_id
 _symmetry_equiv_pos_as_xyz
  1  'x, y, z'
loop_
 _atom_site_type_symbol
 _atom_site_label
 _atom_site_symmetry_multiplicity
 _atom_site_fract_x
 _atom_site_fract_y
 _atom_site_fract_z
 _atom_site_occupancy
  Tb  Tb0  1  0.948486  0.351125  0.350195  1
  Tb  Tb1  1  0.811116  0.189229  0.189909  1
  Tb  Tb2  1  0.187949  0.811754  0.812105  1
  Tb  Tb3  1  0.187949  0.811754  0.188191  1
  Tb  Tb4  1  0.811116  0.189229  0.809746  1
  Tb  Tb5  1  0.188516  0.188334  0.811574  1
  Y  Y6  1  0.811112  0.809778  0.189555  1
  Y  Y7  1  0.937413  0.563380  0.563393  1
  Y  Y8  1  0.564259  0.936254  0.935182  1
  Y  Y9  1  0.564259  0.936254  0.564304  1
  Y  Y10  1  0.937413  0.563380  0.935813  1
  Y  Y11  1  0.564420  0.564400  0.935590  1
  Y  Y12  1  0.937189  0.936617  0.563097  1
  Th  Th13  1  0.347343  0.349440  0.349172  1
  Th  Th14  1  0.347343  0.349440  0.954046  1
  Th  Th15  1  0.348086  0.952900  0.349507  1
  Cd  Cd16  1  0.583455  0.581067  0.581428  1
  Cd  Cd17  1  0.583455  0.581067  0.254052  1
  Cd  Cd18  1  0.583205  0.253615  0.581591  1
  Cd  Cd19  1  0.251752  0.582264  0.582992  1
  Ir  Ir20  1  0.144700  0.141964  0.142365  1
  Ir  Ir21  1  0.144700  0.141964  0.570971  1
  Ir  Ir22  1  0.145280  0.571007  0.141857  1
  Ir  Ir23  1  0.569488  0.143783  0.143364  1
