# generated using pymatgen
data_Dy8OsRuI8
_symmetry_space_group_name_H-M   'P 1'
_cell_length_a   11.66642235
_cell_length_b   11.66642520
_cell_length_c   6.18559812
_cell_angle_alpha   90.04905454
_cell_angle_beta   90.04906028
_cell_angle_gamma   89.98321349
_symmetry_Int_Tables_number   1
_chemical_formula_structural   Dy8OsRuI8
_chemical_formula_sum   'Dy8 Os1 Ru1 I8'
_cell_volume   841.89292362
_cell_formula_units_Z   1
loop_
 _symmetry_equiv_pos_site_id
 _symmetry_equiv_pos_as_xyz
  1  'x, y, z'
loop_
 _atom_site_type_symbol
 _atom_site_label
 _atom_site_symmetry_multiplicity
 _atom_site_fract_x
 _atom_site_fract_y
 _atom_site_fract_z
 _atom_site_occupancy
  Dy  Dy0  1  0.808344  0.079088  0.000681  1
  Dy  Dy1  1  0.079071  0.808402  0.501379  1
  Dy  Dy2  1  0.078637  0.191548  0.000649  1
  Dy  Dy3  1  0.191552  0.078618  0.501367  1
  Dy  Dy4  1  0.921382  0.808448  0.998633  1
  Dy  Dy5  1  0.920912  0.191656  0.499319  1
  Dy  Dy6  1  0.191598  0.920929  0.998621  1
  Dy  Dy7  1  0.808452  0.921363  0.499351  1
  Os  Os8  1  0.999769  0.000231  0.750000  1
  Ru  Ru9  1  0.000210  0.999790  0.250000  1
  I  I10  1  0.654056  0.143494  0.488154  1
  I  I11  1  0.855515  0.655514  0.507170  1
  I  I12  1  0.344486  0.144485  0.992830  1
  I  I13  1  0.144476  0.344469  0.493084  1
  I  I14  1  0.655531  0.855524  0.006916  1
  I  I15  1  0.345988  0.856485  0.512142  1
  I  I16  1  0.143515  0.654012  0.987858  1
  I  I17  1  0.856506  0.345944  0.011846  1
