# generated using pymatgen
data_DyGaCu4
_symmetry_space_group_name_H-M   'P 1'
_cell_length_a   4.15141600
_cell_length_b   5.10431807
_cell_length_c   5.03589959
_cell_angle_alpha   120.45026841
_cell_angle_beta   90.00000000
_cell_angle_gamma   90.00000000
_symmetry_Int_Tables_number   1
_chemical_formula_structural   DyGaCu4
_chemical_formula_sum   'Dy1 Ga1 Cu4'
_cell_volume   91.99267778
_cell_formula_units_Z   1
loop_
 _symmetry_equiv_pos_site_id
 _symmetry_equiv_pos_as_xyz
  1  'x, y, z'
loop_
 _atom_site_type_symbol
 _atom_site_label
 _atom_site_symmetry_multiplicity
 _atom_site_fract_x
 _atom_site_fract_y
 _atom_site_fract_z
 _atom_site_occupancy
  Dy  Dy0  1  0.000000  0.999979  0.999998  1
  Ga  Ga1  1  0.500000  0.499982  0.999998  1
  Cu  Cu2  1  0.000000  0.330307  0.660651  1
  Cu  Cu3  1  0.000000  0.669660  0.339358  1
  Cu  Cu4  1  0.500000  0.499986  0.500000  1
  Cu  Cu5  1  0.500000  0.999985  0.499995  1
