# generated using pymatgen
data_La2PtN2
_symmetry_space_group_name_H-M   'P 1'
_cell_length_a   3.75405073
_cell_length_b   3.75405037
_cell_length_c   6.93707251
_cell_angle_alpha   105.70167774
_cell_angle_beta   105.70167440
_cell_angle_gamma   89.98946163
_symmetry_Int_Tables_number   1
_chemical_formula_structural   La2PtN2
_chemical_formula_sum   'La2 Pt1 N2'
_cell_volume   90.32131330
_cell_formula_units_Z   1
loop_
 _symmetry_equiv_pos_site_id
 _symmetry_equiv_pos_as_xyz
  1  'x, y, z'
loop_
 _atom_site_type_symbol
 _atom_site_label
 _atom_site_symmetry_multiplicity
 _atom_site_fract_x
 _atom_site_fract_y
 _atom_site_fract_z
 _atom_site_occupancy
  La  La0  1  0.150247  0.650247  0.800496  1
  La  La1  1  0.849753  0.349753  0.199504  1
  Pt  Pt2  1  0.500000  0.000000  0.500000  1
  N  N3  1  0.664355  0.164355  0.828708  1
  N  N4  1  0.335645  0.835645  0.171292  1
