# generated using pymatgen
data_Ti2Mn2Fe10P7
_symmetry_space_group_name_H-M   'P 1'
_cell_length_a   8.86334736
_cell_length_b   8.85983076
_cell_length_c   3.53380000
_cell_angle_alpha   90.00000000
_cell_angle_beta   90.00000000
_cell_angle_gamma   120.14896932
_symmetry_Int_Tables_number   1
_chemical_formula_structural   Ti2Mn2Fe10P7
_chemical_formula_sum   'Ti2 Mn2 Fe10 P7'
_cell_volume   239.96168847
_cell_formula_units_Z   1
loop_
 _symmetry_equiv_pos_site_id
 _symmetry_equiv_pos_as_xyz
  1  'x, y, z'
loop_
 _atom_site_type_symbol
 _atom_site_label
 _atom_site_symmetry_multiplicity
 _atom_site_fract_x
 _atom_site_fract_y
 _atom_site_fract_z
 _atom_site_occupancy
  Ti  Ti0  1  0.667884  0.336321  0.000000  1
  Ti  Ti1  1  0.000181  0.998971  0.500000  1
  Mn  Mn2  1  0.233380  0.789284  0.500000  1
  Mn  Mn3  1  0.214564  0.443224  0.500000  1
  Fe  Fe4  1  0.762949  0.730005  0.000000  1
  Fe  Fe5  1  0.270491  0.034348  0.000000  1
  Fe  Fe6  1  0.965209  0.234246  0.000000  1
  Fe  Fe7  1  0.491310  0.944793  0.000000  1
  Fe  Fe8  1  0.056246  0.546568  0.000000  1
  Fe  Fe9  1  0.453395  0.507804  0.000000  1
  Fe  Fe10  1  0.719464  0.105588  0.500000  1
  Fe  Fe11  1  0.892073  0.613299  0.500000  1
  Fe  Fe12  1  0.388509  0.281416  0.500000  1
  Fe  Fe13  1  0.550124  0.763520  0.500000  1
  P  P14  1  0.460408  0.083566  0.500000  1
  P  P15  1  0.919593  0.377106  0.500000  1
  P  P16  1  0.622263  0.547899  0.500000  1
  P  P17  1  0.750663  0.965706  0.000000  1
  P  P18  1  0.030982  0.784652  0.000000  1
  P  P19  1  0.213984  0.244952  0.000000  1
  P  P20  1  0.336331  0.666735  0.000000  1
