# generated using pymatgen
data_Ir8PtS12
_symmetry_space_group_name_H-M   'P 1'
_cell_length_a   7.59691370
_cell_length_b   7.59907947
_cell_length_c   6.34158863
_cell_angle_alpha   76.98009275
_cell_angle_beta   76.94127593
_cell_angle_gamma   91.67296327
_symmetry_Int_Tables_number   1
_chemical_formula_structural   Ir8PtS12
_chemical_formula_sum   'Ir8 Pt1 S12'
_cell_volume   346.22154056
_cell_formula_units_Z   1
loop_
 _symmetry_equiv_pos_site_id
 _symmetry_equiv_pos_as_xyz
  1  'x, y, z'
loop_
 _atom_site_type_symbol
 _atom_site_label
 _atom_site_symmetry_multiplicity
 _atom_site_fract_x
 _atom_site_fract_y
 _atom_site_fract_z
 _atom_site_occupancy
  Ir  Ir0  1  0.163205  0.838743  0.999555  1
  Ir  Ir1  1  0.838269  0.161532  0.999971  1
  Ir  Ir2  1  0.002229  0.001315  0.498857  1
  Ir  Ir3  1  0.347752  0.348006  0.946317  1
  Ir  Ir4  1  0.651003  0.649569  0.054446  1
  Ir  Ir5  1  0.508286  0.219756  0.548800  1
  Ir  Ir6  1  0.219233  0.510716  0.549196  1
  Ir  Ir7  1  0.488406  0.779377  0.452268  1
  Pt  Pt8  1  0.774224  0.489848  0.453227  1
  S  S9  1  0.856402  0.438194  0.096711  1
  S  S10  1  0.560853  0.144163  0.897697  1
  S  S11  1  0.146816  0.562137  0.895382  1
  S  S12  1  0.438771  0.853335  0.104697  1
  S  S13  1  0.115446  0.115242  0.110285  1
  S  S14  1  0.885856  0.884952  0.888935  1
  S  S15  1  0.035464  0.717821  0.387147  1
  S  S16  1  0.289080  0.969869  0.610842  1
  S  S17  1  0.971464  0.283446  0.613024  1
  S  S18  1  0.579141  0.586268  0.737643  1
  S  S19  1  0.413326  0.414278  0.267197  1
  S  S20  1  0.714774  0.031430  0.387802  1
