# generated using pymatgen
data_Pr4Sb2Pd27Au
_symmetry_space_group_name_H-M   'P 1'
_cell_length_a   9.04753462
_cell_length_b   9.04753453
_cell_length_c   7.23152600
_cell_angle_alpha   90.03432984
_cell_angle_beta   90.03432984
_cell_angle_gamma   89.76220300
_symmetry_Int_Tables_number   1
_chemical_formula_structural   Pr4Sb2Pd27Au
_chemical_formula_sum   'Pr4 Sb2 Pd27 Au1'
_cell_volume   591.95209172
_cell_formula_units_Z   1
loop_
 _symmetry_equiv_pos_site_id
 _symmetry_equiv_pos_as_xyz
  1  'x, y, z'
loop_
 _atom_site_type_symbol
 _atom_site_label
 _atom_site_symmetry_multiplicity
 _atom_site_fract_x
 _atom_site_fract_y
 _atom_site_fract_z
 _atom_site_occupancy
  Pr  Pr0  1  0.502468  0.002468  0.934654  1
  Pr  Pr1  1  0.997532  0.497532  0.065346  1
  Pr  Pr2  1  0.999337  0.000663  0.500000  1
  Pr  Pr3  1  0.500663  0.499337  0.500000  1
  Sb  Sb4  1  0.501132  0.001132  0.453086  1
  Sb  Sb5  1  0.998868  0.498868  0.546914  1
  Pd  Pd6  1  0.324886  0.824886  0.628267  1
  Pd  Pd7  1  0.323401  0.177536  0.631759  1
  Pd  Pd8  1  0.677536  0.823401  0.631759  1
  Pd  Pd9  1  0.677025  0.177025  0.631622  1
  Pd  Pd10  1  0.175114  0.675114  0.371733  1
  Pd  Pd11  1  0.176599  0.322464  0.368241  1
  Pd  Pd12  1  0.822464  0.676599  0.368241  1
  Pd  Pd13  1  0.822975  0.322975  0.368378  1
  Pd  Pd14  1  0.502439  0.760855  0.247031  1
  Pd  Pd15  1  0.499979  0.239093  0.245052  1
  Pd  Pd16  1  0.260855  0.002439  0.247031  1
  Pd  Pd17  1  0.739093  0.999979  0.245052  1
  Pd  Pd18  1  0.997561  0.739145  0.752969  1
  Pd  Pd19  1  0.000021  0.260907  0.754948  1
  Pd  Pd20  1  0.239145  0.497561  0.752969  1
  Pd  Pd21  1  0.760907  0.500021  0.754948  1
  Pd  Pd22  1  0.499812  0.347994  0.859834  1
  Pd  Pd23  1  0.501685  0.650740  0.857025  1
  Pd  Pd24  1  0.847994  0.999812  0.859834  1
  Pd  Pd25  1  0.150740  0.001685  0.857025  1
  Pd  Pd26  1  0.000188  0.152006  0.140166  1
  Pd  Pd27  1  0.998315  0.849260  0.142975  1
  Pd  Pd28  1  0.652006  0.500188  0.140166  1
  Pd  Pd29  1  0.349260  0.498315  0.142975  1
  Pd  Pd30  1  0.250000  0.250000  0.000000  1
  Pd  Pd31  1  0.750000  0.750000  0.000000  1
  Pd  Pd32  1  0.750000  0.250000  0.000000  1
  Au  Au33  1  0.250000  0.750000  0.000000  1
