# generated using pymatgen
data_Sr5Pr3(Sn4Au3)4
_symmetry_space_group_name_H-M   'P 1'
_cell_length_a   15.40859800
_cell_length_b   15.40859774
_cell_length_c   4.56752300
_cell_angle_alpha   90.00000000
_cell_angle_beta   90.00000000
_cell_angle_gamma   120.00000057
_symmetry_Int_Tables_number   1
_chemical_formula_structural   Sr5Pr3(Sn4Au3)4
_chemical_formula_sum   'Sr5 Pr3 Sn16 Au12'
_cell_volume   939.15573403
_cell_formula_units_Z   1
loop_
 _symmetry_equiv_pos_site_id
 _symmetry_equiv_pos_as_xyz
  1  'x, y, z'
loop_
 _atom_site_type_symbol
 _atom_site_label
 _atom_site_symmetry_multiplicity
 _atom_site_fract_x
 _atom_site_fract_y
 _atom_site_fract_z
 _atom_site_occupancy
  Sr  Sr0  1  0.333333  0.666667  0.000000  1
  Sr  Sr1  1  0.666667  0.333333  0.000000  1
  Sr  Sr2  1  0.818354  0.000000  0.500000  1
  Sr  Sr3  1  0.000000  0.818354  0.500000  1
  Sr  Sr4  1  0.181646  0.181646  0.500000  1
  Pr  Pr5  1  0.424618  0.000000  0.000000  1
  Pr  Pr6  1  0.000000  0.424618  0.000000  1
  Pr  Pr7  1  0.575382  0.575382  0.000000  1
  Sn  Sn8  1  0.190320  0.367932  0.000000  1
  Sn  Sn9  1  0.632068  0.822390  0.000000  1
  Sn  Sn10  1  0.367932  0.190320  0.000000  1
  Sn  Sn11  1  0.177610  0.809680  0.000000  1
  Sn  Sn12  1  0.822390  0.632068  0.000000  1
  Sn  Sn13  1  0.809680  0.177610  0.000000  1
  Sn  Sn14  1  0.272721  0.000000  0.500000  1
  Sn  Sn15  1  0.000000  0.272721  0.500000  1
  Sn  Sn16  1  0.727279  0.727279  0.500000  1
  Sn  Sn17  1  0.374103  0.500211  0.500000  1
  Sn  Sn18  1  0.499789  0.873891  0.500000  1
  Sn  Sn19  1  0.500211  0.374103  0.500000  1
  Sn  Sn20  1  0.126109  0.625897  0.500000  1
  Sn  Sn21  1  0.873891  0.499789  0.500000  1
  Sn  Sn22  1  0.625897  0.126109  0.500000  1
  Sn  Sn23  1  0.000000  0.000000  0.000000  1
  Au  Au24  1  0.176461  0.473652  0.500000  1
  Au  Au25  1  0.526348  0.702809  0.500000  1
  Au  Au26  1  0.473652  0.176461  0.500000  1
  Au  Au27  1  0.297191  0.823539  0.500000  1
  Au  Au28  1  0.702809  0.526348  0.500000  1
  Au  Au29  1  0.823539  0.297191  0.500000  1
  Au  Au30  1  0.173291  0.000000  0.000000  1
  Au  Au31  1  0.000000  0.173291  0.000000  1
  Au  Au32  1  0.826709  0.826709  0.000000  1
  Au  Au33  1  0.621592  0.000000  0.000000  1
  Au  Au34  1  0.000000  0.621592  0.000000  1
  Au  Au35  1  0.378408  0.378408  0.000000  1
