# generated using pymatgen
data_Sr2AcTi3O9
_symmetry_space_group_name_H-M   'P 1'
_cell_length_a   3.97181900
_cell_length_b   3.97181900
_cell_length_c   11.93526000
_cell_angle_alpha   90.00000000
_cell_angle_beta   90.00000000
_cell_angle_gamma   90.00000000
_symmetry_Int_Tables_number   1
_chemical_formula_structural   Sr2AcTi3O9
_chemical_formula_sum   'Sr2 Ac1 Ti3 O9'
_cell_volume   188.28285811
_cell_formula_units_Z   1
loop_
 _symmetry_equiv_pos_site_id
 _symmetry_equiv_pos_as_xyz
  1  'x, y, z'
loop_
 _atom_site_type_symbol
 _atom_site_label
 _atom_site_symmetry_multiplicity
 _atom_site_fract_x
 _atom_site_fract_y
 _atom_site_fract_z
 _atom_site_occupancy
  Sr  Sr0  1  0.500000  0.500000  0.659402  1
  Sr  Sr1  1  0.500000  0.500000  0.340598  1
  Ac  Ac2  1  0.500000  0.500000  0.000000  1
  Ti  Ti3  1  0.000000  0.000000  0.171926  1
  Ti  Ti4  1  0.000000  0.000000  0.828074  1
  Ti  Ti5  1  0.000000  0.000000  0.500000  1
  O  O6  1  0.500000  0.000000  0.838245  1
  O  O7  1  0.500000  0.000000  0.500000  1
  O  O8  1  0.500000  0.000000  0.161755  1
  O  O9  1  0.000000  0.500000  0.838245  1
  O  O10  1  0.000000  0.500000  0.500000  1
  O  O11  1  0.000000  0.500000  0.161755  1
  O  O12  1  0.000000  0.000000  0.000000  1
  O  O13  1  0.000000  0.000000  0.668060  1
  O  O14  1  0.000000  0.000000  0.331940  1
