# generated using pymatgen
data_K2SrYbBi2
_symmetry_space_group_name_H-M   'P 1'
_cell_length_a   5.38309600
_cell_length_b   8.62231400
_cell_length_c   10.39876600
_cell_angle_alpha   90.00000000
_cell_angle_beta   90.00000000
_cell_angle_gamma   90.00000000
_symmetry_Int_Tables_number   1
_chemical_formula_structural   K2SrYbBi2
_chemical_formula_sum   'K4 Sr2 Yb2 Bi4'
_cell_volume   482.65606185
_cell_formula_units_Z   2
loop_
 _symmetry_equiv_pos_site_id
 _symmetry_equiv_pos_as_xyz
  1  'x, y, z'
loop_
 _atom_site_type_symbol
 _atom_site_label
 _atom_site_symmetry_multiplicity
 _atom_site_fract_x
 _atom_site_fract_y
 _atom_site_fract_z
 _atom_site_occupancy
  K  K0  1  0.500000  0.025696  0.418264  1
  K  K1  1  0.000000  0.339041  0.339040  1
  K  K2  1  0.500000  0.525696  0.581736  1
  K  K3  1  0.000000  0.839041  0.660960  1
  Sr  Sr4  1  0.000000  0.493558  0.948202  1
  Sr  Sr5  1  0.000000  0.993558  0.051798  1
  Yb  Yb6  1  0.500000  0.153733  0.820422  1
  Yb  Yb7  1  0.500000  0.653733  0.179578  1
  Bi  Bi8  1  0.000000  0.254134  0.681397  1
  Bi  Bi9  1  0.500000  0.279358  0.112959  1
  Bi  Bi10  1  0.000000  0.754134  0.318603  1
  Bi  Bi11  1  0.500000  0.779358  0.887041  1
