# generated using pymatgen
data_HfZr(ScTc4)2
_symmetry_space_group_name_H-M   'P 1'
_cell_length_a   5.24535500
_cell_length_b   5.24535589
_cell_length_c   8.62723500
_cell_angle_alpha   90.00000000
_cell_angle_beta   90.00000000
_cell_angle_gamma   119.99998807
_symmetry_Int_Tables_number   1
_chemical_formula_structural   HfZr(ScTc4)2
_chemical_formula_sum   'Hf1 Zr1 Sc2 Tc8'
_cell_volume   205.56641311
_cell_formula_units_Z   1
loop_
 _symmetry_equiv_pos_site_id
 _symmetry_equiv_pos_as_xyz
  1  'x, y, z'
loop_
 _atom_site_type_symbol
 _atom_site_label
 _atom_site_symmetry_multiplicity
 _atom_site_fract_x
 _atom_site_fract_y
 _atom_site_fract_z
 _atom_site_occupancy
  Hf  Hf0  1  0.333333  0.666667  0.061514  1
  Zr  Zr1  1  0.333333  0.666667  0.438146  1
  Sc  Sc2  1  0.666667  0.333333  0.564507  1
  Sc  Sc3  1  0.666667  0.333333  0.935302  1
  Tc  Tc4  1  0.000000  0.000000  0.500161  1
  Tc  Tc5  1  0.000000  0.000000  0.000477  1
  Tc  Tc6  1  0.827938  0.172062  0.249123  1
  Tc  Tc7  1  0.827938  0.655877  0.249123  1
  Tc  Tc8  1  0.344123  0.172062  0.249123  1
  Tc  Tc9  1  0.171320  0.828680  0.750841  1
  Tc  Tc10  1  0.171320  0.342640  0.750841  1
  Tc  Tc11  1  0.657360  0.828680  0.750841  1
