# generated using pymatgen
data_LaBi3F15
_symmetry_space_group_name_H-M   'P 1'
_cell_length_a   8.76564257
_cell_length_b   8.76564206
_cell_length_c   8.70961826
_cell_angle_alpha   79.92509382
_cell_angle_beta   79.92509397
_cell_angle_gamma   101.22595062
_symmetry_Int_Tables_number   1
_chemical_formula_structural   LaBi3F15
_chemical_formula_sum   'La2 Bi6 F30'
_cell_volume   630.97568541
_cell_formula_units_Z   2
loop_
 _symmetry_equiv_pos_site_id
 _symmetry_equiv_pos_as_xyz
  1  'x, y, z'
loop_
 _atom_site_type_symbol
 _atom_site_label
 _atom_site_symmetry_multiplicity
 _atom_site_fract_x
 _atom_site_fract_y
 _atom_site_fract_z
 _atom_site_occupancy
  La  La0  1  0.674477  0.325523  0.750000  1
  La  La1  1  0.325523  0.674477  0.250000  1
  Bi  Bi2  1  0.252021  0.747979  0.750000  1
  Bi  Bi3  1  0.747979  0.252021  0.250000  1
  Bi  Bi4  1  0.827343  0.749488  0.328537  1
  Bi  Bi5  1  0.250512  0.172657  0.171463  1
  Bi  Bi6  1  0.172657  0.250512  0.671463  1
  Bi  Bi7  1  0.749488  0.827343  0.828537  1
  F  F8  1  0.161194  0.197290  0.945194  1
  F  F9  1  0.691767  0.565210  0.845203  1
  F  F10  1  0.045263  0.655384  0.311343  1
  F  F11  1  0.655384  0.045263  0.811343  1
  F  F12  1  0.565210  0.691767  0.345203  1
  F  F13  1  0.197290  0.161194  0.445194  1
  F  F14  1  0.838806  0.802710  0.054806  1
  F  F15  1  0.308233  0.434790  0.154797  1
  F  F16  1  0.954737  0.344616  0.688657  1
  F  F17  1  0.344616  0.954737  0.188657  1
  F  F18  1  0.434790  0.308233  0.654797  1
  F  F19  1  0.802710  0.838806  0.554806  1
  F  F20  1  0.209074  0.726316  0.993857  1
  F  F21  1  0.231612  0.505738  0.791897  1
  F  F22  1  0.010499  0.707266  0.768005  1
  F  F23  1  0.707266  0.010499  0.268005  1
  F  F24  1  0.505738  0.231612  0.291897  1
  F  F25  1  0.726316  0.209074  0.493857  1
  F  F26  1  0.790926  0.273684  0.006143  1
  F  F27  1  0.768388  0.494262  0.208103  1
  F  F28  1  0.989501  0.292734  0.231995  1
  F  F29  1  0.292734  0.989501  0.731995  1
  F  F30  1  0.494262  0.768388  0.708103  1
  F  F31  1  0.273684  0.790926  0.506143  1
  F  F32  1  0.975628  0.024372  0.750000  1
  F  F33  1  0.529689  0.753591  0.015697  1
  F  F34  1  0.246409  0.470311  0.484303  1
  F  F35  1  0.470311  0.246409  0.984303  1
  F  F36  1  0.753591  0.529689  0.515697  1
  F  F37  1  0.024372  0.975628  0.250000  1
