# generated using pymatgen
data_Tb7HoSc12Si15Pb
_symmetry_space_group_name_H-M   'P 1'
_cell_length_a   7.14482784
_cell_length_b   7.43294982
_cell_length_c   14.09162328
_cell_angle_alpha   89.97938447
_cell_angle_beta   89.53542991
_cell_angle_gamma   90.05723687
_symmetry_Int_Tables_number   1
_chemical_formula_structural   Tb7HoSc12Si15Pb
_chemical_formula_sum   'Tb7 Ho1 Sc12 Si15 Pb1'
_cell_volume   748.34088223
_cell_formula_units_Z   1
loop_
 _symmetry_equiv_pos_site_id
 _symmetry_equiv_pos_as_xyz
  1  'x, y, z'
loop_
 _atom_site_type_symbol
 _atom_site_label
 _atom_site_symmetry_multiplicity
 _atom_site_fract_x
 _atom_site_fract_y
 _atom_site_fract_z
 _atom_site_occupancy
  Tb  Tb0  1  0.012561  0.175843  0.096708  1
  Tb  Tb1  1  0.987675  0.824676  0.903925  1
  Tb  Tb2  1  0.488556  0.676179  0.903910  1
  Tb  Tb3  1  0.987048  0.832224  0.598588  1
  Tb  Tb4  1  0.511824  0.323930  0.097040  1
  Tb  Tb5  1  0.005983  0.168742  0.398797  1
  Tb  Tb6  1  0.514436  0.319493  0.398676  1
  Ho  Ho7  1  0.503025  0.685845  0.600498  1
  Sc  Sc8  1  0.161207  0.502452  0.756595  1
  Sc  Sc9  1  0.838452  0.498015  0.249292  1
  Sc  Sc10  1  0.338754  0.002225  0.249337  1
  Sc  Sc11  1  0.662542  0.997556  0.751432  1
  Sc  Sc12  1  0.342647  0.160049  0.631234  1
  Sc  Sc13  1  0.664694  0.825500  0.372653  1
  Sc  Sc14  1  0.164482  0.683953  0.368954  1
  Sc  Sc15  1  0.669131  0.823260  0.124243  1
  Sc  Sc16  1  0.820690  0.323296  0.626763  1
  Sc  Sc17  1  0.330137  0.175391  0.875251  1
  Sc  Sc18  1  0.830323  0.323540  0.875337  1
  Sc  Sc19  1  0.169343  0.676664  0.125108  1
  Si  Si20  1  0.033914  0.119455  0.751301  1
  Si  Si21  1  0.964368  0.884486  0.246997  1
  Si  Si22  1  0.466485  0.616246  0.248676  1
  Si  Si23  1  0.531367  0.385366  0.751501  1
  Si  Si24  1  0.285711  0.869965  0.751929  1
  Si  Si25  1  0.713448  0.125771  0.247575  1
  Si  Si26  1  0.212867  0.373502  0.249280  1
  Si  Si27  1  0.788750  0.627196  0.751052  1
  Si  Si28  1  0.826693  0.539834  0.458298  1
  Si  Si29  1  0.339431  0.963720  0.460112  1
  Si  Si30  1  0.843206  0.534660  0.039376  1
  Si  Si31  1  0.660179  0.037108  0.538226  1
  Si  Si32  1  0.156270  0.464743  0.961718  1
  Si  Si33  1  0.656237  0.035245  0.960666  1
  Si  Si34  1  0.343012  0.965091  0.039688  1
  Pb  Pb35  1  0.174550  0.458782  0.539262  1
