# generated using pymatgen
data_Er3ZnCd4Pt
_symmetry_space_group_name_H-M   'P 1'
_cell_length_a   7.89907600
_cell_length_b   7.89907645
_cell_length_c   3.66776200
_cell_angle_alpha   90.00000000
_cell_angle_beta   90.00000000
_cell_angle_gamma   119.99999812
_symmetry_Int_Tables_number   1
_chemical_formula_structural   Er3ZnCd4Pt
_chemical_formula_sum   'Er3 Zn1 Cd4 Pt1'
_cell_volume   198.19121311
_cell_formula_units_Z   1
loop_
 _symmetry_equiv_pos_site_id
 _symmetry_equiv_pos_as_xyz
  1  'x, y, z'
loop_
 _atom_site_type_symbol
 _atom_site_label
 _atom_site_symmetry_multiplicity
 _atom_site_fract_x
 _atom_site_fract_y
 _atom_site_fract_z
 _atom_site_occupancy
  Er  Er0  1  0.700424  0.947712  0.500000  1
  Er  Er1  1  0.247288  0.299576  0.500000  1
  Er  Er2  1  0.052288  0.752712  0.500000  1
  Zn  Zn3  1  0.666667  0.333333  0.500000  1
  Cd  Cd4  1  0.932340  0.341845  0.000000  1
  Cd  Cd5  1  0.409506  0.067660  0.000000  1
  Cd  Cd6  1  0.658155  0.590494  0.000000  1
  Cd  Cd7  1  0.333333  0.666667  0.000000  1
  Pt  Pt8  1  0.000000  0.000000  0.000000  1
