# generated using pymatgen
data_Tm3PaCdTc
_symmetry_space_group_name_H-M   'P 1'
_cell_length_a   9.54283515
_cell_length_b   9.54283621
_cell_length_c   9.54283600
_cell_angle_alpha   60.00000766
_cell_angle_beta   60.00000400
_cell_angle_gamma   60.00000833
_symmetry_Int_Tables_number   1
_chemical_formula_structural   Tm3PaCdTc
_chemical_formula_sum   'Tm12 Pa4 Cd4 Tc4'
_cell_volume   614.49367849
_cell_formula_units_Z   4
loop_
 _symmetry_equiv_pos_site_id
 _symmetry_equiv_pos_as_xyz
  1  'x, y, z'
loop_
 _atom_site_type_symbol
 _atom_site_label
 _atom_site_symmetry_multiplicity
 _atom_site_fract_x
 _atom_site_fract_y
 _atom_site_fract_z
 _atom_site_occupancy
  Tm  Tm0  1  0.808887  0.191113  0.191113  1
  Tm  Tm1  1  0.191113  0.808887  0.808887  1
  Tm  Tm2  1  0.191113  0.808887  0.191113  1
  Tm  Tm3  1  0.808887  0.191113  0.808887  1
  Tm  Tm4  1  0.191113  0.191113  0.808887  1
  Tm  Tm5  1  0.808887  0.808887  0.191113  1
  Tm  Tm6  1  0.938285  0.561715  0.561715  1
  Tm  Tm7  1  0.561715  0.938285  0.938285  1
  Tm  Tm8  1  0.561715  0.938285  0.561715  1
  Tm  Tm9  1  0.938285  0.561715  0.938285  1
  Tm  Tm10  1  0.561715  0.561715  0.938285  1
  Tm  Tm11  1  0.938285  0.938285  0.561715  1
  Pa  Pa12  1  0.344197  0.344197  0.344197  1
  Pa  Pa13  1  0.344197  0.344197  0.967408  1
  Pa  Pa14  1  0.344197  0.967408  0.344197  1
  Pa  Pa15  1  0.967408  0.344197  0.344197  1
  Cd  Cd16  1  0.581210  0.581210  0.581210  1
  Cd  Cd17  1  0.581210  0.581210  0.256371  1
  Cd  Cd18  1  0.581210  0.256371  0.581210  1
  Cd  Cd19  1  0.256371  0.581210  0.581210  1
  Tc  Tc20  1  0.147185  0.147185  0.147185  1
  Tc  Tc21  1  0.147185  0.147185  0.558445  1
  Tc  Tc22  1  0.147185  0.558445  0.147185  1
  Tc  Tc23  1  0.558445  0.147185  0.147185  1
