# generated using pymatgen
data_CaDy3Nb(ReN4)3
_symmetry_space_group_name_H-M   'P 1'
_cell_length_a   11.21410223
_cell_length_b   11.21410187
_cell_length_c   11.21410200
_cell_angle_alpha   109.47122087
_cell_angle_beta   109.47122022
_cell_angle_gamma   109.47121914
_symmetry_Int_Tables_number   1
_chemical_formula_structural   CaDy3Nb(ReN4)3
_chemical_formula_sum   'Ca4 Dy12 Nb4 Re12 N48'
_cell_volume   1085.60448260
_cell_formula_units_Z   4
loop_
 _symmetry_equiv_pos_site_id
 _symmetry_equiv_pos_as_xyz
  1  'x, y, z'
loop_
 _atom_site_type_symbol
 _atom_site_label
 _atom_site_symmetry_multiplicity
 _atom_site_fract_x
 _atom_site_fract_y
 _atom_site_fract_z
 _atom_site_occupancy
  Ca  Ca0  1  0.000000  0.000000  0.000000  1
  Ca  Ca1  1  0.500000  0.500000  0.000000  1
  Ca  Ca2  1  0.500000  0.000000  0.500000  1
  Ca  Ca3  1  0.000000  0.500000  0.500000  1
  Dy  Dy4  1  0.250000  0.375093  0.125093  1
  Dy  Dy5  1  0.374907  0.750000  0.124907  1
  Dy  Dy6  1  0.375093  0.125093  0.250000  1
  Dy  Dy7  1  0.875093  0.625093  0.250000  1
  Dy  Dy8  1  0.750000  0.124907  0.374907  1
  Dy  Dy9  1  0.125093  0.250000  0.375093  1
  Dy  Dy10  1  0.874907  0.750000  0.624907  1
  Dy  Dy11  1  0.250000  0.875093  0.625093  1
  Dy  Dy12  1  0.124907  0.374907  0.750000  1
  Dy  Dy13  1  0.624907  0.874907  0.750000  1
  Dy  Dy14  1  0.625093  0.250000  0.875093  1
  Dy  Dy15  1  0.750000  0.624907  0.874907  1
  Nb  Nb16  1  0.500000  0.000000  0.000000  1
  Nb  Nb17  1  0.000000  0.500000  0.000000  1
  Nb  Nb18  1  0.000000  0.000000  0.500000  1
  Nb  Nb19  1  0.500000  0.500000  0.500000  1
  Re  Re20  1  0.876030  0.249999  0.126030  1
  Re  Re21  1  0.750000  0.873970  0.123970  1
  Re  Re22  1  0.626030  0.376030  0.250000  1
  Re  Re23  1  0.126030  0.876030  0.249999  1
  Re  Re24  1  0.250000  0.626030  0.376030  1
  Re  Re25  1  0.623969  0.750000  0.373970  1
  Re  Re26  1  0.376030  0.250000  0.626030  1
  Re  Re27  1  0.750000  0.373970  0.623969  1
  Re  Re28  1  0.873970  0.123970  0.750000  1
  Re  Re29  1  0.373970  0.623969  0.750000  1
  Re  Re30  1  0.249999  0.126030  0.876030  1
  Re  Re31  1  0.123970  0.750000  0.873970  1
  N  N32  1  0.313283  0.902928  0.020396  1
  N  N33  1  0.228163  0.130081  0.029491  1
  N  N34  1  0.882532  0.402928  0.089646  1
  N  N35  1  0.728162  0.698672  0.098082  1
  N  N36  1  0.630081  0.401918  0.100590  1
  N  N37  1  0.979603  0.686717  0.097071  1
  N  N38  1  0.597071  0.910354  0.117467  1
  N  N39  1  0.029491  0.228163  0.130081  1
  N  N40  1  0.207113  0.589645  0.186717  1
  N  N41  1  0.470510  0.600591  0.198672  1
  N  N42  1  0.130081  0.029491  0.228163  1
  N  N43  1  0.589645  0.186717  0.207113  1
  N  N44  1  0.479604  0.382533  0.292887  1
  N  N45  1  0.301328  0.901918  0.271838  1
  N  N46  1  0.902928  0.020396  0.313283  1
  N  N47  1  0.901918  0.271838  0.301328  1
  N  N48  1  0.292887  0.479604  0.382533  1
  N  N49  1  0.598081  0.899410  0.369920  1
  N  N50  1  0.801328  0.529490  0.399410  1
  N  N51  1  0.089646  0.882532  0.402928  1
  N  N52  1  0.100590  0.630081  0.401918  1
  N  N53  1  0.813282  0.792886  0.410354  1
  N  N54  1  0.600591  0.198672  0.470510  1
  N  N55  1  0.382533  0.292887  0.479604  1
  N  N56  1  0.617467  0.707113  0.520396  1
  N  N57  1  0.399410  0.801328  0.529490  1
  N  N58  1  0.186717  0.207113  0.589645  1
  N  N59  1  0.899410  0.369920  0.598081  1
  N  N60  1  0.910354  0.117467  0.597071  1
  N  N61  1  0.198672  0.470510  0.600591  1
  N  N62  1  0.401918  0.100590  0.630081  1
  N  N63  1  0.707113  0.520396  0.617467  1
  N  N64  1  0.098082  0.728162  0.698672  1
  N  N65  1  0.097071  0.979603  0.686717  1
  N  N66  1  0.698672  0.098082  0.728162  1
  N  N67  1  0.520396  0.617467  0.707113  1
  N  N68  1  0.410354  0.813282  0.792886  1
  N  N69  1  0.869920  0.970510  0.771838  1
  N  N70  1  0.529490  0.399410  0.801328  1
  N  N71  1  0.792886  0.410354  0.813282  1
  N  N72  1  0.402928  0.089646  0.882532  1
  N  N73  1  0.970510  0.771838  0.869920  1
  N  N74  1  0.020396  0.313283  0.902928  1
  N  N75  1  0.369920  0.598081  0.899410  1
  N  N76  1  0.271838  0.301328  0.901918  1
  N  N77  1  0.117467  0.597071  0.910354  1
  N  N78  1  0.686717  0.097071  0.979603  1
  N  N79  1  0.771838  0.869920  0.970510  1
