# generated using pymatgen
data_Dy3ErAl24Pt7Rh2
_symmetry_space_group_name_H-M   'P 1'
_cell_length_a   7.51175758
_cell_length_b   7.50607504
_cell_length_c   13.17607509
_cell_angle_alpha   84.52718636
_cell_angle_beta   100.92001747
_cell_angle_gamma   119.78185169
_symmetry_Int_Tables_number   1
_chemical_formula_structural   Dy3ErAl24Pt7Rh2
_chemical_formula_sum   'Dy3 Er1 Al24 Pt7 Rh2'
_cell_volume   633.11868197
_cell_formula_units_Z   1
loop_
 _symmetry_equiv_pos_site_id
 _symmetry_equiv_pos_as_xyz
  1  'x, y, z'
loop_
 _atom_site_type_symbol
 _atom_site_label
 _atom_site_symmetry_multiplicity
 _atom_site_fract_x
 _atom_site_fract_y
 _atom_site_fract_z
 _atom_site_occupancy
  Dy  Dy0  1  0.732534  0.999403  0.190844  1
  Dy  Dy1  1  0.267737  0.001575  0.808953  1
  Dy  Dy2  1  0.061652  0.667860  0.191297  1
  Er  Er3  1  0.937707  0.331582  0.808757  1
  Al  Al4  1  0.810856  0.871554  0.818273  1
  Al  Al5  1  0.189352  0.128482  0.181724  1
  Al  Al6  1  0.986219  0.669050  0.946176  1
  Al  Al7  1  0.020446  0.334180  0.052988  1
  Al  Al8  1  0.395912  0.663151  0.819538  1
  Al  Al9  1  0.600266  0.335724  0.182624  1
  Al  Al10  1  0.882394  0.664991  0.672471  1
  Al  Al11  1  0.118351  0.334684  0.327365  1
  Al  Al12  1  0.603709  0.459481  0.817022  1
  Al  Al13  1  0.396552  0.544398  0.180855  1
  Al  Al14  1  0.230768  0.340394  0.670234  1
  Al  Al15  1  0.769222  0.659652  0.330027  1
  Al  Al16  1  0.853250  0.333523  0.558960  1
  Al  Al17  1  0.186253  0.999432  0.558923  1
  Al  Al18  1  0.814309  0.000096  0.441147  1
  Al  Al19  1  0.348276  0.995561  0.053573  1
  Al  Al20  1  0.648558  0.997927  0.946623  1
  Al  Al21  1  0.556879  0.991955  0.672864  1
  Al  Al22  1  0.443536  0.007383  0.327680  1
  Al  Al23  1  0.521448  0.668256  0.561577  1
  Al  Al24  1  0.478785  0.331748  0.438391  1
  Al  Al25  1  0.682616  0.671739  0.042671  1
  Al  Al26  1  0.313650  0.331648  0.957076  1
  Al  Al27  1  0.147131  0.665898  0.441241  1
  Pt  Pt28  1  0.546165  0.324578  0.637085  1
  Pt  Pt29  1  0.454444  0.674860  0.362936  1
  Pt  Pt30  1  0.887750  0.008329  0.638347  1
  Pt  Pt31  1  0.112545  0.991669  0.361831  1
  Pt  Pt32  1  0.671798  0.328377  0.999912  1
  Pt  Pt33  1  0.204068  0.666562  0.638514  1
  Pt  Pt34  1  0.796347  0.332910  0.361706  1
  Rh  Rh35  1  0.328527  0.671266  0.999891  1
  Rh  Rh36  1  0.999992  0.000119  0.999904  1
