# generated using pymatgen
data_DyTm5Al24Os5Pt3
_symmetry_space_group_name_H-M   'P 1'
_cell_length_a   8.79620599
_cell_length_b   8.81515875
_cell_length_c   9.51580967
_cell_angle_alpha   90.12516812
_cell_angle_beta   89.66629869
_cell_angle_gamma   119.55231256
_symmetry_Int_Tables_number   1
_chemical_formula_structural   DyTm5Al24Os5Pt3
_chemical_formula_sum   'Dy1 Tm5 Al24 Os5 Pt3'
_cell_volume   641.85358249
_cell_formula_units_Z   1
loop_
 _symmetry_equiv_pos_site_id
 _symmetry_equiv_pos_as_xyz
  1  'x, y, z'
loop_
 _atom_site_type_symbol
 _atom_site_label
 _atom_site_symmetry_multiplicity
 _atom_site_fract_x
 _atom_site_fract_y
 _atom_site_fract_z
 _atom_site_occupancy
  Dy  Dy0  1  0.187935  0.383127  0.250863  1
  Tm  Tm1  1  0.811504  0.614011  0.748366  1
  Tm  Tm2  1  0.611315  0.813957  0.252597  1
  Tm  Tm3  1  0.388561  0.186092  0.747481  1
  Tm  Tm4  1  0.197146  0.808392  0.252149  1
  Tm  Tm5  1  0.802973  0.192005  0.747880  1
  Al  Al6  1  0.335515  0.671497  0.030765  1
  Al  Al7  1  0.664641  0.328961  0.968380  1
  Al  Al8  1  0.669044  0.331713  0.528984  1
  Al  Al9  1  0.330741  0.668495  0.471712  1
  Al  Al10  1  0.157858  0.325357  0.576486  1
  Al  Al11  1  0.842088  0.674845  0.424300  1
  Al  Al12  1  0.673690  0.840692  0.576341  1
  Al  Al13  1  0.836994  0.676588  0.078386  1
  Al  Al14  1  0.326590  0.159262  0.424251  1
  Al  Al15  1  0.163150  0.323667  0.920794  1
  Al  Al16  1  0.163362  0.835039  0.576795  1
  Al  Al17  1  0.325779  0.158812  0.076504  1
  Al  Al18  1  0.836056  0.164980  0.423903  1
  Al  Al19  1  0.674666  0.841148  0.922910  1
  Al  Al20  1  0.831384  0.159318  0.077612  1
  Al  Al21  1  0.168172  0.840743  0.921876  1
  Al  Al22  1  0.561006  0.125219  0.249857  1
  Al  Al23  1  0.439110  0.874908  0.750226  1
  Al  Al24  1  0.874134  0.438394  0.252716  1
  Al  Al25  1  0.125797  0.562046  0.747510  1
  Al  Al26  1  0.562839  0.437360  0.249706  1
  Al  Al27  1  0.437920  0.562973  0.750353  1
  Al  Al28  1  0.998229  0.000971  0.250247  1
  Al  Al29  1  0.000623  0.996950  0.749802  1
  Os  Os30  1  0.500090  0.000220  0.999916  1
  Os  Os31  1  0.500016  0.000124  0.500148  1
  Os  Os32  1  0.999627  0.500153  0.500599  1
  Os  Os33  1  0.000156  0.000311  0.999940  1
  Os  Os34  1  0.000101  0.000285  0.500103  1
  Pt  Pt35  1  0.999592  0.500443  0.999503  1
  Pt  Pt36  1  0.500850  0.500497  0.999580  1
  Pt  Pt37  1  0.500744  0.500445  0.500459  1
