# generated using pymatgen
data_Tb16Cd3AgIr3Rh
_symmetry_space_group_name_H-M   'P 1'
_cell_length_a   9.64695224
_cell_length_b   9.64695241
_cell_length_c   9.64695211
_cell_angle_alpha   60.08807868
_cell_angle_beta   60.08808224
_cell_angle_gamma   60.08807972
_symmetry_Int_Tables_number   1
_chemical_formula_structural   Tb16Cd3AgIr3Rh
_chemical_formula_sum   'Tb16 Cd3 Ag1 Ir3 Rh1'
_cell_volume   636.09404221
_cell_formula_units_Z   1
loop_
 _symmetry_equiv_pos_site_id
 _symmetry_equiv_pos_as_xyz
  1  'x, y, z'
loop_
 _atom_site_type_symbol
 _atom_site_label
 _atom_site_symmetry_multiplicity
 _atom_site_fract_x
 _atom_site_fract_y
 _atom_site_fract_z
 _atom_site_occupancy
  Tb  Tb0  1  0.598390  0.598390  0.598390  1
  Tb  Tb1  1  0.600263  0.600263  0.201856  1
  Tb  Tb2  1  0.600263  0.201856  0.600263  1
  Tb  Tb3  1  0.201856  0.600263  0.600263  1
  Tb  Tb4  1  0.059984  0.439192  0.439192  1
  Tb  Tb5  1  0.438161  0.060426  0.060426  1
  Tb  Tb6  1  0.439192  0.059984  0.439192  1
  Tb  Tb7  1  0.060426  0.438161  0.060426  1
  Tb  Tb8  1  0.439192  0.439192  0.059984  1
  Tb  Tb9  1  0.060426  0.060426  0.438161  1
  Tb  Tb10  1  0.185729  0.812193  0.812193  1
  Tb  Tb11  1  0.813273  0.186277  0.186277  1
  Tb  Tb12  1  0.812193  0.185729  0.812193  1
  Tb  Tb13  1  0.186277  0.813273  0.186277  1
  Tb  Tb14  1  0.812193  0.812193  0.185729  1
  Tb  Tb15  1  0.186277  0.186277  0.813273  1
  Cd  Cd16  1  0.831120  0.831120  0.508409  1
  Cd  Cd17  1  0.831120  0.508409  0.831120  1
  Cd  Cd18  1  0.508409  0.831120  0.831120  1
  Ag  Ag19  1  0.832834  0.832834  0.832834  1
  Ir  Ir20  1  0.392721  0.392721  0.825211  1
  Ir  Ir21  1  0.392721  0.825211  0.392721  1
  Ir  Ir22  1  0.825211  0.392721  0.392721  1
  Rh  Rh23  1  0.391773  0.391773  0.391773  1
