# generated using pymatgen
data_Ho5Hf2P12Ir17
_symmetry_space_group_name_H-M   'P 1'
_cell_length_a   12.64770100
_cell_length_b   12.87780615
_cell_length_c   3.97373400
_cell_angle_alpha   90.00000000
_cell_angle_beta   90.00000000
_cell_angle_gamma   119.41066181
_symmetry_Int_Tables_number   1
_chemical_formula_structural   Ho5Hf2P12Ir17
_chemical_formula_sum   'Ho5 Hf2 P12 Ir17'
_cell_volume   563.80830678
_cell_formula_units_Z   1
loop_
 _symmetry_equiv_pos_site_id
 _symmetry_equiv_pos_as_xyz
  1  'x, y, z'
loop_
 _atom_site_type_symbol
 _atom_site_label
 _atom_site_symmetry_multiplicity
 _atom_site_fract_x
 _atom_site_fract_y
 _atom_site_fract_z
 _atom_site_occupancy
  Ho  Ho0  1  0.330327  0.661618  0.500000  1
  Ho  Ho1  1  0.668710  0.338382  0.500000  1
  Ho  Ho2  1  0.999945  0.815386  0.000000  1
  Ho  Ho3  1  0.184560  0.184614  0.000000  1
  Ho  Ho4  1  0.812945  0.000000  0.000000  1
  Hf  Hf5  1  0.997637  0.447041  0.500000  1
  Hf  Hf6  1  0.550596  0.552959  0.500000  1
  P  P7  1  0.005408  0.651237  0.500000  1
  P  P8  1  0.354171  0.348763  0.500000  1
  P  P9  1  0.645563  0.000000  0.500000  1
  P  P10  1  0.514699  0.685853  0.000000  1
  P  P11  1  0.309836  0.825145  0.000000  1
  P  P12  1  0.164954  0.481287  0.000000  1
  P  P13  1  0.484691  0.174855  0.000000  1
  P  P14  1  0.683667  0.518713  0.000000  1
  P  P15  1  0.828846  0.314147  0.000000  1
  P  P16  1  0.999421  0.173764  0.500000  1
  P  P17  1  0.825656  0.826236  0.500000  1
  P  P18  1  0.181233  0.000000  0.500000  1
  Ir  Ir19  1  0.504938  0.864385  0.000000  1
  Ir  Ir20  1  0.127609  0.642721  0.000000  1
  Ir  Ir21  1  0.356013  0.495878  0.000000  1
  Ir  Ir22  1  0.484889  0.357279  0.000000  1
  Ir  Ir23  1  0.860137  0.504122  0.000000  1
  Ir  Ir24  1  0.640556  0.135615  0.000000  1
  Ir  Ir25  1  0.464924  0.000000  0.500000  1
  Ir  Ir26  1  0.997081  0.279459  0.000000  1
  Ir  Ir27  1  0.717622  0.720541  0.000000  1
  Ir  Ir28  1  0.289501  0.000000  0.000000  1
  Ir  Ir29  1  0.623969  0.807589  0.500000  1
  Ir  Ir30  1  0.203592  0.825285  0.500000  1
  Ir  Ir31  1  0.177503  0.366911  0.500000  1
  Ir  Ir32  1  0.378307  0.174715  0.500000  1
  Ir  Ir33  1  0.810591  0.633089  0.500000  1
  Ir  Ir34  1  0.816380  0.192411  0.500000  1
  Ir  Ir35  1  0.003522  0.000000  0.500000  1
