# generated using pymatgen
data_Ho8Ga(Pd5Pt7)2
_symmetry_space_group_name_H-M   'P 1'
_cell_length_a   8.34508000
_cell_length_b   8.33323226
_cell_length_c   8.33323226
_cell_angle_alpha   90.02862990
_cell_angle_beta   90.00000000
_cell_angle_gamma   90.00000000
_symmetry_Int_Tables_number   1
_chemical_formula_structural   Ho8Ga(Pd5Pt7)2
_chemical_formula_sum   'Ho8 Ga1 Pd10 Pt14'
_cell_volume   579.50531444
_cell_formula_units_Z   1
loop_
 _symmetry_equiv_pos_site_id
 _symmetry_equiv_pos_as_xyz
  1  'x, y, z'
loop_
 _atom_site_type_symbol
 _atom_site_label
 _atom_site_symmetry_multiplicity
 _atom_site_fract_x
 _atom_site_fract_y
 _atom_site_fract_z
 _atom_site_occupancy
  Ho  Ho0  1  0.251834  0.251912  0.748088  1
  Ho  Ho1  1  0.251685  0.748289  0.251711  1
  Ho  Ho2  1  0.748175  0.251830  0.251834  1
  Ho  Ho3  1  0.748175  0.748166  0.748170  1
  Ho  Ho4  1  0.748315  0.748289  0.251711  1
  Ho  Ho5  1  0.748166  0.251912  0.748088  1
  Ho  Ho6  1  0.251825  0.748166  0.748170  1
  Ho  Ho7  1  0.251825  0.251830  0.251834  1
  Ga  Ga8  1  0.000000  0.000071  0.999929  1
  Pd  Pd9  1  0.253096  0.499879  0.500121  1
  Pd  Pd10  1  0.500000  0.499822  0.253104  1
  Pd  Pd11  1  0.500000  0.746896  0.500178  1
  Pd  Pd12  1  0.746904  0.499879  0.500121  1
  Pd  Pd13  1  0.000000  0.999913  0.707745  1
  Pd  Pd14  1  0.000000  0.292255  0.000087  1
  Pd  Pd15  1  0.291863  0.999888  0.000112  1
  Pd  Pd16  1  0.000000  0.999891  0.292042  1
  Pd  Pd17  1  0.000000  0.707958  0.000109  1
  Pd  Pd18  1  0.708137  0.999888  0.000112  1
  Pt  Pt19  1  0.500000  0.499737  0.746868  1
  Pt  Pt20  1  0.500000  0.253132  0.500263  1
  Pt  Pt21  1  0.000000  0.500059  0.739823  1
  Pt  Pt22  1  0.500000  0.259880  0.999953  1
  Pt  Pt23  1  0.259809  0.000034  0.499922  1
  Pt  Pt24  1  0.000000  0.260177  0.499941  1
  Pt  Pt25  1  0.500000  0.000047  0.740120  1
  Pt  Pt26  1  0.259809  0.500078  0.999966  1
  Pt  Pt27  1  0.000000  0.500070  0.260198  1
  Pt  Pt28  1  0.500000  0.740003  0.999867  1
  Pt  Pt29  1  0.000000  0.739802  0.499930  1
  Pt  Pt30  1  0.500000  0.000133  0.259997  1
  Pt  Pt31  1  0.740191  0.000034  0.499922  1
  Pt  Pt32  1  0.740191  0.500078  0.999966  1
