# generated using pymatgen
data_Ac(BIr)4
_symmetry_space_group_name_H-M   'P 1'
_cell_length_a   7.83083500
_cell_length_b   7.83083500
_cell_length_c   3.98788200
_cell_angle_alpha   90.00000000
_cell_angle_beta   90.00000000
_cell_angle_gamma   90.00000000
_symmetry_Int_Tables_number   1
_chemical_formula_structural   Ac(BIr)4
_chemical_formula_sum   'Ac2 B8 Ir8'
_cell_volume   244.54480747
_cell_formula_units_Z   2
loop_
 _symmetry_equiv_pos_site_id
 _symmetry_equiv_pos_as_xyz
  1  'x, y, z'
loop_
 _atom_site_type_symbol
 _atom_site_label
 _atom_site_symmetry_multiplicity
 _atom_site_fract_x
 _atom_site_fract_y
 _atom_site_fract_z
 _atom_site_occupancy
  Ac  Ac0  1  0.500000  0.500000  0.000000  1
  Ac  Ac1  1  0.000000  0.000000  0.500000  1
  B  B2  1  0.658744  0.780838  0.604176  1
  B  B3  1  0.158744  0.280838  0.895824  1
  B  B4  1  0.280838  0.841256  0.104176  1
  B  B5  1  0.719162  0.158744  0.104176  1
  B  B6  1  0.341256  0.219162  0.604176  1
  B  B7  1  0.841256  0.719162  0.895824  1
  B  B8  1  0.219162  0.658744  0.395824  1
  B  B9  1  0.780838  0.341256  0.395824  1
  Ir  Ir10  1  0.341456  0.109143  0.104247  1
  Ir  Ir11  1  0.658544  0.890857  0.104247  1
  Ir  Ir12  1  0.609143  0.158544  0.604247  1
  Ir  Ir13  1  0.109143  0.658544  0.895753  1
  Ir  Ir14  1  0.158544  0.390857  0.395753  1
  Ir  Ir15  1  0.841456  0.609143  0.395753  1
  Ir  Ir16  1  0.890857  0.341456  0.895753  1
  Ir  Ir17  1  0.390857  0.841456  0.604247  1
