# generated using pymatgen
data_PrNdAl9IrPt2
_symmetry_space_group_name_H-M   'P 1'
_cell_length_a   7.66884305
_cell_length_b   7.66942949
_cell_length_c   9.58799500
_cell_angle_alpha   90.00000000
_cell_angle_beta   90.00000000
_cell_angle_gamma   119.61775818
_symmetry_Int_Tables_number   1
_chemical_formula_structural   PrNdAl9IrPt2
_chemical_formula_sum   'Pr2 Nd2 Al18 Ir2 Pt4'
_cell_volume   490.24284940
_cell_formula_units_Z   2
loop_
 _symmetry_equiv_pos_site_id
 _symmetry_equiv_pos_as_xyz
  1  'x, y, z'
loop_
 _atom_site_type_symbol
 _atom_site_label
 _atom_site_symmetry_multiplicity
 _atom_site_fract_x
 _atom_site_fract_y
 _atom_site_fract_z
 _atom_site_occupancy
  Pr  Pr0  1  0.993874  0.667653  0.250000  1
  Pr  Pr1  1  0.006126  0.332347  0.750000  1
  Nd  Nd2  1  0.667698  0.993879  0.250000  1
  Nd  Nd3  1  0.332302  0.006121  0.750000  1
  Al  Al4  1  0.128826  0.128949  0.250000  1
  Al  Al5  1  0.871174  0.871051  0.750000  1
  Al  Al6  1  0.001269  0.330688  0.073940  1
  Al  Al7  1  0.998731  0.669312  0.926060  1
  Al  Al8  1  0.998731  0.669312  0.573940  1
  Al  Al9  1  0.331012  0.001428  0.426192  1
  Al  Al10  1  0.001269  0.330688  0.426060  1
  Al  Al11  1  0.668988  0.998572  0.573808  1
  Al  Al12  1  0.668988  0.998572  0.926192  1
  Al  Al13  1  0.331012  0.001428  0.073808  1
  Al  Al14  1  0.331351  0.331202  0.552033  1
  Al  Al15  1  0.668649  0.668798  0.447967  1
  Al  Al16  1  0.668649  0.668798  0.052033  1
  Al  Al17  1  0.331351  0.331202  0.947967  1
  Al  Al18  1  0.340470  0.544544  0.250000  1
  Al  Al19  1  0.659530  0.455456  0.750000  1
  Al  Al20  1  0.544373  0.340187  0.250000  1
  Al  Al21  1  0.455627  0.659813  0.750000  1
  Ir  Ir22  1  0.000000  0.000000  0.000000  1
  Ir  Ir23  1  0.000000  0.000000  0.500000  1
  Pt  Pt24  1  0.671092  0.328665  0.999999  1
  Pt  Pt25  1  0.328908  0.671335  0.000001  1
  Pt  Pt26  1  0.328908  0.671335  0.499999  1
  Pt  Pt27  1  0.671092  0.328665  0.500001  1
