# generated using pymatgen
data_YbScB6Ir
_symmetry_space_group_name_H-M   'P 1'
_cell_length_a   3.54125900
_cell_length_b   8.97981600
_cell_length_c   11.36260500
_cell_angle_alpha   90.00000000
_cell_angle_beta   90.00000000
_cell_angle_gamma   90.00000000
_symmetry_Int_Tables_number   1
_chemical_formula_structural   YbScB6Ir
_chemical_formula_sum   'Yb4 Sc4 B24 Ir4'
_cell_volume   361.32918265
_cell_formula_units_Z   4
loop_
 _symmetry_equiv_pos_site_id
 _symmetry_equiv_pos_as_xyz
  1  'x, y, z'
loop_
 _atom_site_type_symbol
 _atom_site_label
 _atom_site_symmetry_multiplicity
 _atom_site_fract_x
 _atom_site_fract_y
 _atom_site_fract_z
 _atom_site_occupancy
  Yb  Yb0  1  0.500000  0.321468  0.413972  1
  Yb  Yb1  1  0.500000  0.678532  0.586028  1
  Yb  Yb2  1  0.500000  0.178532  0.913972  1
  Yb  Yb3  1  0.500000  0.821468  0.086028  1
  Sc  Sc4  1  0.500000  0.446091  0.124409  1
  Sc  Sc5  1  0.500000  0.553909  0.875591  1
  Sc  Sc6  1  0.500000  0.053909  0.624409  1
  Sc  Sc7  1  0.500000  0.946091  0.375591  1
  B  B8  1  0.000000  0.100168  0.473065  1
  B  B9  1  0.000000  0.899832  0.526935  1
  B  B10  1  0.000000  0.399832  0.973065  1
  B  B11  1  0.000000  0.600168  0.026935  1
  B  B12  1  0.000000  0.130188  0.318260  1
  B  B13  1  0.000000  0.869812  0.681740  1
  B  B14  1  0.000000  0.369812  0.818260  1
  B  B15  1  0.000000  0.630188  0.181740  1
  B  B16  1  0.000000  0.055302  0.067023  1
  B  B17  1  0.000000  0.944698  0.932977  1
  B  B18  1  0.000000  0.444698  0.567023  1
  B  B19  1  0.000000  0.555302  0.432977  1
  B  B20  1  0.000000  0.482666  0.285713  1
  B  B21  1  0.000000  0.517334  0.714287  1
  B  B22  1  0.000000  0.017334  0.785713  1
  B  B23  1  0.000000  0.982666  0.214287  1
  B  B24  1  0.000000  0.253015  0.080307  1
  B  B25  1  0.000000  0.746985  0.919693  1
  B  B26  1  0.000000  0.246985  0.580307  1
  B  B27  1  0.000000  0.753015  0.419693  1
  B  B28  1  0.000000  0.293689  0.235025  1
  B  B29  1  0.000000  0.706311  0.764975  1
  B  B30  1  0.000000  0.206311  0.735025  1
  B  B31  1  0.000000  0.793689  0.264975  1
  Ir  Ir32  1  0.500000  0.140471  0.181449  1
  Ir  Ir33  1  0.500000  0.859529  0.818551  1
  Ir  Ir34  1  0.500000  0.359529  0.681449  1
  Ir  Ir35  1  0.500000  0.640471  0.318551  1
