# generated using pymatgen
data_Ta2Nb4Co6W
_symmetry_space_group_name_H-M   'P 1'
_cell_length_a   4.94839702
_cell_length_b   4.94839527
_cell_length_c   9.18618171
_cell_angle_alpha   74.37503646
_cell_angle_beta   74.37504041
_cell_angle_gamma   59.99999342
_symmetry_Int_Tables_number   1
_chemical_formula_structural   Ta2Nb4Co6W
_chemical_formula_sum   'Ta2 Nb4 Co6 W1'
_cell_volume   185.14183448
_cell_formula_units_Z   1
loop_
 _symmetry_equiv_pos_site_id
 _symmetry_equiv_pos_as_xyz
  1  'x, y, z'
loop_
 _atom_site_type_symbol
 _atom_site_label
 _atom_site_symmetry_multiplicity
 _atom_site_fract_x
 _atom_site_fract_y
 _atom_site_fract_z
 _atom_site_occupancy
  Ta  Ta0  1  0.165995  0.165995  0.502015  1
  Ta  Ta1  1  0.834005  0.834005  0.497985  1
  Nb  Nb2  1  0.347251  0.347251  0.958248  1
  Nb  Nb3  1  0.652749  0.652749  0.041752  1
  Nb  Nb4  1  0.450778  0.450778  0.647666  1
  Nb  Nb5  1  0.549222  0.549222  0.352334  1
  Co  Co6  1  0.582241  0.092357  0.233045  1
  Co  Co7  1  0.092357  0.092357  0.233045  1
  Co  Co8  1  0.092357  0.582241  0.233045  1
  Co  Co9  1  0.417759  0.907643  0.766955  1
  Co  Co10  1  0.907643  0.907643  0.766955  1
  Co  Co11  1  0.907643  0.417759  0.766955  1
  W  W12  1  0.000000  0.000000  0.000000  1
