# generated using pymatgen
data_HoTm3(Lu4Bi3)4
_symmetry_space_group_name_H-M   'P 1'
_cell_length_a   8.14520814
_cell_length_b   9.39075100
_cell_length_c   11.82407421
_cell_angle_alpha   90.00000000
_cell_angle_beta   90.02154366
_cell_angle_gamma   90.00000000
_symmetry_Int_Tables_number   1
_chemical_formula_structural   HoTm3(Lu4Bi3)4
_chemical_formula_sum   'Ho1 Tm3 Lu16 Bi12'
_cell_volume   904.41889717
_cell_formula_units_Z   1
loop_
 _symmetry_equiv_pos_site_id
 _symmetry_equiv_pos_as_xyz
  1  'x, y, z'
loop_
 _atom_site_type_symbol
 _atom_site_label
 _atom_site_symmetry_multiplicity
 _atom_site_fract_x
 _atom_site_fract_y
 _atom_site_fract_z
 _atom_site_occupancy
  Ho  Ho0  1  0.186343  0.750000  0.717537  1
  Tm  Tm1  1  0.313578  0.250000  0.217385  1
  Tm  Tm2  1  0.813631  0.250000  0.282641  1
  Tm  Tm3  1  0.686272  0.750000  0.782596  1
  Lu  Lu4  1  0.353303  0.750000  0.218067  1
  Lu  Lu5  1  0.853255  0.750000  0.281891  1
  Lu  Lu6  1  0.646675  0.250000  0.781898  1
  Lu  Lu7  1  0.146755  0.250000  0.718097  1
  Lu  Lu8  1  0.692441  0.567019  0.059909  1
  Lu  Lu9  1  0.192391  0.932960  0.440039  1
  Lu  Lu10  1  0.307597  0.067063  0.940151  1
  Lu  Lu11  1  0.807582  0.432947  0.559896  1
  Lu  Lu12  1  0.307597  0.432937  0.940151  1
  Lu  Lu13  1  0.807582  0.067053  0.559896  1
  Lu  Lu14  1  0.692441  0.932981  0.059909  1
  Lu  Lu15  1  0.192391  0.567040  0.440039  1
  Lu  Lu16  1  0.477303  0.250000  0.489243  1
  Lu  Lu17  1  0.977254  0.250000  0.010671  1
  Lu  Lu18  1  0.522915  0.750000  0.510568  1
  Lu  Lu19  1  0.022683  0.750000  0.989519  1
  Bi  Bi20  1  0.403579  0.750000  0.958517  1
  Bi  Bi21  1  0.903035  0.750000  0.541311  1
  Bi  Bi22  1  0.596617  0.250000  0.041604  1
  Bi  Bi23  1  0.096669  0.250000  0.458383  1
  Bi  Bi24  1  0.566311  0.995564  0.325681  1
  Bi  Bi25  1  0.066363  0.504459  0.174260  1
  Bi  Bi26  1  0.433972  0.495319  0.674263  1
  Bi  Bi27  1  0.933410  0.004624  0.825837  1
  Bi  Bi28  1  0.433972  0.004681  0.674263  1
  Bi  Bi29  1  0.933410  0.495376  0.825837  1
  Bi  Bi30  1  0.566311  0.504436  0.325681  1
  Bi  Bi31  1  0.066363  0.995541  0.174260  1
