# generated using pymatgen
data_Tb2Nb3P7(RuRh2)3
_symmetry_space_group_name_H-M   'P 1'
_cell_length_a   3.89179800
_cell_length_b   9.68806758
_cell_length_c   9.68786931
_cell_angle_alpha   119.99905804
_cell_angle_beta   90.00039037
_cell_angle_gamma   90.00015988
_symmetry_Int_Tables_number   1
_chemical_formula_structural   Tb2Nb3P7(RuRh2)3
_chemical_formula_sum   'Tb2 Nb3 P7 Ru3 Rh6'
_cell_volume   316.33735240
_cell_formula_units_Z   1
loop_
 _symmetry_equiv_pos_site_id
 _symmetry_equiv_pos_as_xyz
  1  'x, y, z'
loop_
 _atom_site_type_symbol
 _atom_site_label
 _atom_site_symmetry_multiplicity
 _atom_site_fract_x
 _atom_site_fract_y
 _atom_site_fract_z
 _atom_site_occupancy
  Tb  Tb0  1  0.261691  0.666692  0.333368  1
  Tb  Tb1  1  0.761909  0.333322  0.666636  1
  Nb  Nb2  1  0.762018  0.099946  0.878316  1
  Nb  Nb3  1  0.762000  0.121710  0.221630  1
  Nb  Nb4  1  0.762015  0.778339  0.900089  1
  P  P5  1  0.262199  0.999980  0.999984  1
  P  P6  1  0.761786  0.872729  0.589932  1
  P  P7  1  0.761767  0.410106  0.282812  1
  P  P8  1  0.761741  0.717213  0.127313  1
  P  P9  1  0.261918  0.114534  0.415362  1
  P  P10  1  0.261933  0.584611  0.699153  1
  P  P11  1  0.261918  0.300815  0.885432  1
  Ru  Ru12  1  0.261845  0.883344  0.160682  1
  Ru  Ru13  1  0.261892  0.839358  0.722742  1
  Ru  Ru14  1  0.261860  0.277275  0.116599  1
  Rh  Rh15  1  0.761901  0.607928  0.554317  1
  Rh  Rh16  1  0.761885  0.445707  0.053629  1
  Rh  Rh17  1  0.761880  0.946408  0.392070  1
  Rh  Rh18  1  0.261945  0.366639  0.438607  1
  Rh  Rh19  1  0.261955  0.561365  0.927975  1
  Rh  Rh20  1  0.261941  0.071980  0.633352  1
