# generated using pymatgen
data_DyTm2Zr(Al8Pt3)3
_symmetry_space_group_name_H-M   'P 1'
_cell_length_a   7.52062433
_cell_length_b   7.52722739
_cell_length_c   13.08560763
_cell_angle_alpha   84.54754245
_cell_angle_beta   79.01467943
_cell_angle_gamma   59.90414595
_symmetry_Int_Tables_number   1
_chemical_formula_structural   DyTm2Zr(Al8Pt3)3
_chemical_formula_sum   'Dy1 Tm2 Zr1 Al24 Pt9'
_cell_volume   629.16023996
_cell_formula_units_Z   1
loop_
 _symmetry_equiv_pos_site_id
 _symmetry_equiv_pos_as_xyz
  1  'x, y, z'
loop_
 _atom_site_type_symbol
 _atom_site_label
 _atom_site_symmetry_multiplicity
 _atom_site_fract_x
 _atom_site_fract_y
 _atom_site_fract_z
 _atom_site_occupancy
  Dy  Dy0  1  0.266614  0.501384  0.191880  1
  Tm  Tm1  1  0.606365  0.831752  0.192344  1
  Tm  Tm2  1  0.734071  0.498760  0.807048  1
  Zr  Zr3  1  0.393330  0.167957  0.809373  1
  Al  Al4  1  0.682154  0.835802  0.941686  1
  Al  Al5  1  0.317013  0.165867  0.053946  1
  Al  Al6  1  0.146458  0.832799  0.562598  1
  Al  Al7  1  0.853048  0.167151  0.438312  1
  Al  Al8  1  0.479916  0.166762  0.560877  1
  Al  Al9  1  0.519317  0.833784  0.441144  1
  Al  Al10  1  0.217612  0.165004  0.329922  1
  Al  Al11  1  0.779363  0.836602  0.673178  1
  Al  Al12  1  0.436348  0.504394  0.673580  1
  Al  Al13  1  0.562450  0.494055  0.329221  1
  Al  Al14  1  0.110822  0.160200  0.672470  1
  Al  Al15  1  0.889754  0.839765  0.330508  1
  Al  Al16  1  0.354686  0.496464  0.941297  1
  Al  Al17  1  0.647911  0.500575  0.055224  1
  Al  Al18  1  0.018392  0.168518  0.949832  1
  Al  Al19  1  0.984130  0.832848  0.046465  1
  Al  Al20  1  0.186707  0.499272  0.441326  1
  Al  Al21  1  0.813562  0.500425  0.559192  1
  Al  Al22  1  0.734098  0.163241  0.183607  1
  Al  Al23  1  0.266418  0.841030  0.816318  1
  Al  Al24  1  0.065812  0.626107  0.815016  1
  Al  Al25  1  0.938775  0.368816  0.184384  1
  Al  Al26  1  0.850341  0.042067  0.815610  1
  Al  Al27  1  0.145229  0.958734  0.183785  1
  Pt  Pt28  1  0.119246  0.491055  0.639440  1
  Pt  Pt29  1  0.878827  0.508842  0.361262  1
  Pt  Pt30  1  0.657569  0.171937  0.998824  1
  Pt  Pt31  1  0.343972  0.827619  0.999194  1
  Pt  Pt32  1  0.537432  0.166356  0.361779  1
  Pt  Pt33  1  0.463595  0.832222  0.639417  1
  Pt  Pt34  1  0.778209  0.176730  0.638062  1
  Pt  Pt35  1  0.220936  0.824730  0.362965  1
  Pt  Pt36  1  0.999519  0.500375  0.998909  1
