# generated using pymatgen
data_Ca9Nd3(SiRh)8
_symmetry_space_group_name_H-M   'P 1'
_cell_length_a   5.79460049
_cell_length_b   7.74576641
_cell_length_c   13.36807300
_cell_angle_alpha   90.00000000
_cell_angle_beta   90.00000000
_cell_angle_gamma   90.09832296
_symmetry_Int_Tables_number   1
_chemical_formula_structural   Ca9Nd3(SiRh)8
_chemical_formula_sum   'Ca9 Nd3 Si8 Rh8'
_cell_volume   600.00664977
_cell_formula_units_Z   1
loop_
 _symmetry_equiv_pos_site_id
 _symmetry_equiv_pos_as_xyz
  1  'x, y, z'
loop_
 _atom_site_type_symbol
 _atom_site_label
 _atom_site_symmetry_multiplicity
 _atom_site_fract_x
 _atom_site_fract_y
 _atom_site_fract_z
 _atom_site_occupancy
  Ca  Ca0  1  0.637590  0.241676  0.250000  1
  Ca  Ca1  1  0.130377  0.387581  0.100987  1
  Ca  Ca2  1  0.867758  0.607606  0.900884  1
  Ca  Ca3  1  0.867758  0.607606  0.599116  1
  Ca  Ca4  1  0.865396  0.895292  0.399987  1
  Ca  Ca5  1  0.130377  0.387581  0.399013  1
  Ca  Ca6  1  0.132882  0.108494  0.600689  1
  Ca  Ca7  1  0.132882  0.108494  0.899311  1
  Ca  Ca8  1  0.865396  0.895292  0.100013  1
  Nd  Nd9  1  0.363267  0.759034  0.750000  1
  Nd  Nd10  1  0.363528  0.737541  0.250000  1
  Nd  Nd11  1  0.637311  0.258701  0.750000  1
  Si  Si12  1  0.160611  0.090060  0.250000  1
  Si  Si13  1  0.849857  0.901961  0.750000  1
  Si  Si14  1  0.847596  0.593082  0.250000  1
  Si  Si15  1  0.152277  0.404263  0.750000  1
  Si  Si16  1  0.595411  0.251802  0.999004  1
  Si  Si17  1  0.404719  0.750909  0.998849  1
  Si  Si18  1  0.404719  0.750909  0.501151  1
  Si  Si19  1  0.595411  0.251802  0.500996  1
  Rh  Rh20  1  0.368936  0.026127  0.089696  1
  Rh  Rh21  1  0.632063  0.974899  0.909227  1
  Rh  Rh22  1  0.632063  0.974899  0.590773  1
  Rh  Rh23  1  0.628941  0.529187  0.409752  1
  Rh  Rh24  1  0.368936  0.026127  0.410304  1
  Rh  Rh25  1  0.367500  0.474945  0.589543  1
  Rh  Rh26  1  0.367500  0.474945  0.910457  1
  Rh  Rh27  1  0.628941  0.529187  0.090248  1
