# generated using pymatgen
data_Ba3LuCrO6
_symmetry_space_group_name_H-M   'P 1'
_cell_length_a   7.12519247
_cell_length_b   7.12519249
_cell_length_c   7.12519325
_cell_angle_alpha   93.69307275
_cell_angle_beta   93.69307065
_cell_angle_gamma   93.69306899
_symmetry_Int_Tables_number   1
_chemical_formula_structural   Ba3LuCrO6
_chemical_formula_sum   'Ba6 Lu2 Cr2 O12'
_cell_volume   359.37891807
_cell_formula_units_Z   2
loop_
 _symmetry_equiv_pos_site_id
 _symmetry_equiv_pos_as_xyz
  1  'x, y, z'
loop_
 _atom_site_type_symbol
 _atom_site_label
 _atom_site_symmetry_multiplicity
 _atom_site_fract_x
 _atom_site_fract_y
 _atom_site_fract_z
 _atom_site_occupancy
  Ba  Ba0  1  0.385065  0.114934  0.750000  1
  Ba  Ba1  1  0.750000  0.385066  0.114935  1
  Ba  Ba2  1  0.249999  0.614935  0.885066  1
  Ba  Ba3  1  0.614934  0.885065  0.250001  1
  Ba  Ba4  1  0.114935  0.750000  0.385066  1
  Ba  Ba5  1  0.885065  0.250000  0.614935  1
  Lu  Lu6  1  0.750000  0.750001  0.750000  1
  Lu  Lu7  1  0.250001  0.250000  0.250000  1
  Cr  Cr8  1  0.500000  0.500000  0.500000  1
  Cr  Cr9  1  0.000000  0.000000  0.000000  1
  O  O10  1  0.777464  0.594400  0.469655  1
  O  O11  1  0.594401  0.469654  0.777464  1
  O  O12  1  0.469654  0.777464  0.594401  1
  O  O13  1  0.030345  0.905600  0.722537  1
  O  O14  1  0.905599  0.722536  0.030345  1
  O  O15  1  0.722537  0.030345  0.905599  1
  O  O16  1  0.222537  0.405599  0.530346  1
  O  O17  1  0.405599  0.530345  0.222537  1
  O  O18  1  0.530345  0.222537  0.405598  1
  O  O19  1  0.969655  0.094401  0.277464  1
  O  O20  1  0.277464  0.969654  0.094400  1
  O  O21  1  0.094400  0.277463  0.969654  1
