# generated using pymatgen
data_Th2ZnRh4Au
_symmetry_space_group_name_H-M   'P 1'
_cell_length_a   6.16887100
_cell_length_b   6.16875100
_cell_length_c   7.70007800
_cell_angle_alpha   90.00000000
_cell_angle_beta   90.00000000
_cell_angle_gamma   90.00000000
_symmetry_Int_Tables_number   1
_chemical_formula_structural   Th2ZnRh4Au
_chemical_formula_sum   'Th4 Zn2 Rh8 Au2'
_cell_volume   293.02053269
_cell_formula_units_Z   2
loop_
 _symmetry_equiv_pos_site_id
 _symmetry_equiv_pos_as_xyz
  1  'x, y, z'
loop_
 _atom_site_type_symbol
 _atom_site_label
 _atom_site_symmetry_multiplicity
 _atom_site_fract_x
 _atom_site_fract_y
 _atom_site_fract_z
 _atom_site_occupancy
  Th  Th0  1  0.750005  0.250000  0.000000  1
  Th  Th1  1  0.249995  0.750001  0.000000  1
  Th  Th2  1  0.750044  0.250000  0.500000  1
  Th  Th3  1  0.249957  0.750001  0.500000  1
  Zn  Zn4  1  0.750026  0.750001  0.499996  1
  Zn  Zn5  1  0.249975  0.250000  0.500003  1
  Rh  Rh6  1  0.000000  0.000000  0.260546  1
  Rh  Rh7  1  0.000000  0.500001  0.260546  1
  Rh  Rh8  1  0.499999  0.000000  0.260546  1
  Rh  Rh9  1  0.499999  0.499999  0.260546  1
  Rh  Rh10  1  0.500002  0.000000  0.739453  1
  Rh  Rh11  1  0.500002  0.500001  0.739453  1
  Rh  Rh12  1  0.000000  0.000000  0.739454  1
  Rh  Rh13  1  0.000000  0.499999  0.739454  1
  Au  Au14  1  0.249930  0.250000  0.000000  1
  Au  Au15  1  0.750071  0.750001  0.000000  1
