# generated using pymatgen
data_Tb4AlGaSi2
_symmetry_space_group_name_H-M   'P 1'
_cell_length_a   3.97645900
_cell_length_b   4.34804200
_cell_length_c   10.84759500
_cell_angle_alpha   90.00000000
_cell_angle_beta   90.00000000
_cell_angle_gamma   90.00000000
_symmetry_Int_Tables_number   1
_chemical_formula_structural   Tb4AlGaSi2
_chemical_formula_sum   'Tb4 Al1 Ga1 Si2'
_cell_volume   187.55286457
_cell_formula_units_Z   1
loop_
 _symmetry_equiv_pos_site_id
 _symmetry_equiv_pos_as_xyz
  1  'x, y, z'
loop_
 _atom_site_type_symbol
 _atom_site_label
 _atom_site_symmetry_multiplicity
 _atom_site_fract_x
 _atom_site_fract_y
 _atom_site_fract_z
 _atom_site_occupancy
  Tb  Tb0  1  0.000000  0.000000  0.358798  1
  Tb  Tb1  1  0.000000  0.500000  0.857776  1
  Tb  Tb2  1  0.500000  0.500000  0.137401  1
  Tb  Tb3  1  0.500000  0.000000  0.643948  1
  Al  Al4  1  0.500000  0.500000  0.430932  1
  Ga  Ga5  1  0.000000  0.000000  0.071111  1
  Si  Si6  1  0.000000  0.500000  0.577559  1
  Si  Si7  1  0.500000  0.000000  0.922473  1
