# generated using pymatgen
data_NdZrB6Os
_symmetry_space_group_name_H-M   'P 1'
_cell_length_a   3.62211600
_cell_length_b   9.14553800
_cell_length_c   11.55262500
_cell_angle_alpha   90.00000000
_cell_angle_beta   90.00000000
_cell_angle_gamma   90.00000000
_symmetry_Int_Tables_number   1
_chemical_formula_structural   NdZrB6Os
_chemical_formula_sum   'Nd4 Zr4 B24 Os4'
_cell_volume   382.69456071
_cell_formula_units_Z   4
loop_
 _symmetry_equiv_pos_site_id
 _symmetry_equiv_pos_as_xyz
  1  'x, y, z'
loop_
 _atom_site_type_symbol
 _atom_site_label
 _atom_site_symmetry_multiplicity
 _atom_site_fract_x
 _atom_site_fract_y
 _atom_site_fract_z
 _atom_site_occupancy
  Nd  Nd0  1  0.000000  0.322498  0.413662  1
  Nd  Nd1  1  0.000000  0.677502  0.586338  1
  Nd  Nd2  1  0.000000  0.822498  0.086338  1
  Nd  Nd3  1  0.000000  0.177502  0.913662  1
  Zr  Zr4  1  0.000000  0.945563  0.374706  1
  Zr  Zr5  1  0.000000  0.054437  0.625294  1
  Zr  Zr6  1  0.000000  0.445563  0.125294  1
  Zr  Zr7  1  0.000000  0.554437  0.874706  1
  B  B8  1  0.500000  0.555695  0.430611  1
  B  B9  1  0.500000  0.444305  0.569389  1
  B  B10  1  0.500000  0.055695  0.069389  1
  B  B11  1  0.500000  0.944305  0.930611  1
  B  B12  1  0.500000  0.752777  0.416654  1
  B  B13  1  0.500000  0.247223  0.583346  1
  B  B14  1  0.500000  0.252777  0.083346  1
  B  B15  1  0.500000  0.747223  0.916654  1
  B  B16  1  0.500000  0.794346  0.265519  1
  B  B17  1  0.500000  0.205654  0.734481  1
  B  B18  1  0.500000  0.294346  0.234481  1
  B  B19  1  0.500000  0.705654  0.765519  1
  B  B20  1  0.500000  0.629429  0.183652  1
  B  B21  1  0.500000  0.370571  0.816348  1
  B  B22  1  0.500000  0.129429  0.316348  1
  B  B23  1  0.500000  0.870571  0.683652  1
  B  B24  1  0.500000  0.983685  0.214169  1
  B  B25  1  0.500000  0.016315  0.785831  1
  B  B26  1  0.500000  0.483685  0.285831  1
  B  B27  1  0.500000  0.516315  0.714169  1
  B  B28  1  0.500000  0.599900  0.026752  1
  B  B29  1  0.500000  0.400100  0.973248  1
  B  B30  1  0.500000  0.099900  0.473248  1
  B  B31  1  0.500000  0.900100  0.526752  1
  Os  Os32  1  0.000000  0.642466  0.317382  1
  Os  Os33  1  0.000000  0.357534  0.682618  1
  Os  Os34  1  0.000000  0.142466  0.182618  1
  Os  Os35  1  0.000000  0.857534  0.817382  1
