# generated using pymatgen
data_HfTiNbB2Ru5
_symmetry_space_group_name_H-M   'P 1'
_cell_length_a   9.37681710
_cell_length_b   9.37425310
_cell_length_c   3.05847400
_cell_angle_alpha   90.00000000
_cell_angle_beta   90.00000000
_cell_angle_gamma   89.93822787
_symmetry_Int_Tables_number   1
_chemical_formula_structural   HfTiNbB2Ru5
_chemical_formula_sum   'Hf2 Ti2 Nb2 B4 Ru10'
_cell_volume   268.84171704
_cell_formula_units_Z   2
loop_
 _symmetry_equiv_pos_site_id
 _symmetry_equiv_pos_as_xyz
  1  'x, y, z'
loop_
 _atom_site_type_symbol
 _atom_site_label
 _atom_site_symmetry_multiplicity
 _atom_site_fract_x
 _atom_site_fract_y
 _atom_site_fract_z
 _atom_site_occupancy
  Hf  Hf0  1  0.823807  0.676165  0.000000  1
  Hf  Hf1  1  0.176193  0.323835  0.000000  1
  Ti  Ti2  1  0.500000  0.500000  0.000000  1
  Ti  Ti3  1  0.000000  0.000000  0.000000  1
  Nb  Nb4  1  0.323372  0.823367  0.000000  1
  Nb  Nb5  1  0.676628  0.176633  0.000000  1
  B  B6  1  0.623622  0.876327  0.000000  1
  B  B7  1  0.376378  0.123673  0.000000  1
  B  B8  1  0.123141  0.623157  0.000000  1
  B  B9  1  0.876859  0.376843  0.000000  1
  Ru  Ru10  1  0.567286  0.717129  0.500000  1
  Ru  Ru11  1  0.432714  0.282871  0.500000  1
  Ru  Ru12  1  0.073101  0.785093  0.500000  1
  Ru  Ru13  1  0.926899  0.214907  0.500000  1
  Ru  Ru14  1  0.285096  0.573117  0.500000  1
  Ru  Ru15  1  0.714904  0.426883  0.500000  1
  Ru  Ru16  1  0.217129  0.067274  0.500000  1
  Ru  Ru17  1  0.782871  0.932726  0.500000  1
  Ru  Ru18  1  0.500000  0.000000  0.500000  1
  Ru  Ru19  1  0.000000  0.500000  0.500000  1
