# generated using pymatgen
data_AcThP7Ru12
_symmetry_space_group_name_H-M   'P 1'
_cell_length_a   9.55017700
_cell_length_b   9.55017584
_cell_length_c   3.99119100
_cell_angle_alpha   90.00000000
_cell_angle_beta   90.00000000
_cell_angle_gamma   119.99999269
_symmetry_Int_Tables_number   1
_chemical_formula_structural   AcThP7Ru12
_chemical_formula_sum   'Ac1 Th1 P7 Ru12'
_cell_volume   315.25063074
_cell_formula_units_Z   1
loop_
 _symmetry_equiv_pos_site_id
 _symmetry_equiv_pos_as_xyz
  1  'x, y, z'
loop_
 _atom_site_type_symbol
 _atom_site_label
 _atom_site_symmetry_multiplicity
 _atom_site_fract_x
 _atom_site_fract_y
 _atom_site_fract_z
 _atom_site_occupancy
  Ac  Ac0  1  0.333333  0.666667  0.000000  1
  Th  Th1  1  0.666667  0.333333  0.500000  1
  P  P2  1  0.611013  0.717209  0.500000  1
  P  P3  1  0.000000  0.000000  0.000000  1
  P  P4  1  0.282791  0.893804  0.500000  1
  P  P5  1  0.106196  0.388987  0.500000  1
  P  P6  1  0.894314  0.577680  0.000000  1
  P  P7  1  0.422320  0.316635  0.000000  1
  P  P8  1  0.683365  0.105686  0.000000  1
  Ru  Ru9  1  0.562133  0.958097  0.500000  1
  Ru  Ru10  1  0.395966  0.437867  0.500000  1
  Ru  Ru11  1  0.913411  0.118404  0.500000  1
  Ru  Ru12  1  0.204993  0.086589  0.500000  1
  Ru  Ru13  1  0.881596  0.795007  0.500000  1
  Ru  Ru14  1  0.730532  0.891153  0.000000  1
  Ru  Ru15  1  0.108847  0.839379  0.000000  1
  Ru  Ru16  1  0.160621  0.269468  0.000000  1
  Ru  Ru17  1  0.422281  0.071910  0.000000  1
  Ru  Ru18  1  0.928090  0.350372  0.000000  1
  Ru  Ru19  1  0.649628  0.577719  0.000000  1
  Ru  Ru20  1  0.041903  0.604034  0.500000  1
