# generated using pymatgen
data_Tm2Fe4Co8P7
_symmetry_space_group_name_H-M   'P 1'
_cell_length_a   8.96200020
_cell_length_b   8.97418755
_cell_length_c   3.60462300
_cell_angle_alpha   90.00000000
_cell_angle_beta   90.00000000
_cell_angle_gamma   119.97909571
_symmetry_Int_Tables_number   1
_chemical_formula_structural   Tm2Fe4Co8P7
_chemical_formula_sum   'Tm2 Fe4 Co8 P7'
_cell_volume   251.12041209
_cell_formula_units_Z   1
loop_
 _symmetry_equiv_pos_site_id
 _symmetry_equiv_pos_as_xyz
  1  'x, y, z'
loop_
 _atom_site_type_symbol
 _atom_site_label
 _atom_site_symmetry_multiplicity
 _atom_site_fract_x
 _atom_site_fract_y
 _atom_site_fract_z
 _atom_site_occupancy
  Tm  Tm0  1  0.334089  0.666525  0.000000  1
  Tm  Tm1  1  0.000047  0.000238  0.500000  1
  Fe  Fe2  1  0.548740  0.490625  0.000000  1
  Fe  Fe3  1  0.760594  0.209421  0.500000  1
  Fe  Fe4  1  0.445739  0.237116  0.500000  1
  Fe  Fe5  1  0.792213  0.555311  0.500000  1
  Co  Co6  1  0.727316  0.961403  0.000000  1
  Co  Co7  1  0.233995  0.272147  0.000000  1
  Co  Co8  1  0.038666  0.765947  0.000000  1
  Co  Co9  1  0.941512  0.450982  0.000000  1
  Co  Co10  1  0.508488  0.057209  0.000000  1
  Co  Co11  1  0.102752  0.384278  0.500000  1
  Co  Co12  1  0.281446  0.897019  0.500000  1
  Co  Co13  1  0.616503  0.718477  0.500000  1
  P  P14  1  0.962677  0.219309  0.000000  1
  P  P15  1  0.256962  0.037731  0.000000  1
  P  P16  1  0.780093  0.742986  0.000000  1
  P  P17  1  0.069808  0.622473  0.500000  1
  P  P18  1  0.553747  0.930367  0.500000  1
  P  P19  1  0.379140  0.447346  0.500000  1
  P  P20  1  0.665476  0.333086  0.000000  1
