# generated using pymatgen
data_Sc20PPb12
_symmetry_space_group_name_H-M   'P 1'
_cell_length_a   6.27094900
_cell_length_b   8.54127056
_cell_length_c   14.88360500
_cell_angle_alpha   90.00000671
_cell_angle_beta   90.00000000
_cell_angle_gamma   89.89064433
_symmetry_Int_Tables_number   1
_chemical_formula_structural   Sc20PPb12
_chemical_formula_sum   'Sc20 P1 Pb12'
_cell_volume   797.19229477
_cell_formula_units_Z   1
loop_
 _symmetry_equiv_pos_site_id
 _symmetry_equiv_pos_as_xyz
  1  'x, y, z'
loop_
 _atom_site_type_symbol
 _atom_site_label
 _atom_site_symmetry_multiplicity
 _atom_site_fract_x
 _atom_site_fract_y
 _atom_site_fract_z
 _atom_site_occupancy
  Sc  Sc0  1  0.499996  0.999998  0.334245  1
  Sc  Sc1  1  0.499992  0.499994  0.831352  1
  Sc  Sc2  1  0.499992  0.499994  0.168648  1
  Sc  Sc3  1  0.499996  0.999998  0.665755  1
  Sc  Sc4  1  0.999997  0.500001  0.165897  1
  Sc  Sc5  1  0.000005  0.999994  0.666570  1
  Sc  Sc6  1  0.000005  0.999994  0.333430  1
  Sc  Sc7  1  0.999997  0.500001  0.834103  1
  Sc  Sc8  1  0.744957  0.240503  0.000000  1
  Sc  Sc9  1  0.749383  0.737173  0.500000  1
  Sc  Sc10  1  0.751032  0.382057  0.383396  1
  Sc  Sc11  1  0.744835  0.878300  0.878125  1
  Sc  Sc12  1  0.744835  0.878300  0.121875  1
  Sc  Sc13  1  0.751032  0.382057  0.616604  1
  Sc  Sc14  1  0.255029  0.759501  0.000000  1
  Sc  Sc15  1  0.250611  0.262835  0.500000  1
  Sc  Sc16  1  0.255168  0.121698  0.121868  1
  Sc  Sc17  1  0.249000  0.617949  0.616584  1
  Sc  Sc18  1  0.249000  0.617949  0.383416  1
  Sc  Sc19  1  0.255168  0.121698  0.878132  1
  P  P20  1  0.499995  0.999991  0.000000  1
  Pb  Pb21  1  0.748472  0.604109  0.000000  1
  Pb  Pb22  1  0.750459  0.105395  0.500000  1
  Pb  Pb23  1  0.750121  0.198450  0.199107  1
  Pb  Pb24  1  0.752466  0.695870  0.695425  1
  Pb  Pb25  1  0.752466  0.695870  0.304575  1
  Pb  Pb26  1  0.750121  0.198450  0.800893  1
  Pb  Pb27  1  0.251527  0.395891  0.000000  1
  Pb  Pb28  1  0.249509  0.894619  0.500000  1
  Pb  Pb29  1  0.247537  0.304131  0.304580  1
  Pb  Pb30  1  0.249881  0.801550  0.800894  1
  Pb  Pb31  1  0.249881  0.801550  0.199106  1
  Pb  Pb32  1  0.247537  0.304131  0.695420  1
