# generated using pymatgen
data_SrPa2(GaPt)3
_symmetry_space_group_name_H-M   'P 1'
_cell_length_a   7.33241181
_cell_length_b   7.33241194
_cell_length_c   4.01080700
_cell_angle_alpha   90.00000000
_cell_angle_beta   90.00000000
_cell_angle_gamma   119.81395564
_symmetry_Int_Tables_number   1
_chemical_formula_structural   SrPa2(GaPt)3
_chemical_formula_sum   'Sr1 Pa2 Ga3 Pt3'
_cell_volume   187.09717319
_cell_formula_units_Z   1
loop_
 _symmetry_equiv_pos_site_id
 _symmetry_equiv_pos_as_xyz
  1  'x, y, z'
loop_
 _atom_site_type_symbol
 _atom_site_label
 _atom_site_symmetry_multiplicity
 _atom_site_fract_x
 _atom_site_fract_y
 _atom_site_fract_z
 _atom_site_occupancy
  Sr  Sr0  1  0.588566  0.588566  0.500000  1
  Pa  Pa1  1  0.414359  0.997730  0.500000  1
  Pa  Pa2  1  0.997730  0.414359  0.500000  1
  Ga  Ga3  1  0.757063  0.993462  0.000000  1
  Ga  Ga4  1  0.993462  0.757063  0.000000  1
  Ga  Ga5  1  0.249107  0.249107  0.000000  1
  Pt  Pt6  1  0.307033  0.671298  0.000000  1
  Pt  Pt7  1  0.671298  0.307033  0.000000  1
  Pt  Pt8  1  0.021383  0.021383  0.500000  1
