# generated using pymatgen
data_Ti8Al15Os6Pt
_symmetry_space_group_name_H-M   'P 1'
_cell_length_a   8.70884449
_cell_length_b   8.69091284
_cell_length_c   8.67480573
_cell_angle_alpha   120.15797627
_cell_angle_beta   119.93377233
_cell_angle_gamma   90.04956996
_symmetry_Int_Tables_number   1
_chemical_formula_structural   Ti8Al15Os6Pt
_chemical_formula_sum   'Ti8 Al15 Os6 Pt1'
_cell_volume   463.42165241
_cell_formula_units_Z   1
loop_
 _symmetry_equiv_pos_site_id
 _symmetry_equiv_pos_as_xyz
  1  'x, y, z'
loop_
 _atom_site_type_symbol
 _atom_site_label
 _atom_site_symmetry_multiplicity
 _atom_site_fract_x
 _atom_site_fract_y
 _atom_site_fract_z
 _atom_site_occupancy
  Ti  Ti0  1  0.793070  0.283926  0.066123  1
  Ti  Ti1  1  0.221312  0.286063  0.492620  1
  Ti  Ti2  1  0.217175  0.707952  0.498549  1
  Ti  Ti3  1  0.219940  0.724260  0.933847  1
  Ti  Ti4  1  0.784279  0.720044  0.508473  1
  Ti  Ti5  1  0.772463  0.282738  0.500294  1
  Ti  Ti6  1  0.388555  0.125043  0.749821  1
  Ti  Ti7  1  0.378457  0.635471  0.257000  1
  Al  Al8  1  0.996498  0.496420  0.500854  1
  Al  Al9  1  0.157425  0.342108  0.184681  1
  Al  Al10  1  0.155932  0.966779  0.811917  1
  Al  Al11  1  0.151730  0.349521  0.805470  1
  Al  Al12  1  0.538967  0.345756  0.191761  1
  Al  Al13  1  0.846542  0.654027  0.810862  1
  Al  Al14  1  0.844295  0.041340  0.192650  1
  Al  Al15  1  0.842079  0.652726  0.189660  1
  Al  Al16  1  0.467339  0.654886  0.811842  1
  Al  Al17  1  0.378186  0.120731  0.256250  1
  Al  Al18  1  0.861613  0.122503  0.743017  1
  Al  Al19  1  0.617152  0.875323  0.254369  1
  Al  Al20  1  0.619149  0.364949  0.744930  1
  Al  Al21  1  0.619179  0.877193  0.742558  1
  Al  Al22  1  0.137598  0.876246  0.254022  1
  Os  Os23  1  0.497540  0.998744  0.999093  1
  Os  Os24  1  0.497793  0.499370  0.000553  1
  Os  Os25  1  0.499295  0.498247  0.498920  1
  Os  Os26  1  0.998360  0.498710  0.001553  1
  Os  Os27  1  0.998276  0.999783  0.998557  1
  Os  Os28  1  0.499282  0.999464  0.499850  1
  Pt  Pt29  1  0.000515  0.999674  0.499904  1
