# generated using pymatgen
data_Dy7Er5Fe2I17
_symmetry_space_group_name_H-M   'P 1'
_cell_length_a   9.72663089
_cell_length_b   11.66549170
_cell_length_c   11.68658285
_cell_angle_alpha   93.54333666
_cell_angle_beta   104.79567271
_cell_angle_gamma   113.96969886
_symmetry_Int_Tables_number   1
_chemical_formula_structural   Dy7Er5Fe2I17
_chemical_formula_sum   'Dy7 Er5 Fe2 I17'
_cell_volume   1150.74528384
_cell_formula_units_Z   1
loop_
 _symmetry_equiv_pos_site_id
 _symmetry_equiv_pos_as_xyz
  1  'x, y, z'
loop_
 _atom_site_type_symbol
 _atom_site_label
 _atom_site_symmetry_multiplicity
 _atom_site_fract_x
 _atom_site_fract_y
 _atom_site_fract_z
 _atom_site_occupancy
  Dy  Dy0  1  0.051344  0.502150  0.318748  1
  Dy  Dy1  1  0.991917  0.807321  0.590182  1
  Dy  Dy2  1  0.656957  0.241531  0.279221  1
  Dy  Dy3  1  0.008361  0.191058  0.411013  1
  Dy  Dy4  1  0.217591  0.671591  0.981027  1
  Dy  Dy5  1  0.253354  0.977377  0.888741  1
  Dy  Dy6  1  0.344831  0.757912  0.719220  1
  Er  Er7  1  0.949921  0.500703  0.682071  1
  Er  Er8  1  0.747579  0.024894  0.112043  1
  Er  Er9  1  0.136384  0.285654  0.153783  1
  Er  Er10  1  0.782090  0.327301  0.018932  1
  Er  Er11  1  0.860503  0.713351  0.845974  1
  Fe  Fe12  1  0.103999  0.738108  0.785861  1
  Fe  Fe13  1  0.895607  0.261702  0.213908  1
  I  I14  1  0.785658  0.528087  0.418389  1
  I  I15  1  0.648731  0.420637  0.764677  1
  I  I16  1  0.844015  0.896894  0.326758  1
  I  I17  1  0.326230  0.214633  0.366254  1
  I  I18  1  0.155112  0.102659  0.672290  1
  I  I19  1  0.584913  0.052852  0.843860  1
  I  I20  1  0.761138  0.191983  0.538872  1
  I  I21  1  0.552585  0.713462  0.954626  1
  I  I22  1  0.352204  0.578111  0.235790  1
  I  I23  1  0.213860  0.471017  0.582144  1
  I  I24  1  0.055545  0.367959  0.897440  1
  I  I25  1  0.448571  0.287542  0.045535  1
  I  I26  1  0.999525  0.000042  0.000279  1
  I  I27  1  0.239480  0.809425  0.461469  1
  I  I28  1  0.415959  0.947023  0.155875  1
  I  I29  1  0.673211  0.785418  0.633303  1
  I  I30  1  0.942823  0.631605  0.101717  1
