# generated using pymatgen
data_Pr4Co4As11PRh16
_symmetry_space_group_name_H-M   'P 1'
_cell_length_a   3.97777100
_cell_length_b   11.23665533
_cell_length_c   12.83975184
_cell_angle_alpha   90.10004507
_cell_angle_beta   90.00000000
_cell_angle_gamma   90.00000000
_symmetry_Int_Tables_number   1
_chemical_formula_structural   Pr4Co4As11PRh16
_chemical_formula_sum   'Pr4 Co4 As11 P1 Rh16'
_cell_volume   573.89548066
_cell_formula_units_Z   1
loop_
 _symmetry_equiv_pos_site_id
 _symmetry_equiv_pos_as_xyz
  1  'x, y, z'
loop_
 _atom_site_type_symbol
 _atom_site_label
 _atom_site_symmetry_multiplicity
 _atom_site_fract_x
 _atom_site_fract_y
 _atom_site_fract_z
 _atom_site_occupancy
  Pr  Pr0  1  0.250000  0.585702  0.706427  1
  Pr  Pr1  1  0.250000  0.916434  0.204077  1
  Pr  Pr2  1  0.750000  0.413389  0.292958  1
  Pr  Pr3  1  0.750000  0.085705  0.795515  1
  Co  Co4  1  0.250000  0.469980  0.933478  1
  Co  Co5  1  0.250000  0.032685  0.431307  1
  Co  Co6  1  0.750000  0.530127  0.066721  1
  Co  Co7  1  0.750000  0.968335  0.566166  1
  As  As8  1  0.250000  0.418123  0.105456  1
  As  As9  1  0.250000  0.080385  0.604739  1
  As  As10  1  0.750000  0.581260  0.894667  1
  As  As11  1  0.750000  0.920042  0.393222  1
  As  As12  1  0.250000  0.275678  0.875895  1
  As  As13  1  0.250000  0.224095  0.372786  1
  As  As14  1  0.750000  0.725136  0.125230  1
  As  As15  1  0.750000  0.775907  0.626014  1
  As  As16  1  0.250000  0.601408  0.388794  1
  As  As17  1  0.250000  0.900406  0.890051  1
  As  As18  1  0.750000  0.397345  0.611485  1
  P  P19  1  0.750000  0.102073  0.111217  1
  Rh  Rh20  1  0.250000  0.714083  0.988244  1
  Rh  Rh21  1  0.250000  0.789295  0.487503  1
  Rh  Rh22  1  0.750000  0.279263  0.016836  1
  Rh  Rh23  1  0.750000  0.211647  0.509069  1
  Rh  Rh24  1  0.250000  0.406883  0.482341  1
  Rh  Rh25  1  0.250000  0.093591  0.987994  1
  Rh  Rh26  1  0.750000  0.592284  0.517806  1
  Rh  Rh27  1  0.750000  0.915154  0.020299  1
  Rh  Rh28  1  0.250000  0.215369  0.174808  1
  Rh  Rh29  1  0.250000  0.279374  0.678830  1
  Rh  Rh30  1  0.750000  0.781173  0.823559  1
  Rh  Rh31  1  0.750000  0.719938  0.321614  1
  Rh  Rh32  1  0.250000  0.887629  0.696249  1
  Rh  Rh33  1  0.250000  0.612327  0.195237  1
  Rh  Rh34  1  0.750000  0.111612  0.297241  1
  Rh  Rh35  1  0.750000  0.386161  0.806167  1
