# generated using pymatgen
data_Pr4ThPd15
_symmetry_space_group_name_H-M   'P 1'
_cell_length_a   4.22230300
_cell_length_b   4.22230300
_cell_length_c   21.10794400
_cell_angle_alpha   90.00000000
_cell_angle_beta   90.00000000
_cell_angle_gamma   90.00000000
_symmetry_Int_Tables_number   1
_chemical_formula_structural   Pr4ThPd15
_chemical_formula_sum   'Pr4 Th1 Pd15'
_cell_volume   376.30910374
_cell_formula_units_Z   1
loop_
 _symmetry_equiv_pos_site_id
 _symmetry_equiv_pos_as_xyz
  1  'x, y, z'
loop_
 _atom_site_type_symbol
 _atom_site_label
 _atom_site_symmetry_multiplicity
 _atom_site_fract_x
 _atom_site_fract_y
 _atom_site_fract_z
 _atom_site_occupancy
  Pr  Pr0  1  0.000000  0.000000  0.201884  1
  Pr  Pr1  1  0.000000  0.000000  0.400598  1
  Pr  Pr2  1  0.000000  0.000000  0.599402  1
  Pr  Pr3  1  0.000000  0.000000  0.798116  1
  Th  Th4  1  0.000000  0.000000  0.000000  1
  Pd  Pd5  1  0.500000  0.500000  0.000000  1
  Pd  Pd6  1  0.500000  0.500000  0.199976  1
  Pd  Pd7  1  0.500000  0.500000  0.400215  1
  Pd  Pd8  1  0.500000  0.500000  0.599785  1
  Pd  Pd9  1  0.500000  0.500000  0.800024  1
  Pd  Pd10  1  0.500000  0.000000  0.097819  1
  Pd  Pd11  1  0.500000  0.000000  0.300259  1
  Pd  Pd12  1  0.500000  0.000000  0.500000  1
  Pd  Pd13  1  0.500000  0.000000  0.699741  1
  Pd  Pd14  1  0.500000  0.000000  0.902181  1
  Pd  Pd15  1  0.000000  0.500000  0.097819  1
  Pd  Pd16  1  0.000000  0.500000  0.300259  1
  Pd  Pd17  1  0.000000  0.500000  0.500000  1
  Pd  Pd18  1  0.000000  0.500000  0.699741  1
  Pd  Pd19  1  0.000000  0.500000  0.902181  1
