# generated using pymatgen
data_HRuPb2F10
_symmetry_space_group_name_H-M   'P 1'
_cell_length_a   4.72293967
_cell_length_b   4.93098457
_cell_length_c   9.35143735
_cell_angle_alpha   86.18399580
_cell_angle_beta   76.28571906
_cell_angle_gamma   83.82511709
_symmetry_Int_Tables_number   1
_chemical_formula_structural   HRuPb2F10
_chemical_formula_sum   'H1 Ru1 Pb2 F10'
_cell_volume   210.15664286
_cell_formula_units_Z   1
loop_
 _symmetry_equiv_pos_site_id
 _symmetry_equiv_pos_as_xyz
  1  'x, y, z'
loop_
 _atom_site_type_symbol
 _atom_site_label
 _atom_site_symmetry_multiplicity
 _atom_site_fract_x
 _atom_site_fract_y
 _atom_site_fract_z
 _atom_site_occupancy
  H  H0  1  0.499981  0.500038  0.499964  1
  Ru  Ru1  1  0.999956  0.499931  0.000052  1
  Pb  Pb2  1  0.336388  0.010484  0.322247  1
  Pb  Pb3  1  0.663637  0.989428  0.677554  1
  F  F4  1  0.642003  0.725185  0.042210  1
  F  F5  1  0.821294  0.204378  0.114460  1
  F  F6  1  0.083905  0.611857  0.175291  1
  F  F7  1  0.397507  0.523968  0.398964  1
  F  F8  1  0.788122  0.987890  0.419181  1
  F  F9  1  0.211900  0.012115  0.580689  1
  F  F10  1  0.602488  0.476118  0.600937  1
  F  F11  1  0.916191  0.388213  0.824851  1
  F  F12  1  0.178665  0.795504  0.885714  1
  F  F13  1  0.357961  0.274893  0.957883  1
