# generated using pymatgen
data_DyBi3Rh4F28
_symmetry_space_group_name_H-M   'P 1'
_cell_length_a   5.59175495
_cell_length_b   9.09446398
_cell_length_c   12.07425777
_cell_angle_alpha   62.11963097
_cell_angle_beta   89.96775548
_cell_angle_gamma   89.93473390
_symmetry_Int_Tables_number   1
_chemical_formula_structural   DyBi3Rh4F28
_chemical_formula_sum   'Dy1 Bi3 Rh4 F28'
_cell_volume   542.75178476
_cell_formula_units_Z   1
loop_
 _symmetry_equiv_pos_site_id
 _symmetry_equiv_pos_as_xyz
  1  'x, y, z'
loop_
 _atom_site_type_symbol
 _atom_site_label
 _atom_site_symmetry_multiplicity
 _atom_site_fract_x
 _atom_site_fract_y
 _atom_site_fract_z
 _atom_site_occupancy
  Dy  Dy0  1  0.739281  0.805803  0.266031  1
  Bi  Bi1  1  0.763902  0.812785  0.763709  1
  Bi  Bi2  1  0.263319  0.186953  0.735922  1
  Bi  Bi3  1  0.235909  0.178227  0.237023  1
  Rh  Rh4  1  0.756731  0.269780  0.958725  1
  Rh  Rh5  1  0.257046  0.727790  0.540210  1
  Rh  Rh6  1  0.242150  0.728703  0.045112  1
  Rh  Rh7  1  0.742583  0.275553  0.455945  1
  F  F8  1  0.434118  0.706496  0.918744  1
  F  F9  1  0.931691  0.296198  0.583748  1
  F  F10  1  0.569131  0.293313  0.084843  1
  F  F11  1  0.061531  0.708510  0.413530  1
  F  F12  1  0.442153  0.280922  0.539147  1
  F  F13  1  0.945287  0.722151  0.959958  1
  F  F14  1  0.554502  0.723690  0.452745  1
  F  F15  1  0.057730  0.277537  0.040729  1
  F  F16  1  0.772802  0.508518  0.862820  1
  F  F17  1  0.274253  0.489270  0.636465  1
  F  F18  1  0.228049  0.490924  0.139850  1
  F  F19  1  0.729458  0.517678  0.360443  1
  F  F20  1  0.754753  0.029354  0.052193  1
  F  F21  1  0.254670  0.969979  0.450583  1
  F  F22  1  0.243801  0.970613  0.951634  1
  F  F23  1  0.744226  0.033431  0.548182  1
  F  F24  1  0.966075  0.726474  0.631061  1
  F  F25  1  0.463908  0.272348  0.869242  1
  F  F26  1  0.033246  0.274386  0.367472  1
  F  F27  1  0.530235  0.731169  0.137263  1
  F  F28  1  0.048422  0.748492  0.173695  1
  F  F29  1  0.559546  0.257622  0.325334  1
  F  F30  1  0.938438  0.253895  0.826573  1
  F  F31  1  0.442195  0.744579  0.671220  1
  F  F32  1  0.414279  0.965698  0.229884  1
  F  F33  1  0.908910  0.021806  0.269899  1
  F  F34  1  0.598050  0.031138  0.771868  1
  F  F35  1  0.097621  0.968215  0.728196  1
