# generated using pymatgen
data_Dy8Sc11Ga3Si13W
_symmetry_space_group_name_H-M   'P 1'
_cell_length_a   7.07985152
_cell_length_b   7.33873788
_cell_length_c   14.06599906
_cell_angle_alpha   89.97107082
_cell_angle_beta   89.69108290
_cell_angle_gamma   90.23106683
_symmetry_Int_Tables_number   1
_chemical_formula_structural   Dy8Sc11Ga3Si13W
_chemical_formula_sum   'Dy8 Sc11 Ga3 Si13 W1'
_cell_volume   730.81290128
_cell_formula_units_Z   1
loop_
 _symmetry_equiv_pos_site_id
 _symmetry_equiv_pos_as_xyz
  1  'x, y, z'
loop_
 _atom_site_type_symbol
 _atom_site_label
 _atom_site_symmetry_multiplicity
 _atom_site_fract_x
 _atom_site_fract_y
 _atom_site_fract_z
 _atom_site_occupancy
  Dy  Dy0  1  0.013092  0.176640  0.094012  1
  Dy  Dy1  1  0.991221  0.819825  0.901276  1
  Dy  Dy2  1  0.486706  0.673793  0.901639  1
  Dy  Dy3  1  0.992424  0.823415  0.603145  1
  Dy  Dy4  1  0.512000  0.324013  0.094581  1
  Dy  Dy5  1  0.007545  0.173034  0.401384  1
  Dy  Dy6  1  0.509210  0.325735  0.402204  1
  Dy  Dy7  1  0.488246  0.674069  0.603640  1
  Sc  Sc8  1  0.837834  0.497193  0.247686  1
  Sc  Sc9  1  0.338431  0.001541  0.247662  1
  Sc  Sc10  1  0.662131  0.996818  0.750580  1
  Sc  Sc11  1  0.332641  0.176490  0.630554  1
  Sc  Sc12  1  0.668423  0.826275  0.373284  1
  Sc  Sc13  1  0.169204  0.672477  0.373200  1
  Sc  Sc14  1  0.671662  0.824296  0.123630  1
  Sc  Sc15  1  0.831514  0.330325  0.629664  1
  Sc  Sc16  1  0.328352  0.178675  0.874279  1
  Sc  Sc17  1  0.828211  0.329609  0.873966  1
  Sc  Sc18  1  0.173007  0.674127  0.121319  1
  Ga  Ga19  1  0.161587  0.462285  0.544899  1
  Ga  Ga20  1  0.839606  0.538238  0.461346  1
  Ga  Ga21  1  0.339679  0.959850  0.463296  1
  Si  Si22  1  0.033802  0.127205  0.752559  1
  Si  Si23  1  0.967588  0.883849  0.247331  1
  Si  Si24  1  0.465686  0.616189  0.247424  1
  Si  Si25  1  0.523216  0.393135  0.752347  1
  Si  Si26  1  0.282598  0.859496  0.752354  1
  Si  Si27  1  0.715204  0.128326  0.247580  1
  Si  Si28  1  0.214802  0.371559  0.247313  1
  Si  Si29  1  0.796863  0.627422  0.752446  1
  Si  Si30  1  0.844597  0.535941  0.037605  1
  Si  Si31  1  0.659954  0.037196  0.539743  1
  Si  Si32  1  0.153343  0.466234  0.951770  1
  Si  Si33  1  0.657147  0.035489  0.960706  1
  Si  Si34  1  0.347325  0.964047  0.037170  1
  W  W35  1  0.155150  0.495188  0.756408  1
