# generated using pymatgen
data_Nb2VCoAs2
_symmetry_space_group_name_H-M   'P 1'
_cell_length_a   3.60443100
_cell_length_b   6.47849793
_cell_length_c   7.61225380
_cell_angle_alpha   89.12871099
_cell_angle_beta   90.00000000
_cell_angle_gamma   90.00000000
_symmetry_Int_Tables_number   1
_chemical_formula_structural   Nb2VCoAs2
_chemical_formula_sum   'Nb4 V2 Co2 As4'
_cell_volume   177.73546039
_cell_formula_units_Z   2
loop_
 _symmetry_equiv_pos_site_id
 _symmetry_equiv_pos_as_xyz
  1  'x, y, z'
loop_
 _atom_site_type_symbol
 _atom_site_label
 _atom_site_symmetry_multiplicity
 _atom_site_fract_x
 _atom_site_fract_y
 _atom_site_fract_z
 _atom_site_occupancy
  Nb  Nb0  1  0.250000  0.544395  0.166044  1
  Nb  Nb1  1  0.750000  0.455605  0.833956  1
  Nb  Nb2  1  0.750000  0.982284  0.662670  1
  Nb  Nb3  1  0.250000  0.017716  0.337330  1
  V  V4  1  0.750000  0.859524  0.063456  1
  V  V5  1  0.250000  0.140476  0.936544  1
  Co  Co6  1  0.250000  0.646306  0.562611  1
  Co  Co7  1  0.750000  0.353694  0.437389  1
  As  As8  1  0.250000  0.761472  0.853513  1
  As  As9  1  0.750000  0.238528  0.146487  1
  As  As10  1  0.750000  0.718390  0.382588  1
  As  As11  1  0.250000  0.281610  0.617412  1
