# generated using pymatgen
data_Tb3Pr2YCoI10
_symmetry_space_group_name_H-M   'P 1'
_cell_length_a   7.82148109
_cell_length_b   9.84011399
_cell_length_c   9.83669094
_cell_angle_alpha   106.85654872
_cell_angle_beta   96.10422512
_cell_angle_gamma   105.20385865
_symmetry_Int_Tables_number   1
_chemical_formula_structural   Tb3Pr2YCoI10
_chemical_formula_sum   'Tb3 Pr2 Y1 Co1 I10'
_cell_volume   685.41529804
_cell_formula_units_Z   1
loop_
 _symmetry_equiv_pos_site_id
 _symmetry_equiv_pos_as_xyz
  1  'x, y, z'
loop_
 _atom_site_type_symbol
 _atom_site_label
 _atom_site_symmetry_multiplicity
 _atom_site_fract_x
 _atom_site_fract_y
 _atom_site_fract_z
 _atom_site_occupancy
  Tb  Tb0  1  0.029810  0.718383  0.915348  1
  Tb  Tb1  1  0.970433  0.281686  0.084664  1
  Tb  Tb2  1  0.657893  0.877862  0.838917  1
  Pr  Pr3  1  0.886358  0.957757  0.231625  1
  Pr  Pr4  1  0.113897  0.042245  0.768446  1
  Y  Y5  1  0.342110  0.122249  0.161110  1
  Co  Co6  1  0.999860  0.999919  0.999901  1
  I  I7  1  0.652266  0.553784  0.731355  1
  I  I8  1  0.347769  0.445943  0.268579  1
  I  I9  1  0.734027  0.911334  0.543981  1
  I  I10  1  0.266052  0.088701  0.455868  1
  I  I11  1  0.082597  0.377595  0.824061  1
  I  I12  1  0.917443  0.622400  0.175953  1
  I  I13  1  0.447813  0.817367  0.089603  1
  I  I14  1  0.552061  0.182827  0.910628  1
  I  I15  1  0.227894  0.739660  0.659583  1
  I  I16  1  0.771718  0.260289  0.340378  1
