# generated using pymatgen
data_HoErGe4Mo3
_symmetry_space_group_name_H-M   'P 1'
_cell_length_a   7.04471300
_cell_length_b   6.88974809
_cell_length_c   6.98399345
_cell_angle_alpha   70.56403612
_cell_angle_beta   90.00000000
_cell_angle_gamma   90.00000000
_symmetry_Int_Tables_number   1
_chemical_formula_structural   HoErGe4Mo3
_chemical_formula_sum   'Ho2 Er2 Ge8 Mo6'
_cell_volume   319.66022551
_cell_formula_units_Z   2
loop_
 _symmetry_equiv_pos_site_id
 _symmetry_equiv_pos_as_xyz
  1  'x, y, z'
loop_
 _atom_site_type_symbol
 _atom_site_label
 _atom_site_symmetry_multiplicity
 _atom_site_fract_x
 _atom_site_fract_y
 _atom_site_fract_z
 _atom_site_occupancy
  Ho  Ho0  1  0.328505  0.555998  0.809456  1
  Ho  Ho1  1  0.828505  0.944002  0.190544  1
  Er  Er2  1  0.671527  0.444027  0.190604  1
  Er  Er3  1  0.171527  0.055973  0.809396  1
  Ge  Ge4  1  0.545929  0.857193  0.908634  1
  Ge  Ge5  1  0.045929  0.642807  0.091366  1
  Ge  Ge6  1  0.454023  0.142850  0.091390  1
  Ge  Ge7  1  0.954023  0.357150  0.908610  1
  Ge  Ge8  1  0.136981  0.867445  0.495998  1
  Ge  Ge9  1  0.636981  0.632555  0.504002  1
  Ge  Ge10  1  0.863028  0.132707  0.504049  1
  Ge  Ge11  1  0.363028  0.367293  0.495951  1
  Mo  Mo12  1  0.499983  0.000075  0.499997  1
  Mo  Mo13  1  0.999983  0.499925  0.500003  1
  Mo  Mo14  1  0.842336  0.747277  0.752025  1
  Mo  Mo15  1  0.342336  0.752723  0.247975  1
  Mo  Mo16  1  0.157687  0.252725  0.248037  1
  Mo  Mo17  1  0.657687  0.247275  0.751963  1
