# generated using pymatgen
data_Er4Ga18PdPtRh4
_symmetry_space_group_name_H-M   'P 1'
_cell_length_a   7.59026331
_cell_length_b   7.59025520
_cell_length_c   9.47478001
_cell_angle_alpha   90.00217248
_cell_angle_beta   90.00191361
_cell_angle_gamma   119.93065066
_symmetry_Int_Tables_number   1
_chemical_formula_structural   Er4Ga18PdPtRh4
_chemical_formula_sum   'Er4 Ga18 Pd1 Pt1 Rh4'
_cell_volume   473.05980733
_cell_formula_units_Z   1
loop_
 _symmetry_equiv_pos_site_id
 _symmetry_equiv_pos_as_xyz
  1  'x, y, z'
loop_
 _atom_site_type_symbol
 _atom_site_label
 _atom_site_symmetry_multiplicity
 _atom_site_fract_x
 _atom_site_fract_y
 _atom_site_fract_z
 _atom_site_occupancy
  Er  Er0  1  0.996814  0.668822  0.250102  1
  Er  Er1  1  0.003186  0.331178  0.749898  1
  Er  Er2  1  0.668822  0.996814  0.250103  1
  Er  Er3  1  0.331178  0.003186  0.749897  1
  Ga  Ga4  1  0.128657  0.128657  0.250672  1
  Ga  Ga5  1  0.871343  0.871343  0.749328  1
  Ga  Ga6  1  0.998733  0.337551  0.080882  1
  Ga  Ga7  1  0.001267  0.662449  0.919118  1
  Ga  Ga8  1  0.001168  0.662888  0.580824  1
  Ga  Ga9  1  0.337112  0.998832  0.419177  1
  Ga  Ga10  1  0.998832  0.337112  0.419176  1
  Ga  Ga11  1  0.662888  0.001168  0.580823  1
  Ga  Ga12  1  0.662449  0.001266  0.919117  1
  Ga  Ga13  1  0.337551  0.998734  0.080883  1
  Ga  Ga14  1  0.335635  0.335636  0.567107  1
  Ga  Ga15  1  0.664365  0.664364  0.432893  1
  Ga  Ga16  1  0.663986  0.663987  0.067080  1
  Ga  Ga17  1  0.336014  0.336013  0.932920  1
  Ga  Ga18  1  0.337218  0.547236  0.250011  1
  Ga  Ga19  1  0.662782  0.452764  0.749989  1
  Ga  Ga20  1  0.547237  0.337218  0.250011  1
  Ga  Ga21  1  0.452763  0.662782  0.749989  1
  Pd  Pd22  1  0.000000  0.000000  0.500000  1
  Pt  Pt23  1  0.000000  0.000000  0.000000  1
  Rh  Rh24  1  0.671452  0.328545  0.999999  1
  Rh  Rh25  1  0.328548  0.671455  0.000001  1
  Rh  Rh26  1  0.328546  0.671452  0.499998  1
  Rh  Rh27  1  0.671454  0.328548  0.500002  1
