# generated using pymatgen
data_Ta3Cr2B4W
_symmetry_space_group_name_H-M   'P 1'
_cell_length_a   5.89827691
_cell_length_b   5.89827691
_cell_length_c   3.22974300
_cell_angle_alpha   90.00000000
_cell_angle_beta   90.00000000
_cell_angle_gamma   90.45704425
_symmetry_Int_Tables_number   1
_chemical_formula_structural   Ta3Cr2B4W
_chemical_formula_sum   'Ta3 Cr2 B4 W1'
_cell_volume   112.35812011
_cell_formula_units_Z   1
loop_
 _symmetry_equiv_pos_site_id
 _symmetry_equiv_pos_as_xyz
  1  'x, y, z'
loop_
 _atom_site_type_symbol
 _atom_site_label
 _atom_site_symmetry_multiplicity
 _atom_site_fract_x
 _atom_site_fract_y
 _atom_site_fract_z
 _atom_site_occupancy
  Ta  Ta0  1  0.321044  0.821044  0.500000  1
  Ta  Ta1  1  0.179576  0.318697  0.500000  1
  Ta  Ta2  1  0.818697  0.679576  0.500000  1
  Cr  Cr3  1  0.500152  0.498523  0.000000  1
  Cr  Cr4  1  0.998523  0.000152  0.000000  1
  B  B5  1  0.111404  0.611404  0.000000  1
  B  B6  1  0.884705  0.384705  0.000000  1
  B  B7  1  0.614368  0.892284  0.000000  1
  B  B8  1  0.392284  0.114368  0.000000  1
  W  W9  1  0.679248  0.179248  0.500000  1
