# generated using pymatgen
data_Lu2B(IrRh2)2
_symmetry_space_group_name_H-M   'P 1'
_cell_length_a   5.78032356
_cell_length_b   5.78032287
_cell_length_c   5.76179000
_cell_angle_alpha   60.10599223
_cell_angle_beta   60.10599620
_cell_angle_gamma   59.94943696
_symmetry_Int_Tables_number   1
_chemical_formula_structural   Lu2B(IrRh2)2
_chemical_formula_sum   'Lu2 B1 Ir2 Rh4'
_cell_volume   136.29309154
_cell_formula_units_Z   1
loop_
 _symmetry_equiv_pos_site_id
 _symmetry_equiv_pos_as_xyz
  1  'x, y, z'
loop_
 _atom_site_type_symbol
 _atom_site_label
 _atom_site_symmetry_multiplicity
 _atom_site_fract_x
 _atom_site_fract_y
 _atom_site_fract_z
 _atom_site_occupancy
  Lu  Lu0  1  0.750364  0.750364  0.749703  1
  Lu  Lu1  1  0.249636  0.249636  0.250430  1
  B  B2  1  0.000000  0.000000  0.998970  1
  Ir  Ir3  1  0.740331  0.259669  0.742257  1
  Ir  Ir4  1  0.259669  0.740331  0.742257  1
  Rh  Rh5  1  0.741488  0.741488  0.258989  1
  Rh  Rh6  1  0.258164  0.741836  0.257714  1
  Rh  Rh7  1  0.741836  0.258164  0.257714  1
  Rh  Rh8  1  0.258512  0.258512  0.741964  1
