# generated using pymatgen
data_Rb4Ru2Cl10O
_symmetry_space_group_name_H-M   'P 1'
_cell_length_a   7.55234883
_cell_length_b   7.55234966
_cell_length_c   10.36216552
_cell_angle_alpha   111.37186242
_cell_angle_beta   111.37186565
_cell_angle_gamma   89.99999534
_symmetry_Int_Tables_number   1
_chemical_formula_structural   Rb4Ru2Cl10O
_chemical_formula_sum   'Rb4 Ru2 Cl10 O1'
_cell_volume   506.50070277
_cell_formula_units_Z   1
loop_
 _symmetry_equiv_pos_site_id
 _symmetry_equiv_pos_as_xyz
  1  'x, y, z'
loop_
 _atom_site_type_symbol
 _atom_site_label
 _atom_site_symmetry_multiplicity
 _atom_site_fract_x
 _atom_site_fract_y
 _atom_site_fract_z
 _atom_site_occupancy
  Rb  Rb0  1  0.500000  0.000000  0.000000  1
  Rb  Rb1  1  0.000000  0.500000  0.000000  1
  Rb  Rb2  1  0.750000  0.250000  0.500000  1
  Rb  Rb3  1  0.250000  0.750000  0.500000  1
  Ru  Ru4  1  0.102143  0.102143  0.204286  1
  Ru  Ru5  1  0.897857  0.897857  0.795715  1
  Cl  Cl6  1  0.335660  0.335660  0.222355  1
  Cl  Cl7  1  0.886695  0.335660  0.222355  1
  Cl  Cl8  1  0.335660  0.886695  0.222355  1
  Cl  Cl9  1  0.886695  0.886695  0.222355  1
  Cl  Cl10  1  0.234555  0.234555  0.469110  1
  Cl  Cl11  1  0.765446  0.765446  0.530890  1
  Cl  Cl12  1  0.113305  0.113305  0.777645  1
  Cl  Cl13  1  0.664340  0.113305  0.777645  1
  Cl  Cl14  1  0.113305  0.664340  0.777645  1
  Cl  Cl15  1  0.664340  0.664340  0.777645  1
  O  O16  1  0.000000  0.000000  0.000000  1
