# generated using pymatgen
data_La3GaSn3Ir2
_symmetry_space_group_name_H-M   'P 1'
_cell_length_a   7.59202000
_cell_length_b   7.59202120
_cell_length_c   4.34403400
_cell_angle_alpha   90.00000000
_cell_angle_beta   90.00000000
_cell_angle_gamma   120.00000346
_symmetry_Int_Tables_number   1
_chemical_formula_structural   La3GaSn3Ir2
_chemical_formula_sum   'La3 Ga1 Sn3 Ir2'
_cell_volume   216.83959537
_cell_formula_units_Z   1
loop_
 _symmetry_equiv_pos_site_id
 _symmetry_equiv_pos_as_xyz
  1  'x, y, z'
loop_
 _atom_site_type_symbol
 _atom_site_label
 _atom_site_symmetry_multiplicity
 _atom_site_fract_x
 _atom_site_fract_y
 _atom_site_fract_z
 _atom_site_occupancy
  La  La0  1  0.594303  0.010610  0.000000  1
  La  La1  1  0.989390  0.583693  0.000000  1
  La  La2  1  0.416307  0.405697  0.000000  1
  Ga  Ga3  1  0.333333  0.666667  0.500000  1
  Sn  Sn4  1  0.249794  0.007816  0.500000  1
  Sn  Sn5  1  0.992184  0.241978  0.500000  1
  Sn  Sn6  1  0.758022  0.750206  0.500000  1
  Ir  Ir7  1  0.666667  0.333333  0.500000  1
  Ir  Ir8  1  0.000000  0.000000  0.000000  1
