# generated using pymatgen
data_YEr(NiIr)2
_symmetry_space_group_name_H-M   'P 1'
_cell_length_a   5.38099357
_cell_length_b   5.20317671
_cell_length_c   5.20317625
_cell_angle_alpha   58.14978128
_cell_angle_beta   58.86291900
_cell_angle_gamma   58.86292208
_symmetry_Int_Tables_number   1
_chemical_formula_structural   YEr(NiIr)2
_chemical_formula_sum   'Y1 Er1 Ni2 Ir2'
_cell_volume   99.76316702
_cell_formula_units_Z   1
loop_
 _symmetry_equiv_pos_site_id
 _symmetry_equiv_pos_as_xyz
  1  'x, y, z'
loop_
 _atom_site_type_symbol
 _atom_site_label
 _atom_site_symmetry_multiplicity
 _atom_site_fract_x
 _atom_site_fract_y
 _atom_site_fract_z
 _atom_site_occupancy
  Y  Y0  1  0.002884  0.997116  0.997116  1
  Er  Er1  1  0.746512  0.753490  0.753490  1
  Ni  Ni2  1  0.375283  0.874615  0.374819  1
  Ni  Ni3  1  0.375283  0.374819  0.874615  1
  Ir  Ir4  1  0.375412  0.374981  0.374981  1
  Ir  Ir5  1  0.874626  0.374981  0.374981  1
