# generated using pymatgen
data_Dy7Sn22HgRh6
_symmetry_space_group_name_H-M   'P 1'
_cell_length_a   9.82997500
_cell_length_b   9.82997469
_cell_length_c   10.16936400
_cell_angle_alpha   90.00000000
_cell_angle_beta   90.00000000
_cell_angle_gamma   119.99999768
_symmetry_Int_Tables_number   1
_chemical_formula_structural   Dy7Sn22HgRh6
_chemical_formula_sum   'Dy7 Sn22 Hg1 Rh6'
_cell_volume   850.99938747
_cell_formula_units_Z   1
loop_
 _symmetry_equiv_pos_site_id
 _symmetry_equiv_pos_as_xyz
  1  'x, y, z'
loop_
 _atom_site_type_symbol
 _atom_site_label
 _atom_site_symmetry_multiplicity
 _atom_site_fract_x
 _atom_site_fract_y
 _atom_site_fract_z
 _atom_site_occupancy
  Dy  Dy0  1  0.000000  0.000000  0.000000  1
  Dy  Dy1  1  0.479164  0.520836  0.307976  1
  Dy  Dy2  1  0.520836  0.479164  0.692024  1
  Dy  Dy3  1  0.479164  0.958328  0.307976  1
  Dy  Dy4  1  0.520836  0.041672  0.692024  1
  Dy  Dy5  1  0.041672  0.520836  0.307976  1
  Dy  Dy6  1  0.958328  0.479164  0.692024  1
  Sn  Sn7  1  0.351332  0.000000  0.000000  1
  Sn  Sn8  1  0.648668  0.000000  0.000000  1
  Sn  Sn9  1  0.000000  0.351332  0.000000  1
  Sn  Sn10  1  0.000000  0.648668  0.000000  1
  Sn  Sn11  1  0.648668  0.648668  0.000000  1
  Sn  Sn12  1  0.351332  0.351332  0.000000  1
  Sn  Sn13  1  0.333333  0.666667  0.819018  1
  Sn  Sn14  1  0.666667  0.333333  0.180982  1
  Sn  Sn15  1  0.780320  0.219680  0.457099  1
  Sn  Sn16  1  0.219680  0.780320  0.542901  1
  Sn  Sn17  1  0.780320  0.560641  0.457099  1
  Sn  Sn18  1  0.219680  0.439359  0.542901  1
  Sn  Sn19  1  0.439359  0.219680  0.457099  1
  Sn  Sn20  1  0.560641  0.780320  0.542901  1
  Sn  Sn21  1  0.333333  0.666667  0.120589  1
  Sn  Sn22  1  0.666667  0.333333  0.879411  1
  Sn  Sn23  1  0.118109  0.881891  0.274398  1
  Sn  Sn24  1  0.881891  0.118109  0.725602  1
  Sn  Sn25  1  0.118109  0.236217  0.274398  1
  Sn  Sn26  1  0.881891  0.763783  0.725602  1
  Sn  Sn27  1  0.763783  0.881891  0.274398  1
  Sn  Sn28  1  0.236217  0.118109  0.725602  1
  Hg  Hg29  1  0.000000  0.000000  0.500000  1
  Rh  Rh30  1  0.830637  0.169363  0.197958  1
  Rh  Rh31  1  0.169363  0.830637  0.802042  1
  Rh  Rh32  1  0.830637  0.661273  0.197958  1
  Rh  Rh33  1  0.169363  0.338727  0.802042  1
  Rh  Rh34  1  0.338727  0.169363  0.197958  1
  Rh  Rh35  1  0.661273  0.830637  0.802042  1
