# generated using pymatgen
data_Yb5(CeIr2)3
_symmetry_space_group_name_H-M   'P 1'
_cell_length_a   8.33030205
_cell_length_b   8.45299586
_cell_length_c   5.91835906
_cell_angle_alpha   78.23613738
_cell_angle_beta   74.40929779
_cell_angle_gamma   119.91846121
_symmetry_Int_Tables_number   1
_chemical_formula_structural   Yb5(CeIr2)3
_chemical_formula_sum   'Yb5 Ce3 Ir6'
_cell_volume   318.14252290
_cell_formula_units_Z   1
loop_
 _symmetry_equiv_pos_site_id
 _symmetry_equiv_pos_as_xyz
  1  'x, y, z'
loop_
 _atom_site_type_symbol
 _atom_site_label
 _atom_site_symmetry_multiplicity
 _atom_site_fract_x
 _atom_site_fract_y
 _atom_site_fract_z
 _atom_site_occupancy
  Yb  Yb0  1  0.889715  0.612182  0.154623  1
  Yb  Yb1  1  0.337436  0.316581  0.305871  1
  Yb  Yb2  1  0.107739  0.394819  0.837346  1
  Yb  Yb3  1  0.384093  0.110880  0.844187  1
  Yb  Yb4  1  0.168522  0.832810  0.499764  1
  Ce  Ce5  1  0.674143  0.676794  0.695264  1
  Ce  Ce6  1  0.843937  0.185519  0.498679  1
  Ce  Ce7  1  0.594417  0.869199  0.176906  1
  Ir  Ir8  1  0.789682  0.433534  0.757757  1
  Ir  Ir9  1  0.985589  0.997063  0.238402  1
  Ir  Ir10  1  0.438062  0.819054  0.734314  1
  Ir  Ir11  1  0.604926  0.174978  0.240670  1
  Ir  Ir12  1  0.974669  0.993210  0.785122  1
  Ir  Ir13  1  0.207070  0.583378  0.231092  1
