# generated using pymatgen
data_Tm2Hf2CN3
_symmetry_space_group_name_H-M   'P 1'
_cell_length_a   11.04163612
_cell_length_b   11.04163630
_cell_length_c   11.04163512
_cell_angle_alpha   17.25257349
_cell_angle_beta   17.25257273
_cell_angle_gamma   17.25256683
_symmetry_Int_Tables_number   1
_chemical_formula_structural   Tm2Hf2CN3
_chemical_formula_sum   'Tm2 Hf2 C1 N3'
_cell_volume   103.32280836
_cell_formula_units_Z   1
loop_
 _symmetry_equiv_pos_site_id
 _symmetry_equiv_pos_as_xyz
  1  'x, y, z'
loop_
 _atom_site_type_symbol
 _atom_site_label
 _atom_site_symmetry_multiplicity
 _atom_site_fract_x
 _atom_site_fract_y
 _atom_site_fract_z
 _atom_site_occupancy
  Tm  Tm0  1  0.876041  0.876041  0.876041  1
  Tm  Tm1  1  0.123959  0.123959  0.123959  1
  Hf  Hf2  1  0.373208  0.373208  0.373208  1
  Hf  Hf3  1  0.626792  0.626792  0.626792  1
  C  C4  1  0.000000  0.000000  0.000000  1
  N  N5  1  0.253336  0.253336  0.253336  1
  N  N6  1  0.500000  0.500000  0.500000  1
  N  N7  1  0.746664  0.746664  0.746664  1
