# generated using pymatgen
data_Y6CrFeB14
_symmetry_space_group_name_H-M   'P 1'
_cell_length_a   8.06763884
_cell_length_b   8.06763918
_cell_length_c   9.33473700
_cell_angle_alpha   90.00000000
_cell_angle_beta   90.00000000
_cell_angle_gamma   155.38487803
_symmetry_Int_Tables_number   1
_chemical_formula_structural   Y6CrFeB14
_chemical_formula_sum   'Y6 Cr1 Fe1 B14'
_cell_volume   253.06474321
_cell_formula_units_Z   1
loop_
 _symmetry_equiv_pos_site_id
 _symmetry_equiv_pos_as_xyz
  1  'x, y, z'
loop_
 _atom_site_type_symbol
 _atom_site_label
 _atom_site_symmetry_multiplicity
 _atom_site_fract_x
 _atom_site_fract_y
 _atom_site_fract_z
 _atom_site_occupancy
  Y  Y0  1  0.894658  0.105342  0.440322  1
  Y  Y1  1  0.104903  0.895097  0.560919  1
  Y  Y2  1  0.894658  0.105342  0.059678  1
  Y  Y3  1  0.104903  0.895097  0.939081  1
  Y  Y4  1  0.242761  0.757239  0.250000  1
  Y  Y5  1  0.758153  0.241847  0.750000  1
  Cr  Cr6  1  0.052752  0.947248  0.250000  1
  Fe  Fe7  1  0.945803  0.054197  0.750000  1
  B  B8  1  0.727788  0.272212  0.467795  1
  B  B9  1  0.272991  0.727009  0.534221  1
  B  B10  1  0.727788  0.272212  0.032205  1
  B  B11  1  0.272991  0.727009  0.965779  1
  B  B12  1  0.631129  0.368871  0.151505  1
  B  B13  1  0.370650  0.629350  0.846553  1
  B  B14  1  0.631129  0.368871  0.348495  1
  B  B15  1  0.370650  0.629350  0.653447  1
  B  B16  1  0.521027  0.478973  0.096435  1
  B  B17  1  0.478373  0.521627  0.901720  1
  B  B18  1  0.521027  0.478973  0.403565  1
  B  B19  1  0.478373  0.521627  0.598280  1
  B  B20  1  0.458420  0.541580  0.250000  1
  B  B21  1  0.539073  0.460927  0.750000  1
