# generated using pymatgen
data_Nd16Al4NiRu3
_symmetry_space_group_name_H-M   'P 1'
_cell_length_a   9.72370071
_cell_length_b   9.78740926
_cell_length_c   9.78740800
_cell_angle_alpha   59.99999750
_cell_angle_beta   59.78302521
_cell_angle_gamma   59.78303284
_symmetry_Int_Tables_number   1
_chemical_formula_structural   Nd16Al4NiRu3
_chemical_formula_sum   'Nd16 Al4 Ni1 Ru3'
_cell_volume   656.47762850
_cell_formula_units_Z   1
loop_
 _symmetry_equiv_pos_site_id
 _symmetry_equiv_pos_as_xyz
  1  'x, y, z'
loop_
 _atom_site_type_symbol
 _atom_site_label
 _atom_site_symmetry_multiplicity
 _atom_site_fract_x
 _atom_site_fract_y
 _atom_site_fract_z
 _atom_site_occupancy
  Nd  Nd0  1  0.602384  0.598894  0.598894  1
  Nd  Nd1  1  0.602384  0.598894  0.199829  1
  Nd  Nd2  1  0.602384  0.199829  0.598894  1
  Nd  Nd3  1  0.201513  0.599496  0.599496  1
  Nd  Nd4  1  0.055895  0.444448  0.444448  1
  Nd  Nd5  1  0.442767  0.056077  0.056077  1
  Nd  Nd6  1  0.442767  0.056077  0.445078  1
  Nd  Nd7  1  0.055895  0.444448  0.055211  1
  Nd  Nd8  1  0.442767  0.445078  0.056077  1
  Nd  Nd9  1  0.055895  0.055211  0.444448  1
  Nd  Nd10  1  0.188398  0.810682  0.810682  1
  Nd  Nd11  1  0.808673  0.186846  0.186846  1
  Nd  Nd12  1  0.808673  0.186846  0.817634  1
  Nd  Nd13  1  0.188398  0.810682  0.190237  1
  Nd  Nd14  1  0.808673  0.817634  0.186846  1
  Nd  Nd15  1  0.188398  0.190237  0.810682  1
  Al  Al16  1  0.824175  0.823848  0.823848  1
  Al  Al17  1  0.824175  0.823848  0.528128  1
  Al  Al18  1  0.824175  0.528128  0.823848  1
  Al  Al19  1  0.529406  0.823531  0.823531  1
  Ni  Ni20  1  0.827905  0.390699  0.390699  1
  Ru  Ru21  1  0.391433  0.388719  0.388719  1
  Ru  Ru22  1  0.391433  0.388719  0.831129  1
  Ru  Ru23  1  0.391433  0.831129  0.388719  1
