# generated using pymatgen
data_K2Rb4ScGaAs4
_symmetry_space_group_name_H-M   'P 1'
_cell_length_a   9.44164728
_cell_length_b   9.44164827
_cell_length_c   9.44164798
_cell_angle_alpha   130.18878565
_cell_angle_beta   67.39304629
_cell_angle_gamma   137.65473901
_symmetry_Int_Tables_number   1
_chemical_formula_structural   K2Rb4ScGaAs4
_chemical_formula_sum   'K2 Rb4 Sc1 Ga1 As4'
_cell_volume   426.04318355
_cell_formula_units_Z   1
loop_
 _symmetry_equiv_pos_site_id
 _symmetry_equiv_pos_as_xyz
  1  'x, y, z'
loop_
 _atom_site_type_symbol
 _atom_site_label
 _atom_site_symmetry_multiplicity
 _atom_site_fract_x
 _atom_site_fract_y
 _atom_site_fract_z
 _atom_site_occupancy
  K  K0  1  0.250000  0.250000  0.000000  1
  K  K1  1  0.750000  0.750000  0.000000  1
  Rb  Rb2  1  0.826104  0.297181  0.109061  1
  Rb  Rb3  1  0.673895  0.782956  0.471077  1
  Rb  Rb4  1  0.311880  0.202819  0.528923  1
  Rb  Rb5  1  0.188120  0.717043  0.890939  1
  Sc  Sc6  1  0.750000  0.250000  0.500000  1
  Ga  Ga7  1  0.250000  0.750000  0.500000  1
  As  As8  1  0.400319  0.805689  0.223716  1
  As  As9  1  0.099680  0.323397  0.405369  1
  As  As10  1  0.918026  0.694310  0.594630  1
  As  As11  1  0.581973  0.176603  0.776284  1
