# generated using pymatgen
data_Zr8Tl2Sb(PO4)12
_symmetry_space_group_name_H-M   'P 1'
_cell_length_a   8.91716382
_cell_length_b   9.41746399
_cell_length_c   15.67978400
_cell_angle_alpha   93.27679912
_cell_angle_beta   106.51787751
_cell_angle_gamma   118.39628682
_symmetry_Int_Tables_number   1
_chemical_formula_structural   Zr8Tl2Sb(PO4)12
_chemical_formula_sum   'Zr8 Tl2 Sb1 P12 O48'
_cell_volume   1081.23438341
_cell_formula_units_Z   1
loop_
 _symmetry_equiv_pos_site_id
 _symmetry_equiv_pos_as_xyz
  1  'x, y, z'
loop_
 _atom_site_type_symbol
 _atom_site_label
 _atom_site_symmetry_multiplicity
 _atom_site_fract_x
 _atom_site_fract_y
 _atom_site_fract_z
 _atom_site_occupancy
  Zr  Zr0  1  0.146528  0.118596  0.672116  1
  Zr  Zr1  1  0.357405  0.640624  0.580153  1
  Zr  Zr2  1  0.146901  0.623556  0.177410  1
  Zr  Zr3  1  0.351302  0.120743  0.068161  1
  Zr  Zr4  1  0.642595  0.359376  0.419847  1
  Zr  Zr5  1  0.853472  0.881404  0.327884  1
  Zr  Zr6  1  0.648698  0.879257  0.931839  1
  Zr  Zr7  1  0.853099  0.376444  0.822590  1
  Tl  Tl8  1  0.038830  0.275875  0.275447  1
  Tl  Tl9  1  0.961170  0.724125  0.724553  1
  Sb  Sb10  1  0.500000  0.500000  0.000000  1
  P  P11  1  0.741632  0.762475  0.511416  1
  P  P12  1  0.041132  0.629431  0.380968  1
  P  P13  1  0.454322  0.974409  0.738953  1
  P  P14  1  0.545678  0.025591  0.261047  1
  P  P15  1  0.958868  0.370569  0.619032  1
  P  P16  1  0.751371  0.284517  0.020443  1
  P  P17  1  0.258368  0.237525  0.488584  1
  P  P18  1  0.024951  0.114325  0.868735  1
  P  P19  1  0.469586  0.488173  0.219951  1
  P  P20  1  0.530414  0.511827  0.780049  1
  P  P21  1  0.975049  0.885675  0.131265  1
  P  P22  1  0.248629  0.715483  0.979557  1
  O  O23  1  0.266873  0.404798  0.504050  1
  O  O24  1  0.504168  0.601311  0.703687  1
  O  O25  1  0.928370  0.891464  0.585784  1
  O  O26  1  0.126916  0.532116  0.620843  1
  O  O27  1  0.723751  0.823302  0.421868  1
  O  O28  1  0.588364  0.742881  0.545056  1
  O  O29  1  0.086982  0.600158  0.295436  1
  O  O30  1  0.206890  0.677613  0.466399  1
  O  O31  1  0.370636  0.854921  0.236202  1
  O  O32  1  0.433270  0.868180  0.654111  1
  O  O33  1  0.711355  0.003749  0.276923  1
  O  O34  1  0.998917  0.228604  0.622969  1
  O  O35  1  0.292383  0.896779  0.997371  1
  O  O36  1  0.001083  0.771396  0.377031  1
  O  O37  1  0.288645  0.996251  0.723077  1
  O  O38  1  0.566730  0.131820  0.345889  1
  O  O39  1  0.629364  0.145079  0.763798  1
  O  O40  1  0.532181  0.112519  0.179887  1
  O  O41  1  0.793110  0.322387  0.533601  1
  O  O42  1  0.907361  0.383145  0.112476  1
  O  O43  1  0.148024  0.027216  0.119938  1
  O  O44  1  0.913018  0.399842  0.704564  1
  O  O45  1  0.797959  0.367709  0.943557  1
  O  O46  1  0.411636  0.257119  0.454944  1
  O  O47  1  0.573386  0.281182  0.022303  1
  O  O48  1  0.276249  0.176698  0.578132  1
  O  O49  1  0.036556  0.057492  0.778329  1
  O  O50  1  0.873084  0.467884  0.379157  1
  O  O51  1  0.071630  0.108536  0.414216  1
  O  O52  1  0.191774  0.145415  0.950217  1
  O  O53  1  0.495832  0.398689  0.296313  1
  O  O54  1  0.359563  0.343042  0.766265  1
  O  O55  1  0.424944  0.379137  0.124715  1
  O  O56  1  0.695173  0.489979  0.788213  1
  O  O57  1  0.984001  0.726691  0.129467  1
  O  O58  1  0.733127  0.595202  0.495950  1
  O  O59  1  0.015999  0.273309  0.870533  1
  O  O60  1  0.304827  0.510021  0.211787  1
  O  O61  1  0.575056  0.620863  0.875285  1
  O  O62  1  0.640437  0.656958  0.233735  1
  O  O63  1  0.808226  0.854585  0.049783  1
  O  O64  1  0.963444  0.942508  0.221671  1
  O  O65  1  0.426614  0.718818  0.977697  1
  O  O66  1  0.202041  0.632291  0.056443  1
  O  O67  1  0.851976  0.972784  0.880062  1
  O  O68  1  0.092639  0.616855  0.887524  1
  O  O69  1  0.467819  0.887481  0.820113  1
  O  O70  1  0.707617  0.103221  0.002629  1
