# generated using pymatgen
data_SrY6IrBr12
_symmetry_space_group_name_H-M   'P 1'
_cell_length_a   9.32757843
_cell_length_b   9.32522280
_cell_length_c   9.23761908
_cell_angle_alpha   106.34067752
_cell_angle_beta   106.14702621
_cell_angle_gamma   105.96804946
_symmetry_Int_Tables_number   1
_chemical_formula_structural   SrY6IrBr12
_chemical_formula_sum   'Sr1 Y6 Ir1 Br12'
_cell_volume   684.05128718
_cell_formula_units_Z   1
loop_
 _symmetry_equiv_pos_site_id
 _symmetry_equiv_pos_as_xyz
  1  'x, y, z'
loop_
 _atom_site_type_symbol
 _atom_site_label
 _atom_site_symmetry_multiplicity
 _atom_site_fract_x
 _atom_site_fract_y
 _atom_site_fract_z
 _atom_site_occupancy
  Sr  Sr0  1  0.500000  0.500000  0.500000  1
  Y  Y1  1  0.101180  0.310806  0.017253  1
  Y  Y2  1  0.310858  0.018532  0.100093  1
  Y  Y3  1  0.018018  0.098884  0.304712  1
  Y  Y4  1  0.981983  0.901116  0.695289  1
  Y  Y5  1  0.689142  0.981469  0.899907  1
  Y  Y6  1  0.898820  0.689194  0.982747  1
  Ir  Ir7  1  0.000000  0.000000  0.000000  1
  Br  Br8  1  0.218750  0.674677  0.074742  1
  Br  Br9  1  0.446319  0.363314  0.139773  1
  Br  Br10  1  0.676128  0.074573  0.219192  1
  Br  Br11  1  0.927553  0.782825  0.325960  1
  Br  Br12  1  0.140786  0.444421  0.363474  1
  Br  Br13  1  0.363390  0.141219  0.446052  1
  Br  Br14  1  0.636610  0.858781  0.553949  1
  Br  Br15  1  0.859215  0.555579  0.636526  1
  Br  Br16  1  0.072448  0.217175  0.674041  1
  Br  Br17  1  0.323873  0.925428  0.780808  1
  Br  Br18  1  0.553681  0.636686  0.860228  1
  Br  Br19  1  0.781250  0.325323  0.925258  1
