# generated using pymatgen
data_Dy5Y3(HgRh)2
_symmetry_space_group_name_H-M   'P 1'
_cell_length_a   9.60403177
_cell_length_b   9.60403120
_cell_length_c   9.60403300
_cell_angle_alpha   60.00000412
_cell_angle_beta   60.00000609
_cell_angle_gamma   60.00000408
_symmetry_Int_Tables_number   1
_chemical_formula_structural   Dy5Y3(HgRh)2
_chemical_formula_sum   'Dy10 Y6 Hg4 Rh4'
_cell_volume   626.39148109
_cell_formula_units_Z   2
loop_
 _symmetry_equiv_pos_site_id
 _symmetry_equiv_pos_as_xyz
  1  'x, y, z'
loop_
 _atom_site_type_symbol
 _atom_site_label
 _atom_site_symmetry_multiplicity
 _atom_site_fract_x
 _atom_site_fract_y
 _atom_site_fract_z
 _atom_site_occupancy
  Dy  Dy0  1  0.601202  0.601202  0.601202  1
  Dy  Dy1  1  0.601202  0.601202  0.196396  1
  Dy  Dy2  1  0.601202  0.196396  0.601202  1
  Dy  Dy3  1  0.196396  0.601202  0.601202  1
  Dy  Dy4  1  0.060513  0.439487  0.439487  1
  Dy  Dy5  1  0.439487  0.060513  0.060513  1
  Dy  Dy6  1  0.439487  0.060513  0.439487  1
  Dy  Dy7  1  0.060513  0.439487  0.060513  1
  Dy  Dy8  1  0.439487  0.439487  0.060513  1
  Dy  Dy9  1  0.060513  0.060513  0.439487  1
  Y  Y10  1  0.187235  0.812765  0.812765  1
  Y  Y11  1  0.812765  0.187235  0.187235  1
  Y  Y12  1  0.812765  0.187235  0.812765  1
  Y  Y13  1  0.187235  0.812765  0.187235  1
  Y  Y14  1  0.812765  0.812765  0.187235  1
  Y  Y15  1  0.187235  0.187235  0.812765  1
  Hg  Hg16  1  0.834822  0.834822  0.834822  1
  Hg  Hg17  1  0.834822  0.834822  0.495534  1
  Hg  Hg18  1  0.834822  0.495534  0.834822  1
  Hg  Hg19  1  0.495534  0.834822  0.834822  1
  Rh  Rh20  1  0.392702  0.392702  0.392702  1
  Rh  Rh21  1  0.392702  0.392702  0.821895  1
  Rh  Rh22  1  0.392702  0.821895  0.392702  1
  Rh  Rh23  1  0.821895  0.392702  0.392702  1
