# generated using pymatgen
data_CaTb6RuBr12
_symmetry_space_group_name_H-M   'P 1'
_cell_length_a   9.29955037
_cell_length_b   9.29955046
_cell_length_c   9.29954952
_cell_angle_alpha   106.85167291
_cell_angle_beta   106.85167538
_cell_angle_gamma   106.85166737
_symmetry_Int_Tables_number   1
_chemical_formula_structural   CaTb6RuBr12
_chemical_formula_sum   'Ca1 Tb6 Ru1 Br12'
_cell_volume   672.47066791
_cell_formula_units_Z   1
loop_
 _symmetry_equiv_pos_site_id
 _symmetry_equiv_pos_as_xyz
  1  'x, y, z'
loop_
 _atom_site_type_symbol
 _atom_site_label
 _atom_site_symmetry_multiplicity
 _atom_site_fract_x
 _atom_site_fract_y
 _atom_site_fract_z
 _atom_site_occupancy
  Ca  Ca0  1  0.500000  0.500000  0.500000  1
  Tb  Tb1  1  0.310591  0.103029  0.023004  1
  Tb  Tb2  1  0.023004  0.310591  0.103029  1
  Tb  Tb3  1  0.103029  0.023004  0.310591  1
  Tb  Tb4  1  0.689409  0.896971  0.976996  1
  Tb  Tb5  1  0.976996  0.689409  0.896971  1
  Tb  Tb6  1  0.896971  0.976996  0.689409  1
  Ru  Ru7  1  0.000000  0.000000  0.000000  1
  Br  Br8  1  0.678993  0.219258  0.072236  1
  Br  Br9  1  0.072236  0.678993  0.219258  1
  Br  Br10  1  0.219258  0.072236  0.678993  1
  Br  Br11  1  0.321007  0.780742  0.927764  1
  Br  Br12  1  0.927764  0.321007  0.780742  1
  Br  Br13  1  0.780742  0.927764  0.321007  1
  Br  Br14  1  0.455124  0.157757  0.374628  1
  Br  Br15  1  0.374628  0.455124  0.157757  1
  Br  Br16  1  0.157757  0.374628  0.455124  1
  Br  Br17  1  0.544876  0.842243  0.625372  1
  Br  Br18  1  0.625372  0.544876  0.842243  1
  Br  Br19  1  0.842243  0.625372  0.544876  1
