# generated using pymatgen
data_YTmThCo11B4
_symmetry_space_group_name_H-M   'P 1'
_cell_length_a   5.03533500
_cell_length_b   5.03533436
_cell_length_c   9.82876900
_cell_angle_alpha   90.00000000
_cell_angle_beta   90.00000000
_cell_angle_gamma   120.00001077
_symmetry_Int_Tables_number   1
_chemical_formula_structural   YTmThCo11B4
_chemical_formula_sum   'Y1 Tm1 Th1 Co11 B4'
_cell_volume   215.81737031
_cell_formula_units_Z   1
loop_
 _symmetry_equiv_pos_site_id
 _symmetry_equiv_pos_as_xyz
  1  'x, y, z'
loop_
 _atom_site_type_symbol
 _atom_site_label
 _atom_site_symmetry_multiplicity
 _atom_site_fract_x
 _atom_site_fract_y
 _atom_site_fract_z
 _atom_site_occupancy
  Y  Y0  1  0.000000  0.000000  0.655324  1
  Tm  Tm1  1  0.000000  0.000000  0.343944  1
  Th  Th2  1  0.000000  0.000000  0.001117  1
  Co  Co3  1  0.666667  0.333333  0.000096  1
  Co  Co4  1  0.333333  0.666667  0.000096  1
  Co  Co5  1  0.500000  0.500000  0.499089  1
  Co  Co6  1  0.500000  0.000000  0.499089  1
  Co  Co7  1  0.000000  0.500000  0.499089  1
  Co  Co8  1  0.500000  0.500000  0.795431  1
  Co  Co9  1  0.500000  0.000000  0.795431  1
  Co  Co10  1  0.000000  0.500000  0.795431  1
  Co  Co11  1  0.500000  0.500000  0.205532  1
  Co  Co12  1  0.500000  0.000000  0.205532  1
  Co  Co13  1  0.000000  0.500000  0.205532  1
  B  B14  1  0.666667  0.333333  0.649483  1
  B  B15  1  0.333333  0.666667  0.649483  1
  B  B16  1  0.333333  0.666667  0.350151  1
  B  B17  1  0.666667  0.333333  0.350151  1
