# generated using pymatgen
data_SrY2Ga8Ag3
_symmetry_space_group_name_H-M   'P 1'
_cell_length_a   4.37625994
_cell_length_b   8.52552656
_cell_length_c   8.52552689
_cell_angle_alpha   68.65404963
_cell_angle_beta   75.12824669
_cell_angle_gamma   75.12825442
_symmetry_Int_Tables_number   1
_chemical_formula_structural   SrY2Ga8Ag3
_chemical_formula_sum   'Sr1 Y2 Ga8 Ag3'
_cell_volume   281.59484537
_cell_formula_units_Z   1
loop_
 _symmetry_equiv_pos_site_id
 _symmetry_equiv_pos_as_xyz
  1  'x, y, z'
loop_
 _atom_site_type_symbol
 _atom_site_label
 _atom_site_symmetry_multiplicity
 _atom_site_fract_x
 _atom_site_fract_y
 _atom_site_fract_z
 _atom_site_occupancy
  Sr  Sr0  1  0.000000  0.000000  0.000000  1
  Y  Y1  1  0.300363  0.699637  0.699637  1
  Y  Y2  1  0.699637  0.300363  0.300363  1
  Ga  Ga3  1  0.336797  0.297079  0.029327  1
  Ga  Ga4  1  0.663203  0.702921  0.970673  1
  Ga  Ga5  1  0.336797  0.029327  0.297079  1
  Ga  Ga6  1  0.663203  0.970673  0.702921  1
  Ga  Ga7  1  0.146338  0.570720  0.136604  1
  Ga  Ga8  1  0.853662  0.429280  0.863396  1
  Ga  Ga9  1  0.146338  0.136604  0.570720  1
  Ga  Ga10  1  0.853662  0.863396  0.429280  1
  Ag  Ag11  1  0.500000  0.307324  0.692676  1
  Ag  Ag12  1  0.500000  0.692676  0.307324  1
  Ag  Ag13  1  0.000000  0.500000  0.500000  1
