# generated using pymatgen
data_La3Nd3Th2(CdIr)2
_symmetry_space_group_name_H-M   'P 1'
_cell_length_a   10.06308813
_cell_length_b   10.06308796
_cell_length_c   10.06308900
_cell_angle_alpha   59.99999988
_cell_angle_beta   60.00000043
_cell_angle_gamma   60.00000163
_symmetry_Int_Tables_number   1
_chemical_formula_structural   La3Nd3Th2(CdIr)2
_chemical_formula_sum   'La6 Nd6 Th4 Cd4 Ir4'
_cell_volume   720.57446401
_cell_formula_units_Z   2
loop_
 _symmetry_equiv_pos_site_id
 _symmetry_equiv_pos_as_xyz
  1  'x, y, z'
loop_
 _atom_site_type_symbol
 _atom_site_label
 _atom_site_symmetry_multiplicity
 _atom_site_fract_x
 _atom_site_fract_y
 _atom_site_fract_z
 _atom_site_occupancy
  La  La0  1  0.805423  0.194577  0.194577  1
  La  La1  1  0.194577  0.805423  0.805423  1
  La  La2  1  0.194577  0.805423  0.194577  1
  La  La3  1  0.805423  0.194577  0.805423  1
  La  La4  1  0.194577  0.194577  0.805423  1
  La  La5  1  0.805423  0.805423  0.194577  1
  Nd  Nd6  1  0.936326  0.563674  0.563674  1
  Nd  Nd7  1  0.563674  0.936326  0.936326  1
  Nd  Nd8  1  0.563674  0.936326  0.563674  1
  Nd  Nd9  1  0.936326  0.563674  0.936326  1
  Nd  Nd10  1  0.563674  0.563674  0.936326  1
  Nd  Nd11  1  0.936326  0.936326  0.563674  1
  Th  Th12  1  0.345452  0.345452  0.345452  1
  Th  Th13  1  0.345452  0.345452  0.963646  1
  Th  Th14  1  0.345452  0.963646  0.345452  1
  Th  Th15  1  0.963646  0.345452  0.345452  1
  Cd  Cd16  1  0.580307  0.580307  0.580307  1
  Cd  Cd17  1  0.580307  0.580307  0.259077  1
  Cd  Cd18  1  0.580307  0.259077  0.580307  1
  Cd  Cd19  1  0.259077  0.580307  0.580307  1
  Ir  Ir20  1  0.145260  0.145260  0.145260  1
  Ir  Ir21  1  0.145260  0.145260  0.564218  1
  Ir  Ir22  1  0.145260  0.564218  0.145260  1
  Ir  Ir23  1  0.564218  0.145260  0.145260  1
