# generated using pymatgen
data_Lu13Th3(InRh)4
_symmetry_space_group_name_H-M   'P 1'
_cell_length_a   9.59331165
_cell_length_b   9.61338254
_cell_length_c   9.61269901
_cell_angle_alpha   59.99806822
_cell_angle_beta   59.93066433
_cell_angle_gamma   59.93136250
_symmetry_Int_Tables_number   1
_chemical_formula_structural   Lu13Th3(InRh)4
_chemical_formula_sum   'Lu13 Th3 In4 Rh4'
_cell_volume   626.20301622
_cell_formula_units_Z   1
loop_
 _symmetry_equiv_pos_site_id
 _symmetry_equiv_pos_as_xyz
  1  'x, y, z'
loop_
 _atom_site_type_symbol
 _atom_site_label
 _atom_site_symmetry_multiplicity
 _atom_site_fract_x
 _atom_site_fract_y
 _atom_site_fract_z
 _atom_site_occupancy
  Lu  Lu0  1  0.197162  0.600943  0.600955  1
  Lu  Lu1  1  0.063510  0.438267  0.438259  1
  Lu  Lu2  1  0.437046  0.062877  0.062861  1
  Lu  Lu3  1  0.437044  0.062877  0.437210  1
  Lu  Lu4  1  0.063510  0.438265  0.059981  1
  Lu  Lu5  1  0.437026  0.437215  0.062880  1
  Lu  Lu6  1  0.063495  0.059976  0.438259  1
  Lu  Lu7  1  0.185669  0.813095  0.813088  1
  Lu  Lu8  1  0.814572  0.185710  0.185706  1
  Lu  Lu9  1  0.814548  0.185706  0.814014  1
  Lu  Lu10  1  0.185671  0.813100  0.188131  1
  Lu  Lu11  1  0.814558  0.814003  0.185717  1
  Lu  Lu12  1  0.185668  0.188134  0.813098  1
  Th  Th13  1  0.596702  0.600139  0.600122  1
  Th  Th14  1  0.596685  0.600155  0.203012  1
  Th  Th15  1  0.596686  0.203010  0.600174  1
  In  In16  1  0.837339  0.833920  0.833920  1
  In  In17  1  0.837333  0.833926  0.494848  1
  In  In18  1  0.837336  0.494830  0.833903  1
  In  In19  1  0.494399  0.835203  0.835192  1
  Rh  Rh20  1  0.393408  0.391433  0.391443  1
  Rh  Rh21  1  0.393417  0.391438  0.823714  1
  Rh  Rh22  1  0.393425  0.823706  0.391438  1
  Rh  Rh23  1  0.823790  0.392071  0.392073  1
