# generated using pymatgen
data_HoMnFeSi2
_symmetry_space_group_name_H-M   'P 1'
_cell_length_a   5.78312363
_cell_length_b   5.78312338
_cell_length_c   5.78312204
_cell_angle_alpha   140.85870492
_cell_angle_beta   140.85869853
_cell_angle_gamma   56.55177637
_symmetry_Int_Tables_number   1
_chemical_formula_structural   HoMnFeSi2
_chemical_formula_sum   'Ho1 Mn1 Fe1 Si2'
_cell_volume   76.44919319
_cell_formula_units_Z   1
loop_
 _symmetry_equiv_pos_site_id
 _symmetry_equiv_pos_as_xyz
  1  'x, y, z'
loop_
 _atom_site_type_symbol
 _atom_site_label
 _atom_site_symmetry_multiplicity
 _atom_site_fract_x
 _atom_site_fract_y
 _atom_site_fract_z
 _atom_site_occupancy
  Ho  Ho0  1  0.000000  0.000000  0.000000  1
  Mn  Mn1  1  0.250000  0.750000  0.500000  1
  Fe  Fe2  1  0.750000  0.250000  0.500000  1
  Si  Si3  1  0.621392  0.621392  0.000000  1
  Si  Si4  1  0.378609  0.378609  0.000000  1
