# generated using pymatgen
data_TbYbZnIr2
_symmetry_space_group_name_H-M   'P 1'
_cell_length_a   5.50283004
_cell_length_b   5.50282959
_cell_length_c   5.50233986
_cell_angle_alpha   135.57404715
_cell_angle_beta   116.45584190
_cell_angle_gamma   80.81863152
_symmetry_Int_Tables_number   1
_chemical_formula_structural   TbYbZnIr2
_chemical_formula_sum   'Tb1 Yb1 Zn1 Ir2'
_cell_volume   101.01681114
_cell_formula_units_Z   1
loop_
 _symmetry_equiv_pos_site_id
 _symmetry_equiv_pos_as_xyz
  1  'x, y, z'
loop_
 _atom_site_type_symbol
 _atom_site_label
 _atom_site_symmetry_multiplicity
 _atom_site_fract_x
 _atom_site_fract_y
 _atom_site_fract_z
 _atom_site_occupancy
  Tb  Tb0  1  0.298083  0.798083  0.500000  1
  Yb  Yb1  1  0.705793  0.205793  0.500000  1
  Zn  Zn2  1  0.996496  0.996496  0.000000  1
  Ir  Ir3  1  0.274196  0.499867  0.774437  1
  Ir  Ir4  1  0.725430  0.499760  0.225563  1
