# generated using pymatgen
data_Na2Ce2CuAuSe6
_symmetry_space_group_name_H-M   'P 1'
_cell_length_a   7.13174073
_cell_length_b   7.13173965
_cell_length_c   10.81644100
_cell_angle_alpha   90.00000000
_cell_angle_beta   90.00000000
_cell_angle_gamma   146.13790946
_symmetry_Int_Tables_number   1
_chemical_formula_structural   Na2Ce2CuAuSe6
_chemical_formula_sum   'Na2 Ce2 Cu1 Au1 Se6'
_cell_volume   306.53725043
_cell_formula_units_Z   1
loop_
 _symmetry_equiv_pos_site_id
 _symmetry_equiv_pos_as_xyz
  1  'x, y, z'
loop_
 _atom_site_type_symbol
 _atom_site_label
 _atom_site_symmetry_multiplicity
 _atom_site_fract_x
 _atom_site_fract_y
 _atom_site_fract_z
 _atom_site_occupancy
  Na  Na0  1  0.761242  0.238758  0.250000  1
  Na  Na1  1  0.244706  0.755294  0.750000  1
  Ce  Ce2  1  0.000786  0.999214  0.000740  1
  Ce  Ce3  1  0.000786  0.999214  0.499260  1
  Cu  Cu4  1  0.523886  0.476114  0.750000  1
  Au  Au5  1  0.469822  0.530178  0.250000  1
  Se  Se6  1  0.359672  0.640328  0.055317  1
  Se  Se7  1  0.091618  0.908382  0.250000  1
  Se  Se8  1  0.359672  0.640328  0.444683  1
  Se  Se9  1  0.633098  0.366902  0.573432  1
  Se  Se10  1  0.921614  0.078386  0.750000  1
  Se  Se11  1  0.633098  0.366902  0.926569  1
