# generated using pymatgen
data_Nd2Al9PtRh2
_symmetry_space_group_name_H-M   'P 1'
_cell_length_a   7.65253559
_cell_length_b   7.65253595
_cell_length_c   9.59523034
_cell_angle_alpha   89.93929096
_cell_angle_beta   89.93928630
_cell_angle_gamma   119.58936336
_symmetry_Int_Tables_number   1
_chemical_formula_structural   Nd2Al9PtRh2
_chemical_formula_sum   'Nd4 Al18 Pt2 Rh4'
_cell_volume   488.62763264
_cell_formula_units_Z   2
loop_
 _symmetry_equiv_pos_site_id
 _symmetry_equiv_pos_as_xyz
  1  'x, y, z'
loop_
 _atom_site_type_symbol
 _atom_site_label
 _atom_site_symmetry_multiplicity
 _atom_site_fract_x
 _atom_site_fract_y
 _atom_site_fract_z
 _atom_site_occupancy
  Nd  Nd0  1  0.995391  0.668983  0.749385  1
  Nd  Nd1  1  0.004609  0.331017  0.250615  1
  Nd  Nd2  1  0.668983  0.995391  0.749385  1
  Nd  Nd3  1  0.331017  0.004609  0.250615  1
  Al  Al4  1  0.127944  0.127944  0.750793  1
  Al  Al5  1  0.872056  0.872056  0.249207  1
  Al  Al6  1  0.002765  0.330390  0.575625  1
  Al  Al7  1  0.997235  0.669610  0.424375  1
  Al  Al8  1  0.998499  0.665475  0.072405  1
  Al  Al9  1  0.334525  0.001501  0.927595  1
  Al  Al10  1  0.001501  0.334525  0.927595  1
  Al  Al11  1  0.665475  0.998499  0.072405  1
  Al  Al12  1  0.669610  0.997235  0.424375  1
  Al  Al13  1  0.330390  0.002765  0.575625  1
  Al  Al14  1  0.333377  0.333377  0.047406  1
  Al  Al15  1  0.666623  0.666623  0.952594  1
  Al  Al16  1  0.668052  0.668052  0.552382  1
  Al  Al17  1  0.331948  0.331948  0.447618  1
  Al  Al18  1  0.340196  0.545110  0.754030  1
  Al  Al19  1  0.659804  0.454890  0.245970  1
  Al  Al20  1  0.545110  0.340196  0.754030  1
  Al  Al21  1  0.454890  0.659804  0.245970  1
  Pt  Pt22  1  0.671416  0.328584  0.500000  1
  Pt  Pt23  1  0.328584  0.671416  0.500000  1
  Rh  Rh24  1  0.328752  0.671248  0.000000  1
  Rh  Rh25  1  0.671248  0.328752  0.000000  1
  Rh  Rh26  1  0.000000  0.000000  0.500000  1
  Rh  Rh27  1  0.000000  0.000000  0.000000  1
