# generated using pymatgen
data_Tb9Th(Sn3P)2
_symmetry_space_group_name_H-M   'P 1'
_cell_length_a   9.18255317
_cell_length_b   9.18255237
_cell_length_c   6.74481600
_cell_angle_alpha   90.00000000
_cell_angle_beta   90.00000000
_cell_angle_gamma   120.26290971
_symmetry_Int_Tables_number   1
_chemical_formula_structural   Tb9Th(Sn3P)2
_chemical_formula_sum   'Tb9 Th1 Sn6 P2'
_cell_volume   491.21423189
_cell_formula_units_Z   1
loop_
 _symmetry_equiv_pos_site_id
 _symmetry_equiv_pos_as_xyz
  1  'x, y, z'
loop_
 _atom_site_type_symbol
 _atom_site_label
 _atom_site_symmetry_multiplicity
 _atom_site_fract_x
 _atom_site_fract_y
 _atom_site_fract_z
 _atom_site_occupancy
  Tb  Tb0  1  0.667095  0.332651  0.000670  1
  Tb  Tb1  1  0.332651  0.667095  0.000670  1
  Tb  Tb2  1  0.332651  0.667095  0.499330  1
  Tb  Tb3  1  0.667095  0.332651  0.499330  1
  Tb  Tb4  1  0.241567  0.000359  0.750000  1
  Tb  Tb5  1  0.000359  0.241567  0.750000  1
  Tb  Tb6  1  0.240878  0.240878  0.250000  1
  Tb  Tb7  1  0.759266  0.000691  0.250000  1
  Tb  Tb8  1  0.000691  0.759266  0.250000  1
  Th  Th9  1  0.757998  0.757998  0.750000  1
  Sn  Sn10  1  0.396384  0.396384  0.750000  1
  Sn  Sn11  1  0.599570  0.001866  0.750000  1
  Sn  Sn12  1  0.001866  0.599570  0.750000  1
  Sn  Sn13  1  0.600821  0.600821  0.250000  1
  Sn  Sn14  1  0.398192  0.999844  0.250000  1
  Sn  Sn15  1  0.999844  0.398192  0.250000  1
  P  P16  1  0.001536  0.001536  0.001520  1
  P  P17  1  0.001536  0.001536  0.498480  1
