# generated using pymatgen
data_TbPr(Th2In5)2
_symmetry_space_group_name_H-M   'P 1'
_cell_length_a   6.61932128
_cell_length_b   6.61932143
_cell_length_c   10.40299600
_cell_angle_alpha   90.00000000
_cell_angle_beta   90.00000000
_cell_angle_gamma   102.39228976
_symmetry_Int_Tables_number   1
_chemical_formula_structural   TbPr(Th2In5)2
_chemical_formula_sum   'Tb1 Pr1 Th4 In10'
_cell_volume   445.19171093
_cell_formula_units_Z   1
loop_
 _symmetry_equiv_pos_site_id
 _symmetry_equiv_pos_as_xyz
  1  'x, y, z'
loop_
 _atom_site_type_symbol
 _atom_site_label
 _atom_site_symmetry_multiplicity
 _atom_site_fract_x
 _atom_site_fract_y
 _atom_site_fract_z
 _atom_site_occupancy
  Tb  Tb0  1  0.369791  0.369791  0.750000  1
  Pr  Pr1  1  0.629487  0.629487  0.250000  1
  Th  Th2  1  0.205152  0.793205  0.500280  1
  Th  Th3  1  0.205152  0.793205  0.999720  1
  Th  Th4  1  0.793205  0.205152  0.500280  1
  Th  Th5  1  0.793205  0.205152  0.999720  1
  In  In6  1  0.014249  0.014249  0.250000  1
  In  In7  1  0.989771  0.989771  0.750000  1
  In  In8  1  0.307120  0.307120  0.044055  1
  In  In9  1  0.690440  0.690440  0.948343  1
  In  In10  1  0.307120  0.307120  0.455945  1
  In  In11  1  0.690440  0.690440  0.551657  1
  In  In12  1  0.493025  0.074759  0.250000  1
  In  In13  1  0.932750  0.504333  0.750000  1
  In  In14  1  0.504333  0.932750  0.750000  1
  In  In15  1  0.074759  0.493025  0.250000  1
