# generated using pymatgen
data_Eu3Dy3(PtO7)2
_symmetry_space_group_name_H-M   'P 1'
_cell_length_a   6.48910393
_cell_length_b   6.51448756
_cell_length_c   7.50865403
_cell_angle_alpha   89.98953847
_cell_angle_beta   90.00438287
_cell_angle_gamma   109.14344341
_symmetry_Int_Tables_number   1
_chemical_formula_structural   Eu3Dy3(PtO7)2
_chemical_formula_sum   'Eu3 Dy3 Pt2 O14'
_cell_volume   299.86186451
_cell_formula_units_Z   1
loop_
 _symmetry_equiv_pos_site_id
 _symmetry_equiv_pos_as_xyz
  1  'x, y, z'
loop_
 _atom_site_type_symbol
 _atom_site_label
 _atom_site_symmetry_multiplicity
 _atom_site_fract_x
 _atom_site_fract_y
 _atom_site_fract_z
 _atom_site_occupancy
  Eu  Eu0  1  0.478331  0.002446  0.250093  1
  Eu  Eu1  1  0.499774  0.499153  0.502392  1
  Eu  Eu2  1  0.499412  0.498851  0.997616  1
  Dy  Dy3  1  0.000488  0.469045  0.749877  1
  Dy  Dy4  1  0.999491  0.536080  0.249892  1
  Dy  Dy5  1  0.533438  0.997750  0.750111  1
  Pt  Pt6  1  0.999901  0.000766  0.500030  1
  Pt  Pt7  1  0.000084  0.000916  0.999961  1
  O  O8  1  0.635374  0.360387  0.750026  1
  O  O9  1  0.364857  0.637318  0.250038  1
  O  O10  1  0.927363  0.080078  0.749996  1
  O  O11  1  0.068987  0.921127  0.249996  1
  O  O12  1  0.927600  0.675111  0.526841  1
  O  O13  1  0.071595  0.325782  0.027910  1
  O  O14  1  0.322674  0.075156  0.971424  1
  O  O15  1  0.674399  0.920454  0.479884  1
  O  O16  1  0.364846  0.634939  0.750009  1
  O  O17  1  0.635093  0.368217  0.249978  1
  O  O18  1  0.927867  0.675321  0.972968  1
  O  O19  1  0.071375  0.325606  0.471904  1
  O  O20  1  0.322517  0.074900  0.528769  1
  O  O21  1  0.674531  0.920596  0.020285  1
