# generated using pymatgen
data_Sc8Nb8Si16MoW3
_symmetry_space_group_name_H-M   'P 1'
_cell_length_a   6.61763422
_cell_length_b   6.87047708
_cell_length_c   13.07054700
_cell_angle_alpha   90.00000000
_cell_angle_beta   90.00000000
_cell_angle_gamma   90.06511672
_symmetry_Int_Tables_number   1
_chemical_formula_structural   Sc8Nb8Si16MoW3
_chemical_formula_sum   'Sc8 Nb8 Si16 Mo1 W3'
_cell_volume   594.26908212
_cell_formula_units_Z   1
loop_
 _symmetry_equiv_pos_site_id
 _symmetry_equiv_pos_as_xyz
  1  'x, y, z'
loop_
 _atom_site_type_symbol
 _atom_site_label
 _atom_site_symmetry_multiplicity
 _atom_site_fract_x
 _atom_site_fract_y
 _atom_site_fract_z
 _atom_site_occupancy
  Sc  Sc0  1  0.499078  0.674439  0.593385  1
  Sc  Sc1  1  0.999611  0.826224  0.906519  1
  Sc  Sc2  1  0.500469  0.325648  0.093856  1
  Sc  Sc3  1  0.000751  0.173932  0.406198  1
  Sc  Sc4  1  0.500469  0.325648  0.406144  1
  Sc  Sc5  1  0.000751  0.173932  0.093802  1
  Sc  Sc6  1  0.499078  0.674439  0.906615  1
  Sc  Sc7  1  0.999611  0.826224  0.593481  1
  Nb  Nb8  1  0.666004  0.168296  0.625652  1
  Nb  Nb9  1  0.165986  0.330719  0.874493  1
  Nb  Nb10  1  0.333870  0.831242  0.125657  1
  Nb  Nb11  1  0.834142  0.668975  0.374427  1
  Nb  Nb12  1  0.333870  0.831242  0.374343  1
  Nb  Nb13  1  0.834142  0.668975  0.125573  1
  Nb  Nb14  1  0.666004  0.168296  0.874348  1
  Nb  Nb15  1  0.165986  0.330719  0.625507  1
  Si  Si16  1  0.669899  0.965566  0.458414  1
  Si  Si17  1  0.169958  0.534277  0.041450  1
  Si  Si18  1  0.330085  0.034578  0.958397  1
  Si  Si19  1  0.830110  0.465332  0.541369  1
  Si  Si20  1  0.330085  0.034578  0.541603  1
  Si  Si21  1  0.830110  0.465332  0.958631  1
  Si  Si22  1  0.669899  0.965566  0.041586  1
  Si  Si23  1  0.169958  0.534277  0.458550  1
  Si  Si24  1  0.466967  0.389365  0.750000  1
  Si  Si25  1  0.966086  0.111243  0.750000  1
  Si  Si26  1  0.533884  0.610954  0.250000  1
  Si  Si27  1  0.033575  0.889256  0.250000  1
  Si  Si28  1  0.703004  0.855825  0.750000  1
  Si  Si29  1  0.202271  0.643247  0.750000  1
  Si  Si30  1  0.297254  0.143982  0.250000  1
  Si  Si31  1  0.797309  0.356360  0.250000  1
  Mo  Mo32  1  0.838284  0.497172  0.750000  1
  W  W33  1  0.339570  0.003895  0.750000  1
  W  W34  1  0.161262  0.504130  0.250000  1
  W  W35  1  0.660606  0.996118  0.250000  1
