# generated using pymatgen
data_Y2Ho8AlSb5
_symmetry_space_group_name_H-M   'P 1'
_cell_length_a   8.91045400
_cell_length_b   8.90254408
_cell_length_c   6.36196400
_cell_angle_alpha   90.00000000
_cell_angle_beta   90.00000000
_cell_angle_gamma   120.02940318
_symmetry_Int_Tables_number   1
_chemical_formula_structural   Y2Ho8AlSb5
_chemical_formula_sum   'Y2 Ho8 Al1 Sb5'
_cell_volume   436.92515848
_cell_formula_units_Z   1
loop_
 _symmetry_equiv_pos_site_id
 _symmetry_equiv_pos_as_xyz
  1  'x, y, z'
loop_
 _atom_site_type_symbol
 _atom_site_label
 _atom_site_symmetry_multiplicity
 _atom_site_fract_x
 _atom_site_fract_y
 _atom_site_fract_z
 _atom_site_occupancy
  Y  Y0  1  0.754951  0.755826  0.250000  1
  Y  Y1  1  0.999125  0.244174  0.250000  1
  Ho  Ho2  1  0.334741  0.673483  0.998838  1
  Ho  Ho3  1  0.661258  0.326517  0.501162  1
  Ho  Ho4  1  0.661258  0.326517  0.998838  1
  Ho  Ho5  1  0.334741  0.673483  0.501162  1
  Ho  Ho6  1  0.752562  0.000000  0.750000  1
  Ho  Ho7  1  0.009680  0.763701  0.750000  1
  Ho  Ho8  1  0.245979  0.236299  0.750000  1
  Ho  Ho9  1  0.242212  0.000000  0.250000  1
  Al  Al10  1  0.396830  0.000000  0.750000  1
  Sb  Sb11  1  0.389380  0.392046  0.250000  1
  Sb  Sb12  1  0.997334  0.607954  0.250000  1
  Sb  Sb13  1  0.001852  0.390439  0.750000  1
  Sb  Sb14  1  0.611413  0.609561  0.750000  1
  Sb  Sb15  1  0.606681  0.000000  0.250000  1
