# generated using pymatgen
data_ErTi4Pd15
_symmetry_space_group_name_H-M   'P 1'
_cell_length_a   3.96698400
_cell_length_b   3.96698400
_cell_length_c   19.79996200
_cell_angle_alpha   90.00000000
_cell_angle_beta   90.00000000
_cell_angle_gamma   90.00000000
_symmetry_Int_Tables_number   1
_chemical_formula_structural   ErTi4Pd15
_chemical_formula_sum   'Er1 Ti4 Pd15'
_cell_volume   311.59125071
_cell_formula_units_Z   1
loop_
 _symmetry_equiv_pos_site_id
 _symmetry_equiv_pos_as_xyz
  1  'x, y, z'
loop_
 _atom_site_type_symbol
 _atom_site_label
 _atom_site_symmetry_multiplicity
 _atom_site_fract_x
 _atom_site_fract_y
 _atom_site_fract_z
 _atom_site_occupancy
  Er  Er0  1  0.000000  0.000000  0.000000  1
  Ti  Ti1  1  0.000000  0.000000  0.200522  1
  Ti  Ti2  1  0.000000  0.000000  0.399771  1
  Ti  Ti3  1  0.000000  0.000000  0.600229  1
  Ti  Ti4  1  0.000000  0.000000  0.799478  1
  Pd  Pd5  1  0.500000  0.500000  0.000000  1
  Pd  Pd6  1  0.500000  0.500000  0.204405  1
  Pd  Pd7  1  0.500000  0.500000  0.401007  1
  Pd  Pd8  1  0.500000  0.500000  0.598993  1
  Pd  Pd9  1  0.500000  0.500000  0.795595  1
  Pd  Pd10  1  0.500000  0.000000  0.107509  1
  Pd  Pd11  1  0.500000  0.000000  0.302220  1
  Pd  Pd12  1  0.500000  0.000000  0.500000  1
  Pd  Pd13  1  0.500000  0.000000  0.697780  1
  Pd  Pd14  1  0.500000  0.000000  0.892491  1
  Pd  Pd15  1  0.000000  0.500000  0.107509  1
  Pd  Pd16  1  0.000000  0.500000  0.302220  1
  Pd  Pd17  1  0.000000  0.500000  0.500000  1
  Pd  Pd18  1  0.000000  0.500000  0.697780  1
  Pd  Pd19  1  0.000000  0.500000  0.892491  1
