# generated using pymatgen
data_Hf2Zr4Fe16Si6Mo
_symmetry_space_group_name_H-M   'P 1'
_cell_length_a   8.13833179
_cell_length_b   8.12947957
_cell_length_c   8.13833181
_cell_angle_alpha   60.03596980
_cell_angle_beta   59.92805915
_cell_angle_gamma   60.03596599
_symmetry_Int_Tables_number   1
_chemical_formula_structural   Hf2Zr4Fe16Si6Mo
_chemical_formula_sum   'Hf2 Zr4 Fe16 Si6 Mo1'
_cell_volume   380.73034062
_cell_formula_units_Z   1
loop_
 _symmetry_equiv_pos_site_id
 _symmetry_equiv_pos_as_xyz
  1  'x, y, z'
loop_
 _atom_site_type_symbol
 _atom_site_label
 _atom_site_symmetry_multiplicity
 _atom_site_fract_x
 _atom_site_fract_y
 _atom_site_fract_z
 _atom_site_occupancy
  Hf  Hf0  1  0.711661  0.288339  0.711661  1
  Hf  Hf1  1  0.288339  0.711661  0.288339  1
  Zr  Zr2  1  0.291026  0.708974  0.708974  1
  Zr  Zr3  1  0.708974  0.708974  0.291026  1
  Zr  Zr4  1  0.291026  0.291026  0.708974  1
  Zr  Zr5  1  0.708974  0.291026  0.291026  1
  Fe  Fe6  1  0.875387  0.878114  0.875387  1
  Fe  Fe7  1  0.030175  0.323066  0.323692  1
  Fe  Fe8  1  0.121886  0.124613  0.628886  1
  Fe  Fe9  1  0.323066  0.030175  0.323066  1
  Fe  Fe10  1  0.323066  0.323692  0.323066  1
  Fe  Fe11  1  0.676308  0.676934  0.969825  1
  Fe  Fe12  1  0.878114  0.875387  0.371114  1
  Fe  Fe13  1  0.676934  0.676308  0.676934  1
  Fe  Fe14  1  0.676934  0.969825  0.676934  1
  Fe  Fe15  1  0.323692  0.323066  0.030175  1
  Fe  Fe16  1  0.875387  0.371114  0.875387  1
  Fe  Fe17  1  0.628886  0.124613  0.121886  1
  Fe  Fe18  1  0.124613  0.628886  0.124613  1
  Fe  Fe19  1  0.124613  0.121886  0.124613  1
  Fe  Fe20  1  0.969825  0.676934  0.676308  1
  Fe  Fe21  1  0.371114  0.875387  0.878114  1
  Si  Si22  1  0.000000  0.000000  0.500000  1
  Si  Si23  1  0.000000  0.500000  0.000000  1
  Si  Si24  1  0.500000  0.000000  0.500000  1
  Si  Si25  1  0.000000  0.500000  0.500000  1
  Si  Si26  1  0.500000  0.000000  0.000000  1
  Si  Si27  1  0.500000  0.500000  0.000000  1
  Mo  Mo28  1  0.000000  0.000000  0.000000  1
