# generated using pymatgen
data_Lu3B2Ir2Rh3
_symmetry_space_group_name_H-M   'P 1'
_cell_length_a   9.73517300
_cell_length_b   9.68883100
_cell_length_c   3.22316400
_cell_angle_alpha   90.00000000
_cell_angle_beta   90.00000000
_cell_angle_gamma   90.00066660
_symmetry_Int_Tables_number   1
_chemical_formula_structural   Lu3B2Ir2Rh3
_chemical_formula_sum   'Lu6 B4 Ir4 Rh6'
_cell_volume   304.01671218
_cell_formula_units_Z   2
loop_
 _symmetry_equiv_pos_site_id
 _symmetry_equiv_pos_as_xyz
  1  'x, y, z'
loop_
 _atom_site_type_symbol
 _atom_site_label
 _atom_site_symmetry_multiplicity
 _atom_site_fract_x
 _atom_site_fract_y
 _atom_site_fract_z
 _atom_site_occupancy
  Lu  Lu0  1  0.673943  0.174578  0.000000  1
  Lu  Lu1  1  0.324903  0.826467  0.000000  1
  Lu  Lu2  1  0.174189  0.325592  0.000000  1
  Lu  Lu3  1  0.825638  0.674457  0.000000  1
  Lu  Lu4  1  0.999361  0.001668  0.000000  1
  Lu  Lu5  1  0.498547  0.500486  0.000000  1
  B  B6  1  0.119717  0.621690  0.000000  1
  B  B7  1  0.877970  0.380839  0.000000  1
  B  B8  1  0.621755  0.880254  0.000000  1
  B  B9  1  0.378731  0.119447  0.000000  1
  Ir  Ir10  1  0.229117  0.072536  0.500000  1
  Ir  Ir11  1  0.771438  0.927169  0.500000  1
  Ir  Ir12  1  0.072579  0.771732  0.500000  1
  Ir  Ir13  1  0.728780  0.426979  0.500000  1
  Rh  Rh14  1  0.500551  0.999383  0.500000  1
  Rh  Rh15  1  0.000801  0.499173  0.500000  1
  Rh  Rh16  1  0.929248  0.226976  0.500000  1
  Rh  Rh17  1  0.272607  0.571313  0.500000  1
  Rh  Rh18  1  0.571198  0.726357  0.500000  1
  Rh  Rh19  1  0.428928  0.272905  0.500000  1
