# generated using pymatgen
data_Tb4Er7Lu(GaCo2)2
_symmetry_space_group_name_H-M   'P 1'
_cell_length_a   8.22611548
_cell_length_b   8.22514425
_cell_length_c   8.22611601
_cell_angle_alpha   106.92397011
_cell_angle_beta   109.22120871
_cell_angle_gamma   112.31885766
_symmetry_Int_Tables_number   1
_chemical_formula_structural   Tb4Er7Lu(GaCo2)2
_chemical_formula_sum   'Tb4 Er7 Lu1 Ga2 Co4'
_cell_volume   427.47510441
_cell_formula_units_Z   1
loop_
 _symmetry_equiv_pos_site_id
 _symmetry_equiv_pos_as_xyz
  1  'x, y, z'
loop_
 _atom_site_type_symbol
 _atom_site_label
 _atom_site_symmetry_multiplicity
 _atom_site_fract_x
 _atom_site_fract_y
 _atom_site_fract_z
 _atom_site_occupancy
  Tb  Tb0  1  0.698105  0.260307  0.959364  1
  Tb  Tb1  1  0.303059  0.740021  0.042223  1
  Tb  Tb2  1  0.697798  0.740021  0.436963  1
  Tb  Tb3  1  0.300943  0.260307  0.562201  1
  Er  Er4  1  0.812081  0.483847  0.671766  1
  Er  Er5  1  0.188084  0.860221  0.672136  1
  Er  Er6  1  0.187305  0.514943  0.327638  1
  Er  Er7  1  0.602216  0.781184  0.821852  1
  Er  Er8  1  0.959331  0.781184  0.178967  1
  Er  Er9  1  0.039886  0.219052  0.820274  1
  Er  Er10  1  0.398778  0.219052  0.179167  1
  Lu  Lu11  1  0.813527  0.141497  0.327971  1
  Ga  Ga12  1  0.499906  0.499569  0.999662  1
  Ga  Ga13  1  0.500391  0.999964  0.499573  1
  Co  Co14  1  0.837503  0.499095  0.337965  1
  Co  Co15  1  0.161129  0.499095  0.661592  1
  Co  Co16  1  0.999422  0.115290  0.115868  1
  Co  Co17  1  0.000536  0.885355  0.884819  1
