# generated using pymatgen
data_Nd8Si12Pt3Au
_symmetry_space_group_name_H-M   'P 1'
_cell_length_a   8.25202900
_cell_length_b   8.25203070
_cell_length_c   8.61518000
_cell_angle_alpha   89.99998611
_cell_angle_beta   90.00001389
_cell_angle_gamma   119.99998917
_symmetry_Int_Tables_number   1
_chemical_formula_structural   Nd8Si12Pt3Au
_chemical_formula_sum   'Nd8 Si12 Pt3 Au1'
_cell_volume   508.06188530
_cell_formula_units_Z   1
loop_
 _symmetry_equiv_pos_site_id
 _symmetry_equiv_pos_as_xyz
  1  'x, y, z'
loop_
 _atom_site_type_symbol
 _atom_site_label
 _atom_site_symmetry_multiplicity
 _atom_site_fract_x
 _atom_site_fract_y
 _atom_site_fract_z
 _atom_site_occupancy
  Nd  Nd0  1  0.498390  0.501610  0.747574  1
  Nd  Nd1  1  0.499296  0.500704  0.252356  1
  Nd  Nd2  1  0.003220  0.501610  0.747574  1
  Nd  Nd3  1  0.001409  0.500704  0.252356  1
  Nd  Nd4  1  0.498390  0.996779  0.747574  1
  Nd  Nd5  1  0.499296  0.998591  0.252356  1
  Nd  Nd6  1  0.000000  0.000000  0.748699  1
  Nd  Nd7  1  0.000000  0.000000  0.251448  1
  Si  Si8  1  0.837807  0.162193  0.999639  1
  Si  Si9  1  0.167135  0.832865  0.000758  1
  Si  Si10  1  0.324387  0.162194  0.999639  1
  Si  Si11  1  0.165851  0.834149  0.499086  1
  Si  Si12  1  0.665731  0.832865  0.000758  1
  Si  Si13  1  0.833888  0.166112  0.500935  1
  Si  Si14  1  0.837807  0.675613  0.999639  1
  Si  Si15  1  0.668300  0.834149  0.499086  1
  Si  Si16  1  0.167135  0.334269  0.000758  1
  Si  Si17  1  0.332225  0.166112  0.500935  1
  Si  Si18  1  0.165851  0.331700  0.499086  1
  Si  Si19  1  0.833888  0.667775  0.500935  1
  Pt  Pt20  1  0.333333  0.666667  0.000628  1
  Pt  Pt21  1  0.333333  0.666667  0.499143  1
  Pt  Pt22  1  0.666667  0.333333  0.500813  1
  Au  Au23  1  0.666667  0.333333  0.998226  1
