# generated using pymatgen
data_Hf13Zr7(FeAs3)4
_symmetry_space_group_name_H-M   'P 1'
_cell_length_a   3.71664000
_cell_length_b   10.52511202
_cell_length_c   17.46903515
_cell_angle_alpha   89.98875009
_cell_angle_beta   90.00000000
_cell_angle_gamma   90.00000000
_symmetry_Int_Tables_number   1
_chemical_formula_structural   Hf13Zr7(FeAs3)4
_chemical_formula_sum   'Hf13 Zr7 Fe4 As12'
_cell_volume   683.35461834
_cell_formula_units_Z   1
loop_
 _symmetry_equiv_pos_site_id
 _symmetry_equiv_pos_as_xyz
  1  'x, y, z'
loop_
 _atom_site_type_symbol
 _atom_site_label
 _atom_site_symmetry_multiplicity
 _atom_site_fract_x
 _atom_site_fract_y
 _atom_site_fract_z
 _atom_site_occupancy
  Hf  Hf0  1  0.250000  0.623427  0.976724  1
  Hf  Hf1  1  0.250000  0.947348  0.076847  1
  Hf  Hf2  1  0.750000  0.051746  0.923606  1
  Hf  Hf3  1  0.750000  0.447713  0.423211  1
  Hf  Hf4  1  0.250000  0.552244  0.576733  1
  Hf  Hf5  1  0.250000  0.240339  0.166425  1
  Hf  Hf6  1  0.750000  0.759481  0.833369  1
  Hf  Hf7  1  0.750000  0.740295  0.333298  1
  Hf  Hf8  1  0.250000  0.259883  0.666715  1
  Hf  Hf9  1  0.250000  0.519616  0.275905  1
  Hf  Hf10  1  0.750000  0.480645  0.723854  1
  Hf  Hf11  1  0.750000  0.019368  0.223530  1
  Hf  Hf12  1  0.250000  0.980659  0.776595  1
  Zr  Zr13  1  0.250000  0.183094  0.366935  1
  Zr  Zr14  1  0.750000  0.816944  0.632917  1
  Zr  Zr15  1  0.750000  0.683165  0.132211  1
  Zr  Zr16  1  0.250000  0.317465  0.867474  1
  Zr  Zr17  1  0.250000  0.877399  0.476907  1
  Zr  Zr18  1  0.750000  0.122782  0.523187  1
  Zr  Zr19  1  0.750000  0.377656  0.022794  1
  Fe  Fe20  1  0.250000  0.627123  0.406574  1
  Fe  Fe21  1  0.750000  0.372759  0.593473  1
  Fe  Fe22  1  0.750000  0.127246  0.093282  1
  Fe  Fe23  1  0.250000  0.870585  0.906957  1
  As  As24  1  0.250000  0.492626  0.118399  1
  As  As25  1  0.750000  0.509359  0.881512  1
  As  As26  1  0.750000  0.992154  0.380788  1
  As  As27  1  0.250000  0.007961  0.619310  1
  As  As28  1  0.250000  0.816574  0.218874  1
  As  As29  1  0.750000  0.183113  0.781464  1
  As  As30  1  0.750000  0.317312  0.280871  1
  As  As31  1  0.250000  0.683047  0.719004  1
  As  As32  1  0.250000  0.188024  0.006857  1
  As  As33  1  0.750000  0.810755  0.993300  1
  As  As34  1  0.750000  0.688223  0.493127  1
  As  As35  1  0.250000  0.311864  0.506966  1
