# generated using pymatgen
data_Li3Tb2ErSi2Ge
_symmetry_space_group_name_H-M   'P 1'
_cell_length_a   6.99051492
_cell_length_b   6.99051473
_cell_length_c   4.25172900
_cell_angle_alpha   90.00000000
_cell_angle_beta   90.00000000
_cell_angle_gamma   119.58012647
_symmetry_Int_Tables_number   1
_chemical_formula_structural   Li3Tb2ErSi2Ge
_chemical_formula_sum   'Li3 Tb2 Er1 Si2 Ge1'
_cell_volume   180.69098749
_cell_formula_units_Z   1
loop_
 _symmetry_equiv_pos_site_id
 _symmetry_equiv_pos_as_xyz
  1  'x, y, z'
loop_
 _atom_site_type_symbol
 _atom_site_label
 _atom_site_symmetry_multiplicity
 _atom_site_fract_x
 _atom_site_fract_y
 _atom_site_fract_z
 _atom_site_occupancy
  Li  Li0  1  0.234251  0.000467  0.500000  1
  Li  Li1  1  0.765572  0.765572  0.500000  1
  Li  Li2  1  0.000467  0.234251  0.500000  1
  Tb  Tb3  1  0.999990  0.572592  0.000000  1
  Tb  Tb4  1  0.572592  0.999990  0.000000  1
  Er  Er5  1  0.426508  0.426508  0.000000  1
  Si  Si6  1  0.334057  0.664643  0.500000  1
  Si  Si7  1  0.664643  0.334057  0.500000  1
  Ge  Ge8  1  0.001920  0.001920  0.000000  1
