# generated using pymatgen
data_TaTi(FeP)2
_symmetry_space_group_name_H-M   'P 1'
_cell_length_a   3.60278600
_cell_length_b   6.07682800
_cell_length_c   6.87302400
_cell_angle_alpha   90.00000000
_cell_angle_beta   90.00000000
_cell_angle_gamma   90.00000000
_symmetry_Int_Tables_number   1
_chemical_formula_structural   TaTi(FeP)2
_chemical_formula_sum   'Ta2 Ti2 Fe4 P4'
_cell_volume   150.47462547
_cell_formula_units_Z   2
loop_
 _symmetry_equiv_pos_site_id
 _symmetry_equiv_pos_as_xyz
  1  'x, y, z'
loop_
 _atom_site_type_symbol
 _atom_site_label
 _atom_site_symmetry_multiplicity
 _atom_site_fract_x
 _atom_site_fract_y
 _atom_site_fract_z
 _atom_site_occupancy
  Ta  Ta0  1  0.250000  0.021524  0.823444  1
  Ta  Ta1  1  0.250000  0.521524  0.676556  1
  Ti  Ti2  1  0.750000  0.980790  0.181893  1
  Ti  Ti3  1  0.750000  0.480790  0.318107  1
  Fe  Fe4  1  0.250000  0.144715  0.437690  1
  Fe  Fe5  1  0.250000  0.644715  0.062310  1
  Fe  Fe6  1  0.750000  0.854224  0.561303  1
  Fe  Fe7  1  0.750000  0.354224  0.938697  1
  P  P8  1  0.250000  0.775491  0.376180  1
  P  P9  1  0.250000  0.275491  0.123820  1
  P  P10  1  0.750000  0.223255  0.613855  1
  P  P11  1  0.750000  0.723255  0.886145  1
