# generated using pymatgen
data_Na2Mn2Ni10P7
_symmetry_space_group_name_H-M   'P 1'
_cell_length_a   9.09706654
_cell_length_b   9.12066791
_cell_length_c   3.59599300
_cell_angle_alpha   90.00000000
_cell_angle_beta   90.00000000
_cell_angle_gamma   120.06384496
_symmetry_Int_Tables_number   1
_chemical_formula_structural   Na2Mn2Ni10P7
_chemical_formula_sum   'Na2 Mn2 Ni10 P7'
_cell_volume   258.22466536
_cell_formula_units_Z   1
loop_
 _symmetry_equiv_pos_site_id
 _symmetry_equiv_pos_as_xyz
  1  'x, y, z'
loop_
 _atom_site_type_symbol
 _atom_site_label
 _atom_site_symmetry_multiplicity
 _atom_site_fract_x
 _atom_site_fract_y
 _atom_site_fract_z
 _atom_site_occupancy
  Na  Na0  1  0.667242  0.332943  0.000000  1
  Na  Na1  1  0.333336  0.667235  0.500000  1
  Mn  Mn2  1  0.778096  0.874721  0.500000  1
  Mn  Mn3  1  0.124863  0.905150  0.500000  1
  Ni  Ni4  1  0.059667  0.433937  0.000000  1
  Ni  Ni5  1  0.566257  0.625398  0.000000  1
  Ni  Ni6  1  0.374060  0.941254  0.000000  1
  Ni  Ni7  1  0.277786  0.159550  0.000000  1
  Ni  Ni8  1  0.845683  0.119937  0.000000  1
  Ni  Ni9  1  0.878256  0.720226  0.000000  1
  Ni  Ni10  1  0.432693  0.384953  0.500000  1
  Ni  Ni11  1  0.616208  0.051543  0.500000  1
  Ni  Ni12  1  0.948341  0.563648  0.500000  1
  Ni  Ni13  1  0.096268  0.221726  0.500000  1
  P  P14  1  0.292529  0.411260  0.000000  1
  P  P15  1  0.590326  0.883361  0.000000  1
  P  P16  1  0.116737  0.707073  0.000000  1
  P  P17  1  0.406869  0.114681  0.500000  1
  P  P18  1  0.886210  0.290923  0.500000  1
  P  P19  1  0.708572  0.593110  0.500000  1
  P  P20  1  0.999998  0.997369  0.000000  1
