# generated using pymatgen
data_Ho5Zr3(Ta3Si4)4
_symmetry_space_group_name_H-M   'P 1'
_cell_length_a   6.96287995
_cell_length_b   6.96395918
_cell_length_c   12.87158471
_cell_angle_alpha   89.93135525
_cell_angle_beta   90.12304443
_cell_angle_gamma   90.08546111
_symmetry_Int_Tables_number   1
_chemical_formula_structural   Ho5Zr3(Ta3Si4)4
_chemical_formula_sum   'Ho5 Zr3 Ta12 Si16'
_cell_volume   624.13041813
_cell_formula_units_Z   1
loop_
 _symmetry_equiv_pos_site_id
 _symmetry_equiv_pos_as_xyz
  1  'x, y, z'
loop_
 _atom_site_type_symbol
 _atom_site_label
 _atom_site_symmetry_multiplicity
 _atom_site_fract_x
 _atom_site_fract_y
 _atom_site_fract_z
 _atom_site_occupancy
  Ho  Ho0  1  0.998098  0.659591  0.032410  1
  Ho  Ho1  1  0.003122  0.339078  0.531644  1
  Ho  Ho2  1  0.660311  0.997868  0.969151  1
  Ho  Ho3  1  0.161504  0.502817  0.779846  1
  Ho  Ho4  1  0.839251  0.497065  0.281977  1
  Zr  Zr5  1  0.495957  0.157214  0.219598  1
  Zr  Zr6  1  0.504249  0.844527  0.717410  1
  Zr  Zr7  1  0.343493  0.996517  0.468633  1
  Ta  Ta8  1  0.347813  0.508059  0.375965  1
  Ta  Ta9  1  0.845629  0.996434  0.374308  1
  Ta  Ta10  1  0.008459  0.153757  0.127473  1
  Ta  Ta11  1  0.992845  0.848390  0.625031  1
  Ta  Ta12  1  0.650586  0.492131  0.874491  1
  Ta  Ta13  1  0.502982  0.345690  0.622982  1
  Ta  Ta14  1  0.494110  0.653705  0.125206  1
  Ta  Ta15  1  0.154485  0.004755  0.872834  1
  Ta  Ta16  1  0.667577  0.673138  0.499888  1
  Ta  Ta17  1  0.828643  0.167370  0.749028  1
  Ta  Ta18  1  0.171878  0.833191  0.251266  1
  Ta  Ta19  1  0.330445  0.328894  0.999768  1
  Si  Si20  1  0.045694  0.707036  0.436648  1
  Si  Si21  1  0.956305  0.295026  0.936551  1
  Si  Si22  1  0.700560  0.044306  0.563534  1
  Si  Si23  1  0.205857  0.455124  0.187250  1
  Si  Si24  1  0.793404  0.544198  0.685812  1
  Si  Si25  1  0.456214  0.200073  0.812488  1
  Si  Si26  1  0.543585  0.800251  0.313764  1
  Si  Si27  1  0.296850  0.957092  0.064423  1
  Si  Si28  1  0.863477  0.793758  0.817498  1
  Si  Si29  1  0.139497  0.204170  0.321225  1
  Si  Si30  1  0.791749  0.869747  0.181627  1
  Si  Si31  1  0.297251  0.639152  0.571004  1
  Si  Si32  1  0.701732  0.363530  0.071540  1
  Si  Si33  1  0.629465  0.290855  0.428982  1
  Si  Si34  1  0.366863  0.705591  0.929997  1
  Si  Si35  1  0.210063  0.129900  0.678748  1
