# generated using pymatgen
data_Pu(BiO2)7
_symmetry_space_group_name_H-M   'P 1'
_cell_length_a   7.00115321
_cell_length_b   7.02403959
_cell_length_c   7.96976090
_cell_angle_alpha   107.07930132
_cell_angle_beta   88.19911500
_cell_angle_gamma   102.60392913
_symmetry_Int_Tables_number   1
_chemical_formula_structural   Pu(BiO2)7
_chemical_formula_sum   'Pu1 Bi7 O14'
_cell_volume   365.38750130
_cell_formula_units_Z   1
loop_
 _symmetry_equiv_pos_site_id
 _symmetry_equiv_pos_as_xyz
  1  'x, y, z'
loop_
 _atom_site_type_symbol
 _atom_site_label
 _atom_site_symmetry_multiplicity
 _atom_site_fract_x
 _atom_site_fract_y
 _atom_site_fract_z
 _atom_site_occupancy
  Pu  Pu0  1  0.000000  0.000000  0.000000  1
  Bi  Bi1  1  0.000000  0.000000  0.500000  1
  Bi  Bi2  1  0.477432  0.989266  0.271468  1
  Bi  Bi3  1  0.522568  0.010734  0.728532  1
  Bi  Bi4  1  0.270069  0.515399  0.863967  1
  Bi  Bi5  1  0.729931  0.484601  0.136033  1
  Bi  Bi6  1  0.723793  0.492898  0.600842  1
  Bi  Bi7  1  0.276207  0.507102  0.399158  1
  O  O8  1  0.493571  0.647152  0.200192  1
  O  O9  1  0.506429  0.352848  0.799808  1
  O  O10  1  0.253557  0.939378  0.908198  1
  O  O11  1  0.746443  0.060622  0.091802  1
  O  O12  1  0.303935  0.907138  0.508557  1
  O  O13  1  0.696065  0.092862  0.491443  1
  O  O14  1  0.525961  0.345254  0.362218  1
  O  O15  1  0.474039  0.654746  0.637782  1
  O  O16  1  0.914321  0.706211  0.005945  1
  O  O17  1  0.085679  0.293789  0.994055  1
  O  O18  1  0.112003  0.361573  0.616702  1
  O  O19  1  0.887997  0.638427  0.383298  1
  O  O20  1  0.874980  0.912878  0.750415  1
  O  O21  1  0.125020  0.087122  0.249585  1
