# generated using pymatgen
data_Y8Lu2IrPt5
_symmetry_space_group_name_H-M   'P 1'
_cell_length_a   11.02010400
_cell_length_b   11.02010400
_cell_length_c   6.41590300
_cell_angle_alpha   90.00000000
_cell_angle_beta   90.00000000
_cell_angle_gamma   90.00000000
_symmetry_Int_Tables_number   1
_chemical_formula_structural   Y8Lu2IrPt5
_chemical_formula_sum   'Y16 Lu4 Ir2 Pt10'
_cell_volume   779.16453303
_cell_formula_units_Z   2
loop_
 _symmetry_equiv_pos_site_id
 _symmetry_equiv_pos_as_xyz
  1  'x, y, z'
loop_
 _atom_site_type_symbol
 _atom_site_label
 _atom_site_symmetry_multiplicity
 _atom_site_fract_x
 _atom_site_fract_y
 _atom_site_fract_z
 _atom_site_occupancy
  Y  Y0  1  0.290852  0.087669  0.378025  1
  Y  Y1  1  0.290852  0.912331  0.878025  1
  Y  Y2  1  0.709148  0.087669  0.878025  1
  Y  Y3  1  0.709148  0.912331  0.378025  1
  Y  Y4  1  0.587669  0.790852  0.878025  1
  Y  Y5  1  0.587669  0.209148  0.378025  1
  Y  Y6  1  0.412331  0.790852  0.378025  1
  Y  Y7  1  0.412331  0.209148  0.878025  1
  Y  Y8  1  0.206856  0.413617  0.622403  1
  Y  Y9  1  0.206856  0.586383  0.122403  1
  Y  Y10  1  0.793144  0.413617  0.122403  1
  Y  Y11  1  0.793144  0.586383  0.622403  1
  Y  Y12  1  0.913617  0.706856  0.122403  1
  Y  Y13  1  0.913617  0.293144  0.622403  1
  Y  Y14  1  0.086383  0.706856  0.622403  1
  Y  Y15  1  0.086383  0.293144  0.122403  1
  Lu  Lu16  1  0.000000  0.000000  0.500324  1
  Lu  Lu17  1  0.000000  0.000000  0.000324  1
  Lu  Lu18  1  0.500000  0.500000  0.000324  1
  Lu  Lu19  1  0.500000  0.500000  0.500324  1
  Ir  Ir20  1  0.000000  0.500000  0.876762  1
  Ir  Ir21  1  0.000000  0.500000  0.376762  1
  Pt  Pt22  1  0.849614  0.149492  0.250027  1
  Pt  Pt23  1  0.849614  0.850508  0.750027  1
  Pt  Pt24  1  0.150386  0.149492  0.750027  1
  Pt  Pt25  1  0.150386  0.850508  0.250027  1
  Pt  Pt26  1  0.649492  0.349614  0.750027  1
  Pt  Pt27  1  0.649492  0.650386  0.250027  1
  Pt  Pt28  1  0.350508  0.349614  0.250027  1
  Pt  Pt29  1  0.350508  0.650386  0.750027  1
  Pt  Pt30  1  0.500000  0.000000  0.120770  1
  Pt  Pt31  1  0.500000  0.000000  0.620770  1
