# generated using pymatgen
data_LiCa3YFeC8
_symmetry_space_group_name_H-M   'P 1'
_cell_length_a   6.85026837
_cell_length_b   6.79633497
_cell_length_c   6.82457882
_cell_angle_alpha   134.50920511
_cell_angle_beta   112.41872036
_cell_angle_gamma   85.51814478
_symmetry_Int_Tables_number   1
_chemical_formula_structural   LiCa3YFeC8
_chemical_formula_sum   'Li1 Ca3 Y1 Fe1 C8'
_cell_volume   200.64786162
_cell_formula_units_Z   1
loop_
 _symmetry_equiv_pos_site_id
 _symmetry_equiv_pos_as_xyz
  1  'x, y, z'
loop_
 _atom_site_type_symbol
 _atom_site_label
 _atom_site_symmetry_multiplicity
 _atom_site_fract_x
 _atom_site_fract_y
 _atom_site_fract_z
 _atom_site_occupancy
  Li  Li0  1  0.003635  0.250081  0.242660  1
  Ca  Ca1  1  0.800838  0.641195  0.151017  1
  Ca  Ca2  1  0.517251  0.862787  0.669126  1
  Ca  Ca3  1  0.493281  0.153113  0.352513  1
  Y  Y4  1  0.200045  0.353629  0.839345  1
  Fe  Fe5  1  0.993411  0.736192  0.743237  1
  C  C6  1  0.816847  0.144358  0.694394  1
  C  C7  1  0.201811  0.889800  0.344563  1
  C  C8  1  0.448587  0.611447  0.816676  1
  C  C9  1  0.533473  0.374603  0.160326  1
  C  C10  1  0.914367  0.007341  0.753755  1
  C  C11  1  0.090538  0.845927  0.106151  1
  C  C12  1  0.254376  0.648011  0.742343  1
  C  C13  1  0.731540  0.481518  0.383892  1
