# generated using pymatgen
data_Pr18Bi10NO9
_symmetry_space_group_name_H-M   'P 1'
_cell_length_a   10.51585300
_cell_length_b   10.51585300
_cell_length_c   9.46495600
_cell_angle_alpha   90.00000000
_cell_angle_beta   90.00000000
_cell_angle_gamma   90.00000000
_symmetry_Int_Tables_number   1
_chemical_formula_structural   Pr18Bi10NO9
_chemical_formula_sum   'Pr18 Bi10 N1 O9'
_cell_volume   1046.66478461
_cell_formula_units_Z   1
loop_
 _symmetry_equiv_pos_site_id
 _symmetry_equiv_pos_as_xyz
  1  'x, y, z'
loop_
 _atom_site_type_symbol
 _atom_site_label
 _atom_site_symmetry_multiplicity
 _atom_site_fract_x
 _atom_site_fract_y
 _atom_site_fract_z
 _atom_site_occupancy
  Pr  Pr0  1  0.500000  0.000000  0.683691  1
  Pr  Pr1  1  0.794262  0.105172  0.337884  1
  Pr  Pr2  1  0.276262  0.080110  0.000879  1
  Pr  Pr3  1  0.580110  0.223738  0.000879  1
  Pr  Pr4  1  0.205738  0.894828  0.337884  1
  Pr  Pr5  1  0.605172  0.705738  0.337884  1
  Pr  Pr6  1  0.294665  0.605553  0.662138  1
  Pr  Pr7  1  0.419890  0.776262  0.000879  1
  Pr  Pr8  1  0.226655  0.417383  0.997579  1
  Pr  Pr9  1  0.894447  0.794665  0.662138  1
  Pr  Pr10  1  0.000000  0.500000  0.323426  1
  Pr  Pr11  1  0.082617  0.726655  0.997579  1
  Pr  Pr12  1  0.917383  0.273345  0.997579  1
  Pr  Pr13  1  0.773345  0.582617  0.997579  1
  Pr  Pr14  1  0.723738  0.919890  0.000879  1
  Pr  Pr15  1  0.394828  0.294262  0.337884  1
  Pr  Pr16  1  0.705335  0.394447  0.662138  1
  Pr  Pr17  1  0.105553  0.205335  0.662138  1
  Bi  Bi18  1  0.596106  0.693844  0.697089  1
  Bi  Bi19  1  0.904209  0.803865  0.302712  1
  Bi  Bi20  1  0.696135  0.404209  0.302712  1
  Bi  Bi21  1  0.000000  0.500000  0.682068  1
  Bi  Bi22  1  0.303865  0.595791  0.302712  1
  Bi  Bi23  1  0.806156  0.096106  0.697089  1
  Bi  Bi24  1  0.403894  0.306156  0.697089  1
  Bi  Bi25  1  0.193844  0.903894  0.697089  1
  Bi  Bi26  1  0.095791  0.196135  0.302712  1
  Bi  Bi27  1  0.500000  0.000000  0.319510  1
  N  N28  1  0.500000  0.000000  0.934629  1
  O  O29  1  0.225637  0.877997  0.087313  1
  O  O30  1  0.271699  0.621102  0.912203  1
  O  O31  1  0.121102  0.228301  0.912203  1
  O  O32  1  0.878898  0.771699  0.912203  1
  O  O33  1  0.728301  0.378898  0.912203  1
  O  O34  1  0.774363  0.122003  0.087313  1
  O  O35  1  0.000000  0.500000  0.065489  1
  O  O36  1  0.377997  0.274363  0.087313  1
  O  O37  1  0.622003  0.725637  0.087313  1
