# generated using pymatgen
data_BaTa2MoSe6
_symmetry_space_group_name_H-M   'P 1'
_cell_length_a   6.05129000
_cell_length_b   6.05128875
_cell_length_c   16.84440400
_cell_angle_alpha   90.00000000
_cell_angle_beta   90.00000000
_cell_angle_gamma   119.99999590
_symmetry_Int_Tables_number   1
_chemical_formula_structural   BaTa2MoSe6
_chemical_formula_sum   'Ba2 Ta4 Mo2 Se12'
_cell_volume   534.17325735
_cell_formula_units_Z   2
loop_
 _symmetry_equiv_pos_site_id
 _symmetry_equiv_pos_as_xyz
  1  'x, y, z'
loop_
 _atom_site_type_symbol
 _atom_site_label
 _atom_site_symmetry_multiplicity
 _atom_site_fract_x
 _atom_site_fract_y
 _atom_site_fract_z
 _atom_site_occupancy
  Ba  Ba0  1  0.000000  0.000000  0.500000  1
  Ba  Ba1  1  0.000000  0.000000  0.000000  1
  Ta  Ta2  1  0.333333  0.666667  0.250000  1
  Ta  Ta3  1  0.666667  0.333333  0.750000  1
  Ta  Ta4  1  0.666667  0.333333  0.250000  1
  Ta  Ta5  1  0.333333  0.666667  0.750000  1
  Mo  Mo6  1  0.000000  0.000000  0.250000  1
  Mo  Mo7  1  0.000000  0.000000  0.750000  1
  Se  Se8  1  0.334116  0.000000  0.152149  1
  Se  Se9  1  0.000000  0.334116  0.152149  1
  Se  Se10  1  0.665884  0.665884  0.152149  1
  Se  Se11  1  0.334116  0.334116  0.652149  1
  Se  Se12  1  0.665884  0.665884  0.347851  1
  Se  Se13  1  0.665884  0.000000  0.652149  1
  Se  Se14  1  0.000000  0.665884  0.652149  1
  Se  Se15  1  0.000000  0.665884  0.847851  1
  Se  Se16  1  0.334116  0.334116  0.847851  1
  Se  Se17  1  0.000000  0.334116  0.347851  1
  Se  Se18  1  0.334116  0.000000  0.347851  1
  Se  Se19  1  0.665884  0.000000  0.847851  1
