# generated using pymatgen
data_Zr6Zn16BPd7
_symmetry_space_group_name_H-M   'P 1'
_cell_length_a   8.80593353
_cell_length_b   8.80593394
_cell_length_c   8.80593300
_cell_angle_alpha   59.99999979
_cell_angle_beta   59.99999822
_cell_angle_gamma   60.00000039
_symmetry_Int_Tables_number   1
_chemical_formula_structural   Zr6Zn16BPd7
_chemical_formula_sum   'Zr6 Zn16 B1 Pd7'
_cell_volume   482.84884827
_cell_formula_units_Z   1
loop_
 _symmetry_equiv_pos_site_id
 _symmetry_equiv_pos_as_xyz
  1  'x, y, z'
loop_
 _atom_site_type_symbol
 _atom_site_label
 _atom_site_symmetry_multiplicity
 _atom_site_fract_x
 _atom_site_fract_y
 _atom_site_fract_z
 _atom_site_occupancy
  Zr  Zr0  1  0.691010  0.308990  0.308990  1
  Zr  Zr1  1  0.308990  0.691010  0.691010  1
  Zr  Zr2  1  0.308990  0.691010  0.308990  1
  Zr  Zr3  1  0.691010  0.308990  0.691010  1
  Zr  Zr4  1  0.308990  0.308990  0.691010  1
  Zr  Zr5  1  0.691010  0.691010  0.308990  1
  Zn  Zn6  1  0.120924  0.120924  0.120924  1
  Zn  Zn7  1  0.879076  0.879076  0.879076  1
  Zn  Zn8  1  0.120924  0.120924  0.637227  1
  Zn  Zn9  1  0.120924  0.637227  0.120924  1
  Zn  Zn10  1  0.879076  0.879076  0.362773  1
  Zn  Zn11  1  0.879076  0.362773  0.879076  1
  Zn  Zn12  1  0.637227  0.120924  0.120924  1
  Zn  Zn13  1  0.362773  0.879076  0.879076  1
  Zn  Zn14  1  0.335386  0.335386  0.335386  1
  Zn  Zn15  1  0.664614  0.664614  0.664614  1
  Zn  Zn16  1  0.335386  0.335386  0.993845  1
  Zn  Zn17  1  0.335386  0.993845  0.335386  1
  Zn  Zn18  1  0.664614  0.664614  0.006155  1
  Zn  Zn19  1  0.664614  0.006155  0.664614  1
  Zn  Zn20  1  0.993845  0.335386  0.335386  1
  Zn  Zn21  1  0.006155  0.664614  0.664614  1
  B  B22  1  0.500000  0.500000  0.500000  1
  Pd  Pd23  1  0.500000  0.000000  0.000000  1
  Pd  Pd24  1  0.000000  0.500000  0.500000  1
  Pd  Pd25  1  0.000000  0.500000  0.000000  1
  Pd  Pd26  1  0.500000  0.000000  0.500000  1
  Pd  Pd27  1  0.000000  0.000000  0.500000  1
  Pd  Pd28  1  0.500000  0.500000  0.000000  1
  Pd  Pd29  1  0.000000  0.000000  0.000000  1
