# generated using pymatgen
data_Ho2LuGa7Cu4
_symmetry_space_group_name_H-M   'P 1'
_cell_length_a   8.00155207
_cell_length_b   8.00155121
_cell_length_c   9.35872100
_cell_angle_alpha   54.47458071
_cell_angle_beta   54.47458514
_cell_angle_gamma   30.52552364
_symmetry_Int_Tables_number   1
_chemical_formula_structural   Ho2LuGa7Cu4
_chemical_formula_sum   'Ho2 Lu1 Ga7 Cu4'
_cell_volume   242.94524501
_cell_formula_units_Z   1
loop_
 _symmetry_equiv_pos_site_id
 _symmetry_equiv_pos_as_xyz
  1  'x, y, z'
loop_
 _atom_site_type_symbol
 _atom_site_label
 _atom_site_symmetry_multiplicity
 _atom_site_fract_x
 _atom_site_fract_y
 _atom_site_fract_z
 _atom_site_occupancy
  Ho  Ho0  1  0.301477  0.301477  0.706851  1
  Ho  Ho1  1  0.698523  0.698523  0.293149  1
  Lu  Lu2  1  0.000000  0.000000  0.000000  1
  Ga  Ga3  1  0.858018  0.858018  0.421263  1
  Ga  Ga4  1  0.141982  0.141982  0.578737  1
  Ga  Ga5  1  0.138573  0.138573  0.132669  1
  Ga  Ga6  1  0.861427  0.861427  0.867331  1
  Ga  Ga7  1  0.000000  0.000000  0.500000  1
  Ga  Ga8  1  0.347043  0.347043  0.272885  1
  Ga  Ga9  1  0.652957  0.652957  0.727115  1
  Cu  Cu10  1  0.495955  0.495955  0.314101  1
  Cu  Cu11  1  0.504045  0.504045  0.685899  1
  Cu  Cu12  1  0.654924  0.654924  0.985844  1
  Cu  Cu13  1  0.345076  0.345076  0.014156  1
