# generated using pymatgen
data_La3NdAl18(OsPd2)2
_symmetry_space_group_name_H-M   'P 1'
_cell_length_a   7.71935995
_cell_length_b   7.71599850
_cell_length_c   9.65518400
_cell_angle_alpha   90.00000000
_cell_angle_beta   90.00000000
_cell_angle_gamma   119.34136274
_symmetry_Int_Tables_number   1
_chemical_formula_structural   La3NdAl18(OsPd2)2
_chemical_formula_sum   'La3 Nd1 Al18 Os2 Pd4'
_cell_volume   501.31289467
_cell_formula_units_Z   1
loop_
 _symmetry_equiv_pos_site_id
 _symmetry_equiv_pos_as_xyz
  1  'x, y, z'
loop_
 _atom_site_type_symbol
 _atom_site_label
 _atom_site_symmetry_multiplicity
 _atom_site_fract_x
 _atom_site_fract_y
 _atom_site_fract_z
 _atom_site_occupancy
  La  La0  1  0.005591  0.326365  0.750000  1
  La  La1  1  0.672830  0.995349  0.250000  1
  La  La2  1  0.326880  0.005768  0.750000  1
  Nd  Nd3  1  0.994891  0.671973  0.250000  1
  Al  Al4  1  0.130459  0.129542  0.250000  1
  Al  Al5  1  0.867722  0.866973  0.750000  1
  Al  Al6  1  0.003261  0.332057  0.076547  1
  Al  Al7  1  0.996931  0.669191  0.926329  1
  Al  Al8  1  0.996931  0.669191  0.573671  1
  Al  Al9  1  0.329229  0.001733  0.423013  1
  Al  Al10  1  0.003261  0.332057  0.423453  1
  Al  Al11  1  0.668799  0.996099  0.575290  1
  Al  Al12  1  0.668799  0.996099  0.924710  1
  Al  Al13  1  0.329229  0.001733  0.076987  1
  Al  Al14  1  0.330679  0.330646  0.542840  1
  Al  Al15  1  0.671277  0.670136  0.452940  1
  Al  Al16  1  0.671277  0.670136  0.047060  1
  Al  Al17  1  0.330679  0.330646  0.957160  1
  Al  Al18  1  0.342368  0.546022  0.250000  1
  Al  Al19  1  0.656192  0.454730  0.750000  1
  Al  Al20  1  0.547498  0.346806  0.250000  1
  Al  Al21  1  0.453999  0.655027  0.750000  1
  Os  Os22  1  0.000339  0.000449  0.999989  1
  Os  Os23  1  0.000339  0.000449  0.500011  1
  Pd  Pd24  1  0.671633  0.328950  0.000492  1
  Pd  Pd25  1  0.328636  0.671460  0.000494  1
  Pd  Pd26  1  0.328636  0.671460  0.499506  1
  Pd  Pd27  1  0.671633  0.328950  0.499508  1
