# generated using pymatgen
data_Lu8V5Si16Tc7
_symmetry_space_group_name_H-M   'P 1'
_cell_length_a   6.60016173
_cell_length_b   6.76513902
_cell_length_c   12.72837990
_cell_angle_alpha   89.98841976
_cell_angle_beta   90.06098518
_cell_angle_gamma   90.02905040
_symmetry_Int_Tables_number   1
_chemical_formula_structural   Lu8V5Si16Tc7
_chemical_formula_sum   'Lu8 V5 Si16 Tc7'
_cell_volume   568.33463285
_cell_formula_units_Z   1
loop_
 _symmetry_equiv_pos_site_id
 _symmetry_equiv_pos_as_xyz
  1  'x, y, z'
loop_
 _atom_site_type_symbol
 _atom_site_label
 _atom_site_symmetry_multiplicity
 _atom_site_fract_x
 _atom_site_fract_y
 _atom_site_fract_z
 _atom_site_occupancy
  Lu  Lu0  1  0.494995  0.333388  0.094650  1
  Lu  Lu1  1  0.994223  0.166000  0.405041  1
  Lu  Lu2  1  0.504831  0.666245  0.593250  1
  Lu  Lu3  1  0.005779  0.833446  0.905840  1
  Lu  Lu4  1  0.505029  0.664103  0.906041  1
  Lu  Lu5  1  0.005656  0.835128  0.592851  1
  Lu  Lu6  1  0.492956  0.334884  0.406668  1
  Lu  Lu7  1  0.997134  0.166343  0.095531  1
  V  V8  1  0.833354  0.334725  0.627510  1
  V  V9  1  0.334484  0.163371  0.873891  1
  V  V10  1  0.168672  0.661973  0.123063  1
  V  V11  1  0.666946  0.835446  0.374978  1
  V  V12  1  0.171036  0.661074  0.378987  1
  Si  Si13  1  0.659729  0.043953  0.544900  1
  Si  Si14  1  0.160123  0.456687  0.955101  1
  Si  Si15  1  0.338642  0.956639  0.045052  1
  Si  Si16  1  0.840885  0.543650  0.454852  1
  Si  Si17  1  0.340969  0.952288  0.452133  1
  Si  Si18  1  0.845005  0.545968  0.048889  1
  Si  Si19  1  0.656587  0.045894  0.951822  1
  Si  Si20  1  0.157432  0.455057  0.545685  1
  Si  Si21  1  0.533428  0.357068  0.746961  1
  Si  Si22  1  0.033905  0.143313  0.753021  1
  Si  Si23  1  0.464006  0.642093  0.249161  1
  Si  Si24  1  0.965318  0.856607  0.251767  1
  Si  Si25  1  0.807887  0.627889  0.748694  1
  Si  Si26  1  0.307081  0.872451  0.750418  1
  Si  Si27  1  0.195020  0.374967  0.250791  1
  Si  Si28  1  0.693108  0.127323  0.251869  1
  Tc  Tc29  1  0.673103  0.841609  0.118607  1
  Tc  Tc30  1  0.823760  0.340692  0.881155  1
  Tc  Tc31  1  0.326363  0.159931  0.620268  1
  Tc  Tc32  1  0.670941  0.991558  0.750304  1
  Tc  Tc33  1  0.170358  0.509002  0.750754  1
  Tc  Tc34  1  0.330035  0.005966  0.249460  1
  Tc  Tc35  1  0.831223  0.493264  0.250035  1
