# generated using pymatgen
data_Nd3Dy2P12Ru10Rh9
_symmetry_space_group_name_H-M   'P 1'
_cell_length_a   12.66266092
_cell_length_b   12.64304513
_cell_length_c   3.94761400
_cell_angle_alpha   90.00000000
_cell_angle_beta   90.00000000
_cell_angle_gamma   119.88305752
_symmetry_Int_Tables_number   1
_chemical_formula_structural   Nd3Dy2P12Ru10Rh9
_chemical_formula_sum   'Nd3 Dy2 P12 Ru10 Rh9'
_cell_volume   547.96464796
_cell_formula_units_Z   1
loop_
 _symmetry_equiv_pos_site_id
 _symmetry_equiv_pos_as_xyz
  1  'x, y, z'
loop_
 _atom_site_type_symbol
 _atom_site_label
 _atom_site_symmetry_multiplicity
 _atom_site_fract_x
 _atom_site_fract_y
 _atom_site_fract_z
 _atom_site_occupancy
  Nd  Nd0  1  0.812176  0.000494  0.500000  1
  Nd  Nd1  1  0.185690  0.187474  0.500000  1
  Nd  Nd2  1  0.000037  0.812984  0.500000  1
  Dy  Dy3  1  0.666566  0.332651  0.000000  1
  Dy  Dy4  1  0.333505  0.666959  0.000000  1
  P  P5  1  0.628535  0.997344  0.000000  1
  P  P6  1  0.367996  0.374218  0.000000  1
  P  P7  1  0.006738  0.631860  0.000000  1
  P  P8  1  0.687702  0.519134  0.500000  1
  P  P9  1  0.829871  0.307893  0.500000  1
  P  P10  1  0.314128  0.831095  0.500000  1
  P  P11  1  0.517278  0.686547  0.500000  1
  P  P12  1  0.183248  0.001108  0.000000  1
  P  P13  1  0.816617  0.816301  0.000000  1
  P  P14  1  0.996247  0.183611  0.000000  1
  P  P15  1  0.479666  0.166568  0.500000  1
  P  P16  1  0.169471  0.483423  0.500000  1
  Ru  Ru17  1  0.127213  0.640344  0.500000  1
  Ru  Ru18  1  0.361434  0.488043  0.500000  1
  Ru  Ru19  1  0.511709  0.871765  0.500000  1
  Ru  Ru20  1  0.713824  0.712640  0.500000  1
  Ru  Ru21  1  0.000990  0.287996  0.500000  1
  Ru  Ru22  1  0.450486  0.002666  0.000000  1
  Ru  Ru23  1  0.553100  0.547801  0.000000  1
  Ru  Ru24  1  0.000171  0.449185  0.000000  1
  Ru  Ru25  1  0.816805  0.198055  0.000000  1
  Ru  Ru26  1  0.286625  0.000931  0.500000  1
  Rh  Rh27  1  0.620984  0.800522  0.000000  1
  Rh  Rh28  1  0.181190  0.379233  0.000000  1
  Rh  Rh29  1  0.378478  0.183971  0.000000  1
  Rh  Rh30  1  0.199107  0.821128  0.000000  1
  Rh  Rh31  1  0.805253  0.620719  0.000000  1
  Rh  Rh32  1  0.870172  0.506896  0.500000  1
  Rh  Rh33  1  0.491153  0.360492  0.500000  1
  Rh  Rh34  1  0.636298  0.127621  0.500000  1
  Rh  Rh35  1  0.999540  0.000326  0.000000  1
