# generated using pymatgen
data_Hf4Sc6Al12Rh7
_symmetry_space_group_name_H-M   'P 1'
_cell_length_a   8.95747483
_cell_length_b   8.95747519
_cell_length_c   8.95747500
_cell_angle_alpha   60.00000439
_cell_angle_beta   60.00000308
_cell_angle_gamma   59.99999910
_symmetry_Int_Tables_number   1
_chemical_formula_structural   Hf4Sc6Al12Rh7
_chemical_formula_sum   'Hf4 Sc6 Al12 Rh7'
_cell_volume   508.20839982
_cell_formula_units_Z   1
loop_
 _symmetry_equiv_pos_site_id
 _symmetry_equiv_pos_as_xyz
  1  'x, y, z'
loop_
 _atom_site_type_symbol
 _atom_site_label
 _atom_site_symmetry_multiplicity
 _atom_site_fract_x
 _atom_site_fract_y
 _atom_site_fract_z
 _atom_site_occupancy
  Hf  Hf0  1  0.641100  0.119633  0.119633  1
  Hf  Hf1  1  0.119633  0.641100  0.119633  1
  Hf  Hf2  1  0.119633  0.119633  0.641100  1
  Hf  Hf3  1  0.119633  0.119633  0.119633  1
  Sc  Sc4  1  0.700180  0.299820  0.299820  1
  Sc  Sc5  1  0.700180  0.299820  0.700180  1
  Sc  Sc6  1  0.700180  0.700180  0.299820  1
  Sc  Sc7  1  0.299820  0.700180  0.700180  1
  Sc  Sc8  1  0.299820  0.700180  0.299820  1
  Sc  Sc9  1  0.299820  0.299820  0.700180  1
  Al  Al10  1  0.364940  0.878354  0.878354  1
  Al  Al11  1  0.878354  0.364940  0.878354  1
  Al  Al12  1  0.878354  0.878354  0.364940  1
  Al  Al13  1  0.878354  0.878354  0.878354  1
  Al  Al14  1  0.988671  0.337110  0.337110  1
  Al  Al15  1  0.337110  0.988671  0.337110  1
  Al  Al16  1  0.337110  0.337110  0.988671  1
  Al  Al17  1  0.337110  0.337110  0.337110  1
  Al  Al18  1  0.998447  0.667185  0.667185  1
  Al  Al19  1  0.667185  0.998447  0.667185  1
  Al  Al20  1  0.667185  0.667185  0.998447  1
  Al  Al21  1  0.667185  0.667185  0.667185  1
  Rh  Rh22  1  0.000000  0.000000  0.000000  1
  Rh  Rh23  1  0.499431  0.000569  0.000569  1
  Rh  Rh24  1  0.499431  0.000569  0.499431  1
  Rh  Rh25  1  0.499431  0.499431  0.000569  1
  Rh  Rh26  1  0.000569  0.499431  0.499431  1
  Rh  Rh27  1  0.000569  0.499431  0.000569  1
  Rh  Rh28  1  0.000569  0.000569  0.499431  1
