# generated using pymatgen
data_LiMn3(ReSi)6
_symmetry_space_group_name_H-M   'P 1'
_cell_length_a   6.99341700
_cell_length_b   6.99341744
_cell_length_c   4.79343200
_cell_angle_alpha   90.00000000
_cell_angle_beta   90.00000000
_cell_angle_gamma   120.00000265
_symmetry_Int_Tables_number   1
_chemical_formula_structural   LiMn3(ReSi)6
_chemical_formula_sum   'Li1 Mn3 Re6 Si6'
_cell_volume   203.02806150
_cell_formula_units_Z   1
loop_
 _symmetry_equiv_pos_site_id
 _symmetry_equiv_pos_as_xyz
  1  'x, y, z'
loop_
 _atom_site_type_symbol
 _atom_site_label
 _atom_site_symmetry_multiplicity
 _atom_site_fract_x
 _atom_site_fract_y
 _atom_site_fract_z
 _atom_site_occupancy
  Li  Li0  1  0.333333  0.666667  0.500000  1
  Mn  Mn1  1  0.666667  0.333333  0.000000  1
  Mn  Mn2  1  0.666667  0.333333  0.500000  1
  Mn  Mn3  1  0.333333  0.666667  0.000000  1
  Re  Re4  1  0.000557  0.760113  0.744365  1
  Re  Re5  1  0.000557  0.240444  0.255635  1
  Re  Re6  1  0.759556  0.760113  0.255635  1
  Re  Re7  1  0.759556  0.999443  0.744365  1
  Re  Re8  1  0.239887  0.240444  0.744365  1
  Re  Re9  1  0.239887  0.999443  0.255635  1
  Si  Si10  1  0.403741  0.997762  0.756789  1
  Si  Si11  1  0.403741  0.405979  0.243211  1
  Si  Si12  1  0.002238  0.596259  0.243211  1
  Si  Si13  1  0.002238  0.405979  0.756789  1
  Si  Si14  1  0.594021  0.596259  0.756789  1
  Si  Si15  1  0.594021  0.997762  0.243211  1
