# generated using pymatgen
data_Nb10Si4Ge2BH
_symmetry_space_group_name_H-M   'P 1'
_cell_length_a   7.65965025
_cell_length_b   7.64568266
_cell_length_c   5.33187901
_cell_angle_alpha   90.00789727
_cell_angle_beta   89.99605906
_cell_angle_gamma   119.93970798
_symmetry_Int_Tables_number   1
_chemical_formula_structural   Nb10Si4Ge2BH
_chemical_formula_sum   'Nb10 Si4 Ge2 B1 H1'
_cell_volume   270.58246757
_cell_formula_units_Z   1
loop_
 _symmetry_equiv_pos_site_id
 _symmetry_equiv_pos_as_xyz
  1  'x, y, z'
loop_
 _atom_site_type_symbol
 _atom_site_label
 _atom_site_symmetry_multiplicity
 _atom_site_fract_x
 _atom_site_fract_y
 _atom_site_fract_z
 _atom_site_occupancy
  Nb  Nb0  1  0.669231  0.335552  0.502041  1
  Nb  Nb1  1  0.330769  0.666322  0.502041  1
  Nb  Nb2  1  0.330434  0.666280  0.998274  1
  Nb  Nb3  1  0.669566  0.335845  0.998274  1
  Nb  Nb4  1  0.759211  0.755363  0.251726  1
  Nb  Nb5  1  0.240789  0.996152  0.251726  1
  Nb  Nb6  1  0.000000  0.245853  0.251465  1
  Nb  Nb7  1  0.243640  0.243594  0.748712  1
  Nb  Nb8  1  0.756360  0.999954  0.748712  1
  Nb  Nb9  1  0.000000  0.754737  0.748498  1
  Si  Si10  1  0.000000  0.599999  0.254313  1
  Si  Si11  1  0.601974  0.602885  0.746429  1
  Si  Si12  1  0.398026  0.000911  0.746429  1
  Si  Si13  1  0.000000  0.398003  0.745905  1
  Ge  Ge14  1  0.399200  0.398641  0.252863  1
  Ge  Ge15  1  0.600800  0.999441  0.252863  1
  B  B16  1  0.000000  0.000347  0.999939  1
  H  H17  1  0.000000  0.000122  0.499786  1
