# generated using pymatgen
data_Dy3Ho9TcRu3
_symmetry_space_group_name_H-M   'P 1'
_cell_length_a   6.27373200
_cell_length_b   7.32517800
_cell_length_c   9.16529300
_cell_angle_alpha   90.00000000
_cell_angle_beta   90.00000000
_cell_angle_gamma   90.00161128
_symmetry_Int_Tables_number   1
_chemical_formula_structural   Dy3Ho9TcRu3
_chemical_formula_sum   'Dy3 Ho9 Tc1 Ru3'
_cell_volume   421.20207138
_cell_formula_units_Z   1
loop_
 _symmetry_equiv_pos_site_id
 _symmetry_equiv_pos_as_xyz
  1  'x, y, z'
loop_
 _atom_site_type_symbol
 _atom_site_label
 _atom_site_symmetry_multiplicity
 _atom_site_fract_x
 _atom_site_fract_y
 _atom_site_fract_z
 _atom_site_occupancy
  Dy  Dy0  1  0.868587  0.540123  0.250000  1
  Dy  Dy1  1  0.133681  0.457857  0.750000  1
  Dy  Dy2  1  0.366972  0.958061  0.750000  1
  Ho  Ho3  1  0.333876  0.676384  0.065074  1
  Ho  Ho4  1  0.167405  0.176002  0.434923  1
  Ho  Ho5  1  0.667295  0.323491  0.564444  1
  Ho  Ho6  1  0.835104  0.825263  0.937083  1
  Ho  Ho7  1  0.667295  0.323491  0.935556  1
  Ho  Ho8  1  0.835104  0.825263  0.562917  1
  Ho  Ho9  1  0.333876  0.676384  0.434926  1
  Ho  Ho10  1  0.167405  0.176002  0.065077  1
  Ho  Ho11  1  0.627365  0.041698  0.250000  1
  Tc  Tc12  1  0.037191  0.885728  0.250000  1
  Ru  Ru13  1  0.460085  0.384372  0.250000  1
  Ru  Ru14  1  0.958342  0.115849  0.750000  1
  Ru  Ru15  1  0.540419  0.614034  0.750000  1
