# generated using pymatgen
data_Y2Tm18Cd6OsRu
_symmetry_space_group_name_H-M   'P 1'
_cell_length_a   9.46297917
_cell_length_b   9.46297973
_cell_length_c   9.74532200
_cell_angle_alpha   90.00000000
_cell_angle_beta   90.00000000
_cell_angle_gamma   119.97804784
_symmetry_Int_Tables_number   1
_chemical_formula_structural   Y2Tm18Cd6OsRu
_chemical_formula_sum   'Y2 Tm18 Cd6 Os1 Ru1'
_cell_volume   755.92488847
_cell_formula_units_Z   1
loop_
 _symmetry_equiv_pos_site_id
 _symmetry_equiv_pos_as_xyz
  1  'x, y, z'
loop_
 _atom_site_type_symbol
 _atom_site_label
 _atom_site_symmetry_multiplicity
 _atom_site_fract_x
 _atom_site_fract_y
 _atom_site_fract_z
 _atom_site_occupancy
  Y  Y0  1  0.539243  0.079110  0.250000  1
  Y  Y1  1  0.920890  0.460757  0.250000  1
  Tm  Tm2  1  0.000049  0.999951  0.499669  1
  Tm  Tm3  1  0.000049  0.999951  0.000331  1
  Tm  Tm4  1  0.210110  0.789890  0.441997  1
  Tm  Tm5  1  0.210756  0.420072  0.441732  1
  Tm  Tm6  1  0.579928  0.789244  0.441732  1
  Tm  Tm7  1  0.790047  0.209953  0.560062  1
  Tm  Tm8  1  0.789543  0.579968  0.559635  1
  Tm  Tm9  1  0.420032  0.210457  0.559635  1
  Tm  Tm10  1  0.790047  0.209953  0.939938  1
  Tm  Tm11  1  0.789543  0.579968  0.940365  1
  Tm  Tm12  1  0.420032  0.210457  0.940365  1
  Tm  Tm13  1  0.210110  0.789890  0.058003  1
  Tm  Tm14  1  0.210756  0.420072  0.058268  1
  Tm  Tm15  1  0.579928  0.789244  0.058268  1
  Tm  Tm16  1  0.538760  0.461240  0.250000  1
  Tm  Tm17  1  0.459020  0.540980  0.750000  1
  Tm  Tm18  1  0.459036  0.918203  0.750000  1
  Tm  Tm19  1  0.081797  0.540964  0.750000  1
  Cd  Cd20  1  0.886431  0.113569  0.250000  1
  Cd  Cd21  1  0.885245  0.771882  0.250000  1
  Cd  Cd22  1  0.228118  0.114755  0.250000  1
  Cd  Cd23  1  0.114388  0.885612  0.750000  1
  Cd  Cd24  1  0.114577  0.228875  0.750000  1
  Cd  Cd25  1  0.771125  0.885423  0.750000  1
  Os  Os26  1  0.333631  0.666369  0.250000  1
  Ru  Ru27  1  0.666814  0.333186  0.750000  1
