# generated using pymatgen
data_Na4DySbO6
_symmetry_space_group_name_H-M   'P 1'
_cell_length_a   5.76060999
_cell_length_b   5.76061455
_cell_length_c   5.87771469
_cell_angle_alpha   99.47777237
_cell_angle_beta   99.47704593
_cell_angle_gamma   120.07203438
_symmetry_Int_Tables_number   1
_chemical_formula_structural   Na4DySbO6
_chemical_formula_sum   'Na4 Dy1 Sb1 O6'
_cell_volume   159.35876419
_cell_formula_units_Z   1
loop_
 _symmetry_equiv_pos_site_id
 _symmetry_equiv_pos_as_xyz
  1  'x, y, z'
loop_
 _atom_site_type_symbol
 _atom_site_label
 _atom_site_symmetry_multiplicity
 _atom_site_fract_x
 _atom_site_fract_y
 _atom_site_fract_z
 _atom_site_occupancy
  Na  Na0  1  0.498260  0.501741  0.999999  1
  Na  Na1  1  0.014748  0.985255  0.500001  1
  Na  Na2  1  0.657133  0.342869  0.499999  1
  Na  Na3  1  0.338048  0.661954  0.500000  1
  Dy  Dy4  1  0.832311  0.167687  0.000001  1
  Sb  Sb5  1  0.166384  0.833619  0.000000  1
  O  O6  1  0.952767  0.601474  0.207007  1
  O  O7  1  0.538264  0.924991  0.212841  1
  O  O8  1  0.216504  0.187953  0.212924  1
  O  O9  1  0.812048  0.783496  0.787076  1
  O  O10  1  0.075007  0.461734  0.787159  1
  O  O11  1  0.398527  0.047232  0.792994  1
