# generated using pymatgen
data_Dy4Tm4B24MoOs3
_symmetry_space_group_name_H-M   'P 1'
_cell_length_a   3.63652400
_cell_length_b   9.13271349
_cell_length_c   11.52712704
_cell_angle_alpha   89.90655442
_cell_angle_beta   90.00000000
_cell_angle_gamma   90.00000000
_symmetry_Int_Tables_number   1
_chemical_formula_structural   Dy4Tm4B24MoOs3
_chemical_formula_sum   'Dy4 Tm4 B24 Mo1 Os3'
_cell_volume   382.83073186
_cell_formula_units_Z   1
loop_
 _symmetry_equiv_pos_site_id
 _symmetry_equiv_pos_as_xyz
  1  'x, y, z'
loop_
 _atom_site_type_symbol
 _atom_site_label
 _atom_site_symmetry_multiplicity
 _atom_site_fract_x
 _atom_site_fract_y
 _atom_site_fract_z
 _atom_site_occupancy
  Dy  Dy0  1  0.000000  0.321805  0.413199  1
  Dy  Dy1  1  0.000000  0.677641  0.584917  1
  Dy  Dy2  1  0.000000  0.820348  0.087213  1
  Dy  Dy3  1  0.000000  0.177789  0.914521  1
  Tm  Tm4  1  0.000000  0.944890  0.372749  1
  Tm  Tm5  1  0.000000  0.057492  0.628334  1
  Tm  Tm6  1  0.000000  0.443361  0.126951  1
  Tm  Tm7  1  0.000000  0.556785  0.871367  1
  B  B8  1  0.500000  0.551380  0.435135  1
  B  B9  1  0.500000  0.445964  0.568226  1
  B  B10  1  0.500000  0.053748  0.067305  1
  B  B11  1  0.500000  0.946053  0.932843  1
  B  B12  1  0.500000  0.751363  0.421145  1
  B  B13  1  0.500000  0.251465  0.581519  1
  B  B14  1  0.500000  0.248939  0.080699  1
  B  B15  1  0.500000  0.750815  0.918613  1
  B  B16  1  0.500000  0.794377  0.264898  1
  B  B17  1  0.500000  0.208554  0.734320  1
  B  B18  1  0.500000  0.290941  0.232861  1
  B  B19  1  0.500000  0.709203  0.765942  1
  B  B20  1  0.500000  0.631059  0.183151  1
  B  B21  1  0.500000  0.368807  0.815069  1
  B  B22  1  0.500000  0.130755  0.313917  1
  B  B23  1  0.500000  0.869968  0.685539  1
  B  B24  1  0.500000  0.983019  0.213052  1
  B  B25  1  0.500000  0.017432  0.787670  1
  B  B26  1  0.500000  0.478524  0.286111  1
  B  B27  1  0.500000  0.516645  0.713345  1
  B  B28  1  0.500000  0.603896  0.027352  1
  B  B29  1  0.500000  0.395643  0.970424  1
  B  B30  1  0.500000  0.104790  0.471606  1
  B  B31  1  0.500000  0.897876  0.529744  1
  Mo  Mo32  1  0.000000  0.637780  0.320918  1
  Os  Os33  1  0.000000  0.360801  0.680834  1
  Os  Os34  1  0.000000  0.137889  0.178021  1
  Os  Os35  1  0.000000  0.862198  0.820490  1
