# generated using pymatgen
data_Er4Ga4IrPd3
_symmetry_space_group_name_H-M   'P 1'
_cell_length_a   4.43519300
_cell_length_b   6.83868255
_cell_length_c   7.64960976
_cell_angle_alpha   89.56118091
_cell_angle_beta   90.00000000
_cell_angle_gamma   90.00000000
_symmetry_Int_Tables_number   1
_chemical_formula_structural   Er4Ga4IrPd3
_chemical_formula_sum   'Er4 Ga4 Ir1 Pd3'
_cell_volume   232.01256756
_cell_formula_units_Z   1
loop_
 _symmetry_equiv_pos_site_id
 _symmetry_equiv_pos_as_xyz
  1  'x, y, z'
loop_
 _atom_site_type_symbol
 _atom_site_label
 _atom_site_symmetry_multiplicity
 _atom_site_fract_x
 _atom_site_fract_y
 _atom_site_fract_z
 _atom_site_occupancy
  Er  Er0  1  0.250000  0.989072  0.305701  1
  Er  Er1  1  0.250000  0.478746  0.199056  1
  Er  Er2  1  0.750000  0.024246  0.690413  1
  Er  Er3  1  0.750000  0.520207  0.805574  1
  Ga  Ga4  1  0.250000  0.328892  0.570513  1
  Ga  Ga5  1  0.250000  0.829215  0.929850  1
  Ga  Ga6  1  0.750000  0.663469  0.429034  1
  Ga  Ga7  1  0.750000  0.172408  0.071834  1
  Ir  Ir8  1  0.750000  0.271188  0.394904  1
  Pd  Pd9  1  0.250000  0.223181  0.896917  1
  Pd  Pd10  1  0.250000  0.723159  0.603957  1
  Pd  Pd11  1  0.750000  0.776216  0.102248  1
