# generated using pymatgen
data_Dy12Ni4BiAu
_symmetry_space_group_name_H-M   'P 1'
_cell_length_a   8.44002900
_cell_length_b   8.44002983
_cell_length_c   8.44002951
_cell_angle_alpha   112.96081084
_cell_angle_beta   108.73688717
_cell_angle_gamma   106.77869803
_symmetry_Int_Tables_number   1
_chemical_formula_structural   Dy12Ni4BiAu
_chemical_formula_sum   'Dy12 Ni4 Bi1 Au1'
_cell_volume   461.39523777
_cell_formula_units_Z   1
loop_
 _symmetry_equiv_pos_site_id
 _symmetry_equiv_pos_as_xyz
  1  'x, y, z'
loop_
 _atom_site_type_symbol
 _atom_site_label
 _atom_site_symmetry_multiplicity
 _atom_site_fract_x
 _atom_site_fract_y
 _atom_site_fract_z
 _atom_site_occupancy
  Dy  Dy0  1  0.016571  0.717049  0.299520  1
  Dy  Dy1  1  0.983429  0.282951  0.700480  1
  Dy  Dy2  1  0.582471  0.282951  0.299520  1
  Dy  Dy3  1  0.417529  0.717049  0.700480  1
  Dy  Dy4  1  0.677280  0.866801  0.189521  1
  Dy  Dy5  1  0.322720  0.512240  0.189521  1
  Dy  Dy6  1  0.322720  0.133199  0.810479  1
  Dy  Dy7  1  0.677280  0.487760  0.810479  1
  Dy  Dy8  1  0.177491  0.205902  0.383394  1
  Dy  Dy9  1  0.822509  0.205902  0.028410  1
  Dy  Dy10  1  0.177491  0.794098  0.971590  1
  Dy  Dy11  1  0.822509  0.794098  0.616606  1
  Ni  Ni12  1  0.639026  0.500000  0.139026  1
  Ni  Ni13  1  0.360974  0.500000  0.860974  1
  Ni  Ni14  1  0.875260  0.875260  0.000000  1
  Ni  Ni15  1  0.124740  0.124740  0.000000  1
  Bi  Bi16  1  0.500000  0.000000  0.500000  1
  Au  Au17  1  0.000000  0.500000  0.500000  1
