# generated using pymatgen
data_UTlNiS3
_symmetry_space_group_name_H-M   'P 1'
_cell_length_a   7.71407400
_cell_length_b   7.71407426
_cell_length_c   9.90270200
_cell_angle_alpha   90.00000000
_cell_angle_beta   90.00000000
_cell_angle_gamma   152.28245800
_symmetry_Int_Tables_number   1
_chemical_formula_structural   UTlNiS3
_chemical_formula_sum   'U2 Tl2 Ni2 S6'
_cell_volume   274.08161120
_cell_formula_units_Z   2
loop_
 _symmetry_equiv_pos_site_id
 _symmetry_equiv_pos_as_xyz
  1  'x, y, z'
loop_
 _atom_site_type_symbol
 _atom_site_label
 _atom_site_symmetry_multiplicity
 _atom_site_fract_x
 _atom_site_fract_y
 _atom_site_fract_z
 _atom_site_occupancy
  U  U0  1  0.000000  0.000000  0.000000  1
  U  U1  1  0.000000  0.000000  0.500000  1
  Tl  Tl2  1  0.750434  0.249565  0.250000  1
  Tl  Tl3  1  0.249565  0.750434  0.750000  1
  Ni  Ni4  1  0.467736  0.532263  0.250000  1
  Ni  Ni5  1  0.532263  0.467736  0.750000  1
  S  S6  1  0.379476  0.620523  0.066468  1
  S  S7  1  0.056601  0.943399  0.250000  1
  S  S8  1  0.379476  0.620523  0.433532  1
  S  S9  1  0.620523  0.379476  0.566469  1
  S  S10  1  0.943399  0.056601  0.750000  1
  S  S11  1  0.620523  0.379476  0.933531  1
