# generated using pymatgen
data_LaSm(PaPt2)2
_symmetry_space_group_name_H-M   'P 1'
_cell_length_a   4.48559700
_cell_length_b   5.73495697
_cell_length_c   7.35017397
_cell_angle_alpha   90.96139182
_cell_angle_beta   90.00000000
_cell_angle_gamma   90.00000000
_symmetry_Int_Tables_number   1
_chemical_formula_structural   LaSm(PaPt2)2
_chemical_formula_sum   'La1 Sm1 Pa2 Pt4'
_cell_volume   189.05444552
_cell_formula_units_Z   1
loop_
 _symmetry_equiv_pos_site_id
 _symmetry_equiv_pos_as_xyz
  1  'x, y, z'
loop_
 _atom_site_type_symbol
 _atom_site_label
 _atom_site_symmetry_multiplicity
 _atom_site_fract_x
 _atom_site_fract_y
 _atom_site_fract_z
 _atom_site_occupancy
  La  La0  1  0.750000  0.348873  0.813777  1
  Sm  Sm1  1  0.250000  0.849258  0.681018  1
  Pa  Pa2  1  0.250000  0.654756  0.179772  1
  Pa  Pa3  1  0.750000  0.147038  0.323056  1
  Pt  Pt4  1  0.250000  0.167720  0.077031  1
  Pt  Pt5  1  0.750000  0.839374  0.973056  1
  Pt  Pt6  1  0.750000  0.661618  0.428643  1
  Pt  Pt7  1  0.250000  0.331362  0.523647  1
