# generated using pymatgen
data_Dy10Be3Si15Au2
_symmetry_space_group_name_H-M   'P 1'
_cell_length_a   4.04576302
_cell_length_b   4.04326193
_cell_length_c   34.58956827
_cell_angle_alpha   86.63625260
_cell_angle_beta   86.61916347
_cell_angle_gamma   90.00871430
_symmetry_Int_Tables_number   1
_chemical_formula_structural   Dy10Be3Si15Au2
_chemical_formula_sum   'Dy10 Be3 Si15 Au2'
_cell_volume   563.85733789
_cell_formula_units_Z   1
loop_
 _symmetry_equiv_pos_site_id
 _symmetry_equiv_pos_as_xyz
  1  'x, y, z'
loop_
 _atom_site_type_symbol
 _atom_site_label
 _atom_site_symmetry_multiplicity
 _atom_site_fract_x
 _atom_site_fract_y
 _atom_site_fract_z
 _atom_site_occupancy
  Dy  Dy0  1  0.948048  0.448021  0.103736  1
  Dy  Dy1  1  0.350694  0.850540  0.298685  1
  Dy  Dy2  1  0.753465  0.253531  0.493179  1
  Dy  Dy3  1  0.149163  0.649899  0.700894  1
  Dy  Dy4  1  0.545391  0.045656  0.908963  1
  Dy  Dy5  1  0.997651  0.997256  0.005416  1
  Dy  Dy6  1  0.399876  0.399665  0.200570  1
  Dy  Dy7  1  0.802175  0.802083  0.395929  1
  Dy  Dy8  1  0.204942  0.204507  0.590636  1
  Dy  Dy9  1  0.601299  0.601120  0.797260  1
  Be  Be10  1  0.465263  0.965382  0.069298  1
  Be  Be11  1  0.867488  0.367703  0.264558  1
  Be  Be12  1  0.270075  0.770453  0.459629  1
  Si  Si13  1  0.666887  0.167145  0.665457  1
  Si  Si14  1  0.062761  0.563720  0.872830  1
  Si  Si15  1  0.915765  0.916011  0.168092  1
  Si  Si16  1  0.318166  0.318599  0.363246  1
  Si  Si17  1  0.720326  0.720850  0.558891  1
  Si  Si18  1  0.116519  0.116399  0.766752  1
  Si  Si19  1  0.513129  0.513186  0.973581  1
  Si  Si20  1  0.433605  0.933188  0.132847  1
  Si  Si21  1  0.835932  0.335567  0.328085  1
  Si  Si22  1  0.238488  0.738298  0.522859  1
  Si  Si23  1  0.633847  0.134655  0.732168  1
  Si  Si24  1  0.030551  0.530322  0.939387  1
  Si  Si25  1  0.479822  0.479478  0.040956  1
  Si  Si26  1  0.882326  0.882018  0.235721  1
  Si  Si27  1  0.284900  0.284702  0.430807  1
  Au  Au28  1  0.685979  0.685429  0.628739  1
  Au  Au29  1  0.082671  0.081821  0.836431  1
