# generated using pymatgen
data_ErMgMn3Fe6Co3P7
_symmetry_space_group_name_H-M   'P 1'
_cell_length_a   8.97295000
_cell_length_b   8.97295031
_cell_length_c   3.56611100
_cell_angle_alpha   90.00000000
_cell_angle_beta   90.00000000
_cell_angle_gamma   119.99999887
_symmetry_Int_Tables_number   1
_chemical_formula_structural   ErMgMn3Fe6Co3P7
_chemical_formula_sum   'Er1 Mg1 Mn3 Fe6 Co3 P7'
_cell_volume   248.65431719
_cell_formula_units_Z   1
loop_
 _symmetry_equiv_pos_site_id
 _symmetry_equiv_pos_as_xyz
  1  'x, y, z'
loop_
 _atom_site_type_symbol
 _atom_site_label
 _atom_site_symmetry_multiplicity
 _atom_site_fract_x
 _atom_site_fract_y
 _atom_site_fract_z
 _atom_site_occupancy
  Er  Er0  1  0.333333  0.666667  0.000000  1
  Mg  Mg1  1  0.000000  0.000000  0.500000  1
  Mn  Mn2  1  0.785167  0.230715  0.500000  1
  Mn  Mn3  1  0.769285  0.554452  0.500000  1
  Mn  Mn4  1  0.445548  0.214833  0.500000  1
  Fe  Fe5  1  0.038239  0.274318  0.000000  1
  Fe  Fe6  1  0.725682  0.763920  0.000000  1
  Fe  Fe7  1  0.236080  0.961761  0.000000  1
  Fe  Fe8  1  0.549544  0.057950  0.000000  1
  Fe  Fe9  1  0.942050  0.491595  0.000000  1
  Fe  Fe10  1  0.508405  0.450456  0.000000  1
  Co  Co11  1  0.615143  0.895934  0.500000  1
  Co  Co12  1  0.104066  0.719209  0.500000  1
  Co  Co13  1  0.280791  0.384857  0.500000  1
  P  P14  1  0.787003  0.034683  0.000000  1
  P  P15  1  0.965317  0.752320  0.000000  1
  P  P16  1  0.247680  0.212997  0.000000  1
  P  P17  1  0.377253  0.927894  0.500000  1
  P  P18  1  0.072106  0.449360  0.500000  1
  P  P19  1  0.550640  0.622747  0.500000  1
  P  P20  1  0.666667  0.333333  0.000000  1
