# generated using pymatgen
data_Nd3ThCdFe
_symmetry_space_group_name_H-M   'P 1'
_cell_length_a   9.84519304
_cell_length_b   9.84519360
_cell_length_c   9.84519300
_cell_angle_alpha   59.99999866
_cell_angle_beta   59.99999677
_cell_angle_gamma   60.00000168
_symmetry_Int_Tables_number   1
_chemical_formula_structural   Nd3ThCdFe
_chemical_formula_sum   'Nd12 Th4 Cd4 Fe4'
_cell_volume   674.77304199
_cell_formula_units_Z   4
loop_
 _symmetry_equiv_pos_site_id
 _symmetry_equiv_pos_as_xyz
  1  'x, y, z'
loop_
 _atom_site_type_symbol
 _atom_site_label
 _atom_site_symmetry_multiplicity
 _atom_site_fract_x
 _atom_site_fract_y
 _atom_site_fract_z
 _atom_site_occupancy
  Nd  Nd0  1  0.809532  0.190468  0.190468  1
  Nd  Nd1  1  0.190468  0.809532  0.809532  1
  Nd  Nd2  1  0.190468  0.809532  0.190468  1
  Nd  Nd3  1  0.809532  0.190468  0.809532  1
  Nd  Nd4  1  0.190468  0.190468  0.809532  1
  Nd  Nd5  1  0.809532  0.809532  0.190468  1
  Nd  Nd6  1  0.940803  0.559197  0.559197  1
  Nd  Nd7  1  0.559197  0.940803  0.940803  1
  Nd  Nd8  1  0.559197  0.940803  0.559197  1
  Nd  Nd9  1  0.940803  0.559197  0.940803  1
  Nd  Nd10  1  0.559197  0.559197  0.940803  1
  Nd  Nd11  1  0.940803  0.940803  0.559197  1
  Th  Th12  1  0.341998  0.341998  0.341998  1
  Th  Th13  1  0.341998  0.341998  0.974007  1
  Th  Th14  1  0.341998  0.974007  0.341998  1
  Th  Th15  1  0.974007  0.341998  0.341998  1
  Cd  Cd16  1  0.579441  0.579441  0.579441  1
  Cd  Cd17  1  0.579441  0.579441  0.261675  1
  Cd  Cd18  1  0.579441  0.261675  0.579441  1
  Cd  Cd19  1  0.261675  0.579441  0.579441  1
  Fe  Fe20  1  0.145989  0.145989  0.145989  1
  Fe  Fe21  1  0.145989  0.145989  0.562031  1
  Fe  Fe22  1  0.145989  0.562031  0.145989  1
  Fe  Fe23  1  0.562031  0.145989  0.145989  1
