# generated using pymatgen
data_Tb12Ce8Mn3CoBi8
_symmetry_space_group_name_H-M   'P 1'
_cell_length_a   7.96051970
_cell_length_b   9.04114100
_cell_length_c   12.36555714
_cell_angle_alpha   90.00000000
_cell_angle_beta   90.24086914
_cell_angle_gamma   90.00000000
_symmetry_Int_Tables_number   1
_chemical_formula_structural   Tb12Ce8Mn3CoBi8
_chemical_formula_sum   'Tb12 Ce8 Mn3 Co1 Bi8'
_cell_volume   889.96825284
_cell_formula_units_Z   1
loop_
 _symmetry_equiv_pos_site_id
 _symmetry_equiv_pos_as_xyz
  1  'x, y, z'
loop_
 _atom_site_type_symbol
 _atom_site_label
 _atom_site_symmetry_multiplicity
 _atom_site_fract_x
 _atom_site_fract_y
 _atom_site_fract_z
 _atom_site_occupancy
  Tb  Tb0  1  0.834749  0.750000  0.790588  1
  Tb  Tb1  1  0.168161  0.250000  0.211211  1
  Tb  Tb2  1  0.333152  0.250000  0.711391  1
  Tb  Tb3  1  0.665122  0.750000  0.290030  1
  Tb  Tb4  1  0.363910  0.750000  0.704173  1
  Tb  Tb5  1  0.636272  0.250000  0.296172  1
  Tb  Tb6  1  0.864478  0.250000  0.794908  1
  Tb  Tb7  1  0.133377  0.750000  0.200002  1
  Tb  Tb8  1  0.976590  0.750000  0.499868  1
  Tb  Tb9  1  0.023688  0.250000  0.500012  1
  Tb  Tb10  1  0.478376  0.250000  0.000646  1
  Tb  Tb11  1  0.522079  0.750000  0.999928  1
  Ce  Ce12  1  0.657932  0.006211  0.552207  1
  Ce  Ce13  1  0.342777  0.993513  0.447835  1
  Ce  Ce14  1  0.157325  0.996937  0.948049  1
  Ce  Ce15  1  0.342777  0.506487  0.447835  1
  Ce  Ce16  1  0.844390  0.016804  0.051380  1
  Ce  Ce17  1  0.657932  0.493789  0.552207  1
  Ce  Ce18  1  0.844390  0.483196  0.051380  1
  Ce  Ce19  1  0.157325  0.503063  0.948049  1
  Mn  Mn20  1  0.614582  0.750000  0.532902  1
  Mn  Mn21  1  0.384072  0.250000  0.467875  1
  Mn  Mn22  1  0.122404  0.250000  0.964830  1
  Co  Co23  1  0.872276  0.750000  0.037664  1
  Bi  Bi24  1  0.566543  0.493886  0.826130  1
  Bi  Bi25  1  0.434431  0.506966  0.174101  1
  Bi  Bi26  1  0.064882  0.506741  0.673988  1
  Bi  Bi27  1  0.434431  0.993034  0.174101  1
  Bi  Bi28  1  0.935076  0.494007  0.325209  1
  Bi  Bi29  1  0.566543  0.006114  0.826130  1
  Bi  Bi30  1  0.935076  0.005993  0.325209  1
  Bi  Bi31  1  0.064882  0.993259  0.673988  1
