# generated using pymatgen
data_Cs6TbTe4Cl
_symmetry_space_group_name_H-M   'P 1'
_cell_length_a   12.40293100
_cell_length_b   12.40293097
_cell_length_c   9.08501500
_cell_angle_alpha   90.00000000
_cell_angle_beta   90.00000000
_cell_angle_gamma   120.00000276
_symmetry_Int_Tables_number   1
_chemical_formula_structural   Cs6TbTe4Cl
_chemical_formula_sum   'Cs12 Tb2 Te8 Cl2'
_cell_volume   1210.33313334
_cell_formula_units_Z   2
loop_
 _symmetry_equiv_pos_site_id
 _symmetry_equiv_pos_as_xyz
  1  'x, y, z'
loop_
 _atom_site_type_symbol
 _atom_site_label
 _atom_site_symmetry_multiplicity
 _atom_site_fract_x
 _atom_site_fract_y
 _atom_site_fract_z
 _atom_site_occupancy
  Cs  Cs0  1  0.124508  0.875492  0.513019  1
  Cs  Cs1  1  0.750983  0.875492  0.513019  1
  Cs  Cs2  1  0.944993  0.472496  0.316374  1
  Cs  Cs3  1  0.527504  0.472496  0.316374  1
  Cs  Cs4  1  0.875492  0.750983  0.013019  1
  Cs  Cs5  1  0.249017  0.124508  0.013019  1
  Cs  Cs6  1  0.527504  0.055007  0.316374  1
  Cs  Cs7  1  0.124508  0.249017  0.513019  1
  Cs  Cs8  1  0.875492  0.124508  0.013019  1
  Cs  Cs9  1  0.055007  0.527504  0.816374  1
  Cs  Cs10  1  0.472496  0.944993  0.816374  1
  Cs  Cs11  1  0.472496  0.527504  0.816374  1
  Tb  Tb12  1  0.666667  0.333333  0.713989  1
  Tb  Tb13  1  0.333333  0.666667  0.213989  1
  Te  Te14  1  0.406510  0.203256  0.608162  1
  Te  Te15  1  0.593490  0.796744  0.108162  1
  Te  Te16  1  0.666667  0.333333  0.039038  1
  Te  Te17  1  0.796744  0.593490  0.608162  1
  Te  Te18  1  0.203256  0.406510  0.108162  1
  Te  Te19  1  0.333333  0.666667  0.539038  1
  Te  Te20  1  0.203256  0.796744  0.108162  1
  Te  Te21  1  0.796744  0.203256  0.608162  1
  Cl  Cl22  1  0.000000  0.000000  0.274912  1
  Cl  Cl23  1  0.000000  0.000000  0.774912  1
