# generated using pymatgen
data_Be(InCl2)2
_symmetry_space_group_name_H-M   'P 1'
_cell_length_a   6.94787800
_cell_length_b   9.04188500
_cell_length_c   12.45692300
_cell_angle_alpha   90.00000000
_cell_angle_beta   90.00000000
_cell_angle_gamma   90.00000000
_symmetry_Int_Tables_number   1
_chemical_formula_structural   Be(InCl2)2
_chemical_formula_sum   'Be4 In8 Cl16'
_cell_volume   782.56774379
_cell_formula_units_Z   4
loop_
 _symmetry_equiv_pos_site_id
 _symmetry_equiv_pos_as_xyz
  1  'x, y, z'
loop_
 _atom_site_type_symbol
 _atom_site_label
 _atom_site_symmetry_multiplicity
 _atom_site_fract_x
 _atom_site_fract_y
 _atom_site_fract_z
 _atom_site_occupancy
  Be  Be0  1  0.750000  0.767835  0.922962  1
  Be  Be1  1  0.250000  0.232165  0.077038  1
  Be  Be2  1  0.250000  0.732165  0.422962  1
  Be  Be3  1  0.750000  0.267835  0.577038  1
  In  In4  1  0.750000  0.516372  0.326321  1
  In  In5  1  0.250000  0.483628  0.673679  1
  In  In6  1  0.250000  0.983628  0.826321  1
  In  In7  1  0.750000  0.016372  0.173679  1
  In  In8  1  0.750000  0.855705  0.582487  1
  In  In9  1  0.250000  0.144295  0.417513  1
  In  In10  1  0.250000  0.644295  0.082487  1
  In  In11  1  0.750000  0.355705  0.917513  1
  Cl  Cl12  1  0.989090  0.686663  0.850741  1
  Cl  Cl13  1  0.010910  0.313337  0.149259  1
  Cl  Cl14  1  0.010910  0.813337  0.350741  1
  Cl  Cl15  1  0.489090  0.313337  0.149259  1
  Cl  Cl16  1  0.989090  0.186663  0.649259  1
  Cl  Cl17  1  0.510910  0.686663  0.850741  1
  Cl  Cl18  1  0.510910  0.186663  0.649259  1
  Cl  Cl19  1  0.489090  0.813337  0.350741  1
  Cl  Cl20  1  0.750000  0.992688  0.917600  1
  Cl  Cl21  1  0.250000  0.007312  0.082400  1
  Cl  Cl22  1  0.250000  0.507312  0.417600  1
  Cl  Cl23  1  0.750000  0.492688  0.582400  1
  Cl  Cl24  1  0.750000  0.191056  0.422364  1
  Cl  Cl25  1  0.250000  0.808944  0.577636  1
  Cl  Cl26  1  0.250000  0.308944  0.922364  1
  Cl  Cl27  1  0.750000  0.691056  0.077636  1
