# generated using pymatgen
data_Pr2SmCoSn6
_symmetry_space_group_name_H-M   'P 1'
_cell_length_a   8.63360418
_cell_length_b   8.63360578
_cell_length_c   13.42383100
_cell_angle_alpha   90.00000000
_cell_angle_beta   90.00000000
_cell_angle_gamma   148.75320174
_symmetry_Int_Tables_number   1
_chemical_formula_structural   Pr2SmCoSn6
_chemical_formula_sum   'Pr4 Sm2 Co2 Sn12'
_cell_volume   519.03710908
_cell_formula_units_Z   2
loop_
 _symmetry_equiv_pos_site_id
 _symmetry_equiv_pos_as_xyz
  1  'x, y, z'
loop_
 _atom_site_type_symbol
 _atom_site_label
 _atom_site_symmetry_multiplicity
 _atom_site_fract_x
 _atom_site_fract_y
 _atom_site_fract_z
 _atom_site_occupancy
  Pr  Pr0  1  0.899762  0.100238  0.091665  1
  Pr  Pr1  1  0.100238  0.899762  0.591665  1
  Pr  Pr2  1  0.100238  0.899762  0.908335  1
  Pr  Pr3  1  0.899762  0.100238  0.408335  1
  Sm  Sm4  1  0.898778  0.101222  0.750000  1
  Sm  Sm5  1  0.101222  0.898778  0.250000  1
  Co  Co6  1  0.298087  0.701913  0.250000  1
  Co  Co7  1  0.701913  0.298087  0.750000  1
  Sn  Sn8  1  0.754189  0.245811  0.572399  1
  Sn  Sn9  1  0.429135  0.570865  0.579239  1
  Sn  Sn10  1  0.570865  0.429135  0.420761  1
  Sn  Sn11  1  0.735317  0.264683  0.250000  1
  Sn  Sn12  1  0.264683  0.735317  0.750000  1
  Sn  Sn13  1  0.245811  0.754189  0.072399  1
  Sn  Sn14  1  0.245811  0.754189  0.427601  1
  Sn  Sn15  1  0.570865  0.429135  0.079239  1
  Sn  Sn16  1  0.452742  0.547258  0.250000  1
  Sn  Sn17  1  0.547258  0.452742  0.750000  1
  Sn  Sn18  1  0.754189  0.245811  0.927601  1
  Sn  Sn19  1  0.429135  0.570865  0.920761  1
