# generated using pymatgen
data_NpI10Cl
_symmetry_space_group_name_H-M   'P 1'
_cell_length_a   8.78376079
_cell_length_b   8.98069758
_cell_length_c   9.28920996
_cell_angle_alpha   88.17592773
_cell_angle_beta   88.76283711
_cell_angle_gamma   109.78331746
_symmetry_Int_Tables_number   1
_chemical_formula_structural   NpI10Cl
_chemical_formula_sum   'Np1 I10 Cl1'
_cell_volume   688.76652411
_cell_formula_units_Z   1
loop_
 _symmetry_equiv_pos_site_id
 _symmetry_equiv_pos_as_xyz
  1  'x, y, z'
loop_
 _atom_site_type_symbol
 _atom_site_label
 _atom_site_symmetry_multiplicity
 _atom_site_fract_x
 _atom_site_fract_y
 _atom_site_fract_z
 _atom_site_occupancy
  Np  Np0  1  0.001423  0.497914  0.506350  1
  I  I1  1  0.000315  0.003808  0.001715  1
  I  I2  1  0.684681  0.774382  0.931321  1
  I  I3  1  0.315527  0.232003  0.072700  1
  I  I4  1  0.692550  0.213884  0.545820  1
  I  I5  1  0.306877  0.785278  0.460053  1
  I  I6  1  0.494429  0.772416  0.189168  1
  I  I7  1  0.508192  0.230071  0.817084  1
  I  I8  1  0.827349  0.717129  0.548683  1
  I  I9  1  0.177252  0.281794  0.457596  1
  I  I10  1  0.939153  0.507389  0.203264  1
  Cl  Cl11  1  0.052251  0.483928  0.766244  1
