# generated using pymatgen
data_Pr8Zn3Si12Pt
_symmetry_space_group_name_H-M   'P 1'
_cell_length_a   8.22109100
_cell_length_b   8.22109155
_cell_length_c   8.67775600
_cell_angle_alpha   90.00000000
_cell_angle_beta   90.00000000
_cell_angle_gamma   120.00000181
_symmetry_Int_Tables_number   1
_chemical_formula_structural   Pr8Zn3Si12Pt
_chemical_formula_sum   'Pr8 Zn3 Si12 Pt1'
_cell_volume   507.92196983
_cell_formula_units_Z   1
loop_
 _symmetry_equiv_pos_site_id
 _symmetry_equiv_pos_as_xyz
  1  'x, y, z'
loop_
 _atom_site_type_symbol
 _atom_site_label
 _atom_site_symmetry_multiplicity
 _atom_site_fract_x
 _atom_site_fract_y
 _atom_site_fract_z
 _atom_site_occupancy
  Pr  Pr0  1  0.499470  0.500530  0.750531  1
  Pr  Pr1  1  0.499965  0.500035  0.249353  1
  Pr  Pr2  1  0.001060  0.500530  0.750531  1
  Pr  Pr3  1  0.000069  0.500035  0.249353  1
  Pr  Pr4  1  0.499470  0.998940  0.750531  1
  Pr  Pr5  1  0.499965  0.999931  0.249353  1
  Pr  Pr6  1  0.000000  0.000000  0.749251  1
  Pr  Pr7  1  0.000000  0.000000  0.251137  1
  Zn  Zn8  1  0.666667  0.333333  0.996739  1
  Zn  Zn9  1  0.333333  0.666667  0.002440  1
  Zn  Zn10  1  0.333333  0.666667  0.498779  1
  Si  Si11  1  0.833497  0.166503  0.000781  1
  Si  Si12  1  0.166162  0.833838  0.999523  1
  Si  Si13  1  0.333006  0.166503  0.000781  1
  Si  Si14  1  0.163862  0.836138  0.499664  1
  Si  Si15  1  0.667676  0.833838  0.999523  1
  Si  Si16  1  0.831887  0.168113  0.500575  1
  Si  Si17  1  0.833497  0.666994  0.000781  1
  Si  Si18  1  0.672276  0.836138  0.499664  1
  Si  Si19  1  0.166162  0.332324  0.999523  1
  Si  Si20  1  0.336225  0.168113  0.500575  1
  Si  Si21  1  0.163862  0.327724  0.499664  1
  Si  Si22  1  0.831887  0.663775  0.500575  1
  Pt  Pt23  1  0.666667  0.333333  0.500377  1
