# generated using pymatgen
data_Dy9Mg(PPb3)2
_symmetry_space_group_name_H-M   'P 1'
_cell_length_a   9.13396300
_cell_length_b   9.13396289
_cell_length_c   6.72957800
_cell_angle_alpha   90.00000000
_cell_angle_beta   90.00000000
_cell_angle_gamma   120.00001127
_symmetry_Int_Tables_number   1
_chemical_formula_structural   Dy9Mg(PPb3)2
_chemical_formula_sum   'Dy9 Mg1 P2 Pb6'
_cell_volume   486.22457383
_cell_formula_units_Z   1
loop_
 _symmetry_equiv_pos_site_id
 _symmetry_equiv_pos_as_xyz
  1  'x, y, z'
loop_
 _atom_site_type_symbol
 _atom_site_label
 _atom_site_symmetry_multiplicity
 _atom_site_fract_x
 _atom_site_fract_y
 _atom_site_fract_z
 _atom_site_occupancy
  Dy  Dy0  1  0.762245  0.760719  0.751785  1
  Dy  Dy1  1  0.239281  0.001526  0.751785  1
  Dy  Dy2  1  0.998474  0.237755  0.751785  1
  Dy  Dy3  1  0.239281  0.237755  0.248215  1
  Dy  Dy4  1  0.762245  0.001526  0.248215  1
  Dy  Dy5  1  0.998474  0.760719  0.248215  1
  Dy  Dy6  1  0.333333  0.666667  0.000000  1
  Dy  Dy7  1  0.333333  0.666667  0.500000  1
  Dy  Dy8  1  0.666667  0.333333  0.500000  1
  Mg  Mg9  1  0.666667  0.333333  0.000000  1
  P  P10  1  0.000000  0.000000  0.000000  1
  P  P11  1  0.000000  0.000000  0.500000  1
  Pb  Pb12  1  0.402155  0.401185  0.750686  1
  Pb  Pb13  1  0.598815  0.000970  0.750686  1
  Pb  Pb14  1  0.999030  0.597845  0.750686  1
  Pb  Pb15  1  0.598815  0.597845  0.249314  1
  Pb  Pb16  1  0.402155  0.000970  0.249314  1
  Pb  Pb17  1  0.999030  0.401185  0.249314  1
