# generated using pymatgen
data_Y2CoB10
_symmetry_space_group_name_H-M   'P 1'
_cell_length_a   4.14942200
_cell_length_b   5.54823500
_cell_length_c   11.08669800
_cell_angle_alpha   90.00000000
_cell_angle_beta   90.00000000
_cell_angle_gamma   90.00000000
_symmetry_Int_Tables_number   1
_chemical_formula_structural   Y2CoB10
_chemical_formula_sum   'Y4 Co2 B20'
_cell_volume   255.23761069
_cell_formula_units_Z   2
loop_
 _symmetry_equiv_pos_site_id
 _symmetry_equiv_pos_as_xyz
  1  'x, y, z'
loop_
 _atom_site_type_symbol
 _atom_site_label
 _atom_site_symmetry_multiplicity
 _atom_site_fract_x
 _atom_site_fract_y
 _atom_site_fract_z
 _atom_site_occupancy
  Y  Y0  1  0.500000  0.298777  0.867226  1
  Y  Y1  1  0.500000  0.701223  0.132774  1
  Y  Y2  1  0.500000  0.798777  0.632774  1
  Y  Y3  1  0.500000  0.201223  0.367226  1
  Co  Co4  1  0.000000  0.500000  0.500000  1
  Co  Co5  1  0.000000  0.000000  0.000000  1
  B  B6  1  0.000000  0.127701  0.539929  1
  B  B7  1  0.000000  0.872299  0.460071  1
  B  B8  1  0.000000  0.627701  0.960071  1
  B  B9  1  0.000000  0.372299  0.039929  1
  B  B10  1  0.000000  0.158233  0.698089  1
  B  B11  1  0.000000  0.841767  0.301911  1
  B  B12  1  0.299943  0.200579  0.113228  1
  B  B13  1  0.299943  0.799421  0.886772  1
  B  B14  1  0.700057  0.700579  0.386772  1
  B  B15  1  0.700057  0.299421  0.613228  1
  B  B16  1  0.700057  0.799421  0.886772  1
  B  B17  1  0.700057  0.200579  0.113228  1
  B  B18  1  0.299943  0.299421  0.613228  1
  B  B19  1  0.299943  0.700579  0.386772  1
  B  B20  1  0.000000  0.029862  0.186078  1
  B  B21  1  0.000000  0.970138  0.813922  1
  B  B22  1  0.000000  0.529862  0.313922  1
  B  B23  1  0.000000  0.470138  0.686078  1
  B  B24  1  0.000000  0.341767  0.198089  1
  B  B25  1  0.000000  0.658233  0.801911  1
