# generated using pymatgen
data_RbLa(SO4)2
_symmetry_space_group_name_H-M   'P 1'
_cell_length_a   9.14144223
_cell_length_b   9.14144271
_cell_length_c   9.14144247
_cell_angle_alpha   33.67075013
_cell_angle_beta   33.67075624
_cell_angle_gamma   33.67075597
_symmetry_Int_Tables_number   1
_chemical_formula_structural   RbLa(SO4)2
_chemical_formula_sum   'Rb1 La1 S2 O8'
_cell_volume   209.19223908
_cell_formula_units_Z   1
loop_
 _symmetry_equiv_pos_site_id
 _symmetry_equiv_pos_as_xyz
  1  'x, y, z'
loop_
 _atom_site_type_symbol
 _atom_site_label
 _atom_site_symmetry_multiplicity
 _atom_site_fract_x
 _atom_site_fract_y
 _atom_site_fract_z
 _atom_site_occupancy
  Rb  Rb0  1  0.000000  0.000000  0.000000  1
  La  La1  1  0.500000  0.500000  0.500000  1
  S  S2  1  0.243958  0.243958  0.243958  1
  S  S3  1  0.756042  0.756042  0.756042  1
  O  O4  1  0.769117  0.515479  0.046004  1
  O  O5  1  0.484520  0.953996  0.230884  1
  O  O6  1  0.300414  0.300414  0.300414  1
  O  O7  1  0.046003  0.769117  0.515480  1
  O  O8  1  0.953997  0.230882  0.484520  1
  O  O9  1  0.699586  0.699586  0.699586  1
  O  O10  1  0.515480  0.046003  0.769116  1
  O  O11  1  0.230883  0.484521  0.953996  1
