# generated using pymatgen
data_Mg5Mn(Co3P2)6
_symmetry_space_group_name_H-M   'P 1'
_cell_length_a   11.80303213
_cell_length_b   11.80303249
_cell_length_c   3.56784000
_cell_angle_alpha   90.00000000
_cell_angle_beta   90.00000000
_cell_angle_gamma   119.84173523
_symmetry_Int_Tables_number   1
_chemical_formula_structural   Mg5Mn(Co3P2)6
_chemical_formula_sum   'Mg5 Mn1 Co18 P12'
_cell_volume   431.13530870
_cell_formula_units_Z   1
loop_
 _symmetry_equiv_pos_site_id
 _symmetry_equiv_pos_as_xyz
  1  'x, y, z'
loop_
 _atom_site_type_symbol
 _atom_site_label
 _atom_site_symmetry_multiplicity
 _atom_site_fract_x
 _atom_site_fract_y
 _atom_site_fract_z
 _atom_site_occupancy
  Mg  Mg0  1  0.665651  0.334274  0.000000  1
  Mg  Mg1  1  0.334274  0.665651  0.000000  1
  Mg  Mg2  1  0.180269  0.180269  0.500000  1
  Mg  Mg3  1  0.819402  0.999388  0.500000  1
  Mg  Mg4  1  0.999388  0.819402  0.500000  1
  Mn  Mn5  1  0.550049  0.550049  0.000000  1
  Co  Co6  1  0.451959  0.001221  0.000000  1
  Co  Co7  1  0.001221  0.451959  0.000000  1
  Co  Co8  1  0.820433  0.197072  0.000000  1
  Co  Co9  1  0.806022  0.626905  0.000000  1
  Co  Co10  1  0.373693  0.177572  0.000000  1
  Co  Co11  1  0.197072  0.820433  0.000000  1
  Co  Co12  1  0.626905  0.806022  0.000000  1
  Co  Co13  1  0.177572  0.373693  0.000000  1
  Co  Co14  1  0.644928  0.128277  0.500000  1
  Co  Co15  1  0.870700  0.516480  0.500000  1
  Co  Co16  1  0.482403  0.353246  0.500000  1
  Co  Co17  1  0.128277  0.644928  0.500000  1
  Co  Co18  1  0.516480  0.870700  0.500000  1
  Co  Co19  1  0.353246  0.482403  0.500000  1
  Co  Co20  1  0.718962  0.718962  0.500000  1
  Co  Co21  1  0.282928  0.998501  0.500000  1
  Co  Co22  1  0.998501  0.282928  0.500000  1
  Co  Co23  1  0.001633  0.001633  0.000000  1
  P  P24  1  0.362090  0.362090  0.000000  1
  P  P25  1  0.637672  0.000384  0.000000  1
  P  P26  1  0.000384  0.637672  0.000000  1
  P  P27  1  0.834142  0.318754  0.500000  1
  P  P28  1  0.681218  0.517528  0.500000  1
  P  P29  1  0.482005  0.163485  0.500000  1
  P  P30  1  0.318754  0.834142  0.500000  1
  P  P31  1  0.517528  0.681218  0.500000  1
  P  P32  1  0.163485  0.482005  0.500000  1
  P  P33  1  0.823869  0.823869  0.000000  1
  P  P34  1  0.177907  0.998979  0.000000  1
  P  P35  1  0.998979  0.177907  0.000000  1
