# generated using pymatgen
data_Er12Ga2CoNi2Ru
_symmetry_space_group_name_H-M   'P 1'
_cell_length_a   8.22016779
_cell_length_b   8.22016841
_cell_length_c   8.22016761
_cell_angle_alpha   112.89766683
_cell_angle_beta   109.95281034
_cell_angle_gamma   105.64448323
_symmetry_Int_Tables_number   1
_chemical_formula_structural   Er12Ga2CoNi2Ru
_chemical_formula_sum   'Er12 Ga2 Co1 Ni2 Ru1'
_cell_volume   425.86197604
_cell_formula_units_Z   1
loop_
 _symmetry_equiv_pos_site_id
 _symmetry_equiv_pos_as_xyz
  1  'x, y, z'
loop_
 _atom_site_type_symbol
 _atom_site_label
 _atom_site_symmetry_multiplicity
 _atom_site_fract_x
 _atom_site_fract_y
 _atom_site_fract_z
 _atom_site_occupancy
  Er  Er0  1  0.051921  0.746383  0.305537  1
  Er  Er1  1  0.961121  0.265667  0.695453  1
  Er  Er2  1  0.559154  0.253617  0.305537  1
  Er  Er3  1  0.429787  0.734333  0.695453  1
  Er  Er4  1  0.670447  0.860158  0.189537  1
  Er  Er5  1  0.329380  0.519090  0.189537  1
  Er  Er6  1  0.329380  0.139842  0.810290  1
  Er  Er7  1  0.670447  0.480910  0.810290  1
  Er  Er8  1  0.178426  0.224412  0.402839  1
  Er  Er9  1  0.817484  0.218513  0.035997  1
  Er  Er10  1  0.178426  0.775588  0.954015  1
  Er  Er11  1  0.817484  0.781487  0.598970  1
  Ga  Ga12  1  0.988588  0.500000  0.488588  1
  Ga  Ga13  1  0.504406  0.000000  0.504406  1
  Co  Co14  1  0.338735  0.500000  0.838735  1
  Ni  Ni15  1  0.882867  0.880756  0.002112  1
  Ni  Ni16  1  0.121356  0.119244  0.002112  1
  Ru  Ru17  1  0.670591  0.500000  0.170591  1
