# generated using pymatgen
data_YPa3(TaN2)4
_symmetry_space_group_name_H-M   'P 1'
_cell_length_a   3.30647800
_cell_length_b   5.70731250
_cell_length_c   10.97146882
_cell_angle_alpha   90.10734973
_cell_angle_beta   90.00000000
_cell_angle_gamma   90.00000000
_symmetry_Int_Tables_number   1
_chemical_formula_structural   YPa3(TaN2)4
_chemical_formula_sum   'Y1 Pa3 Ta4 N8'
_cell_volume   207.04335723
_cell_formula_units_Z   1
loop_
 _symmetry_equiv_pos_site_id
 _symmetry_equiv_pos_as_xyz
  1  'x, y, z'
loop_
 _atom_site_type_symbol
 _atom_site_label
 _atom_site_symmetry_multiplicity
 _atom_site_fract_x
 _atom_site_fract_y
 _atom_site_fract_z
 _atom_site_occupancy
  Y  Y0  1  0.250000  0.578497  0.855108  1
  Pa  Pa1  1  0.750000  0.424545  0.139100  1
  Pa  Pa2  1  0.750000  0.922270  0.356926  1
  Pa  Pa3  1  0.250000  0.079139  0.645634  1
  Ta  Ta4  1  0.250000  0.922481  0.099475  1
  Ta  Ta5  1  0.750000  0.072240  0.902617  1
  Ta  Ta6  1  0.750000  0.576483  0.601329  1
  Ta  Ta7  1  0.250000  0.424396  0.399919  1
  N  N8  1  0.250000  0.661960  0.246618  1
  N  N9  1  0.750000  0.332488  0.751670  1
  N  N10  1  0.750000  0.842608  0.744956  1
  N  N11  1  0.250000  0.160961  0.254229  1
  N  N12  1  0.250000  0.758900  0.506816  1
  N  N13  1  0.750000  0.242339  0.494918  1
  N  N14  1  0.750000  0.739975  0.004821  1
  N  N15  1  0.250000  0.260719  0.995863  1
