# generated using pymatgen
data_AcCoGeH
_symmetry_space_group_name_H-M   'P 1'
_cell_length_a   4.16791100
_cell_length_b   4.16791100
_cell_length_c   8.27726000
_cell_angle_alpha   90.00000000
_cell_angle_beta   90.00000000
_cell_angle_gamma   90.00000000
_symmetry_Int_Tables_number   1
_chemical_formula_structural   AcCoGeH
_chemical_formula_sum   'Ac2 Co2 Ge2 H2'
_cell_volume   143.78827396
_cell_formula_units_Z   2
loop_
 _symmetry_equiv_pos_site_id
 _symmetry_equiv_pos_as_xyz
  1  'x, y, z'
loop_
 _atom_site_type_symbol
 _atom_site_label
 _atom_site_symmetry_multiplicity
 _atom_site_fract_x
 _atom_site_fract_y
 _atom_site_fract_z
 _atom_site_occupancy
  Ac  Ac0  1  0.500000  0.000000  0.317978  1
  Ac  Ac1  1  0.000000  0.500000  0.682022  1
  Co  Co2  1  0.500000  0.500000  0.000000  1
  Co  Co3  1  0.000000  0.000000  0.000000  1
  Ge  Ge4  1  0.500000  0.000000  0.860738  1
  Ge  Ge5  1  0.000000  0.500000  0.139262  1
  H  H6  1  0.000000  0.000000  0.500000  1
  H  H7  1  0.500000  0.500000  0.500000  1
