# generated using pymatgen
data_Sc3Tc2Ge3Rh
_symmetry_space_group_name_H-M   'P 1'
_cell_length_a   7.04926431
_cell_length_b   6.99954270
_cell_length_c   3.51727700
_cell_angle_alpha   90.00000000
_cell_angle_beta   90.00000000
_cell_angle_gamma   119.76694449
_symmetry_Int_Tables_number   1
_chemical_formula_structural   Sc3Tc2Ge3Rh
_chemical_formula_sum   'Sc3 Tc2 Ge3 Rh1'
_cell_volume   150.64883932
_cell_formula_units_Z   1
loop_
 _symmetry_equiv_pos_site_id
 _symmetry_equiv_pos_as_xyz
  1  'x, y, z'
loop_
 _atom_site_type_symbol
 _atom_site_label
 _atom_site_symmetry_multiplicity
 _atom_site_fract_x
 _atom_site_fract_y
 _atom_site_fract_z
 _atom_site_occupancy
  Sc  Sc0  1  0.402992  0.400017  0.500000  1
  Sc  Sc1  1  0.597008  0.997025  0.500000  1
  Sc  Sc2  1  0.000000  0.602359  0.500000  1
  Tc  Tc3  1  0.745029  0.744920  0.000000  1
  Tc  Tc4  1  0.254971  0.999891  0.000000  1
  Ge  Ge5  1  0.664719  0.333245  0.000000  1
  Ge  Ge6  1  0.335281  0.668527  0.000000  1
  Ge  Ge7  1  0.000000  0.998122  0.500000  1
  Rh  Rh8  1  0.000000  0.255893  0.000000  1
