# generated using pymatgen
data_Pr8MgCdOsPd
_symmetry_space_group_name_H-M   'P 1'
_cell_length_a   10.08688150
_cell_length_b   10.08688323
_cell_length_c   10.18055500
_cell_angle_alpha   59.69233017
_cell_angle_beta   59.69232442
_cell_angle_gamma   59.60470625
_symmetry_Int_Tables_number   1
_chemical_formula_structural   Pr8MgCdOsPd
_chemical_formula_sum   'Pr16 Mg2 Cd2 Os2 Pd2'
_cell_volume   726.82999642
_cell_formula_units_Z   2
loop_
 _symmetry_equiv_pos_site_id
 _symmetry_equiv_pos_as_xyz
  1  'x, y, z'
loop_
 _atom_site_type_symbol
 _atom_site_label
 _atom_site_symmetry_multiplicity
 _atom_site_fract_x
 _atom_site_fract_y
 _atom_site_fract_z
 _atom_site_occupancy
  Pr  Pr0  1  0.347480  0.347480  0.355889  1
  Pr  Pr1  1  0.347480  0.347480  0.949152  1
  Pr  Pr2  1  0.342774  0.959797  0.348715  1
  Pr  Pr3  1  0.959797  0.342774  0.348715  1
  Pr  Pr4  1  0.816436  0.188346  0.191352  1
  Pr  Pr5  1  0.188346  0.816436  0.803867  1
  Pr  Pr6  1  0.188346  0.816436  0.191352  1
  Pr  Pr7  1  0.816436  0.188346  0.803867  1
  Pr  Pr8  1  0.189908  0.189908  0.810092  1
  Pr  Pr9  1  0.808677  0.808677  0.191323  1
  Pr  Pr10  1  0.938282  0.556599  0.566076  1
  Pr  Pr11  1  0.556599  0.938282  0.939044  1
  Pr  Pr12  1  0.556599  0.938282  0.566076  1
  Pr  Pr13  1  0.938282  0.556599  0.939044  1
  Pr  Pr14  1  0.563522  0.563522  0.936478  1
  Pr  Pr15  1  0.939185  0.939185  0.560815  1
  Mg  Mg16  1  0.575522  0.575522  0.578978  1
  Mg  Mg17  1  0.575522  0.575522  0.269977  1
  Cd  Cd18  1  0.581480  0.257740  0.580389  1
  Cd  Cd19  1  0.257740  0.581480  0.580389  1
  Os  Os20  1  0.144862  0.144862  0.135969  1
  Os  Os21  1  0.144862  0.144862  0.574307  1
  Pd  Pd22  1  0.147672  0.574193  0.139067  1
  Pd  Pd23  1  0.574193  0.147672  0.139067  1
