# generated using pymatgen
data_CePr4ThSe10
_symmetry_space_group_name_H-M   'P 1'
_cell_length_a   7.94763200
_cell_length_b   8.55208000
_cell_length_c   12.64435500
_cell_angle_alpha   90.00000000
_cell_angle_beta   90.00000000
_cell_angle_gamma   90.00000000
_symmetry_Int_Tables_number   1
_chemical_formula_structural   CePr4ThSe10
_chemical_formula_sum   'Ce2 Pr8 Th2 Se20'
_cell_volume   859.42144234
_cell_formula_units_Z   2
loop_
 _symmetry_equiv_pos_site_id
 _symmetry_equiv_pos_as_xyz
  1  'x, y, z'
loop_
 _atom_site_type_symbol
 _atom_site_label
 _atom_site_symmetry_multiplicity
 _atom_site_fract_x
 _atom_site_fract_y
 _atom_site_fract_z
 _atom_site_occupancy
  Ce  Ce0  1  0.072853  0.750000  0.491715  1
  Ce  Ce1  1  0.427147  0.750000  0.991715  1
  Pr  Pr2  1  0.520259  0.500083  0.321510  1
  Pr  Pr3  1  0.979741  0.999917  0.821510  1
  Pr  Pr4  1  0.478526  0.997899  0.678544  1
  Pr  Pr5  1  0.021474  0.502101  0.178544  1
  Pr  Pr6  1  0.478526  0.502101  0.678544  1
  Pr  Pr7  1  0.021474  0.997899  0.178544  1
  Pr  Pr8  1  0.520259  0.999917  0.321510  1
  Pr  Pr9  1  0.979741  0.500083  0.821510  1
  Th  Th10  1  0.923822  0.250000  0.509391  1
  Th  Th11  1  0.576178  0.250000  0.009391  1
  Se  Se12  1  0.836584  0.953195  0.598619  1
  Se  Se13  1  0.663416  0.546805  0.098619  1
  Se  Se14  1  0.162949  0.459101  0.401574  1
  Se  Se15  1  0.337051  0.040899  0.901574  1
  Se  Se16  1  0.162949  0.040899  0.401574  1
  Se  Se17  1  0.337051  0.459101  0.901574  1
  Se  Se18  1  0.836584  0.546805  0.598619  1
  Se  Se19  1  0.663416  0.953195  0.098619  1
  Se  Se20  1  0.826805  0.750000  0.315317  1
  Se  Se21  1  0.673195  0.750000  0.815317  1
  Se  Se22  1  0.174024  0.250000  0.685826  1
  Se  Se23  1  0.325976  0.250000  0.185826  1
  Se  Se24  1  0.456814  0.750000  0.498743  1
  Se  Se25  1  0.043186  0.750000  0.998743  1
  Se  Se26  1  0.540894  0.250000  0.501087  1
  Se  Se27  1  0.959106  0.250000  0.001087  1
  Se  Se28  1  0.197794  0.750000  0.713532  1
  Se  Se29  1  0.302206  0.750000  0.213532  1
  Se  Se30  1  0.800748  0.250000  0.283896  1
  Se  Se31  1  0.699252  0.250000  0.783896  1
