# generated using pymatgen
data_HfZn5(InRh2)6
_symmetry_space_group_name_H-M   'P 1'
_cell_length_a   4.47995601
_cell_length_b   6.29380900
_cell_length_c   13.45660704
_cell_angle_alpha   90.00000000
_cell_angle_beta   90.00173382
_cell_angle_gamma   90.00000000
_symmetry_Int_Tables_number   1
_chemical_formula_structural   HfZn5(InRh2)6
_chemical_formula_sum   'Hf1 Zn5 In6 Rh12'
_cell_volume   379.42232271
_cell_formula_units_Z   1
loop_
 _symmetry_equiv_pos_site_id
 _symmetry_equiv_pos_as_xyz
  1  'x, y, z'
loop_
 _atom_site_type_symbol
 _atom_site_label
 _atom_site_symmetry_multiplicity
 _atom_site_fract_x
 _atom_site_fract_y
 _atom_site_fract_z
 _atom_site_occupancy
  Hf  Hf0  1  0.499965  0.000000  0.833299  1
  Zn  Zn1  1  0.000001  0.500000  0.002866  1
  Zn  Zn2  1  0.500036  0.000000  0.167836  1
  Zn  Zn3  1  0.000089  0.500000  0.333312  1
  Zn  Zn4  1  0.500001  0.000000  0.498842  1
  Zn  Zn5  1  0.999931  0.500000  0.663775  1
  In  In6  1  0.999998  0.000000  0.003213  1
  In  In7  1  0.500033  0.500000  0.170032  1
  In  In8  1  0.000056  0.000000  0.333406  1
  In  In9  1  0.500033  0.500000  0.496644  1
  In  In10  1  0.999884  0.000000  0.663451  1
  In  In11  1  0.499980  0.500000  0.833386  1
  Rh  Rh12  1  0.499999  0.252723  0.000159  1
  Rh  Rh13  1  0.499999  0.747277  0.000159  1
  Rh  Rh14  1  0.000027  0.250700  0.166583  1
  Rh  Rh15  1  0.000027  0.749301  0.166583  1
  Rh  Rh16  1  0.500067  0.247357  0.333337  1
  Rh  Rh17  1  0.500067  0.752643  0.333337  1
  Rh  Rh18  1  0.000016  0.250754  0.500083  1
  Rh  Rh19  1  0.000016  0.749246  0.500083  1
  Rh  Rh20  1  0.499921  0.252741  0.666482  1
  Rh  Rh21  1  0.499921  0.747259  0.666482  1
  Rh  Rh22  1  0.999971  0.252643  0.833324  1
  Rh  Rh23  1  0.999971  0.747358  0.833324  1
