# generated using pymatgen
data_Sr6NpNbO12
_symmetry_space_group_name_H-M   'P 1'
_cell_length_a   7.02319820
_cell_length_b   7.02319728
_cell_length_c   7.02319825
_cell_angle_alpha   92.07827460
_cell_angle_beta   92.07828933
_cell_angle_gamma   92.07828001
_symmetry_Int_Tables_number   1
_chemical_formula_structural   Sr6NpNbO12
_chemical_formula_sum   'Sr6 Np1 Nb1 O12'
_cell_volume   345.72078499
_cell_formula_units_Z   1
loop_
 _symmetry_equiv_pos_site_id
 _symmetry_equiv_pos_as_xyz
  1  'x, y, z'
loop_
 _atom_site_type_symbol
 _atom_site_label
 _atom_site_symmetry_multiplicity
 _atom_site_fract_x
 _atom_site_fract_y
 _atom_site_fract_z
 _atom_site_occupancy
  Sr  Sr0  1  0.071396  0.264373  0.557794  1
  Sr  Sr1  1  0.442206  0.928604  0.735627  1
  Sr  Sr2  1  0.735627  0.442206  0.928604  1
  Sr  Sr3  1  0.264373  0.557794  0.071396  1
  Sr  Sr4  1  0.557794  0.071396  0.264373  1
  Sr  Sr5  1  0.928604  0.735627  0.442206  1
  Np  Np6  1  0.000000  0.000000  0.000000  1
  Nb  Nb7  1  0.500000  0.500000  0.500000  1
  O  O8  1  0.061103  0.276541  0.939631  1
  O  O9  1  0.060369  0.938897  0.723459  1
  O  O10  1  0.453311  0.578764  0.777802  1
  O  O11  1  0.723459  0.060369  0.938897  1
  O  O12  1  0.222198  0.546689  0.421236  1
  O  O13  1  0.421236  0.222198  0.546689  1
  O  O14  1  0.578764  0.777802  0.453311  1
  O  O15  1  0.777802  0.453311  0.578764  1
  O  O16  1  0.276541  0.939631  0.061103  1
  O  O17  1  0.546689  0.421236  0.222198  1
  O  O18  1  0.939631  0.061103  0.276541  1
  O  O19  1  0.938897  0.723459  0.060369  1
