# generated using pymatgen
data_Ho3Lu5(InRu)2
_symmetry_space_group_name_H-M   'P 1'
_cell_length_a   9.49698948
_cell_length_b   9.49698933
_cell_length_c   9.49698900
_cell_angle_alpha   59.99999768
_cell_angle_beta   59.99999819
_cell_angle_gamma   59.99999627
_symmetry_Int_Tables_number   1
_chemical_formula_structural   Ho3Lu5(InRu)2
_chemical_formula_sum   'Ho6 Lu10 In4 Ru4'
_cell_volume   605.67942169
_cell_formula_units_Z   2
loop_
 _symmetry_equiv_pos_site_id
 _symmetry_equiv_pos_as_xyz
  1  'x, y, z'
loop_
 _atom_site_type_symbol
 _atom_site_label
 _atom_site_symmetry_multiplicity
 _atom_site_fract_x
 _atom_site_fract_y
 _atom_site_fract_z
 _atom_site_occupancy
  Ho  Ho0  1  0.191632  0.808368  0.808368  1
  Ho  Ho1  1  0.808368  0.191632  0.191632  1
  Ho  Ho2  1  0.808368  0.191632  0.808368  1
  Ho  Ho3  1  0.191632  0.808368  0.191632  1
  Ho  Ho4  1  0.808368  0.808368  0.191632  1
  Ho  Ho5  1  0.191632  0.191632  0.808368  1
  Lu  Lu6  1  0.598428  0.598428  0.598428  1
  Lu  Lu7  1  0.598428  0.598428  0.204715  1
  Lu  Lu8  1  0.598428  0.204715  0.598428  1
  Lu  Lu9  1  0.204715  0.598428  0.598428  1
  Lu  Lu10  1  0.060118  0.439882  0.439882  1
  Lu  Lu11  1  0.439882  0.060118  0.060118  1
  Lu  Lu12  1  0.439882  0.060118  0.439882  1
  Lu  Lu13  1  0.060118  0.439882  0.060118  1
  Lu  Lu14  1  0.439882  0.439882  0.060118  1
  Lu  Lu15  1  0.060118  0.060118  0.439882  1
  In  In16  1  0.832390  0.832390  0.832390  1
  In  In17  1  0.832390  0.832390  0.502830  1
  In  In18  1  0.832390  0.502830  0.832390  1
  In  In19  1  0.502830  0.832390  0.832390  1
  Ru  Ru20  1  0.390526  0.390526  0.390526  1
  Ru  Ru21  1  0.390526  0.390526  0.828422  1
  Ru  Ru22  1  0.390526  0.828422  0.390526  1
  Ru  Ru23  1  0.828422  0.390526  0.390526  1
