# generated using pymatgen
data_Nd2YSn6Ru
_symmetry_space_group_name_H-M   'P 1'
_cell_length_a   8.58924600
_cell_length_b   8.58924601
_cell_length_c   13.43255500
_cell_angle_alpha   90.00000000
_cell_angle_beta   90.00000000
_cell_angle_gamma   148.32679661
_symmetry_Int_Tables_number   1
_chemical_formula_structural   Nd2YSn6Ru
_chemical_formula_sum   'Nd4 Y2 Sn12 Ru2'
_cell_volume   520.34209218
_cell_formula_units_Z   2
loop_
 _symmetry_equiv_pos_site_id
 _symmetry_equiv_pos_as_xyz
  1  'x, y, z'
loop_
 _atom_site_type_symbol
 _atom_site_label
 _atom_site_symmetry_multiplicity
 _atom_site_fract_x
 _atom_site_fract_y
 _atom_site_fract_z
 _atom_site_occupancy
  Nd  Nd0  1  0.400182  0.599818  0.404565  1
  Nd  Nd1  1  0.599818  0.400182  0.595435  1
  Nd  Nd2  1  0.400182  0.599818  0.095435  1
  Nd  Nd3  1  0.599818  0.400182  0.904565  1
  Y  Y4  1  0.602825  0.397175  0.250000  1
  Y  Y5  1  0.397175  0.602825  0.750000  1
  Sn  Sn6  1  0.925753  0.074247  0.922509  1
  Sn  Sn7  1  0.074247  0.925753  0.077491  1
  Sn  Sn8  1  0.925753  0.074247  0.577491  1
  Sn  Sn9  1  0.074247  0.925753  0.422509  1
  Sn  Sn10  1  0.960406  0.039594  0.250000  1
  Sn  Sn11  1  0.039594  0.960406  0.750000  1
  Sn  Sn12  1  0.744494  0.255507  0.432650  1
  Sn  Sn13  1  0.255507  0.744493  0.567350  1
  Sn  Sn14  1  0.744494  0.255507  0.067350  1
  Sn  Sn15  1  0.255507  0.744493  0.932650  1
  Sn  Sn16  1  0.230892  0.769108  0.250000  1
  Sn  Sn17  1  0.769108  0.230892  0.750000  1
  Ru  Ru18  1  0.800374  0.199626  0.250000  1
  Ru  Ru19  1  0.199626  0.800374  0.750000  1
