# generated using pymatgen
data_Nd6Ho10Cd4OsPd3
_symmetry_space_group_name_H-M   'P 1'
_cell_length_a   9.79347265
_cell_length_b   9.79347209
_cell_length_c   9.79347273
_cell_angle_alpha   59.57546172
_cell_angle_beta   59.57546079
_cell_angle_gamma   59.57546036
_symmetry_Int_Tables_number   1
_chemical_formula_structural   Nd6Ho10Cd4OsPd3
_chemical_formula_sum   'Nd6 Ho10 Cd4 Os1 Pd3'
_cell_volume   657.78431484
_cell_formula_units_Z   1
loop_
 _symmetry_equiv_pos_site_id
 _symmetry_equiv_pos_as_xyz
  1  'x, y, z'
loop_
 _atom_site_type_symbol
 _atom_site_label
 _atom_site_symmetry_multiplicity
 _atom_site_fract_x
 _atom_site_fract_y
 _atom_site_fract_z
 _atom_site_occupancy
  Nd  Nd0  1  0.937321  0.562836  0.562836  1
  Nd  Nd1  1  0.555524  0.940408  0.940408  1
  Nd  Nd2  1  0.562836  0.937321  0.562836  1
  Nd  Nd3  1  0.940408  0.555524  0.940408  1
  Nd  Nd4  1  0.562836  0.562836  0.937321  1
  Nd  Nd5  1  0.940408  0.940408  0.555524  1
  Ho  Ho6  1  0.352877  0.352877  0.352877  1
  Ho  Ho7  1  0.348004  0.348004  0.950903  1
  Ho  Ho8  1  0.348004  0.950903  0.348004  1
  Ho  Ho9  1  0.950903  0.348004  0.348004  1
  Ho  Ho10  1  0.819091  0.186236  0.186236  1
  Ho  Ho11  1  0.183542  0.812586  0.812586  1
  Ho  Ho12  1  0.186236  0.819091  0.186236  1
  Ho  Ho13  1  0.812586  0.183542  0.812586  1
  Ho  Ho14  1  0.186236  0.186236  0.819091  1
  Ho  Ho15  1  0.812586  0.812586  0.183542  1
  Cd  Cd16  1  0.578849  0.578849  0.578849  1
  Cd  Cd17  1  0.579597  0.579597  0.259523  1
  Cd  Cd18  1  0.579597  0.259523  0.579597  1
  Cd  Cd19  1  0.259523  0.579597  0.579597  1
  Os  Os20  1  0.143472  0.143472  0.143472  1
  Pd  Pd21  1  0.144313  0.144313  0.570938  1
  Pd  Pd22  1  0.144313  0.570938  0.144313  1
  Pd  Pd23  1  0.570938  0.144313  0.144313  1
