# generated using pymatgen
data_U4MnBeAs5Ru6
_symmetry_space_group_name_H-M   'P 1'
_cell_length_a   7.19572432
_cell_length_b   7.19572331
_cell_length_c   7.19572400
_cell_angle_alpha   109.38967941
_cell_angle_beta   109.51467192
_cell_angle_gamma   109.50934078
_symmetry_Int_Tables_number   1
_chemical_formula_structural   U4MnBeAs5Ru6
_chemical_formula_sum   'U4 Mn1 Be1 As5 Ru6'
_cell_volume   286.81437968
_cell_formula_units_Z   1
loop_
 _symmetry_equiv_pos_site_id
 _symmetry_equiv_pos_as_xyz
  1  'x, y, z'
loop_
 _atom_site_type_symbol
 _atom_site_label
 _atom_site_symmetry_multiplicity
 _atom_site_fract_x
 _atom_site_fract_y
 _atom_site_fract_z
 _atom_site_occupancy
  U  U0  1  0.006278  0.996349  0.496343  1
  U  U1  1  0.499994  0.003651  0.009929  1
  U  U2  1  0.006278  0.509935  0.009929  1
  U  U3  1  0.499994  0.490065  0.496343  1
  Mn  Mn4  1  0.749034  0.500000  0.249034  1
  Be  Be5  1  0.319353  0.000000  0.319353  1
  As  As6  1  0.998770  0.308159  0.306930  1
  As  As7  1  0.998770  0.691841  0.690612  1
  As  As8  1  0.314621  0.310074  0.004547  1
  As  As9  1  0.694475  0.689926  0.004547  1
  As  As10  1  0.686228  0.000000  0.686228  1
  Ru  Ru11  1  0.493966  0.754325  0.248292  1
  Ru  Ru12  1  0.493966  0.245675  0.739641  1
  Ru  Ru13  1  0.739981  0.246652  0.493329  1
  Ru  Ru14  1  0.246678  0.753348  0.493329  1
  Ru  Ru15  1  0.247531  0.500000  0.747531  1
  Ru  Ru16  1  0.004083  0.000000  0.004083  1
