# generated using pymatgen
data_Ca4Hf3ZrH20
_symmetry_space_group_name_H-M   'P 1'
_cell_length_a   3.43009600
_cell_length_b   5.16167414
_cell_length_c   14.07430641
_cell_angle_alpha   90.02699716
_cell_angle_beta   89.99423201
_cell_angle_gamma   90.00054545
_symmetry_Int_Tables_number   1
_chemical_formula_structural   Ca4Hf3ZrH20
_chemical_formula_sum   'Ca4 Hf3 Zr1 H20'
_cell_volume   249.18609881
_cell_formula_units_Z   1
loop_
 _symmetry_equiv_pos_site_id
 _symmetry_equiv_pos_as_xyz
  1  'x, y, z'
loop_
 _atom_site_type_symbol
 _atom_site_label
 _atom_site_symmetry_multiplicity
 _atom_site_fract_x
 _atom_site_fract_y
 _atom_site_fract_z
 _atom_site_occupancy
  Ca  Ca0  1  0.733280  0.502567  0.814348  1
  Ca  Ca1  1  0.233068  0.997442  0.185360  1
  Ca  Ca2  1  0.766822  0.497579  0.314178  1
  Ca  Ca3  1  0.266818  0.002439  0.686262  1
  Hf  Hf4  1  0.226999  0.001798  0.933868  1
  Hf  Hf5  1  0.727004  0.498216  0.066258  1
  Hf  Hf6  1  0.273164  0.998801  0.432748  1
  Zr  Zr7  1  0.773168  0.501151  0.566102  1
  H  H8  1  0.723630  0.754667  0.951224  1
  H  H9  1  0.223633  0.745078  0.048924  1
  H  H10  1  0.776262  0.240997  0.449675  1
  H  H11  1  0.276280  0.249076  0.548500  1
  H  H12  1  0.231013  0.761590  0.825229  1
  H  H13  1  0.730935  0.738647  0.175065  1
  H  H14  1  0.269038  0.239238  0.324335  1
  H  H15  1  0.768818  0.259044  0.677231  1
  H  H16  1  0.730958  0.256381  0.174529  1
  H  H17  1  0.231038  0.243401  0.825784  1
  H  H18  1  0.768783  0.745877  0.676598  1
  H  H19  1  0.269002  0.755889  0.324950  1
  H  H20  1  0.726685  0.002000  0.844044  1
  H  H21  1  0.226715  0.498005  0.156288  1
  H  H22  1  0.773443  0.998077  0.342984  1
  H  H23  1  0.273588  0.501958  0.657210  1
  H  H24  1  0.223659  0.252696  0.049232  1
  H  H25  1  0.723654  0.247575  0.950906  1
  H  H26  1  0.276285  0.752747  0.548843  1
  H  H27  1  0.776259  0.757062  0.449326  1
