# generated using pymatgen
data_CaBe(AlCu2)4
_symmetry_space_group_name_H-M   'P 1'
_cell_length_a   8.27717610
_cell_length_b   8.27717553
_cell_length_c   8.27717600
_cell_angle_alpha   119.81920475
_cell_angle_beta   119.81919450
_cell_angle_gamma   90.31344728
_symmetry_Int_Tables_number   1
_chemical_formula_structural   CaBe(AlCu2)4
_chemical_formula_sum   'Ca2 Be2 Al8 Cu16'
_cell_volume   402.07744583
_cell_formula_units_Z   2
loop_
 _symmetry_equiv_pos_site_id
 _symmetry_equiv_pos_as_xyz
  1  'x, y, z'
loop_
 _atom_site_type_symbol
 _atom_site_label
 _atom_site_symmetry_multiplicity
 _atom_site_fract_x
 _atom_site_fract_y
 _atom_site_fract_z
 _atom_site_occupancy
  Ca  Ca0  1  0.250000  0.250000  0.000000  1
  Ca  Ca1  1  0.750000  0.750000  0.000000  1
  Be  Be2  1  0.500000  0.000000  0.500000  1
  Be  Be3  1  0.000000  0.500000  0.500000  1
  Al  Al4  1  0.805595  0.305595  0.867680  1
  Al  Al5  1  0.562085  0.062085  0.867680  1
  Al  Al6  1  0.062085  0.194405  0.500000  1
  Al  Al7  1  0.305595  0.437915  0.500000  1
  Al  Al8  1  0.937915  0.805595  0.500000  1
  Al  Al9  1  0.437915  0.937915  0.132320  1
  Al  Al10  1  0.194405  0.694405  0.132320  1
  Al  Al11  1  0.694405  0.562085  0.500000  1
  Cu  Cu12  1  0.943521  0.210091  0.153611  1
  Cu  Cu13  1  0.210091  0.056479  0.266569  1
  Cu  Cu14  1  0.789909  0.943521  0.733431  1
  Cu  Cu15  1  0.443521  0.289909  0.733431  1
  Cu  Cu16  1  0.056479  0.789909  0.846389  1
  Cu  Cu17  1  0.784911  0.063807  0.500000  1
  Cu  Cu18  1  0.563807  0.284911  0.500000  1
  Cu  Cu19  1  0.215089  0.936193  0.500000  1
  Cu  Cu20  1  0.436193  0.715089  0.500000  1
  Cu  Cu21  1  0.936193  0.436193  0.721103  1
  Cu  Cu22  1  0.715089  0.215089  0.278897  1
  Cu  Cu23  1  0.063807  0.563807  0.278897  1
  Cu  Cu24  1  0.710091  0.443521  0.153611  1
  Cu  Cu25  1  0.556479  0.710091  0.266569  1
  Cu  Cu26  1  0.284911  0.784911  0.721103  1
  Cu  Cu27  1  0.289909  0.556479  0.846389  1
