# generated using pymatgen
data_Tb2Co3Si(P2Ru3)3
_symmetry_space_group_name_H-M   'P 1'
_cell_length_a   9.35398300
_cell_length_b   9.35398333
_cell_length_c   3.83341100
_cell_angle_alpha   90.00000000
_cell_angle_beta   90.00000000
_cell_angle_gamma   120.00000236
_symmetry_Int_Tables_number   1
_chemical_formula_structural   Tb2Co3Si(P2Ru3)3
_chemical_formula_sum   'Tb2 Co3 Si1 P6 Ru9'
_cell_volume   290.47527672
_cell_formula_units_Z   1
loop_
 _symmetry_equiv_pos_site_id
 _symmetry_equiv_pos_as_xyz
  1  'x, y, z'
loop_
 _atom_site_type_symbol
 _atom_site_label
 _atom_site_symmetry_multiplicity
 _atom_site_fract_x
 _atom_site_fract_y
 _atom_site_fract_z
 _atom_site_occupancy
  Tb  Tb0  1  0.000000  0.000000  0.000000  1
  Tb  Tb1  1  0.333333  0.666667  0.500000  1
  Co  Co2  1  0.828277  0.609867  0.000000  1
  Co  Co3  1  0.390133  0.218410  0.000000  1
  Co  Co4  1  0.781590  0.171723  0.000000  1
  Si  Si5  1  0.666667  0.333333  0.000000  1
  P  P6  1  0.780954  0.729979  0.500000  1
  P  P7  1  0.270021  0.050976  0.500000  1
  P  P8  1  0.949024  0.219046  0.500000  1
  P  P9  1  0.077781  0.636515  0.000000  1
  P  P10  1  0.363485  0.441266  0.000000  1
  P  P11  1  0.558734  0.922219  0.000000  1
  Ru  Ru12  1  0.090584  0.395540  0.000000  1
  Ru  Ru13  1  0.604460  0.695044  0.000000  1
  Ru  Ru14  1  0.304956  0.909416  0.000000  1
  Ru  Ru15  1  0.051942  0.771450  0.500000  1
  Ru  Ru16  1  0.228550  0.280491  0.500000  1
  Ru  Ru17  1  0.719509  0.948058  0.500000  1
  Ru  Ru18  1  0.872201  0.420922  0.500000  1
  Ru  Ru19  1  0.579078  0.451278  0.500000  1
  Ru  Ru20  1  0.548722  0.127799  0.500000  1
