# generated using pymatgen
data_Nd7Ho(Sc3Pb4)4
_symmetry_space_group_name_H-M   'P 1'
_cell_length_a   8.00176293
_cell_length_b   15.25164737
_cell_length_c   8.12434509
_cell_angle_alpha   89.96466080
_cell_angle_beta   90.26644793
_cell_angle_gamma   90.12885093
_symmetry_Int_Tables_number   1
_chemical_formula_structural   Nd7Ho(Sc3Pb4)4
_chemical_formula_sum   'Nd7 Ho1 Sc12 Pb16'
_cell_volume   991.48220426
_cell_formula_units_Z   1
loop_
 _symmetry_equiv_pos_site_id
 _symmetry_equiv_pos_as_xyz
  1  'x, y, z'
loop_
 _atom_site_type_symbol
 _atom_site_label
 _atom_site_symmetry_multiplicity
 _atom_site_fract_x
 _atom_site_fract_y
 _atom_site_fract_z
 _atom_site_occupancy
  Nd  Nd0  1  0.479398  0.595241  0.677502  1
  Nd  Nd1  1  0.980834  0.905578  0.824462  1
  Nd  Nd2  1  0.520662  0.094928  0.323675  1
  Nd  Nd3  1  0.021345  0.405729  0.174800  1
  Nd  Nd4  1  0.520363  0.406052  0.322615  1
  Nd  Nd5  1  0.020119  0.094921  0.175874  1
  Nd  Nd6  1  0.478547  0.903299  0.677061  1
  Ho  Ho7  1  0.975285  0.595950  0.823738  1
  Sc  Sc8  1  0.640889  0.624665  0.155268  1
  Sc  Sc9  1  0.141239  0.873029  0.344606  1
  Sc  Sc10  1  0.358093  0.125227  0.843084  1
  Sc  Sc11  1  0.859523  0.374947  0.657886  1
  Sc  Sc12  1  0.360356  0.375632  0.843732  1
  Sc  Sc13  1  0.858409  0.125678  0.656471  1
  Sc  Sc14  1  0.642614  0.874215  0.156488  1
  Sc  Sc15  1  0.141603  0.625845  0.343166  1
  Sc  Sc16  1  0.809303  0.749329  0.492735  1
  Sc  Sc17  1  0.307980  0.749052  0.005751  1
  Sc  Sc18  1  0.191194  0.250286  0.507505  1
  Sc  Sc19  1  0.691969  0.250622  0.993204  1
  Pb  Pb20  1  0.698858  0.457025  0.951147  1
  Pb  Pb21  1  0.194401  0.044441  0.546385  1
  Pb  Pb22  1  0.306658  0.954702  0.048692  1
  Pb  Pb23  1  0.807568  0.545559  0.456490  1
  Pb  Pb24  1  0.299331  0.545816  0.043078  1
  Pb  Pb25  1  0.805731  0.954716  0.453878  1
  Pb  Pb26  1  0.693650  0.044971  0.952623  1
  Pb  Pb27  1  0.193389  0.455747  0.547044  1
  Pb  Pb28  1  0.448530  0.749361  0.363609  1
  Pb  Pb29  1  0.948087  0.749648  0.134004  1
  Pb  Pb30  1  0.551803  0.250447  0.636085  1
  Pb  Pb31  1  0.052719  0.249827  0.864968  1
  Pb  Pb32  1  0.670761  0.749147  0.850880  1
  Pb  Pb33  1  0.164452  0.747439  0.651780  1
  Pb  Pb34  1  0.332364  0.250323  0.148540  1
  Pb  Pb35  1  0.831973  0.250606  0.351173  1
