# generated using pymatgen
data_Dy7Er13(Bi2Rh)4
_symmetry_space_group_name_H-M   'P 1'
_cell_length_a   7.96696302
_cell_length_b   8.98428900
_cell_length_c   12.40073904
_cell_angle_alpha   90.00000000
_cell_angle_beta   89.99113901
_cell_angle_gamma   90.00000000
_symmetry_Int_Tables_number   1
_chemical_formula_structural   Dy7Er13(Bi2Rh)4
_chemical_formula_sum   'Dy7 Er13 Bi8 Rh4'
_cell_volume   887.61386621
_cell_formula_units_Z   1
loop_
 _symmetry_equiv_pos_site_id
 _symmetry_equiv_pos_as_xyz
  1  'x, y, z'
loop_
 _atom_site_type_symbol
 _atom_site_label
 _atom_site_symmetry_multiplicity
 _atom_site_fract_x
 _atom_site_fract_y
 _atom_site_fract_z
 _atom_site_occupancy
  Dy  Dy0  1  0.662930  0.750000  0.707561  1
  Dy  Dy1  1  0.337048  0.250000  0.292475  1
  Dy  Dy2  1  0.162915  0.250000  0.792464  1
  Dy  Dy3  1  0.836953  0.750000  0.207581  1
  Dy  Dy4  1  0.125835  0.750000  0.808715  1
  Dy  Dy5  1  0.874175  0.250000  0.191203  1
  Dy  Dy6  1  0.625826  0.250000  0.691240  1
  Er  Er7  1  0.374604  0.750000  0.309155  1
  Er  Er8  1  0.548668  0.750000  0.998655  1
  Er  Er9  1  0.451318  0.250000  0.001446  1
  Er  Er10  1  0.048708  0.250000  0.501384  1
  Er  Er11  1  0.951302  0.750000  0.498568  1
  Er  Er12  1  0.824387  0.456240  0.933436  1
  Er  Er13  1  0.175716  0.543761  0.066608  1
  Er  Er14  1  0.324373  0.543909  0.566399  1
  Er  Er15  1  0.175716  0.956239  0.066608  1
  Er  Er16  1  0.675535  0.456652  0.433453  1
  Er  Er17  1  0.824387  0.043760  0.933436  1
  Er  Er18  1  0.675535  0.043348  0.433453  1
  Er  Er19  1  0.324373  0.956091  0.566399  1
  Bi  Bi20  1  0.934212  0.008749  0.673089  1
  Bi  Bi21  1  0.066037  0.991122  0.326913  1
  Bi  Bi22  1  0.434209  0.991251  0.826910  1
  Bi  Bi23  1  0.066037  0.508878  0.326913  1
  Bi  Bi24  1  0.565614  0.008548  0.173156  1
  Bi  Bi25  1  0.934212  0.491251  0.673089  1
  Bi  Bi26  1  0.565614  0.491452  0.173156  1
  Bi  Bi27  1  0.434209  0.508749  0.826910  1
  Rh  Rh28  1  0.924803  0.750000  0.990124  1
  Rh  Rh29  1  0.075149  0.250000  0.009986  1
  Rh  Rh30  1  0.424769  0.250000  0.509807  1
  Rh  Rh31  1  0.574828  0.750000  0.489708  1
