# generated using pymatgen
data_GaBi6(PtO9)2
_symmetry_space_group_name_H-M   'P 1'
_cell_length_a   9.20037500
_cell_length_b   9.20037940
_cell_length_c   5.11669000
_cell_angle_alpha   90.00001246
_cell_angle_beta   90.00000000
_cell_angle_gamma   119.99996620
_symmetry_Int_Tables_number   1
_chemical_formula_structural   GaBi6(PtO9)2
_chemical_formula_sum   'Ga1 Bi6 Pt2 O18'
_cell_volume   375.08625640
_cell_formula_units_Z   1
loop_
 _symmetry_equiv_pos_site_id
 _symmetry_equiv_pos_as_xyz
  1  'x, y, z'
loop_
 _atom_site_type_symbol
 _atom_site_label
 _atom_site_symmetry_multiplicity
 _atom_site_fract_x
 _atom_site_fract_y
 _atom_site_fract_z
 _atom_site_occupancy
  Ga  Ga0  1  0.000000  0.000000  0.499791  1
  Bi  Bi1  1  0.000011  0.367038  0.499904  1
  Bi  Bi2  1  0.288330  0.288322  0.999787  1
  Bi  Bi3  1  0.999992  0.711670  0.999787  1
  Bi  Bi4  1  0.632962  0.632974  0.499904  1
  Bi  Bi5  1  0.367026  0.999989  0.499904  1
  Bi  Bi6  1  0.711677  0.000009  0.999787  1
  Pt  Pt7  1  0.333333  0.666667  0.000026  1
  Pt  Pt8  1  0.666667  0.333333  0.000128  1
  O  O9  1  0.087126  0.205621  0.720285  1
  O  O10  1  0.227885  0.457547  0.220635  1
  O  O11  1  0.130333  0.595238  0.781490  1
  O  O12  1  0.404762  0.535093  0.781489  1
  O  O13  1  0.229662  0.772115  0.220635  1
  O  O14  1  0.118494  0.912873  0.720285  1
  O  O15  1  0.542453  0.770338  0.220636  1
  O  O16  1  0.205724  0.087428  0.279906  1
  O  O17  1  0.464907  0.869667  0.781490  1
  O  O18  1  0.794380  0.881506  0.720285  1
  O  O19  1  0.457587  0.227748  0.779573  1
  O  O20  1  0.595279  0.130320  0.218438  1
  O  O21  1  0.535041  0.404721  0.218439  1
  O  O22  1  0.772252  0.229838  0.779573  1
  O  O23  1  0.912572  0.118296  0.279906  1
  O  O24  1  0.770162  0.542412  0.779573  1
  O  O25  1  0.869680  0.464959  0.218437  1
  O  O26  1  0.881704  0.794277  0.279906  1
