# generated using pymatgen
data_Tb2Th2OsI6
_symmetry_space_group_name_H-M   'P 1'
_cell_length_a   4.28471700
_cell_length_b   14.21395300
_cell_length_c   14.99939600
_cell_angle_alpha   90.00000000
_cell_angle_beta   90.00000000
_cell_angle_gamma   90.00000000
_symmetry_Int_Tables_number   1
_chemical_formula_structural   Tb2Th2OsI6
_chemical_formula_sum   'Tb4 Th4 Os2 I12'
_cell_volume   913.50470557
_cell_formula_units_Z   2
loop_
 _symmetry_equiv_pos_site_id
 _symmetry_equiv_pos_as_xyz
  1  'x, y, z'
loop_
 _atom_site_type_symbol
 _atom_site_label
 _atom_site_symmetry_multiplicity
 _atom_site_fract_x
 _atom_site_fract_y
 _atom_site_fract_z
 _atom_site_occupancy
  Tb  Tb0  1  0.500000  0.114953  0.346218  1
  Tb  Tb1  1  0.500000  0.885047  0.653782  1
  Tb  Tb2  1  0.500000  0.614953  0.153782  1
  Tb  Tb3  1  0.500000  0.385047  0.846218  1
  Th  Th4  1  0.000000  0.105169  0.570744  1
  Th  Th5  1  0.000000  0.894831  0.429256  1
  Th  Th6  1  0.000000  0.605169  0.929256  1
  Th  Th7  1  0.000000  0.394831  0.070744  1
  Os  Os8  1  0.500000  0.000000  0.500000  1
  Os  Os9  1  0.500000  0.500000  0.000000  1
  I  I10  1  0.500000  0.241431  0.165674  1
  I  I11  1  0.500000  0.758569  0.834326  1
  I  I12  1  0.500000  0.741431  0.334326  1
  I  I13  1  0.500000  0.258569  0.665674  1
  I  I14  1  0.000000  0.262273  0.410401  1
  I  I15  1  0.000000  0.737727  0.589599  1
  I  I16  1  0.000000  0.762273  0.089599  1
  I  I17  1  0.000000  0.237727  0.910401  1
  I  I18  1  0.000000  0.002542  0.235599  1
  I  I19  1  0.000000  0.997458  0.764401  1
  I  I20  1  0.000000  0.502542  0.264401  1
  I  I21  1  0.000000  0.497458  0.735599  1
