# generated using pymatgen
data_Cr4Sn3B4PbO16
_symmetry_space_group_name_H-M   'P 1'
_cell_length_a   7.34449890
_cell_length_b   6.02603800
_cell_length_c   8.00964104
_cell_angle_alpha   90.00000000
_cell_angle_beta   89.85069350
_cell_angle_gamma   90.00000000
_symmetry_Int_Tables_number   1
_chemical_formula_structural   Cr4Sn3B4PbO16
_chemical_formula_sum   'Cr4 Sn3 B4 Pb1 O16'
_cell_volume   354.49132747
_cell_formula_units_Z   1
loop_
 _symmetry_equiv_pos_site_id
 _symmetry_equiv_pos_as_xyz
  1  'x, y, z'
loop_
 _atom_site_type_symbol
 _atom_site_label
 _atom_site_symmetry_multiplicity
 _atom_site_fract_x
 _atom_site_fract_y
 _atom_site_fract_z
 _atom_site_occupancy
  Cr  Cr0  1  0.999683  0.999853  0.999091  1
  Cr  Cr1  1  0.498118  0.999990  0.500931  1
  Cr  Cr2  1  0.498118  0.500010  0.500931  1
  Cr  Cr3  1  0.999683  0.500147  0.999091  1
  Sn  Sn4  1  0.095633  0.249999  0.356419  1
  Sn  Sn5  1  0.411258  0.749999  0.859991  1
  Sn  Sn6  1  0.595388  0.249999  0.140853  1
  B  B7  1  0.777822  0.249999  0.731606  1
  B  B8  1  0.720395  0.749999  0.229070  1
  B  B9  1  0.277795  0.249999  0.771061  1
  B  B10  1  0.220486  0.749999  0.270112  1
  Pb  Pb11  1  0.918701  0.749999  0.627180  1
  O  O12  1  0.162301  0.949647  0.201624  1
  O  O13  1  0.334383  0.050084  0.701531  1
  O  O14  1  0.663642  0.550599  0.299887  1
  O  O15  1  0.835447  0.448807  0.800524  1
  O  O16  1  0.835447  0.051193  0.800524  1
  O  O17  1  0.663642  0.949402  0.299887  1
  O  O18  1  0.334383  0.449916  0.701531  1
  O  O19  1  0.162301  0.550354  0.201624  1
  O  O20  1  0.105702  0.749999  0.872026  1
  O  O21  1  0.400106  0.249999  0.367266  1
  O  O22  1  0.593767  0.749999  0.630809  1
  O  O23  1  0.901258  0.249999  0.132686  1
  O  O24  1  0.834374  0.749999  0.090994  1
  O  O25  1  0.663994  0.249999  0.592265  1
  O  O26  1  0.331010  0.749999  0.410197  1
  O  O27  1  0.165163  0.249999  0.910290  1
