# generated using pymatgen
data_PrY3(ZnPb)4
_symmetry_space_group_name_H-M   'P 1'
_cell_length_a   4.63111200
_cell_length_b   4.63111231
_cell_length_c   16.25315700
_cell_angle_alpha   90.00000000
_cell_angle_beta   90.00000000
_cell_angle_gamma   119.99999777
_symmetry_Int_Tables_number   1
_chemical_formula_structural   PrY3(ZnPb)4
_chemical_formula_sum   'Pr1 Y3 Zn4 Pb4'
_cell_volume   301.88321718
_cell_formula_units_Z   1
loop_
 _symmetry_equiv_pos_site_id
 _symmetry_equiv_pos_as_xyz
  1  'x, y, z'
loop_
 _atom_site_type_symbol
 _atom_site_label
 _atom_site_symmetry_multiplicity
 _atom_site_fract_x
 _atom_site_fract_y
 _atom_site_fract_z
 _atom_site_occupancy
  Pr  Pr0  1  0.000000  0.000000  0.000000  1
  Y  Y1  1  0.000000  0.000000  0.252875  1
  Y  Y2  1  0.000000  0.000000  0.500000  1
  Y  Y3  1  0.000000  0.000000  0.747125  1
  Zn  Zn4  1  0.666668  0.333335  0.166688  1
  Zn  Zn5  1  0.666668  0.333335  0.335494  1
  Zn  Zn6  1  0.333333  0.666667  0.664506  1
  Zn  Zn7  1  0.333333  0.666667  0.833312  1
  Pb  Pb8  1  0.333333  0.666667  0.116035  1
  Pb  Pb9  1  0.333333  0.666667  0.390625  1
  Pb  Pb10  1  0.666668  0.333335  0.609375  1
  Pb  Pb11  1  0.666668  0.333335  0.883965  1
