# generated using pymatgen
data_Tb4FeCo3Te2
_symmetry_space_group_name_H-M   'P 1'
_cell_length_a   4.02115400
_cell_length_b   4.02115392
_cell_length_c   16.06750000
_cell_angle_alpha   90.00000000
_cell_angle_beta   90.00000000
_cell_angle_gamma   119.99998422
_symmetry_Int_Tables_number   1
_chemical_formula_structural   Tb4FeCo3Te2
_chemical_formula_sum   'Tb4 Fe1 Co3 Te2'
_cell_volume   224.99890895
_cell_formula_units_Z   1
loop_
 _symmetry_equiv_pos_site_id
 _symmetry_equiv_pos_as_xyz
  1  'x, y, z'
loop_
 _atom_site_type_symbol
 _atom_site_label
 _atom_site_symmetry_multiplicity
 _atom_site_fract_x
 _atom_site_fract_y
 _atom_site_fract_z
 _atom_site_occupancy
  Tb  Tb0  1  0.000000  0.000000  0.116305  1
  Tb  Tb1  1  0.000000  0.000000  0.612425  1
  Tb  Tb2  1  0.000000  0.000000  0.387707  1
  Tb  Tb3  1  0.000000  0.000000  0.883483  1
  Fe  Fe4  1  0.666667  0.333333  0.997724  1
  Co  Co5  1  0.333333  0.666667  0.002772  1
  Co  Co6  1  0.666667  0.333333  0.501608  1
  Co  Co7  1  0.333333  0.666667  0.498156  1
  Te  Te8  1  0.666667  0.333333  0.251202  1
  Te  Te9  1  0.333333  0.666667  0.748618  1
