# generated using pymatgen
data_Cd3Cu(BrO3)8
_symmetry_space_group_name_H-M   'P 1'
_cell_length_a   5.98185283
_cell_length_b   10.79315974
_cell_length_c   10.91749800
_cell_angle_alpha   119.34025715
_cell_angle_beta   89.67567817
_cell_angle_gamma   90.59971267
_symmetry_Int_Tables_number   1
_chemical_formula_structural   Cd3Cu(BrO3)8
_chemical_formula_sum   'Cd3 Cu1 Br8 O24'
_cell_volume   614.41694301
_cell_formula_units_Z   1
loop_
 _symmetry_equiv_pos_site_id
 _symmetry_equiv_pos_as_xyz
  1  'x, y, z'
loop_
 _atom_site_type_symbol
 _atom_site_label
 _atom_site_symmetry_multiplicity
 _atom_site_fract_x
 _atom_site_fract_y
 _atom_site_fract_z
 _atom_site_occupancy
  Cd  Cd0  1  0.637883  0.235709  0.490251  1
  Cd  Cd1  1  0.135862  0.269457  0.009612  1
  Cd  Cd2  1  0.629231  0.727406  0.992437  1
  Cu  Cu3  1  0.155320  0.765348  0.510610  1
  Br  Br4  1  0.260535  0.432627  0.360855  1
  Br  Br5  1  0.789096  0.596982  0.646193  1
  Br  Br6  1  0.282451  0.917930  0.852054  1
  Br  Br7  1  0.758049  0.081344  0.145404  1
  Br  Br8  1  0.809350  0.064516  0.674265  1
  Br  Br9  1  0.268199  0.900521  0.313133  1
  Br  Br10  1  0.283502  0.409831  0.796346  1
  Br  Br11  1  0.776739  0.584490  0.197038  1
  O  O12  1  0.416145  0.894374  0.975882  1
  O  O13  1  0.917145  0.100337  0.027938  1
  O  O14  1  0.405045  0.809756  0.698000  1
  O  O15  1  0.860023  0.203721  0.305349  1
  O  O16  1  0.372539  0.324179  0.201246  1
  O  O17  1  0.876220  0.706600  0.811593  1
  O  O18  1  0.926956  0.212331  0.805413  1
  O  O19  1  0.400962  0.761303  0.182306  1
  O  O20  1  0.970863  0.925588  0.654872  1
  O  O21  1  0.404755  0.047774  0.336114  1
  O  O22  1  0.373853  0.082583  0.888242  1
  O  O23  1  0.846875  0.926283  0.130948  1
  O  O24  1  0.425885  0.265677  0.676806  1
  O  O25  1  0.910580  0.725813  0.323529  1
  O  O26  1  0.336877  0.415202  0.950639  1
  O  O27  1  0.839192  0.585055  0.044553  1
  O  O28  1  0.421177  0.553665  0.810156  1
  O  O29  1  0.914632  0.439481  0.179395  1
  O  O30  1  0.346623  0.598143  0.388801  1
  O  O31  1  0.869234  0.434400  0.616440  1
  O  O32  1  0.420379  0.407617  0.473124  1
  O  O33  1  0.970950  0.624200  0.539834  1
  O  O34  1  0.858077  0.080535  0.529994  1
  O  O35  1  0.338393  0.889232  0.460625  1
