# generated using pymatgen
data_Cs6DyTe4Cl
_symmetry_space_group_name_H-M   'P 1'
_cell_length_a   12.40293100
_cell_length_b   12.40293097
_cell_length_c   9.08501500
_cell_angle_alpha   90.00000000
_cell_angle_beta   90.00000000
_cell_angle_gamma   120.00000276
_symmetry_Int_Tables_number   1
_chemical_formula_structural   Cs6DyTe4Cl
_chemical_formula_sum   'Cs12 Dy2 Te8 Cl2'
_cell_volume   1210.33313334
_cell_formula_units_Z   2
loop_
 _symmetry_equiv_pos_site_id
 _symmetry_equiv_pos_as_xyz
  1  'x, y, z'
loop_
 _atom_site_type_symbol
 _atom_site_label
 _atom_site_symmetry_multiplicity
 _atom_site_fract_x
 _atom_site_fract_y
 _atom_site_fract_z
 _atom_site_occupancy
  Cs  Cs0  1  0.124587  0.875413  0.513317  1
  Cs  Cs1  1  0.750824  0.875413  0.513317  1
  Cs  Cs2  1  0.945171  0.472585  0.316335  1
  Cs  Cs3  1  0.527415  0.472585  0.316335  1
  Cs  Cs4  1  0.875413  0.750824  0.013317  1
  Cs  Cs5  1  0.249176  0.124587  0.013317  1
  Cs  Cs6  1  0.527415  0.054829  0.316335  1
  Cs  Cs7  1  0.124587  0.249176  0.513317  1
  Cs  Cs8  1  0.875413  0.124587  0.013317  1
  Cs  Cs9  1  0.054829  0.527415  0.816335  1
  Cs  Cs10  1  0.472585  0.945171  0.816335  1
  Cs  Cs11  1  0.472585  0.527415  0.816335  1
  Dy  Dy12  1  0.666667  0.333333  0.713889  1
  Dy  Dy13  1  0.333333  0.666667  0.213889  1
  Te  Te14  1  0.407336  0.203669  0.608377  1
  Te  Te15  1  0.592664  0.796331  0.108377  1
  Te  Te16  1  0.666667  0.333333  0.037379  1
  Te  Te17  1  0.796331  0.592664  0.608377  1
  Te  Te18  1  0.203669  0.407336  0.108377  1
  Te  Te19  1  0.333333  0.666667  0.537379  1
  Te  Te20  1  0.203669  0.796331  0.108377  1
  Te  Te21  1  0.796331  0.203669  0.608377  1
  Cl  Cl22  1  0.000000  0.000000  0.275247  1
  Cl  Cl23  1  0.000000  0.000000  0.775247  1
