# generated using pymatgen
data_Tm4ReB8Ru9
_symmetry_space_group_name_H-M   'P 1'
_cell_length_a   3.07819700
_cell_length_b   8.70198432
_cell_length_c   10.18066601
_cell_angle_alpha   90.12491837
_cell_angle_beta   90.00000000
_cell_angle_gamma   90.00000000
_symmetry_Int_Tables_number   1
_chemical_formula_structural   Tm4ReB8Ru9
_chemical_formula_sum   'Tm4 Re1 B8 Ru9'
_cell_volume   272.70296790
_cell_formula_units_Z   1
loop_
 _symmetry_equiv_pos_site_id
 _symmetry_equiv_pos_as_xyz
  1  'x, y, z'
loop_
 _atom_site_type_symbol
 _atom_site_label
 _atom_site_symmetry_multiplicity
 _atom_site_fract_x
 _atom_site_fract_y
 _atom_site_fract_z
 _atom_site_occupancy
  Tm  Tm0  1  0.500000  0.840692  0.181229  1
  Tm  Tm1  1  0.500000  0.158735  0.819232  1
  Tm  Tm2  1  0.500000  0.659164  0.682836  1
  Tm  Tm3  1  0.500000  0.340839  0.316519  1
  Re  Re4  1  0.000000  0.657234  0.954728  1
  B  B5  1  0.500000  0.965934  0.588408  1
  B  B6  1  0.500000  0.033735  0.411366  1
  B  B7  1  0.500000  0.848410  0.901811  1
  B  B8  1  0.500000  0.149923  0.098522  1
  B  B9  1  0.500000  0.645583  0.399585  1
  B  B10  1  0.500000  0.351757  0.601071  1
  B  B11  1  0.500000  0.471442  0.910385  1
  B  B12  1  0.500000  0.540406  0.086391  1
  Ru  Ru13  1  0.000000  0.339027  0.047129  1
  Ru  Ru14  1  0.000000  0.842361  0.454270  1
  Ru  Ru15  1  0.000000  0.157067  0.545615  1
  Ru  Ru16  1  0.000000  0.999751  0.000565  1
  Ru  Ru17  1  0.000000  0.405386  0.760236  1
  Ru  Ru18  1  0.000000  0.593868  0.240311  1
  Ru  Ru19  1  0.000000  0.498640  0.500379  1
  Ru  Ru20  1  0.000000  0.906974  0.738511  1
  Ru  Ru21  1  0.000000  0.093077  0.260899  1
