# generated using pymatgen
data_PrNd3Tc4F28
_symmetry_space_group_name_H-M   'P 1'
_cell_length_a   5.73181020
_cell_length_b   9.20189276
_cell_length_c   12.37817485
_cell_angle_alpha   62.11128066
_cell_angle_beta   90.01013870
_cell_angle_gamma   90.00527021
_symmetry_Int_Tables_number   1
_chemical_formula_structural   PrNd3Tc4F28
_chemical_formula_sum   'Pr1 Nd3 Tc4 F28'
_cell_volume   577.04269142
_cell_formula_units_Z   1
loop_
 _symmetry_equiv_pos_site_id
 _symmetry_equiv_pos_as_xyz
  1  'x, y, z'
loop_
 _atom_site_type_symbol
 _atom_site_label
 _atom_site_symmetry_multiplicity
 _atom_site_fract_x
 _atom_site_fract_y
 _atom_site_fract_z
 _atom_site_occupancy
  Pr  Pr0  1  0.741093  0.811186  0.264624  1
  Nd  Nd1  1  0.758963  0.811286  0.764673  1
  Nd  Nd2  1  0.259162  0.188911  0.735489  1
  Nd  Nd3  1  0.240655  0.189309  0.235458  1
  Tc  Tc4  1  0.756767  0.274005  0.957241  1
  Tc  Tc5  1  0.256471  0.726802  0.543292  1
  Tc  Tc6  1  0.244137  0.726668  0.041222  1
  Tc  Tc7  1  0.743527  0.271983  0.458280  1
  F  F8  1  0.443555  0.708774  0.919362  1
  F  F9  1  0.944679  0.290569  0.579384  1
  F  F10  1  0.554980  0.291062  0.078774  1
  F  F11  1  0.057087  0.708931  0.421316  1
  F  F12  1  0.460208  0.280964  0.545311  1
  F  F13  1  0.959345  0.718374  0.954936  1
  F  F14  1  0.540160  0.717982  0.456765  1
  F  F15  1  0.039792  0.281985  0.044902  1
  F  F16  1  0.767570  0.514767  0.861771  1
  F  F17  1  0.266909  0.485835  0.638728  1
  F  F18  1  0.233050  0.485776  0.136965  1
  F  F19  1  0.732006  0.512616  0.362821  1
  F  F20  1  0.760129  0.033656  0.051231  1
  F  F21  1  0.259877  0.967153  0.448124  1
  F  F22  1  0.240957  0.967165  0.947619  1
  F  F23  1  0.740598  0.031622  0.552351  1
  F  F24  1  0.980724  0.731129  0.635957  1
  F  F25  1  0.482297  0.269507  0.863733  1
  F  F26  1  0.018856  0.268841  0.364886  1
  F  F27  1  0.520416  0.730512  0.133584  1
  F  F28  1  0.049740  0.743261  0.166179  1
  F  F29  1  0.546206  0.255096  0.334059  1
  F  F30  1  0.954320  0.256959  0.833216  1
  F  F31  1  0.452305  0.744050  0.667702  1
  F  F32  1  0.407750  0.969332  0.229704  1
  F  F33  1  0.909971  0.033523  0.270133  1
  F  F34  1  0.588017  0.030790  0.769846  1
  F  F35  1  0.087725  0.969618  0.730364  1
