# generated using pymatgen
data_UNiS2
_symmetry_space_group_name_H-M   'P 1'
_cell_length_a   6.96800200
_cell_length_b   6.12932468
_cell_length_c   6.56466128
_cell_angle_alpha   82.73637760
_cell_angle_beta   90.00000000
_cell_angle_gamma   90.00000000
_symmetry_Int_Tables_number   1
_chemical_formula_structural   UNiS2
_chemical_formula_sum   'U4 Ni4 S8'
_cell_volume   278.12108036
_cell_formula_units_Z   4
loop_
 _symmetry_equiv_pos_site_id
 _symmetry_equiv_pos_as_xyz
  1  'x, y, z'
loop_
 _atom_site_type_symbol
 _atom_site_label
 _atom_site_symmetry_multiplicity
 _atom_site_fract_x
 _atom_site_fract_y
 _atom_site_fract_z
 _atom_site_occupancy
  U  U0  1  0.555294  0.697493  0.195170  1
  U  U1  1  0.055294  0.302507  0.304830  1
  U  U2  1  0.444706  0.302507  0.804830  1
  U  U3  1  0.944706  0.697493  0.695170  1
  Ni  Ni4  1  0.832395  0.055242  0.963447  1
  Ni  Ni5  1  0.167605  0.944758  0.036553  1
  Ni  Ni6  1  0.332395  0.944758  0.536553  1
  Ni  Ni7  1  0.667605  0.055242  0.463447  1
  S  S8  1  0.890016  0.901983  0.285440  1
  S  S9  1  0.390016  0.098017  0.214560  1
  S  S10  1  0.109984  0.098017  0.714560  1
  S  S11  1  0.609984  0.901983  0.785440  1
  S  S12  1  0.724217  0.407365  0.498721  1
  S  S13  1  0.775783  0.407365  0.998721  1
  S  S14  1  0.275783  0.592635  0.501279  1
  S  S15  1  0.224217  0.592635  0.001279  1
