# generated using pymatgen
data_Nd2Co12Si5P2
_symmetry_space_group_name_H-M   'P 1'
_cell_length_a   9.20350882
_cell_length_b   9.20359930
_cell_length_c   3.64514500
_cell_angle_alpha   90.00000000
_cell_angle_beta   90.00000000
_cell_angle_gamma   119.92761346
_symmetry_Int_Tables_number   1
_chemical_formula_structural   Nd2Co12Si5P2
_chemical_formula_sum   'Nd2 Co12 Si5 P2'
_cell_volume   267.59185759
_cell_formula_units_Z   1
loop_
 _symmetry_equiv_pos_site_id
 _symmetry_equiv_pos_as_xyz
  1  'x, y, z'
loop_
 _atom_site_type_symbol
 _atom_site_label
 _atom_site_symmetry_multiplicity
 _atom_site_fract_x
 _atom_site_fract_y
 _atom_site_fract_z
 _atom_site_occupancy
  Nd  Nd0  1  0.001273  0.002167  0.000000  1
  Nd  Nd1  1  0.334985  0.666356  0.500000  1
  Co  Co2  1  0.100447  0.386203  0.000000  1
  Co  Co3  1  0.610474  0.712983  0.000000  1
  Co  Co4  1  0.287078  0.899778  0.000000  1
  Co  Co5  1  0.050087  0.768616  0.500000  1
  Co  Co6  1  0.231062  0.277116  0.500000  1
  Co  Co7  1  0.722943  0.959929  0.500000  1
  Co  Co8  1  0.814146  0.608062  0.000000  1
  Co  Co9  1  0.387069  0.201341  0.000000  1
  Co  Co10  1  0.796712  0.188482  0.000000  1
  Co  Co11  1  0.903063  0.439045  0.500000  1
  Co  Co12  1  0.557868  0.455222  0.500000  1
  Co  Co13  1  0.536552  0.101335  0.500000  1
  Si  Si14  1  0.769837  0.729542  0.500000  1
  Si  Si15  1  0.664671  0.333323  0.000000  1
  Si  Si16  1  0.061581  0.620746  0.000000  1
  Si  Si17  1  0.380533  0.439682  0.000000  1
  Si  Si18  1  0.560350  0.940567  0.000000  1
  P  P19  1  0.269740  0.039052  0.500000  1
  P  P20  1  0.959530  0.230454  0.500000  1
