# generated using pymatgen
data_Dy7Ho9In4Ru3Rh
_symmetry_space_group_name_H-M   'P 1'
_cell_length_a   9.65750349
_cell_length_b   9.65334132
_cell_length_c   9.63023282
_cell_angle_alpha   59.70675153
_cell_angle_beta   59.66699257
_cell_angle_gamma   59.80715479
_symmetry_Int_Tables_number   1
_chemical_formula_structural   Dy7Ho9In4Ru3Rh
_chemical_formula_sum   'Dy7 Ho9 In4 Ru3 Rh1'
_cell_volume   630.90145736
_cell_formula_units_Z   1
loop_
 _symmetry_equiv_pos_site_id
 _symmetry_equiv_pos_as_xyz
  1  'x, y, z'
loop_
 _atom_site_type_symbol
 _atom_site_label
 _atom_site_symmetry_multiplicity
 _atom_site_fract_x
 _atom_site_fract_y
 _atom_site_fract_z
 _atom_site_occupancy
  Dy  Dy0  1  0.190538  0.190840  0.806823  1
  Dy  Dy1  1  0.598188  0.597880  0.206466  1
  Dy  Dy2  1  0.441232  0.058122  0.441387  1
  Dy  Dy3  1  0.440596  0.441235  0.059528  1
  Dy  Dy4  1  0.813565  0.187806  0.808746  1
  Dy  Dy5  1  0.191773  0.807685  0.191548  1
  Dy  Dy6  1  0.439753  0.055760  0.059927  1
  Ho  Ho7  1  0.188583  0.812044  0.808321  1
  Ho  Ho8  1  0.055594  0.440298  0.059829  1
  Ho  Ho9  1  0.809958  0.808768  0.189385  1
  Ho  Ho10  1  0.204895  0.599710  0.597626  1
  Ho  Ho11  1  0.057901  0.441582  0.440821  1
  Ho  Ho12  1  0.057776  0.058391  0.439074  1
  Ho  Ho13  1  0.807551  0.192311  0.191906  1
  Ho  Ho14  1  0.599947  0.205361  0.597639  1
  Ho  Ho15  1  0.599550  0.599037  0.597647  1
  In  In16  1  0.832421  0.832452  0.831908  1
  In  In17  1  0.832724  0.832943  0.501801  1
  In  In18  1  0.502692  0.832380  0.832038  1
  In  In19  1  0.832445  0.502588  0.832279  1
  Ru  Ru20  1  0.391413  0.830376  0.392970  1
  Ru  Ru21  1  0.389117  0.388445  0.391767  1
  Ru  Ru22  1  0.830520  0.391598  0.392069  1
  Rh  Rh23  1  0.391266  0.392385  0.828493  1
