# generated using pymatgen
data_Ho12Co2Ni3Hg
_symmetry_space_group_name_H-M   'P 1'
_cell_length_a   8.20355369
_cell_length_b   8.20347977
_cell_length_c   8.20355433
_cell_angle_alpha   110.52348550
_cell_angle_beta   109.93419631
_cell_angle_gamma   107.96728873
_symmetry_Int_Tables_number   1
_chemical_formula_structural   Ho12Co2Ni3Hg
_chemical_formula_sum   'Ho12 Co2 Ni3 Hg1'
_cell_volume   424.75916984
_cell_formula_units_Z   1
loop_
 _symmetry_equiv_pos_site_id
 _symmetry_equiv_pos_as_xyz
  1  'x, y, z'
loop_
 _atom_site_type_symbol
 _atom_site_label
 _atom_site_symmetry_multiplicity
 _atom_site_fract_x
 _atom_site_fract_y
 _atom_site_fract_z
 _atom_site_occupancy
  Ho  Ho0  1  0.817257  0.709269  0.526527  1
  Ho  Ho1  1  0.182743  0.290731  0.473473  1
  Ho  Ho2  1  0.182743  0.709269  0.892011  1
  Ho  Ho3  1  0.817257  0.290731  0.107989  1
  Ho  Ho4  1  0.681177  0.377854  0.696678  1
  Ho  Ho5  1  0.318823  0.622146  0.303322  1
  Ho  Ho6  1  0.681174  0.984496  0.303322  1
  Ho  Ho7  1  0.318826  0.015504  0.696678  1
  Ho  Ho8  1  0.589077  0.780797  0.808279  1
  Ho  Ho9  1  0.410923  0.219203  0.191721  1
  Ho  Ho10  1  0.972518  0.780797  0.191719  1
  Ho  Ho11  1  0.027482  0.219203  0.808281  1
  Co  Co12  1  0.116244  0.616244  0.500000  1
  Co  Co13  1  0.883756  0.383756  0.500000  1
  Ni  Ni14  1  0.634730  0.000000  0.634730  1
  Ni  Ni15  1  0.365270  0.000000  0.365270  1
  Ni  Ni16  1  0.000000  0.000000  0.000000  1
  Hg  Hg17  1  0.500000  0.500000  0.000000  1
