# generated using pymatgen
data_Zr10Be2BiPb5
_symmetry_space_group_name_H-M   'P 1'
_cell_length_a   8.77666500
_cell_length_b   8.77666603
_cell_length_c   5.87150200
_cell_angle_alpha   90.00000000
_cell_angle_beta   90.00000000
_cell_angle_gamma   120.05503580
_symmetry_Int_Tables_number   1
_chemical_formula_structural   Zr10Be2BiPb5
_chemical_formula_sum   'Zr10 Be2 Bi1 Pb5'
_cell_volume   391.46940227
_cell_formula_units_Z   1
loop_
 _symmetry_equiv_pos_site_id
 _symmetry_equiv_pos_as_xyz
  1  'x, y, z'
loop_
 _atom_site_type_symbol
 _atom_site_label
 _atom_site_symmetry_multiplicity
 _atom_site_fract_x
 _atom_site_fract_y
 _atom_site_fract_z
 _atom_site_occupancy
  Zr  Zr0  1  0.666629  0.333006  0.500472  1
  Zr  Zr1  1  0.333006  0.666629  0.500472  1
  Zr  Zr2  1  0.333006  0.666629  0.999528  1
  Zr  Zr3  1  0.666629  0.333006  0.999528  1
  Zr  Zr4  1  0.752085  0.752085  0.250000  1
  Zr  Zr5  1  0.247999  0.999584  0.250000  1
  Zr  Zr6  1  0.999584  0.247999  0.250000  1
  Zr  Zr7  1  0.248387  0.248387  0.750000  1
  Zr  Zr8  1  0.752258  0.999764  0.750000  1
  Zr  Zr9  1  0.999764  0.752258  0.750000  1
  Be  Be10  1  0.999777  0.999777  0.499365  1
  Be  Be11  1  0.999777  0.999777  0.000635  1
  Bi  Bi12  1  0.390910  0.390910  0.250000  1
  Pb  Pb13  1  0.610237  0.000125  0.250000  1
  Pb  Pb14  1  0.000125  0.610237  0.250000  1
  Pb  Pb15  1  0.610196  0.610196  0.750000  1
  Pb  Pb16  1  0.390259  0.999373  0.750000  1
  Pb  Pb17  1  0.999373  0.390259  0.750000  1
