# generated using pymatgen
data_Ca2Al20FeRh3
_symmetry_space_group_name_H-M   'P 1'
_cell_length_a   6.85857965
_cell_length_b   6.87173264
_cell_length_c   9.14280059
_cell_angle_alpha   90.16201181
_cell_angle_beta   89.90334580
_cell_angle_gamma   97.10037547
_symmetry_Int_Tables_number   1
_chemical_formula_structural   Ca2Al20FeRh3
_chemical_formula_sum   'Ca2 Al20 Fe1 Rh3'
_cell_volume   427.59653003
_cell_formula_units_Z   1
loop_
 _symmetry_equiv_pos_site_id
 _symmetry_equiv_pos_as_xyz
  1  'x, y, z'
loop_
 _atom_site_type_symbol
 _atom_site_label
 _atom_site_symmetry_multiplicity
 _atom_site_fract_x
 _atom_site_fract_y
 _atom_site_fract_z
 _atom_site_occupancy
  Ca  Ca0  1  0.874419  0.124640  0.748735  1
  Ca  Ca1  1  0.125581  0.875360  0.251265  1
  Al  Al2  1  0.618729  0.372782  0.547515  1
  Al  Al3  1  0.381271  0.627218  0.452485  1
  Al  Al4  1  0.379294  0.622255  0.050562  1
  Al  Al5  1  0.620706  0.377745  0.949438  1
  Al  Al6  1  0.229677  0.220680  0.497318  1
  Al  Al7  1  0.770323  0.779320  0.502682  1
  Al  Al8  1  0.773551  0.774927  0.001288  1
  Al  Al9  1  0.226449  0.225073  0.998712  1
  Al  Al10  1  0.842860  0.157229  0.102156  1
  Al  Al11  1  0.157140  0.842771  0.897844  1
  Al  Al12  1  0.161912  0.846637  0.598314  1
  Al  Al13  1  0.838088  0.153363  0.401686  1
  Al  Al14  1  0.857748  0.589062  0.749083  1
  Al  Al15  1  0.142252  0.410938  0.250917  1
  Al  Al16  1  0.414150  0.138953  0.744987  1
  Al  Al17  1  0.585850  0.861047  0.255013  1
  Al  Al18  1  0.226229  0.478265  0.748551  1
  Al  Al19  1  0.773771  0.521735  0.251449  1
  Al  Al20  1  0.520465  0.778452  0.743815  1
  Al  Al21  1  0.479535  0.221548  0.256185  1
  Fe  Fe22  1  0.500000  0.000000  0.500000  1
  Rh  Rh23  1  0.000000  0.500000  0.500000  1
  Rh  Rh24  1  0.000000  0.500000  0.000000  1
  Rh  Rh25  1  0.500000  0.000000  0.000000  1
