# generated using pymatgen
data_B6Sb2Rh21
_symmetry_space_group_name_H-M   'P 1'
_cell_length_a   8.11044668
_cell_length_b   8.11356786
_cell_length_c   8.11231400
_cell_angle_alpha   60.00824338
_cell_angle_beta   59.99507163
_cell_angle_gamma   60.00170447
_symmetry_Int_Tables_number   1
_chemical_formula_structural   B6Sb2Rh21
_chemical_formula_sum   'B6 Sb2 Rh21'
_cell_volume   377.48775102
_cell_formula_units_Z   1
loop_
 _symmetry_equiv_pos_site_id
 _symmetry_equiv_pos_as_xyz
  1  'x, y, z'
loop_
 _atom_site_type_symbol
 _atom_site_label
 _atom_site_symmetry_multiplicity
 _atom_site_fract_x
 _atom_site_fract_y
 _atom_site_fract_z
 _atom_site_occupancy
  B  B0  1  0.721309  0.721314  0.278689  1
  B  B1  1  0.278690  0.721313  0.278692  1
  B  B2  1  0.721312  0.278685  0.278695  1
  B  B3  1  0.278691  0.278686  0.721311  1
  B  B4  1  0.721310  0.278687  0.721308  1
  B  B5  1  0.278688  0.721315  0.721305  1
  Sb  Sb6  1  0.749995  0.750008  0.750000  1
  Sb  Sb7  1  0.250005  0.249992  0.250000  1
  Rh  Rh8  1  0.000000  0.000000  0.000000  1
  Rh  Rh9  1  0.619093  0.618985  0.142888  1
  Rh  Rh10  1  0.619048  0.142921  0.619010  1
  Rh  Rh11  1  0.142845  0.619003  0.619072  1
  Rh  Rh12  1  0.619094  0.618995  0.619031  1
  Rh  Rh13  1  0.380907  0.381015  0.857112  1
  Rh  Rh14  1  0.380952  0.857079  0.380990  1
  Rh  Rh15  1  0.857155  0.380997  0.380928  1
  Rh  Rh16  1  0.380906  0.381005  0.380969  1
  Rh  Rh17  1  0.999996  0.999996  0.332918  1
  Rh  Rh18  1  0.667119  0.999975  0.332922  1
  Rh  Rh19  1  0.000017  0.667047  0.332906  1
  Rh  Rh20  1  0.667135  0.332955  0.999958  1
  Rh  Rh21  1  0.999977  0.332956  0.999967  1
  Rh  Rh22  1  0.999983  0.332953  0.667094  1
  Rh  Rh23  1  0.332865  0.667045  0.000042  1
  Rh  Rh24  1  0.332881  0.000025  0.667078  1
  Rh  Rh25  1  0.332881  0.000023  0.000012  1
  Rh  Rh26  1  0.000004  0.000004  0.667082  1
  Rh  Rh27  1  0.000023  0.667044  0.000033  1
  Rh  Rh28  1  0.667119  0.999977  0.999988  1
