# generated using pymatgen
data_K4BaUSe6
_symmetry_space_group_name_H-M   'P 1'
_cell_length_a   7.94535287
_cell_length_b   7.94535168
_cell_length_c   7.99431681
_cell_angle_alpha   80.18864877
_cell_angle_beta   80.18865268
_cell_angle_gamma   119.76246912
_symmetry_Int_Tables_number   1
_chemical_formula_structural   K4BaUSe6
_chemical_formula_sum   'K4 Ba1 U1 Se6'
_cell_volume   412.06473335
_cell_formula_units_Z   1
loop_
 _symmetry_equiv_pos_site_id
 _symmetry_equiv_pos_as_xyz
  1  'x, y, z'
loop_
 _atom_site_type_symbol
 _atom_site_label
 _atom_site_symmetry_multiplicity
 _atom_site_fract_x
 _atom_site_fract_y
 _atom_site_fract_z
 _atom_site_occupancy
  K  K0  1  0.339858  0.660142  0.500000  1
  K  K1  1  0.657420  0.342580  0.500000  1
  K  K2  1  0.001278  0.998722  0.500000  1
  K  K3  1  0.499897  0.500103  0.000000  1
  Ba  Ba4  1  0.167867  0.832133  0.000000  1
  U  U5  1  0.832863  0.167137  0.000000  1
  Se  Se6  1  0.770294  0.817597  0.211443  1
  Se  Se7  1  0.477041  0.087308  0.214410  1
  Se  Se8  1  0.035103  0.376717  0.210203  1
  Se  Se9  1  0.623283  0.964897  0.789797  1
  Se  Se10  1  0.912692  0.522959  0.785590  1
  Se  Se11  1  0.182403  0.229706  0.788557  1
