# generated using pymatgen
data_Sm2ErMn(Co4P3)2
_symmetry_space_group_name_H-M   'P 1'
_cell_length_a   3.70528700
_cell_length_b   10.55574700
_cell_length_c   12.24010200
_cell_angle_alpha   90.00000000
_cell_angle_beta   90.00000000
_cell_angle_gamma   90.00000000
_symmetry_Int_Tables_number   1
_chemical_formula_structural   Sm2ErMn(Co4P3)2
_chemical_formula_sum   'Sm4 Er2 Mn2 Co16 P12'
_cell_volume   478.73575236
_cell_formula_units_Z   2
loop_
 _symmetry_equiv_pos_site_id
 _symmetry_equiv_pos_as_xyz
  1  'x, y, z'
loop_
 _atom_site_type_symbol
 _atom_site_label
 _atom_site_symmetry_multiplicity
 _atom_site_fract_x
 _atom_site_fract_y
 _atom_site_fract_z
 _atom_site_occupancy
  Sm  Sm0  1  0.000000  0.500000  0.521656  1
  Sm  Sm1  1  0.500000  0.000000  0.476751  1
  Sm  Sm2  1  0.000000  0.682203  0.795158  1
  Sm  Sm3  1  0.000000  0.317797  0.795158  1
  Er  Er4  1  0.500000  0.818459  0.204819  1
  Er  Er5  1  0.500000  0.181541  0.204819  1
  Mn  Mn6  1  0.500000  0.500000  0.158089  1
  Mn  Mn7  1  0.000000  0.000000  0.842636  1
  Co  Co8  1  0.500000  0.500000  0.703602  1
  Co  Co9  1  0.000000  0.000000  0.294921  1
  Co  Co10  1  0.000000  0.500000  0.989329  1
  Co  Co11  1  0.500000  0.000000  0.015717  1
  Co  Co12  1  0.500000  0.332171  0.996682  1
  Co  Co13  1  0.500000  0.667829  0.996682  1
  Co  Co14  1  0.000000  0.165867  0.007643  1
  Co  Co15  1  0.000000  0.834133  0.007643  1
  Co  Co16  1  0.500000  0.295756  0.427728  1
  Co  Co17  1  0.500000  0.704244  0.427728  1
  Co  Co18  1  0.000000  0.203273  0.568230  1
  Co  Co19  1  0.000000  0.796727  0.568230  1
  Co  Co20  1  0.500000  0.880835  0.709916  1
  Co  Co21  1  0.500000  0.119165  0.709916  1
  Co  Co22  1  0.000000  0.620717  0.288511  1
  Co  Co23  1  0.000000  0.379283  0.288511  1
  P  P24  1  0.500000  0.500000  0.886563  1
  P  P25  1  0.000000  0.000000  0.117996  1
  P  P26  1  0.500000  0.500000  0.342133  1
  P  P27  1  0.000000  0.000000  0.657191  1
  P  P28  1  0.500000  0.308373  0.614115  1
  P  P29  1  0.500000  0.691627  0.614115  1
  P  P30  1  0.000000  0.190225  0.381394  1
  P  P31  1  0.000000  0.809775  0.381394  1
  P  P32  1  0.500000  0.848911  0.894991  1
  P  P33  1  0.500000  0.151089  0.894991  1
  P  P34  1  0.000000  0.654377  0.107523  1
  P  P35  1  0.000000  0.345623  0.107523  1
