# generated using pymatgen
data_Ac2Zn14Ru3
_symmetry_space_group_name_H-M   'P 1'
_cell_length_a   6.97743512
_cell_length_b   6.97743545
_cell_length_c   6.97743417
_cell_angle_alpha   82.42958403
_cell_angle_beta   82.42959061
_cell_angle_gamma   82.42958855
_symmetry_Int_Tables_number   1
_chemical_formula_structural   Ac2Zn14Ru3
_chemical_formula_sum   'Ac2 Zn14 Ru3'
_cell_volume   331.52833817
_cell_formula_units_Z   1
loop_
 _symmetry_equiv_pos_site_id
 _symmetry_equiv_pos_as_xyz
  1  'x, y, z'
loop_
 _atom_site_type_symbol
 _atom_site_label
 _atom_site_symmetry_multiplicity
 _atom_site_fract_x
 _atom_site_fract_y
 _atom_site_fract_z
 _atom_site_occupancy
  Ac  Ac0  1  0.668678  0.668678  0.668678  1
  Ac  Ac1  1  0.331322  0.331322  0.331322  1
  Zn  Zn2  1  0.342519  0.342519  0.843856  1
  Zn  Zn3  1  0.843856  0.342519  0.342519  1
  Zn  Zn4  1  0.100047  0.100047  0.100047  1
  Zn  Zn5  1  0.899953  0.899953  0.899953  1
  Zn  Zn6  1  0.282748  0.717252  0.000000  1
  Zn  Zn7  1  0.717252  0.000000  0.282748  1
  Zn  Zn8  1  0.000000  0.282748  0.717252  1
  Zn  Zn9  1  0.717252  0.282748  0.000000  1
  Zn  Zn10  1  0.282748  0.000000  0.717252  1
  Zn  Zn11  1  0.000000  0.717252  0.282748  1
  Zn  Zn12  1  0.156144  0.657481  0.657481  1
  Zn  Zn13  1  0.657481  0.657481  0.156144  1
  Zn  Zn14  1  0.657481  0.156144  0.657481  1
  Zn  Zn15  1  0.342519  0.843856  0.342519  1
  Ru  Ru16  1  0.000000  0.000000  0.500000  1
  Ru  Ru17  1  0.000000  0.500000  0.000000  1
  Ru  Ru18  1  0.500000  0.000000  0.000000  1
