# generated using pymatgen
data_Pr8Si13Sn
_symmetry_space_group_name_H-M   'P 1'
_cell_length_a   8.16749326
_cell_length_b   8.04020421
_cell_length_c   8.70614700
_cell_angle_alpha   90.00000000
_cell_angle_beta   90.00000000
_cell_angle_gamma   120.60660638
_symmetry_Int_Tables_number   1
_chemical_formula_structural   Pr8Si13Sn
_chemical_formula_sum   'Pr8 Si13 Sn1'
_cell_volume   492.06814400
_cell_formula_units_Z   1
loop_
 _symmetry_equiv_pos_site_id
 _symmetry_equiv_pos_as_xyz
  1  'x, y, z'
loop_
 _atom_site_type_symbol
 _atom_site_label
 _atom_site_symmetry_multiplicity
 _atom_site_fract_x
 _atom_site_fract_y
 _atom_site_fract_z
 _atom_site_occupancy
  Pr  Pr0  1  0.262854  0.253776  0.990826  1
  Pr  Pr1  1  0.749769  0.754035  0.002029  1
  Pr  Pr2  1  0.749769  0.754035  0.497971  1
  Pr  Pr3  1  0.262854  0.253776  0.509174  1
  Pr  Pr4  1  0.251776  0.748082  0.495109  1
  Pr  Pr5  1  0.740319  0.254411  0.513712  1
  Pr  Pr6  1  0.740319  0.254411  0.986288  1
  Pr  Pr7  1  0.251776  0.748082  0.004891  1
  Si  Si8  1  0.939313  0.626124  0.750000  1
  Si  Si9  1  0.587111  0.421828  0.250000  1
  Si  Si10  1  0.414738  0.584897  0.750000  1
  Si  Si11  1  0.415732  0.588188  0.250000  1
  Si  Si12  1  0.593247  0.422871  0.750000  1
  Si  Si13  1  0.073778  0.937031  0.250000  1
  Si  Si14  1  0.931466  0.073252  0.750000  1
  Si  Si15  1  0.617112  0.939859  0.250000  1
  Si  Si16  1  0.388320  0.063749  0.750000  1
  Si  Si17  1  0.924723  0.588357  0.250000  1
  Si  Si18  1  0.073399  0.418125  0.750000  1
  Si  Si19  1  0.415231  0.076352  0.250000  1
  Si  Si20  1  0.588938  0.927022  0.750000  1
  Sn  Sn21  1  0.027458  0.311735  0.250000  1
