# generated using pymatgen
data_Sc6Zn12Cu11Te
_symmetry_space_group_name_H-M   'P 1'
_cell_length_a   8.66449369
_cell_length_b   8.64160560
_cell_length_c   8.62960200
_cell_angle_alpha   60.04593868
_cell_angle_beta   60.13312204
_cell_angle_gamma   60.08625367
_symmetry_Int_Tables_number   1
_chemical_formula_structural   Sc6Zn12Cu11Te
_chemical_formula_sum   'Sc6 Zn12 Cu11 Te1'
_cell_volume   457.80691583
_cell_formula_units_Z   1
loop_
 _symmetry_equiv_pos_site_id
 _symmetry_equiv_pos_as_xyz
  1  'x, y, z'
loop_
 _atom_site_type_symbol
 _atom_site_label
 _atom_site_symmetry_multiplicity
 _atom_site_fract_x
 _atom_site_fract_y
 _atom_site_fract_z
 _atom_site_occupancy
  Sc  Sc0  1  0.734754  0.265946  0.276909  1
  Sc  Sc1  1  0.259575  0.733499  0.733474  1
  Sc  Sc2  1  0.259575  0.733499  0.273451  1
  Sc  Sc3  1  0.734754  0.265946  0.722392  1
  Sc  Sc4  1  0.272127  0.272022  0.727926  1
  Sc  Sc5  1  0.741075  0.725620  0.266652  1
  Zn  Zn6  1  0.877991  0.366771  0.877619  1
  Zn  Zn7  1  0.628953  0.123049  0.123999  1
  Zn  Zn8  1  0.372901  0.875116  0.875991  1
  Zn  Zn9  1  0.331848  0.337935  0.336213  1
  Zn  Zn10  1  0.664351  0.666044  0.659837  1
  Zn  Zn11  1  0.331848  0.337935  0.994006  1
  Zn  Zn12  1  0.331156  0.996398  0.336225  1
  Zn  Zn13  1  0.664351  0.666044  0.009767  1
  Zn  Zn14  1  0.669872  0.999136  0.665496  1
  Zn  Zn15  1  0.007830  0.331799  0.330186  1
  Zn  Zn16  1  0.995428  0.672876  0.665847  1
  Zn  Zn17  1  0.002855  0.990180  0.003483  1
  Cu  Cu18  1  0.123754  0.123678  0.120970  1
  Cu  Cu19  1  0.873845  0.877239  0.877354  1
  Cu  Cu20  1  0.123754  0.123678  0.631598  1
  Cu  Cu21  1  0.127690  0.624051  0.124130  1
  Cu  Cu22  1  0.873845  0.877239  0.371561  1
  Cu  Cu23  1  0.498454  0.002595  0.999753  1
  Cu  Cu24  1  0.999010  0.500199  0.502298  1
  Cu  Cu25  1  0.999010  0.500199  0.998494  1
  Cu  Cu26  1  0.498454  0.002595  0.499199  1
  Cu  Cu27  1  0.999464  0.002973  0.498781  1
  Cu  Cu28  1  0.503436  0.498926  0.998818  1
  Te  Te29  1  0.498035  0.506818  0.497574  1
