# generated using pymatgen
data_Dy2Er3(TcO6)2
_symmetry_space_group_name_H-M   'P 1'
_cell_length_a   6.79145151
_cell_length_b   6.79145283
_cell_length_c   7.49242607
_cell_angle_alpha   73.88201258
_cell_angle_beta   73.88201409
_cell_angle_gamma   49.21721646
_symmetry_Int_Tables_number   1
_chemical_formula_structural   Dy2Er3(TcO6)2
_chemical_formula_sum   'Dy2 Er3 Tc2 O12'
_cell_volume   249.17238013
_cell_formula_units_Z   1
loop_
 _symmetry_equiv_pos_site_id
 _symmetry_equiv_pos_as_xyz
  1  'x, y, z'
loop_
 _atom_site_type_symbol
 _atom_site_label
 _atom_site_symmetry_multiplicity
 _atom_site_fract_x
 _atom_site_fract_y
 _atom_site_fract_z
 _atom_site_occupancy
  Dy  Dy0  1  0.695662  0.695662  0.642548  1
  Dy  Dy1  1  0.304338  0.304338  0.357452  1
  Er  Er2  1  0.684514  0.684514  0.175583  1
  Er  Er3  1  0.315486  0.315486  0.824417  1
  Er  Er4  1  0.000000  0.000000  0.500000  1
  Tc  Tc5  1  0.786184  0.213816  0.000000  1
  Tc  Tc6  1  0.213816  0.786184  0.000000  1
  O  O7  1  0.000570  0.000570  0.206021  1
  O  O8  1  0.999430  0.999430  0.793979  1
  O  O9  1  0.583070  0.085793  0.083518  1
  O  O10  1  0.416930  0.914207  0.916482  1
  O  O11  1  0.914207  0.416930  0.916482  1
  O  O12  1  0.085793  0.583070  0.083518  1
  O  O13  1  0.499643  0.499643  0.178554  1
  O  O14  1  0.500357  0.500357  0.821446  1
  O  O15  1  0.405161  0.900938  0.424732  1
  O  O16  1  0.594839  0.099062  0.575268  1
  O  O17  1  0.099062  0.594839  0.575268  1
  O  O18  1  0.900938  0.405161  0.424732  1
