# generated using pymatgen
data_Tb2SmBe2(PPd5)4
_symmetry_space_group_name_H-M   'P 1'
_cell_length_a   8.69527502
_cell_length_b   8.61399238
_cell_length_c   8.61399323
_cell_angle_alpha   60.62528190
_cell_angle_beta   59.68735872
_cell_angle_gamma   59.68736479
_symmetry_Int_Tables_number   1
_chemical_formula_structural   Tb2SmBe2(PPd5)4
_chemical_formula_sum   'Tb2 Sm1 Be2 P4 Pd20'
_cell_volume   456.14116372
_cell_formula_units_Z   1
loop_
 _symmetry_equiv_pos_site_id
 _symmetry_equiv_pos_as_xyz
  1  'x, y, z'
loop_
 _atom_site_type_symbol
 _atom_site_label
 _atom_site_symmetry_multiplicity
 _atom_site_fract_x
 _atom_site_fract_y
 _atom_site_fract_z
 _atom_site_occupancy
  Tb  Tb0  1  0.250000  0.250000  0.250000  1
  Tb  Tb1  1  0.000000  0.000000  0.000000  1
  Sm  Sm2  1  0.750000  0.750000  0.750000  1
  Be  Be3  1  0.733100  0.266900  0.266900  1
  Be  Be4  1  0.266900  0.733100  0.733100  1
  P  P5  1  0.266083  0.733917  0.266083  1
  P  P6  1  0.733917  0.266083  0.733917  1
  P  P7  1  0.266083  0.266083  0.733917  1
  P  P8  1  0.733917  0.733917  0.266083  1
  Pd  Pd9  1  0.388125  0.382636  0.382636  1
  Pd  Pd10  1  0.611037  0.616735  0.616735  1
  Pd  Pd11  1  0.382636  0.388125  0.846601  1
  Pd  Pd12  1  0.382636  0.846601  0.388125  1
  Pd  Pd13  1  0.616735  0.611037  0.155494  1
  Pd  Pd14  1  0.616735  0.155494  0.611037  1
  Pd  Pd15  1  0.846601  0.382636  0.382636  1
  Pd  Pd16  1  0.155494  0.616735  0.616735  1
  Pd  Pd17  1  0.344390  0.000295  0.000295  1
  Pd  Pd18  1  0.655020  0.000295  0.000295  1
  Pd  Pd19  1  0.000295  0.344390  0.655020  1
  Pd  Pd20  1  0.000295  0.655020  0.344390  1
  Pd  Pd21  1  0.997213  0.343464  0.003222  1
  Pd  Pd22  1  0.656101  0.003222  0.343464  1
  Pd  Pd23  1  0.003222  0.656101  0.997213  1
  Pd  Pd24  1  0.343464  0.997213  0.656101  1
  Pd  Pd25  1  0.997213  0.003222  0.343464  1
  Pd  Pd26  1  0.003222  0.997213  0.656101  1
  Pd  Pd27  1  0.656101  0.343464  0.003222  1
  Pd  Pd28  1  0.343464  0.656101  0.997213  1
