# generated using pymatgen
data_Zr2Co11Si7Rh
_symmetry_space_group_name_H-M   'P 1'
_cell_length_a   9.10111435
_cell_length_b   9.11565344
_cell_length_c   3.61351900
_cell_angle_alpha   90.00000000
_cell_angle_beta   90.00000000
_cell_angle_gamma   120.28423009
_symmetry_Int_Tables_number   1
_chemical_formula_structural   Zr2Co11Si7Rh
_chemical_formula_sum   'Zr2 Co11 Si7 Rh1'
_cell_volume   258.87633611
_cell_formula_units_Z   1
loop_
 _symmetry_equiv_pos_site_id
 _symmetry_equiv_pos_as_xyz
  1  'x, y, z'
loop_
 _atom_site_type_symbol
 _atom_site_label
 _atom_site_symmetry_multiplicity
 _atom_site_fract_x
 _atom_site_fract_y
 _atom_site_fract_z
 _atom_site_occupancy
  Zr  Zr0  1  0.000178  0.002233  0.000000  1
  Zr  Zr1  1  0.335028  0.668600  0.500000  1
  Co  Co2  1  0.289662  0.391553  0.000000  1
  Co  Co3  1  0.105667  0.712885  0.000000  1
  Co  Co4  1  0.538959  0.442277  0.500000  1
  Co  Co5  1  0.387434  0.180867  0.000000  1
  Co  Co6  1  0.792840  0.615934  0.000000  1
  Co  Co7  1  0.817917  0.203115  0.000000  1
  Co  Co8  1  0.232817  0.953443  0.500000  1
  Co  Co9  1  0.048380  0.275450  0.500000  1
  Co  Co10  1  0.719787  0.768605  0.500000  1
  Co  Co11  1  0.558193  0.095387  0.500000  1
  Co  Co12  1  0.606377  0.894391  0.000000  1
  Si  Si13  1  0.664302  0.332476  0.000000  1
  Si  Si14  1  0.074835  0.446521  0.000000  1
  Si  Si15  1  0.262648  0.220377  0.500000  1
  Si  Si16  1  0.778352  0.039363  0.500000  1
  Si  Si17  1  0.960238  0.745539  0.500000  1
  Si  Si18  1  0.550850  0.621683  0.000000  1
  Si  Si19  1  0.378962  0.930643  0.000000  1
  Rh  Rh20  1  0.896571  0.458661  0.500000  1
