# generated using pymatgen
data_LiErCo2P3Ir2
_symmetry_space_group_name_H-M   'P 1'
_cell_length_a   3.78853100
_cell_length_b   10.53871700
_cell_length_c   12.43855000
_cell_angle_alpha   90.00000000
_cell_angle_beta   90.00000000
_cell_angle_gamma   90.00000000
_symmetry_Int_Tables_number   1
_chemical_formula_structural   LiErCo2P3Ir2
_chemical_formula_sum   'Li4 Er4 Co8 P12 Ir8'
_cell_volume   496.62473225
_cell_formula_units_Z   4
loop_
 _symmetry_equiv_pos_site_id
 _symmetry_equiv_pos_as_xyz
  1  'x, y, z'
loop_
 _atom_site_type_symbol
 _atom_site_label
 _atom_site_symmetry_multiplicity
 _atom_site_fract_x
 _atom_site_fract_y
 _atom_site_fract_z
 _atom_site_occupancy
  Li  Li0  1  0.250000  0.793224  0.489275  1
  Li  Li1  1  0.750000  0.206776  0.510725  1
  Li  Li2  1  0.750000  0.293224  0.010725  1
  Li  Li3  1  0.250000  0.706776  0.989275  1
  Er  Er4  1  0.250000  0.918566  0.211540  1
  Er  Er5  1  0.750000  0.081434  0.788460  1
  Er  Er6  1  0.750000  0.418566  0.288460  1
  Er  Er7  1  0.250000  0.581434  0.711540  1
  Co  Co8  1  0.250000  0.617231  0.191603  1
  Co  Co9  1  0.750000  0.382769  0.808397  1
  Co  Co10  1  0.750000  0.117231  0.308397  1
  Co  Co11  1  0.250000  0.882769  0.691603  1
  Co  Co12  1  0.250000  0.033853  0.435288  1
  Co  Co13  1  0.750000  0.966147  0.564712  1
  Co  Co14  1  0.750000  0.533853  0.064712  1
  Co  Co15  1  0.250000  0.466147  0.935288  1
  P  P16  1  0.250000  0.071393  0.611359  1
  P  P17  1  0.750000  0.928607  0.388641  1
  P  P18  1  0.750000  0.571393  0.888641  1
  P  P19  1  0.250000  0.428607  0.111359  1
  P  P20  1  0.250000  0.224835  0.364041  1
  P  P21  1  0.750000  0.775165  0.635959  1
  P  P22  1  0.750000  0.724835  0.135959  1
  P  P23  1  0.250000  0.275165  0.864041  1
  P  P24  1  0.250000  0.901088  0.879789  1
  P  P25  1  0.750000  0.098912  0.120211  1
  P  P26  1  0.750000  0.401088  0.620211  1
  P  P27  1  0.250000  0.598912  0.379789  1
  Ir  Ir28  1  0.250000  0.095915  0.971860  1
  Ir  Ir29  1  0.750000  0.904085  0.028140  1
  Ir  Ir30  1  0.750000  0.595915  0.528140  1
  Ir  Ir31  1  0.250000  0.404085  0.471860  1
  Ir  Ir32  1  0.250000  0.280814  0.675851  1
  Ir  Ir33  1  0.750000  0.719186  0.324149  1
  Ir  Ir34  1  0.750000  0.780814  0.824149  1
  Ir  Ir35  1  0.250000  0.219186  0.175851  1
