# generated using pymatgen
data_Tb16Cd4FeNi2Ir
_symmetry_space_group_name_H-M   'P 1'
_cell_length_a   9.58719354
_cell_length_b   9.58719443
_cell_length_c   9.61564121
_cell_angle_alpha   59.78703416
_cell_angle_beta   59.78703783
_cell_angle_gamma   59.81926726
_symmetry_Int_Tables_number   1
_chemical_formula_structural   Tb16Cd4FeNi2Ir
_chemical_formula_sum   'Tb16 Cd4 Fe1 Ni2 Ir1'
_cell_volume   622.08239565
_cell_formula_units_Z   1
loop_
 _symmetry_equiv_pos_site_id
 _symmetry_equiv_pos_as_xyz
  1  'x, y, z'
loop_
 _atom_site_type_symbol
 _atom_site_label
 _atom_site_symmetry_multiplicity
 _atom_site_fract_x
 _atom_site_fract_y
 _atom_site_fract_z
 _atom_site_occupancy
  Tb  Tb0  1  0.344579  0.344579  0.349727  1
  Tb  Tb1  1  0.352326  0.352326  0.951587  1
  Tb  Tb2  1  0.348617  0.956137  0.353119  1
  Tb  Tb3  1  0.956137  0.348617  0.353119  1
  Tb  Tb4  1  0.807723  0.188940  0.189837  1
  Tb  Tb5  1  0.185698  0.816126  0.806907  1
  Tb  Tb6  1  0.188940  0.807723  0.189837  1
  Tb  Tb7  1  0.816126  0.185698  0.806907  1
  Tb  Tb8  1  0.188622  0.188622  0.804681  1
  Tb  Tb9  1  0.810431  0.810431  0.187823  1
  Tb  Tb10  1  0.937873  0.560565  0.566368  1
  Tb  Tb11  1  0.558734  0.938348  0.938888  1
  Tb  Tb12  1  0.560565  0.937873  0.566368  1
  Tb  Tb13  1  0.938348  0.558734  0.938888  1
  Tb  Tb14  1  0.564245  0.564245  0.938550  1
  Tb  Tb15  1  0.939019  0.939019  0.560960  1
  Cd  Cd16  1  0.580171  0.580171  0.580936  1
  Cd  Cd17  1  0.579721  0.579721  0.257920  1
  Cd  Cd18  1  0.580486  0.256331  0.580319  1
  Cd  Cd19  1  0.256331  0.580486  0.580319  1
  Fe  Fe20  1  0.143313  0.143313  0.576062  1
  Ni  Ni21  1  0.142307  0.575915  0.140664  1
  Ni  Ni22  1  0.575915  0.142307  0.140664  1
  Ir  Ir23  1  0.143771  0.143771  0.139548  1
