# generated using pymatgen
data_Nd8Sm12Si15Hg
_symmetry_space_group_name_H-M   'P 1'
_cell_length_a   7.87809778
_cell_length_b   7.84941258
_cell_length_c   14.81899200
_cell_angle_alpha   89.98162748
_cell_angle_beta   89.78633937
_cell_angle_gamma   90.03127477
_symmetry_Int_Tables_number   1
_chemical_formula_structural   Nd8Sm12Si15Hg
_chemical_formula_sum   'Nd8 Sm12 Si15 Hg1'
_cell_volume   916.37678851
_cell_formula_units_Z   1
loop_
 _symmetry_equiv_pos_site_id
 _symmetry_equiv_pos_as_xyz
  1  'x, y, z'
loop_
 _atom_site_type_symbol
 _atom_site_label
 _atom_site_symmetry_multiplicity
 _atom_site_fract_x
 _atom_site_fract_y
 _atom_site_fract_z
 _atom_site_occupancy
  Nd  Nd0  1  0.989770  0.628976  0.046254  1
  Nd  Nd1  1  0.010758  0.360771  0.549541  1
  Nd  Nd2  1  0.631913  0.988318  0.953254  1
  Nd  Nd3  1  0.132536  0.509574  0.797351  1
  Nd  Nd4  1  0.859739  0.482248  0.290734  1
  Nd  Nd5  1  0.509028  0.130257  0.200583  1
  Nd  Nd6  1  0.493858  0.868935  0.705008  1
  Nd  Nd7  1  0.375285  0.016094  0.454446  1
  Sm  Sm8  1  0.374826  0.483007  0.373724  1
  Sm  Sm9  1  0.857518  0.024845  0.369333  1
  Sm  Sm10  1  0.985013  0.132360  0.124508  1
  Sm  Sm11  1  0.016615  0.870428  0.627931  1
  Sm  Sm12  1  0.633923  0.515541  0.875241  1
  Sm  Sm13  1  0.488966  0.364797  0.627889  1
  Sm  Sm14  1  0.514495  0.630437  0.123420  1
  Sm  Sm15  1  0.130343  0.986084  0.876662  1
  Sm  Sm16  1  0.680995  0.692396  0.500246  1
  Sm  Sm17  1  0.812765  0.187184  0.750539  1
  Sm  Sm18  1  0.183440  0.809774  0.246463  1
  Sm  Sm19  1  0.310056  0.313035  0.999652  1
  Si  Si20  1  0.927850  0.288967  0.939428  1
  Si  Si21  1  0.711948  0.071084  0.561265  1
  Si  Si22  1  0.212166  0.427316  0.189928  1
  Si  Si23  1  0.789433  0.573226  0.689968  1
  Si  Si24  1  0.428133  0.211589  0.811846  1
  Si  Si25  1  0.570619  0.789006  0.308443  1
  Si  Si26  1  0.290590  0.928202  0.059224  1
  Si  Si27  1  0.838632  0.801147  0.805104  1
  Si  Si28  1  0.163518  0.198688  0.303560  1
  Si  Si29  1  0.797733  0.837969  0.193895  1
  Si  Si30  1  0.307302  0.659656  0.561935  1
  Si  Si31  1  0.699413  0.337456  0.053078  1
  Si  Si32  1  0.664059  0.304906  0.449221  1
  Si  Si33  1  0.337828  0.698675  0.945663  1
  Si  Si34  1  0.200537  0.162348  0.698445  1
  Hg  Hg35  1  0.068401  0.714705  0.436214  1
