# generated using pymatgen
data_Na2LiMnAs2
_symmetry_space_group_name_H-M   'P 1'
_cell_length_a   9.19278047
_cell_length_b   9.19278140
_cell_length_c   5.98947800
_cell_angle_alpha   90.00000000
_cell_angle_beta   90.00000000
_cell_angle_gamma   99.45050554
_symmetry_Int_Tables_number   1
_chemical_formula_structural   Na2LiMnAs2
_chemical_formula_sum   'Na8 Li4 Mn4 As8'
_cell_volume   499.28452169
_cell_formula_units_Z   4
loop_
 _symmetry_equiv_pos_site_id
 _symmetry_equiv_pos_as_xyz
  1  'x, y, z'
loop_
 _atom_site_type_symbol
 _atom_site_label
 _atom_site_symmetry_multiplicity
 _atom_site_fract_x
 _atom_site_fract_y
 _atom_site_fract_z
 _atom_site_occupancy
  Na  Na0  1  0.427944  0.072056  0.250000  1
  Na  Na1  1  0.072056  0.427944  0.750000  1
  Na  Na2  1  0.572056  0.927944  0.750000  1
  Na  Na3  1  0.324027  0.675973  0.278429  1
  Na  Na4  1  0.824027  0.175973  0.221571  1
  Na  Na5  1  0.675973  0.324027  0.721571  1
  Na  Na6  1  0.175973  0.824027  0.778429  1
  Na  Na7  1  0.927944  0.572056  0.250000  1
  Li  Li8  1  0.378775  0.378775  0.500000  1
  Li  Li9  1  0.121225  0.121225  0.000000  1
  Li  Li10  1  0.621225  0.621225  0.500000  1
  Li  Li11  1  0.878775  0.878775  0.000000  1
  Mn  Mn12  1  0.869679  0.869679  0.500000  1
  Mn  Mn13  1  0.130321  0.130321  0.500000  1
  Mn  Mn14  1  0.630321  0.630321  0.000000  1
  Mn  Mn15  1  0.369679  0.369679  0.000000  1
  As  As16  1  0.104753  0.895247  0.285632  1
  As  As17  1  0.604753  0.395247  0.214368  1
  As  As18  1  0.895247  0.104753  0.714368  1
  As  As19  1  0.395247  0.604753  0.785632  1
  As  As20  1  0.146054  0.353946  0.250000  1
  As  As21  1  0.353946  0.146054  0.750000  1
  As  As22  1  0.853946  0.646054  0.750000  1
  As  As23  1  0.646054  0.853946  0.250000  1
