# generated using pymatgen
data_SmHo(MgSn)2
_symmetry_space_group_name_H-M   'P 1'
_cell_length_a   4.43371949
_cell_length_b   4.43371911
_cell_length_c   8.56930333
_cell_angle_alpha   104.99280630
_cell_angle_beta   104.99280815
_cell_angle_gamma   89.99999940
_symmetry_Int_Tables_number   1
_chemical_formula_structural   SmHo(MgSn)2
_chemical_formula_sum   'Sm1 Ho1 Mg2 Sn2'
_cell_volume   156.77567856
_cell_formula_units_Z   1
loop_
 _symmetry_equiv_pos_site_id
 _symmetry_equiv_pos_as_xyz
  1  'x, y, z'
loop_
 _atom_site_type_symbol
 _atom_site_label
 _atom_site_symmetry_multiplicity
 _atom_site_fract_x
 _atom_site_fract_y
 _atom_site_fract_z
 _atom_site_occupancy
  Sm  Sm0  1  0.665961  0.665961  0.331924  1
  Ho  Ho1  1  0.334842  0.334842  0.669684  1
  Mg  Mg2  1  0.499406  0.999407  0.998813  1
  Mg  Mg3  1  0.999407  0.499406  0.998813  1
  Sn  Sn4  1  0.135834  0.135834  0.271669  1
  Sn  Sn5  1  0.864546  0.864546  0.729095  1
