# generated using pymatgen
data_Nd14Pd5Ru
_symmetry_space_group_name_H-M   'P 1'
_cell_length_a   6.46519405
_cell_length_b   10.19506210
_cell_length_c   10.19506249
_cell_angle_alpha   119.88976158
_cell_angle_beta   89.69322715
_cell_angle_gamma   90.30677023
_symmetry_Int_Tables_number   1
_chemical_formula_structural   Nd14Pd5Ru
_chemical_formula_sum   'Nd14 Pd5 Ru1'
_cell_volume   582.59266563
_cell_formula_units_Z   1
loop_
 _symmetry_equiv_pos_site_id
 _symmetry_equiv_pos_as_xyz
  1  'x, y, z'
loop_
 _atom_site_type_symbol
 _atom_site_label
 _atom_site_symmetry_multiplicity
 _atom_site_fract_x
 _atom_site_fract_y
 _atom_site_fract_z
 _atom_site_occupancy
  Nd  Nd0  1  0.450362  0.333719  0.666281  1
  Nd  Nd1  1  0.963138  0.669142  0.330858  1
  Nd  Nd2  1  0.238615  0.127138  0.872862  1
  Nd  Nd3  1  0.239984  0.752059  0.884122  1
  Nd  Nd4  1  0.239984  0.115878  0.247941  1
  Nd  Nd5  1  0.751975  0.874046  0.125954  1
  Nd  Nd6  1  0.740027  0.252697  0.125158  1
  Nd  Nd7  1  0.740027  0.874842  0.747303  1
  Nd  Nd8  1  0.450863  0.537409  0.462591  1
  Nd  Nd9  1  0.442840  0.917562  0.453169  1
  Nd  Nd10  1  0.442840  0.546831  0.082438  1
  Nd  Nd11  1  0.949669  0.462775  0.537225  1
  Nd  Nd12  1  0.946256  0.075485  0.535179  1
  Nd  Nd13  1  0.946256  0.464821  0.924515  1
  Pd  Pd14  1  0.192560  0.375239  0.190267  1
  Pd  Pd15  1  0.192560  0.809733  0.624761  1
  Pd  Pd16  1  0.691181  0.189413  0.810587  1
  Pd  Pd17  1  0.690176  0.621300  0.809615  1
  Pd  Pd18  1  0.690176  0.190385  0.378700  1
  Ru  Ru19  1  0.186513  0.809527  0.190473  1
