# generated using pymatgen
data_Ca12TaZn4Fe8Sb7O48
_symmetry_space_group_name_H-M   'P 1'
_cell_length_a   11.06794552
_cell_length_b   11.06824810
_cell_length_c   11.06583900
_cell_angle_alpha   109.26201482
_cell_angle_beta   109.50895654
_cell_angle_gamma   109.63869196
_symmetry_Int_Tables_number   1
_chemical_formula_structural   Ca12TaZn4Fe8Sb7O48
_chemical_formula_sum   'Ca12 Ta1 Zn4 Fe8 Sb7 O48'
_cell_volume   1043.58097447
_cell_formula_units_Z   1
loop_
 _symmetry_equiv_pos_site_id
 _symmetry_equiv_pos_as_xyz
  1  'x, y, z'
loop_
 _atom_site_type_symbol
 _atom_site_label
 _atom_site_symmetry_multiplicity
 _atom_site_fract_x
 _atom_site_fract_y
 _atom_site_fract_z
 _atom_site_occupancy
  Ca  Ca0  1  0.250250  0.376975  0.127396  1
  Ca  Ca1  1  0.745321  0.620302  0.873745  1
  Ca  Ca2  1  0.749770  0.124411  0.375734  1
  Ca  Ca3  1  0.128393  0.250876  0.377825  1
  Ca  Ca4  1  0.374655  0.749624  0.126273  1
  Ca  Ca5  1  0.252940  0.876149  0.621245  1
  Ca  Ca6  1  0.871531  0.745915  0.624900  1
  Ca  Ca7  1  0.625548  0.252879  0.870102  1
  Ca  Ca8  1  0.379043  0.128953  0.259117  1
  Ca  Ca9  1  0.623052  0.873372  0.746418  1
  Ca  Ca10  1  0.122290  0.372550  0.744358  1
  Ca  Ca11  1  0.875948  0.626169  0.250872  1
  Ta  Ta12  1  0.994574  0.996087  0.998353  1
  Zn  Zn13  1  0.249610  0.624380  0.374418  1
  Zn  Zn14  1  0.749228  0.374877  0.623997  1
  Zn  Zn15  1  0.746883  0.873407  0.125328  1
  Zn  Zn16  1  0.374948  0.249149  0.624684  1
  Fe  Fe17  1  0.625372  0.749698  0.374440  1
  Fe  Fe18  1  0.250931  0.126317  0.875454  1
  Fe  Fe19  1  0.124406  0.748750  0.873583  1
  Fe  Fe20  1  0.875161  0.250485  0.125064  1
  Fe  Fe21  1  0.625350  0.375073  0.250681  1
  Fe  Fe22  1  0.375918  0.625902  0.751429  1
  Fe  Fe23  1  0.875269  0.125198  0.750205  1
  Fe  Fe24  1  0.125893  0.875884  0.251942  1
  Sb  Sb25  1  0.499460  0.000090  0.502353  1
  Sb  Sb26  1  0.000295  0.501139  0.499621  1
  Sb  Sb27  1  0.500045  0.999570  0.002122  1
  Sb  Sb28  1  0.503964  0.500947  0.999627  1
  Sb  Sb29  1  0.497274  0.496624  0.498456  1
  Sb  Sb30  1  0.001049  0.004227  0.499694  1
  Sb  Sb31  1  0.001182  0.500343  0.999817  1
  O  O32  1  0.479783  0.381455  0.300638  1
  O  O33  1  0.518473  0.619796  0.695778  1
  O  O34  1  0.576485  0.176669  0.196941  1
  O  O35  1  0.918625  0.117490  0.597979  1
  O  O36  1  0.301654  0.471218  0.376479  1
  O  O37  1  0.322104  0.919048  0.302229  1
  O  O38  1  0.422603  0.824561  0.804880  1
  O  O39  1  0.077462  0.882362  0.402192  1
  O  O40  1  0.696568  0.528887  0.621590  1
  O  O41  1  0.679309  0.079964  0.700026  1
  O  O42  1  0.021402  0.323232  0.900374  1
  O  O43  1  0.197675  0.575737  0.168027  1
  O  O44  1  0.117156  0.016741  0.192733  1
  O  O45  1  0.982510  0.677877  0.100934  1
  O  O46  1  0.805101  0.425323  0.831399  1
  O  O47  1  0.882581  0.979767  0.801976  1
  O  O48  1  0.591555  0.923479  0.122186  1
  O  O49  1  0.178825  0.482441  0.598226  1
  O  O50  1  0.400217  0.075164  0.881622  1
  O  O51  1  0.822339  0.521806  0.403272  1
  O  O52  1  0.905061  0.027782  0.328721  1
  O  O53  1  0.380303  0.576913  0.901652  1
  O  O54  1  0.099565  0.981385  0.675595  1
  O  O55  1  0.619794  0.420070  0.099257  1
  O  O56  1  0.378842  0.298065  0.469970  1
  O  O57  1  0.576009  0.898515  0.381297  1
  O  O58  1  0.617700  0.696330  0.519224  1
  O  O59  1  0.423118  0.093177  0.622375  1
  O  O60  1  0.119271  0.597626  0.919309  1
  O  O61  1  0.016007  0.192550  0.114947  1
  O  O62  1  0.882446  0.402209  0.079425  1
  O  O63  1  0.983266  0.805599  0.882401  1
  O  O64  1  0.321477  0.902292  0.020789  1
  O  O65  1  0.923660  0.304992  0.322564  1
  O  O66  1  0.674930  0.099273  0.979501  1
  O  O67  1  0.076827  0.697595  0.676601  1
  O  O68  1  0.171591  0.202142  0.581176  1
  O  O69  1  0.481187  0.598425  0.175337  1
  O  O70  1  0.826156  0.805447  0.425949  1
  O  O71  1  0.527541  0.406284  0.829244  1
  O  O72  1  0.306619  0.326245  0.925749  1
  O  O73  1  0.701337  0.671899  0.081147  1
  O  O74  1  0.192786  0.118312  0.015863  1
  O  O75  1  0.803602  0.880121  0.974075  1
  O  O76  1  0.907064  0.378890  0.574404  1
  O  O77  1  0.092758  0.622883  0.424063  1
  O  O78  1  0.593883  0.167396  0.472084  1
  O  O79  1  0.409222  0.828237  0.528545  1
