# generated using pymatgen
data_Tm4CoNi3B16
_symmetry_space_group_name_H-M   'P 1'
_cell_length_a   3.37429400
_cell_length_b   5.86574571
_cell_length_c   11.37458638
_cell_angle_alpha   90.05649086
_cell_angle_beta   90.00000000
_cell_angle_gamma   90.00000000
_symmetry_Int_Tables_number   1
_chemical_formula_structural   Tm4CoNi3B16
_chemical_formula_sum   'Tm4 Co1 Ni3 B16'
_cell_volume   225.13424161
_cell_formula_units_Z   1
loop_
 _symmetry_equiv_pos_site_id
 _symmetry_equiv_pos_as_xyz
  1  'x, y, z'
loop_
 _atom_site_type_symbol
 _atom_site_label
 _atom_site_symmetry_multiplicity
 _atom_site_fract_x
 _atom_site_fract_y
 _atom_site_fract_z
 _atom_site_occupancy
  Tm  Tm0  1  0.500000  0.373064  0.149958  1
  Tm  Tm1  1  0.500000  0.627820  0.850501  1
  Tm  Tm2  1  0.500000  0.126487  0.650304  1
  Tm  Tm3  1  0.500000  0.873531  0.349236  1
  Co  Co4  1  0.500000  0.866371  0.088098  1
  Ni  Ni5  1  0.500000  0.366327  0.410433  1
  Ni  Ni6  1  0.500000  0.633093  0.588661  1
  Ni  Ni7  1  0.500000  0.137367  0.910519  1
  B  B8  1  0.000000  0.111567  0.047786  1
  B  B9  1  0.000000  0.885931  0.954277  1
  B  B10  1  0.000000  0.385854  0.547648  1
  B  B11  1  0.000000  0.614006  0.452457  1
  B  B12  1  0.000000  0.137146  0.466937  1
  B  B13  1  0.000000  0.863088  0.532953  1
  B  B14  1  0.000000  0.363034  0.967332  1
  B  B15  1  0.000000  0.637148  0.033409  1
  B  B16  1  0.000000  0.020879  0.191152  1
  B  B17  1  0.000000  0.977611  0.808485  1
  B  B18  1  0.000000  0.478101  0.691731  1
  B  B19  1  0.000000  0.521909  0.308443  1
  B  B20  1  0.000000  0.215055  0.314729  1
  B  B21  1  0.000000  0.784845  0.685436  1
  B  B22  1  0.000000  0.283761  0.814692  1
  B  B23  1  0.000000  0.716007  0.184822  1
