# generated using pymatgen
data_TbHf(TaS2)8
_symmetry_space_group_name_H-M   'P 1'
_cell_length_a   6.66971700
_cell_length_b   6.66971607
_cell_length_c   13.41371200
_cell_angle_alpha   90.00000000
_cell_angle_beta   90.00000000
_cell_angle_gamma   120.00000955
_symmetry_Int_Tables_number   1
_chemical_formula_structural   TbHf(TaS2)8
_chemical_formula_sum   'Tb1 Hf1 Ta8 S16'
_cell_volume   516.76646284
_cell_formula_units_Z   1
loop_
 _symmetry_equiv_pos_site_id
 _symmetry_equiv_pos_as_xyz
  1  'x, y, z'
loop_
 _atom_site_type_symbol
 _atom_site_label
 _atom_site_symmetry_multiplicity
 _atom_site_fract_x
 _atom_site_fract_y
 _atom_site_fract_z
 _atom_site_occupancy
  Tb  Tb0  1  0.000000  0.000000  0.000000  1
  Hf  Hf1  1  0.000000  0.000000  0.500000  1
  Ta  Ta2  1  0.505074  0.494926  0.740077  1
  Ta  Ta3  1  0.010148  0.505074  0.259923  1
  Ta  Ta4  1  0.494926  0.989852  0.259923  1
  Ta  Ta5  1  0.505074  0.010148  0.740077  1
  Ta  Ta6  1  0.989852  0.494926  0.740077  1
  Ta  Ta7  1  0.494926  0.505074  0.259923  1
  Ta  Ta8  1  0.000000  0.000000  0.740898  1
  Ta  Ta9  1  0.000000  0.000000  0.259102  1
  S  S10  1  0.831756  0.168244  0.377881  1
  S  S11  1  0.831756  0.663511  0.377881  1
  S  S12  1  0.336489  0.168244  0.377881  1
  S  S13  1  0.661373  0.830686  0.857633  1
  S  S14  1  0.168244  0.336489  0.622119  1
  S  S15  1  0.169314  0.830686  0.857633  1
  S  S16  1  0.169314  0.338627  0.857633  1
  S  S17  1  0.830686  0.169314  0.142367  1
  S  S18  1  0.338627  0.169314  0.142367  1
  S  S19  1  0.663511  0.831756  0.622119  1
  S  S20  1  0.333333  0.666667  0.139592  1
  S  S21  1  0.666667  0.333333  0.620784  1
  S  S22  1  0.666667  0.333333  0.860408  1
  S  S23  1  0.333333  0.666667  0.379216  1
  S  S24  1  0.830686  0.661373  0.142367  1
  S  S25  1  0.168244  0.831756  0.622119  1
