# generated using pymatgen
data_CeNd3Y4(Si3Rh)4
_symmetry_space_group_name_H-M   'P 1'
_cell_length_a   8.22774502
_cell_length_b   8.22774426
_cell_length_c   8.14638000
_cell_angle_alpha   90.00000000
_cell_angle_beta   90.00000000
_cell_angle_gamma   120.05706301
_symmetry_Int_Tables_number   1
_chemical_formula_structural   CeNd3Y4(Si3Rh)4
_chemical_formula_sum   'Ce1 Nd3 Y4 Si12 Rh4'
_cell_volume   477.31699297
_cell_formula_units_Z   1
loop_
 _symmetry_equiv_pos_site_id
 _symmetry_equiv_pos_as_xyz
  1  'x, y, z'
loop_
 _atom_site_type_symbol
 _atom_site_label
 _atom_site_symmetry_multiplicity
 _atom_site_fract_x
 _atom_site_fract_y
 _atom_site_fract_z
 _atom_site_occupancy
  Ce  Ce0  1  0.000174  0.999826  0.750000  1
  Nd  Nd1  1  0.999988  0.000012  0.250000  1
  Nd  Nd2  1  0.988094  0.494161  0.250000  1
  Nd  Nd3  1  0.505839  0.011906  0.250000  1
  Y  Y4  1  0.493558  0.506442  0.750000  1
  Y  Y5  1  0.493481  0.986671  0.750000  1
  Y  Y6  1  0.013329  0.506519  0.750000  1
  Y  Y7  1  0.504855  0.495145  0.250000  1
  Si  Si8  1  0.833075  0.166925  0.994594  1
  Si  Si9  1  0.831474  0.665007  0.998133  1
  Si  Si10  1  0.334993  0.168526  0.998133  1
  Si  Si11  1  0.833075  0.166925  0.505406  1
  Si  Si12  1  0.831474  0.665007  0.501867  1
  Si  Si13  1  0.334993  0.168526  0.501867  1
  Si  Si14  1  0.166813  0.833187  0.507820  1
  Si  Si15  1  0.665921  0.832239  0.507004  1
  Si  Si16  1  0.167761  0.334079  0.507004  1
  Si  Si17  1  0.166813  0.833187  0.992180  1
  Si  Si18  1  0.665921  0.832239  0.992996  1
  Si  Si19  1  0.167761  0.334079  0.992996  1
  Rh  Rh20  1  0.666362  0.333638  0.967264  1
  Rh  Rh21  1  0.666362  0.333638  0.532736  1
  Rh  Rh22  1  0.333939  0.666061  0.482745  1
  Rh  Rh23  1  0.333939  0.666061  0.017255  1
