# generated using pymatgen
data_DyHo3(Lu3Ru2)2
_symmetry_space_group_name_H-M   'P 1'
_cell_length_a   6.23345843
_cell_length_b   7.24274970
_cell_length_c   8.32024242
_cell_angle_alpha   97.02641385
_cell_angle_beta   111.99495958
_cell_angle_gamma   89.94301447
_symmetry_Int_Tables_number   1
_chemical_formula_structural   DyHo3(Lu3Ru2)2
_chemical_formula_sum   'Dy1 Ho3 Lu6 Ru4'
_cell_volume   345.27107674
_cell_formula_units_Z   1
loop_
 _symmetry_equiv_pos_site_id
 _symmetry_equiv_pos_as_xyz
  1  'x, y, z'
loop_
 _atom_site_type_symbol
 _atom_site_label
 _atom_site_symmetry_multiplicity
 _atom_site_fract_x
 _atom_site_fract_y
 _atom_site_fract_z
 _atom_site_occupancy
  Dy  Dy0  1  0.523334  0.082765  0.811649  1
  Ho  Ho1  1  0.477263  0.917142  0.187776  1
  Ho  Ho2  1  0.709479  0.416235  0.187492  1
  Ho  Ho3  1  0.289872  0.583403  0.813713  1
  Lu  Lu4  1  0.295710  0.317258  0.434034  1
  Lu  Lu5  1  0.704703  0.683999  0.565595  1
  Lu  Lu6  1  0.862408  0.183900  0.565261  1
  Lu  Lu7  1  0.138139  0.814999  0.434288  1
  Lu  Lu8  1  0.080525  0.250783  0.000447  1
  Lu  Lu9  1  0.919094  0.749211  0.000252  1
  Ru  Ru10  1  0.320881  0.577121  0.220096  1
  Ru  Ru11  1  0.679527  0.423386  0.778083  1
  Ru  Ru12  1  0.098049  0.923254  0.779105  1
  Ru  Ru13  1  0.901014  0.076543  0.222206  1
