# generated using pymatgen
data_Y3Ho13Cd3AgIr4
_symmetry_space_group_name_H-M   'P 1'
_cell_length_a   9.60666765
_cell_length_b   9.60846978
_cell_length_c   9.60500537
_cell_angle_alpha   59.86538131
_cell_angle_beta   59.82704219
_cell_angle_gamma   59.80670212
_symmetry_Int_Tables_number   1
_chemical_formula_structural   Y3Ho13Cd3AgIr4
_chemical_formula_sum   'Y3 Ho13 Cd3 Ag1 Ir4'
_cell_volume   624.54044510
_cell_formula_units_Z   1
loop_
 _symmetry_equiv_pos_site_id
 _symmetry_equiv_pos_as_xyz
  1  'x, y, z'
loop_
 _atom_site_type_symbol
 _atom_site_label
 _atom_site_symmetry_multiplicity
 _atom_site_fract_x
 _atom_site_fract_y
 _atom_site_fract_z
 _atom_site_occupancy
  Y  Y0  1  0.936846  0.561364  0.936744  1
  Y  Y1  1  0.561532  0.562139  0.935906  1
  Y  Y2  1  0.936313  0.936625  0.561456  1
  Ho  Ho3  1  0.349251  0.349076  0.349437  1
  Ho  Ho4  1  0.349966  0.349469  0.952845  1
  Ho  Ho5  1  0.349922  0.952871  0.349577  1
  Ho  Ho6  1  0.952838  0.349634  0.349792  1
  Ho  Ho7  1  0.810320  0.188953  0.189624  1
  Ho  Ho8  1  0.187808  0.810056  0.810058  1
  Ho  Ho9  1  0.189356  0.810309  0.189374  1
  Ho  Ho10  1  0.809906  0.187455  0.810186  1
  Ho  Ho11  1  0.189738  0.189036  0.810218  1
  Ho  Ho12  1  0.809816  0.810070  0.187855  1
  Ho  Ho13  1  0.936508  0.561190  0.560495  1
  Ho  Ho14  1  0.560310  0.937651  0.937256  1
  Ho  Ho15  1  0.561208  0.936423  0.561224  1
  Cd  Cd16  1  0.581336  0.581699  0.258640  1
  Cd  Cd17  1  0.581345  0.258361  0.581697  1
  Cd  Cd18  1  0.258916  0.581343  0.581300  1
  Ag  Ag19  1  0.583331  0.583358  0.582673  1
  Ir  Ir20  1  0.141997  0.141475  0.141309  1
  Ir  Ir21  1  0.142975  0.142991  0.575997  1
  Ir  Ir22  1  0.142539  0.575999  0.143242  1
  Ir  Ir23  1  0.575922  0.142457  0.143097  1
