# generated using pymatgen
data_Rb5Sc(MoH9)3
_symmetry_space_group_name_H-M   'P 1'
_cell_length_a   9.76550727
_cell_length_b   9.46316773
_cell_length_c   5.48299700
_cell_angle_alpha   90.00000000
_cell_angle_beta   90.00000000
_cell_angle_gamma   118.98104586
_symmetry_Int_Tables_number   1
_chemical_formula_structural   Rb5Sc(MoH9)3
_chemical_formula_sum   'Rb5 Sc1 Mo3 H27'
_cell_volume   443.24946400
_cell_formula_units_Z   1
loop_
 _symmetry_equiv_pos_site_id
 _symmetry_equiv_pos_as_xyz
  1  'x, y, z'
loop_
 _atom_site_type_symbol
 _atom_site_label
 _atom_site_symmetry_multiplicity
 _atom_site_fract_x
 _atom_site_fract_y
 _atom_site_fract_z
 _atom_site_occupancy
  Rb  Rb0  1  0.735835  0.747647  0.500000  1
  Rb  Rb1  1  0.264165  0.011812  0.500000  1
  Rb  Rb2  1  0.000000  0.596226  0.000000  1
  Rb  Rb3  1  0.418127  0.393547  0.000000  1
  Rb  Rb4  1  0.581873  0.975421  0.000000  1
  Sc  Sc5  1  0.000000  0.256402  0.500000  1
  Mo  Mo6  1  0.711643  0.320202  0.500000  1
  Mo  Mo7  1  0.288357  0.608560  0.500000  1
  Mo  Mo8  1  0.000000  0.056182  0.000000  1
  H  H9  1  0.850266  0.312109  0.708912  1
  H  H10  1  0.719164  0.452478  0.727519  1
  H  H11  1  0.561198  0.205142  0.708068  1
  H  H12  1  0.149734  0.461844  0.291088  1
  H  H13  1  0.561198  0.205142  0.291932  1
  H  H14  1  0.850266  0.312109  0.291088  1
  H  H15  1  0.719164  0.452478  0.272481  1
  H  H16  1  0.280836  0.733316  0.727519  1
  H  H17  1  0.438802  0.643946  0.708068  1
  H  H18  1  0.176844  0.056292  0.000000  1
  H  H19  1  0.823156  0.879448  0.000000  1
  H  H20  1  0.000000  0.242022  0.000000  1
  H  H21  1  0.878564  0.057433  0.244051  1
  H  H22  1  0.121436  0.178869  0.755949  1
  H  H23  1  0.000000  0.914807  0.791748  1
  H  H24  1  0.000000  0.914807  0.208252  1
  H  H25  1  0.121436  0.178869  0.244051  1
  H  H26  1  0.878564  0.057433  0.755949  1
  H  H27  1  0.134493  0.655411  0.500000  1
  H  H28  1  0.424602  0.814048  0.500000  1
  H  H29  1  0.308380  0.432456  0.500000  1
  H  H30  1  0.575398  0.389446  0.500000  1
  H  H31  1  0.865507  0.520917  0.500000  1
  H  H32  1  0.691620  0.124075  0.500000  1
  H  H33  1  0.149734  0.461844  0.708912  1
  H  H34  1  0.280836  0.733316  0.272481  1
  H  H35  1  0.438802  0.643946  0.291932  1
