# generated using pymatgen
data_U8Ta12Si13P3
_symmetry_space_group_name_H-M   'P 1'
_cell_length_a   6.82265522
_cell_length_b   7.02567407
_cell_length_c   13.20715606
_cell_angle_alpha   89.96348704
_cell_angle_beta   90.08357689
_cell_angle_gamma   89.95282787
_symmetry_Int_Tables_number   1
_chemical_formula_structural   U8Ta12Si13P3
_chemical_formula_sum   'U8 Ta12 Si13 P3'
_cell_volume   633.06752384
_cell_formula_units_Z   1
loop_
 _symmetry_equiv_pos_site_id
 _symmetry_equiv_pos_as_xyz
  1  'x, y, z'
loop_
 _atom_site_type_symbol
 _atom_site_label
 _atom_site_symmetry_multiplicity
 _atom_site_fract_x
 _atom_site_fract_y
 _atom_site_fract_z
 _atom_site_occupancy
  U  U0  1  0.496185  0.328679  0.408215  1
  U  U1  1  0.998309  0.171618  0.091878  1
  U  U2  1  0.004858  0.830611  0.591995  1
  U  U3  1  0.503453  0.673596  0.909012  1
  U  U4  1  0.500535  0.672419  0.590890  1
  U  U5  1  0.003161  0.826287  0.908866  1
  U  U6  1  0.999813  0.167667  0.407963  1
  U  U7  1  0.498177  0.328089  0.091747  1
  Ta  Ta8  1  0.832529  0.501767  0.249405  1
  Ta  Ta9  1  0.332095  0.998158  0.249274  1
  Ta  Ta10  1  0.667467  0.000888  0.750399  1
  Ta  Ta11  1  0.167286  0.498650  0.750194  1
  Ta  Ta12  1  0.157646  0.673702  0.122426  1
  Ta  Ta13  1  0.340379  0.167140  0.877635  1
  Ta  Ta14  1  0.338743  0.169052  0.622540  1
  Ta  Ta15  1  0.840394  0.332860  0.877645  1
  Ta  Ta16  1  0.162280  0.675618  0.375819  1
  Ta  Ta17  1  0.657627  0.826523  0.122214  1
  Ta  Ta18  1  0.839876  0.328324  0.625113  1
  Ta  Ta19  1  0.656962  0.828327  0.376554  1
  Si  Si20  1  0.798195  0.631913  0.749449  1
  Si  Si21  1  0.299041  0.868228  0.750208  1
  Si  Si22  1  0.700020  0.130760  0.249930  1
  Si  Si23  1  0.199790  0.370228  0.250040  1
  Si  Si24  1  0.043821  0.120242  0.751177  1
  Si  Si25  1  0.542160  0.379517  0.750458  1
  Si  Si26  1  0.455432  0.618991  0.249602  1
  Si  Si27  1  0.953298  0.879421  0.249713  1
  Si  Si28  1  0.165456  0.460452  0.541094  1
  Si  Si29  1  0.673005  0.041705  0.957369  1
  Si  Si30  1  0.672179  0.041210  0.542319  1
  Si  Si31  1  0.173006  0.458382  0.957362  1
  Si  Si32  1  0.834445  0.539410  0.458264  1
  P  P33  1  0.830162  0.540815  0.042520  1
  P  P34  1  0.330340  0.959051  0.042845  1
  P  P35  1  0.331880  0.959702  0.457866  1
