# generated using pymatgen
data_CoReTc5Ni
_symmetry_space_group_name_H-M   'P 1'
_cell_length_a   5.39651900
_cell_length_b   5.38991099
_cell_length_c   4.30710000
_cell_angle_alpha   90.00000000
_cell_angle_beta   90.00000000
_cell_angle_gamma   120.04055779
_symmetry_Int_Tables_number   1
_chemical_formula_structural   CoReTc5Ni
_chemical_formula_sum   'Co1 Re1 Tc5 Ni1'
_cell_volume   108.45092351
_cell_formula_units_Z   1
loop_
 _symmetry_equiv_pos_site_id
 _symmetry_equiv_pos_as_xyz
  1  'x, y, z'
loop_
 _atom_site_type_symbol
 _atom_site_label
 _atom_site_symmetry_multiplicity
 _atom_site_fract_x
 _atom_site_fract_y
 _atom_site_fract_z
 _atom_site_occupancy
  Co  Co0  1  0.666464  0.332927  0.250000  1
  Re  Re1  1  0.833089  0.666180  0.750000  1
  Tc  Tc2  1  0.168119  0.336238  0.250000  1
  Tc  Tc3  1  0.663953  0.832501  0.250000  1
  Tc  Tc4  1  0.168547  0.832501  0.250000  1
  Tc  Tc5  1  0.331831  0.166857  0.750000  1
  Tc  Tc6  1  0.835025  0.166857  0.750000  1
  Ni  Ni7  1  0.332970  0.665941  0.750000  1
