# generated using pymatgen
data_Na4CaUSe6
_symmetry_space_group_name_H-M   'P 1'
_cell_length_a   7.27900086
_cell_length_b   7.27900056
_cell_length_c   7.31124808
_cell_angle_alpha   80.34631540
_cell_angle_beta   80.34631884
_cell_angle_gamma   120.00356324
_symmetry_Int_Tables_number   1
_chemical_formula_structural   Na4CaUSe6
_chemical_formula_sum   'Na4 Ca1 U1 Se6'
_cell_volume   316.03518309
_cell_formula_units_Z   1
loop_
 _symmetry_equiv_pos_site_id
 _symmetry_equiv_pos_as_xyz
  1  'x, y, z'
loop_
 _atom_site_type_symbol
 _atom_site_label
 _atom_site_symmetry_multiplicity
 _atom_site_fract_x
 _atom_site_fract_y
 _atom_site_fract_z
 _atom_site_occupancy
  Na  Na0  1  0.000024  0.999976  0.000000  1
  Na  Na1  1  0.500608  0.499392  0.500000  1
  Na  Na2  1  0.838295  0.161705  0.500000  1
  Na  Na3  1  0.160506  0.839494  0.500000  1
  Ca  Ca4  1  0.666820  0.333180  0.000000  1
  U  U5  1  0.332923  0.667077  0.000000  1
  Se  Se6  1  0.265114  0.287939  0.229889  1
  Se  Se7  1  0.418403  0.052993  0.769752  1
  Se  Se8  1  0.101099  0.442857  0.773983  1
  Se  Se9  1  0.712061  0.734886  0.770111  1
  Se  Se10  1  0.557143  0.898901  0.226017  1
  Se  Se11  1  0.947007  0.581597  0.230248  1
