# generated using pymatgen
data_Er19MgRh12
_symmetry_space_group_name_H-M   'P 1'
_cell_length_a   10.78604500
_cell_length_b   10.78604500
_cell_length_c   6.28683300
_cell_angle_alpha   90.00000000
_cell_angle_beta   90.00000000
_cell_angle_gamma   90.00000000
_symmetry_Int_Tables_number   1
_chemical_formula_structural   Er19MgRh12
_chemical_formula_sum   'Er19 Mg1 Rh12'
_cell_volume   731.40239793
_cell_formula_units_Z   1
loop_
 _symmetry_equiv_pos_site_id
 _symmetry_equiv_pos_as_xyz
  1  'x, y, z'
loop_
 _atom_site_type_symbol
 _atom_site_label
 _atom_site_symmetry_multiplicity
 _atom_site_fract_x
 _atom_site_fract_y
 _atom_site_fract_z
 _atom_site_occupancy
  Er  Er0  1  0.284540  0.085285  0.378308  1
  Er  Er1  1  0.290416  0.911673  0.879166  1
  Er  Er2  1  0.709584  0.088327  0.879166  1
  Er  Er3  1  0.715460  0.914715  0.378308  1
  Er  Er4  1  0.588859  0.791643  0.878717  1
  Er  Er5  1  0.587974  0.208144  0.376936  1
  Er  Er6  1  0.412026  0.791856  0.376936  1
  Er  Er7  1  0.411141  0.208357  0.878717  1
  Er  Er8  1  0.208144  0.412026  0.623064  1
  Er  Er9  1  0.208357  0.588859  0.121283  1
  Er  Er10  1  0.791643  0.411141  0.121283  1
  Er  Er11  1  0.791856  0.587974  0.623064  1
  Er  Er12  1  0.911673  0.709584  0.120834  1
  Er  Er13  1  0.914715  0.284540  0.621692  1
  Er  Er14  1  0.085285  0.715460  0.621692  1
  Er  Er15  1  0.088327  0.290416  0.120834  1
  Er  Er16  1  0.000000  0.000000  0.000000  1
  Er  Er17  1  0.500000  0.500000  0.000000  1
  Er  Er18  1  0.500000  0.500000  0.500000  1
  Mg  Mg19  1  0.000000  0.000000  0.500000  1
  Rh  Rh20  1  0.845968  0.154533  0.247547  1
  Rh  Rh21  1  0.845467  0.845968  0.752453  1
  Rh  Rh22  1  0.154533  0.154032  0.752453  1
  Rh  Rh23  1  0.154032  0.845467  0.247547  1
  Rh  Rh24  1  0.654549  0.345877  0.748544  1
  Rh  Rh25  1  0.654123  0.654549  0.251456  1
  Rh  Rh26  1  0.345877  0.345451  0.251456  1
  Rh  Rh27  1  0.345451  0.654123  0.748544  1
  Rh  Rh28  1  0.500000  0.000000  0.123352  1
  Rh  Rh29  1  0.500000  0.000000  0.621059  1
  Rh  Rh30  1  0.000000  0.500000  0.876648  1
  Rh  Rh31  1  0.000000  0.500000  0.378941  1
