# generated using pymatgen
data_Tb2Ho4ReBi2
_symmetry_space_group_name_H-M   'P 1'
_cell_length_a   8.26713400
_cell_length_b   8.26921992
_cell_length_c   4.33957800
_cell_angle_alpha   90.00000000
_cell_angle_beta   90.00000000
_cell_angle_gamma   119.99166393
_symmetry_Int_Tables_number   1
_chemical_formula_structural   Tb2Ho4ReBi2
_chemical_formula_sum   'Tb2 Ho4 Re1 Bi2'
_cell_volume   256.94142267
_cell_formula_units_Z   1
loop_
 _symmetry_equiv_pos_site_id
 _symmetry_equiv_pos_as_xyz
  1  'x, y, z'
loop_
 _atom_site_type_symbol
 _atom_site_label
 _atom_site_symmetry_multiplicity
 _atom_site_fract_x
 _atom_site_fract_y
 _atom_site_fract_z
 _atom_site_occupancy
  Tb  Tb0  1  0.000083  0.611001  0.500000  1
  Tb  Tb1  1  0.389081  0.388999  0.500000  1
  Ho  Ho2  1  0.231925  0.000000  0.000000  1
  Ho  Ho3  1  0.768033  0.768384  0.000000  1
  Ho  Ho4  1  0.999649  0.231616  0.000000  1
  Ho  Ho5  1  0.611500  0.000000  0.500000  1
  Re  Re6  1  0.999357  0.000000  0.500000  1
  Bi  Bi7  1  0.333699  0.667026  0.000000  1
  Bi  Bi8  1  0.666673  0.332974  0.000000  1
