# generated using pymatgen
data_La3NdCd2Cu3Ir
_symmetry_space_group_name_H-M   'P 1'
_cell_length_a   7.86460703
_cell_length_b   7.86460682
_cell_length_c   3.92072100
_cell_angle_alpha   90.00000000
_cell_angle_beta   90.00000000
_cell_angle_gamma   89.39168285
_symmetry_Int_Tables_number   1
_chemical_formula_structural   La3NdCd2Cu3Ir
_chemical_formula_sum   'La3 Nd1 Cd2 Cu3 Ir1'
_cell_volume   242.49093244
_cell_formula_units_Z   1
loop_
 _symmetry_equiv_pos_site_id
 _symmetry_equiv_pos_as_xyz
  1  'x, y, z'
loop_
 _atom_site_type_symbol
 _atom_site_label
 _atom_site_symmetry_multiplicity
 _atom_site_fract_x
 _atom_site_fract_y
 _atom_site_fract_z
 _atom_site_occupancy
  La  La0  1  0.689491  0.189491  0.000000  1
  La  La1  1  0.163899  0.318646  0.000000  1
  La  La2  1  0.818646  0.663899  0.000000  1
  Nd  Nd3  1  0.324795  0.824795  0.000000  1
  Cd  Cd4  1  0.488551  0.502755  0.500000  1
  Cd  Cd5  1  0.002755  0.988551  0.500000  1
  Cu  Cu6  1  0.124479  0.624479  0.500000  1
  Cu  Cu7  1  0.386312  0.116381  0.500000  1
  Cu  Cu8  1  0.616381  0.886312  0.500000  1
  Ir  Ir9  1  0.884690  0.384690  0.500000  1
