# generated using pymatgen
data_Ca3Dy2Er(Si3Ru)8
_symmetry_space_group_name_H-M   'P 1'
_cell_length_a   10.17164212
_cell_length_b   10.17164285
_cell_length_c   8.15476200
_cell_angle_alpha   89.99193628
_cell_angle_beta   89.99193312
_cell_angle_gamma   132.71791434
_symmetry_Int_Tables_number   1
_chemical_formula_structural   Ca3Dy2Er(Si3Ru)8
_chemical_formula_sum   'Ca3 Dy2 Er1 Si24 Ru8'
_cell_volume   619.87621007
_cell_formula_units_Z   1
loop_
 _symmetry_equiv_pos_site_id
 _symmetry_equiv_pos_as_xyz
  1  'x, y, z'
loop_
 _atom_site_type_symbol
 _atom_site_label
 _atom_site_symmetry_multiplicity
 _atom_site_fract_x
 _atom_site_fract_y
 _atom_site_fract_z
 _atom_site_occupancy
  Ca  Ca0  1  0.500084  0.499916  0.500000  1
  Ca  Ca1  1  0.500941  0.000803  0.749802  1
  Ca  Ca2  1  0.999197  0.499059  0.250198  1
  Dy  Dy3  1  0.498369  0.998398  0.250156  1
  Dy  Dy4  1  0.001602  0.501631  0.749844  1
  Er  Er5  1  0.999973  0.000027  0.000000  1
  Si  Si6  1  0.795065  0.204935  0.500000  1
  Si  Si7  1  0.294218  0.705782  0.000000  1
  Si  Si8  1  0.205510  0.794490  0.500000  1
  Si  Si9  1  0.705246  0.294754  0.000000  1
  Si  Si10  1  0.331438  0.336789  0.831961  1
  Si  Si11  1  0.663211  0.668562  0.168039  1
  Si  Si12  1  0.170216  0.165130  0.333893  1
  Si  Si13  1  0.834870  0.829784  0.666107  1
  Si  Si14  1  0.122696  0.889407  0.728310  1
  Si  Si15  1  0.110593  0.877304  0.271690  1
  Si  Si16  1  0.608685  0.375743  0.229328  1
  Si  Si17  1  0.624257  0.391315  0.770672  1
  Si  Si18  1  0.875222  0.108417  0.271566  1
  Si  Si19  1  0.891583  0.124778  0.728434  1
  Si  Si20  1  0.389358  0.622563  0.770628  1
  Si  Si21  1  0.377437  0.610642  0.229372  1
  Si  Si22  1  0.346149  0.112766  0.505030  1
  Si  Si23  1  0.887234  0.653851  0.494970  1
  Si  Si24  1  0.388372  0.155337  0.006783  1
  Si  Si25  1  0.844663  0.611628  0.993217  1
  Si  Si26  1  0.653830  0.886467  0.492408  1
  Si  Si27  1  0.113533  0.346170  0.507592  1
  Si  Si28  1  0.610928  0.844568  0.996441  1
  Si  Si29  1  0.155432  0.389072  0.003559  1
  Ru  Ru30  1  0.670772  0.329228  0.500000  1
  Ru  Ru31  1  0.168575  0.831425  0.000000  1
  Ru  Ru32  1  0.330068  0.669932  0.500000  1
  Ru  Ru33  1  0.830542  0.169458  0.000000  1
  Ru  Ru34  1  0.124454  0.125033  0.627745  1
  Ru  Ru35  1  0.874967  0.875546  0.372255  1
  Ru  Ru36  1  0.372252  0.371544  0.124560  1
  Ru  Ru37  1  0.628456  0.627748  0.875440  1
