# generated using pymatgen
data_Yb4Dy5Er(GaPb3)2
_symmetry_space_group_name_H-M   'P 1'
_cell_length_a   9.24354303
_cell_length_b   9.24354308
_cell_length_c   6.87089200
_cell_angle_alpha   90.00000000
_cell_angle_beta   90.00000000
_cell_angle_gamma   119.97084091
_symmetry_Int_Tables_number   1
_chemical_formula_structural   Yb4Dy5Er(GaPb3)2
_chemical_formula_sum   'Yb4 Dy5 Er1 Ga2 Pb6'
_cell_volume   508.56705470
_cell_formula_units_Z   1
loop_
 _symmetry_equiv_pos_site_id
 _symmetry_equiv_pos_as_xyz
  1  'x, y, z'
loop_
 _atom_site_type_symbol
 _atom_site_label
 _atom_site_symmetry_multiplicity
 _atom_site_fract_x
 _atom_site_fract_y
 _atom_site_fract_z
 _atom_site_occupancy
  Yb  Yb0  1  0.333283  0.666451  0.999901  1
  Yb  Yb1  1  0.666451  0.333283  0.999901  1
  Yb  Yb2  1  0.666451  0.333283  0.500099  1
  Yb  Yb3  1  0.333283  0.666451  0.500099  1
  Dy  Dy4  1  0.259954  0.000158  0.250000  1
  Dy  Dy5  1  0.739771  0.999525  0.750000  1
  Dy  Dy6  1  0.000158  0.259954  0.250000  1
  Dy  Dy7  1  0.999525  0.739771  0.750000  1
  Dy  Dy8  1  0.740806  0.740806  0.250000  1
  Er  Er9  1  0.259417  0.259417  0.750000  1
  Ga  Ga10  1  0.000857  0.000857  0.999087  1
  Ga  Ga11  1  0.000857  0.000857  0.500913  1
  Pb  Pb12  1  0.611638  0.000051  0.250000  1
  Pb  Pb13  1  0.387846  0.000608  0.750000  1
  Pb  Pb14  1  0.000051  0.611638  0.250000  1
  Pb  Pb15  1  0.000608  0.387846  0.750000  1
  Pb  Pb16  1  0.388828  0.388828  0.250000  1
  Pb  Pb17  1  0.610215  0.610215  0.750000  1
