# generated using pymatgen
data_LaY2Hf(Co4P3)2
_symmetry_space_group_name_H-M   'P 1'
_cell_length_a   3.75090500
_cell_length_b   10.76800000
_cell_length_c   12.45345800
_cell_angle_alpha   90.00000000
_cell_angle_beta   90.00000000
_cell_angle_gamma   90.00000000
_symmetry_Int_Tables_number   1
_chemical_formula_structural   LaY2Hf(Co4P3)2
_chemical_formula_sum   'La2 Y4 Hf2 Co16 P12'
_cell_volume   502.99199349
_cell_formula_units_Z   2
loop_
 _symmetry_equiv_pos_site_id
 _symmetry_equiv_pos_as_xyz
  1  'x, y, z'
loop_
 _atom_site_type_symbol
 _atom_site_label
 _atom_site_symmetry_multiplicity
 _atom_site_fract_x
 _atom_site_fract_y
 _atom_site_fract_z
 _atom_site_occupancy
  La  La0  1  0.000000  0.500000  0.531840  1
  La  La1  1  0.500000  0.000000  0.468160  1
  Y  Y2  1  0.500000  0.820954  0.203098  1
  Y  Y3  1  0.500000  0.179046  0.203098  1
  Y  Y4  1  0.000000  0.679046  0.796902  1
  Y  Y5  1  0.000000  0.320954  0.796902  1
  Hf  Hf6  1  0.500000  0.500000  0.153775  1
  Hf  Hf7  1  0.000000  0.000000  0.846225  1
  Co  Co8  1  0.500000  0.500000  0.706248  1
  Co  Co9  1  0.000000  0.000000  0.293752  1
  Co  Co10  1  0.000000  0.500000  0.986627  1
  Co  Co11  1  0.500000  0.000000  0.013373  1
  Co  Co12  1  0.500000  0.331731  0.993330  1
  Co  Co13  1  0.500000  0.668269  0.993330  1
  Co  Co14  1  0.000000  0.168269  0.006670  1
  Co  Co15  1  0.000000  0.831731  0.006670  1
  Co  Co16  1  0.500000  0.295875  0.431211  1
  Co  Co17  1  0.500000  0.704125  0.431211  1
  Co  Co18  1  0.000000  0.204125  0.568789  1
  Co  Co19  1  0.000000  0.795875  0.568789  1
  Co  Co20  1  0.500000  0.879044  0.706609  1
  Co  Co21  1  0.500000  0.120956  0.706609  1
  Co  Co22  1  0.000000  0.620956  0.293391  1
  Co  Co23  1  0.000000  0.379044  0.293391  1
  P  P24  1  0.500000  0.500000  0.884526  1
  P  P25  1  0.000000  0.000000  0.115474  1
  P  P26  1  0.500000  0.500000  0.356791  1
  P  P27  1  0.000000  0.000000  0.643209  1
  P  P28  1  0.500000  0.304173  0.617227  1
  P  P29  1  0.500000  0.695827  0.617227  1
  P  P30  1  0.000000  0.195827  0.382773  1
  P  P31  1  0.000000  0.804173  0.382773  1
  P  P32  1  0.500000  0.839035  0.894155  1
  P  P33  1  0.500000  0.160965  0.894155  1
  P  P34  1  0.000000  0.660965  0.105845  1
  P  P35  1  0.000000  0.339035  0.105845  1
