# generated using pymatgen
data_Sc6Ti3Al12MoOs7
_symmetry_space_group_name_H-M   'P 1'
_cell_length_a   8.82115087
_cell_length_b   8.82115106
_cell_length_c   8.82024202
_cell_angle_alpha   59.99658678
_cell_angle_beta   59.99658644
_cell_angle_gamma   60.00000290
_symmetry_Int_Tables_number   1
_chemical_formula_structural   Sc6Ti3Al12MoOs7
_chemical_formula_sum   'Sc6 Ti3 Al12 Mo1 Os7'
_cell_volume   485.28136542
_cell_formula_units_Z   1
loop_
 _symmetry_equiv_pos_site_id
 _symmetry_equiv_pos_as_xyz
  1  'x, y, z'
loop_
 _atom_site_type_symbol
 _atom_site_label
 _atom_site_symmetry_multiplicity
 _atom_site_fract_x
 _atom_site_fract_y
 _atom_site_fract_z
 _atom_site_occupancy
  Sc  Sc0  1  0.711386  0.711386  0.287201  1
  Sc  Sc1  1  0.290027  0.711386  0.287201  1
  Sc  Sc2  1  0.711386  0.290027  0.287201  1
  Sc  Sc3  1  0.288818  0.288818  0.710529  1
  Sc  Sc4  1  0.711835  0.288818  0.710529  1
  Sc  Sc5  1  0.288818  0.711835  0.710529  1
  Ti  Ti6  1  0.881468  0.359216  0.877845  1
  Ti  Ti7  1  0.359216  0.881468  0.877845  1
  Ti  Ti8  1  0.881468  0.881468  0.877845  1
  Al  Al9  1  0.119744  0.119744  0.640767  1
  Al  Al10  1  0.121448  0.639041  0.118062  1
  Al  Al11  1  0.639041  0.121448  0.118062  1
  Al  Al12  1  0.121448  0.121448  0.118062  1
  Al  Al13  1  0.665627  0.665627  0.003120  1
  Al  Al14  1  0.663732  0.004520  0.668016  1
  Al  Al15  1  0.004520  0.663732  0.668016  1
  Al  Al16  1  0.663732  0.663732  0.668016  1
  Al  Al17  1  0.334645  0.334645  0.996066  1
  Al  Al18  1  0.334356  0.995307  0.335981  1
  Al  Al19  1  0.995307  0.334356  0.335981  1
  Al  Al20  1  0.334356  0.334356  0.335981  1
  Mo  Mo21  1  0.878639  0.878639  0.364080  1
  Os  Os22  1  0.997799  0.997799  0.006604  1
  Os  Os23  1  0.997617  0.997617  0.499624  1
  Os  Os24  1  0.505141  0.997617  0.499624  1
  Os  Os25  1  0.997617  0.505141  0.499624  1
  Os  Os26  1  0.500911  0.500911  0.999195  1
  Os  Os27  1  0.998983  0.500911  0.999195  1
  Os  Os28  1  0.500911  0.998983  0.999195  1
