# generated using pymatgen
data_CaAc(Si2Ir3)2
_symmetry_space_group_name_H-M   'P 1'
_cell_length_a   6.76145223
_cell_length_b   6.76144892
_cell_length_c   6.76145508
_cell_angle_alpha   130.17531404
_cell_angle_beta   115.56571978
_cell_angle_gamma   85.60256981
_symmetry_Int_Tables_number   1
_chemical_formula_structural   CaAc(Si2Ir3)2
_chemical_formula_sum   'Ca1 Ac1 Si4 Ir6'
_cell_volume   203.73247137
_cell_formula_units_Z   1
loop_
 _symmetry_equiv_pos_site_id
 _symmetry_equiv_pos_as_xyz
  1  'x, y, z'
loop_
 _atom_site_type_symbol
 _atom_site_label
 _atom_site_symmetry_multiplicity
 _atom_site_fract_x
 _atom_site_fract_y
 _atom_site_fract_z
 _atom_site_occupancy
  Ca  Ca0  1  0.750000  0.029657  0.279657  1
  Ac  Ac1  1  0.250001  0.975066  0.725065  1
  Si  Si2  1  0.076472  0.281661  0.205188  1
  Si  Si3  1  0.918403  0.716619  0.798215  1
  Si  Si4  1  0.423528  0.628716  0.205189  1
  Si  Si5  1  0.581597  0.379813  0.798215  1
  Ir  Ir6  1  0.502965  0.500158  0.503123  1
  Ir  Ir7  1  0.997035  0.500158  0.997193  1
  Ir  Ir8  1  0.282420  0.999942  0.276557  1
  Ir  Ir9  1  0.723385  0.999941  0.717521  1
  Ir  Ir10  1  0.217580  0.494136  0.717521  1
  Ir  Ir11  1  0.776614  0.494136  0.276556  1
