# generated using pymatgen
data_Rb(NpSe2)3
_symmetry_space_group_name_H-M   'P 1'
_cell_length_a   7.25162901
_cell_length_b   7.25162800
_cell_length_c   8.86766070
_cell_angle_alpha   97.84370144
_cell_angle_beta   97.84370079
_cell_angle_gamma   119.71681235
_symmetry_Int_Tables_number   1
_chemical_formula_structural   Rb(NpSe2)3
_chemical_formula_sum   'Rb1 Np3 Se6'
_cell_volume   389.74480843
_cell_formula_units_Z   1
loop_
 _symmetry_equiv_pos_site_id
 _symmetry_equiv_pos_as_xyz
  1  'x, y, z'
loop_
 _atom_site_type_symbol
 _atom_site_label
 _atom_site_symmetry_multiplicity
 _atom_site_fract_x
 _atom_site_fract_y
 _atom_site_fract_z
 _atom_site_occupancy
  Rb  Rb0  1  0.000000  0.000000  0.500000  1
  Np  Np1  1  0.833305  0.166695  0.000000  1
  Np  Np2  1  0.500000  0.500000  0.000000  1
  Np  Np3  1  0.166695  0.833305  0.000000  1
  Se  Se4  1  0.225711  0.225711  0.179108  1
  Se  Se5  1  0.892775  0.560601  0.178943  1
  Se  Se6  1  0.560601  0.892775  0.178943  1
  Se  Se7  1  0.439399  0.107225  0.821058  1
  Se  Se8  1  0.107225  0.439399  0.821058  1
  Se  Se9  1  0.774291  0.774291  0.820893  1
