# generated using pymatgen
data_ScZn3PdAu
_symmetry_space_group_name_H-M   'P 1'
_cell_length_a   5.10516222
_cell_length_b   5.10516226
_cell_length_c   5.11592406
_cell_angle_alpha   60.06954803
_cell_angle_beta   60.06954549
_cell_angle_gamma   59.99998598
_symmetry_Int_Tables_number   1
_chemical_formula_structural   ScZn3PdAu
_chemical_formula_sum   'Sc1 Zn3 Pd1 Au1'
_cell_volume   94.38084757
_cell_formula_units_Z   1
loop_
 _symmetry_equiv_pos_site_id
 _symmetry_equiv_pos_as_xyz
  1  'x, y, z'
loop_
 _atom_site_type_symbol
 _atom_site_label
 _atom_site_symmetry_multiplicity
 _atom_site_fract_x
 _atom_site_fract_y
 _atom_site_fract_z
 _atom_site_occupancy
  Sc  Sc0  1  0.998296  0.998296  0.005110  1
  Zn  Zn1  1  0.624928  0.129092  0.621051  1
  Zn  Zn2  1  0.129092  0.624928  0.621051  1
  Zn  Zn3  1  0.624928  0.624928  0.621051  1
  Pd  Pd4  1  0.627916  0.627916  0.116254  1
  Au  Au5  1  0.244838  0.244838  0.265486  1
