# generated using pymatgen
data_Cs2Ni2PdSe4
_symmetry_space_group_name_H-M   'P 1'
_cell_length_a   9.17156798
_cell_length_b   8.09217153
_cell_length_c   6.17624005
_cell_angle_alpha   78.74380425
_cell_angle_beta   59.92139016
_cell_angle_gamma   42.88313409
_symmetry_Int_Tables_number   1
_chemical_formula_structural   Cs2Ni2PdSe4
_chemical_formula_sum   'Cs2 Ni2 Pd1 Se4'
_cell_volume   258.15204856
_cell_formula_units_Z   1
loop_
 _symmetry_equiv_pos_site_id
 _symmetry_equiv_pos_as_xyz
  1  'x, y, z'
loop_
 _atom_site_type_symbol
 _atom_site_label
 _atom_site_symmetry_multiplicity
 _atom_site_fract_x
 _atom_site_fract_y
 _atom_site_fract_z
 _atom_site_occupancy
  Cs  Cs0  1  0.344407  0.344407  0.655593  1
  Cs  Cs1  1  0.655593  0.655593  0.344407  1
  Ni  Ni2  1  0.000000  0.000000  0.500000  1
  Ni  Ni3  1  0.000000  0.000000  0.000000  1
  Pd  Pd4  1  0.500000  0.500000  0.000000  1
  Se  Se5  1  0.952530  0.255753  0.720470  1
  Se  Se6  1  0.047470  0.744247  0.279530  1
  Se  Se7  1  0.744247  0.047470  0.928753  1
  Se  Se8  1  0.255753  0.952530  0.071247  1
