# generated using pymatgen
data_Lu4Ni13Rh
_symmetry_space_group_name_H-M   'P 1'
_cell_length_a   4.87313067
_cell_length_b   4.87312838
_cell_length_c   12.47557349
_cell_angle_alpha   78.73734548
_cell_angle_beta   78.73734954
_cell_angle_gamma   59.99999142
_symmetry_Int_Tables_number   1
_chemical_formula_structural   Lu4Ni13Rh
_chemical_formula_sum   'Lu4 Ni13 Rh1'
_cell_volume   249.96098543
_cell_formula_units_Z   1
loop_
 _symmetry_equiv_pos_site_id
 _symmetry_equiv_pos_as_xyz
  1  'x, y, z'
loop_
 _atom_site_type_symbol
 _atom_site_label
 _atom_site_symmetry_multiplicity
 _atom_site_fract_x
 _atom_site_fract_y
 _atom_site_fract_z
 _atom_site_occupancy
  Lu  Lu0  1  0.949981  0.949981  0.150057  1
  Lu  Lu1  1  0.050019  0.050019  0.849943  1
  Lu  Lu2  1  0.853754  0.853754  0.438739  1
  Lu  Lu3  1  0.146246  0.146246  0.561261  1
  Ni  Ni4  1  0.720735  0.720735  0.837795  1
  Ni  Ni5  1  0.279265  0.279265  0.162205  1
  Ni  Ni6  1  0.612705  0.612705  0.161886  1
  Ni  Ni7  1  0.387295  0.387295  0.838114  1
  Ni  Ni8  1  0.000000  0.500000  0.000000  1
  Ni  Ni9  1  0.500000  0.000000  0.000000  1
  Ni  Ni10  1  0.500000  0.500000  0.000000  1
  Ni  Ni11  1  0.390286  0.390286  0.324622  1
  Ni  Ni12  1  0.894807  0.390286  0.324622  1
  Ni  Ni13  1  0.390286  0.894807  0.324622  1
  Ni  Ni14  1  0.609714  0.609714  0.675378  1
  Ni  Ni15  1  0.105193  0.609714  0.675378  1
  Ni  Ni16  1  0.609714  0.105193  0.675378  1
  Rh  Rh17  1  0.500000  0.500000  0.500000  1
