# generated using pymatgen
data_DyY2Mn2W3O14
_symmetry_space_group_name_H-M   'P 1'
_cell_length_a   7.19848780
_cell_length_b   7.19849888
_cell_length_c   7.20073700
_cell_angle_alpha   117.19203223
_cell_angle_beta   62.80798322
_cell_angle_gamma   117.19275809
_symmetry_Int_Tables_number   1
_chemical_formula_structural   DyY2Mn2W3O14
_chemical_formula_sum   'Dy1 Y2 Mn2 W3 O14'
_cell_volume   280.31324125
_cell_formula_units_Z   1
loop_
 _symmetry_equiv_pos_site_id
 _symmetry_equiv_pos_as_xyz
  1  'x, y, z'
loop_
 _atom_site_type_symbol
 _atom_site_label
 _atom_site_symmetry_multiplicity
 _atom_site_fract_x
 _atom_site_fract_y
 _atom_site_fract_z
 _atom_site_occupancy
  Dy  Dy0  1  0.500004  0.500003  0.499997  1
  Y  Y1  1  0.999994  0.500000  0.000005  1
  Y  Y2  1  0.500001  0.000000  0.999995  1
  Mn  Mn3  1  0.499990  0.500011  0.999991  1
  Mn  Mn4  1  0.000016  0.000021  0.500006  1
  W  W5  1  0.500006  0.999984  0.500007  1
  W  W6  1  0.000002  0.500002  0.499994  1
  W  W7  1  0.000003  0.999997  0.000003  1
  O  O8  1  0.621552  0.378447  0.121986  1
  O  O9  1  0.378424  0.621563  0.877998  1
  O  O10  1  0.085011  0.324250  0.175837  1
  O  O11  1  0.675747  0.914989  0.175835  1
  O  O12  1  0.675575  0.324424  0.584933  1
  O  O13  1  0.914982  0.675739  0.824171  1
  O  O14  1  0.324251  0.084996  0.824162  1
  O  O15  1  0.324425  0.675572  0.415069  1
  O  O16  1  0.643356  0.902886  0.596538  1
  O  O17  1  0.097112  0.356644  0.596536  1
  O  O18  1  0.096602  0.903388  0.143572  1
  O  O19  1  0.356663  0.097119  0.403455  1
  O  O20  1  0.902892  0.643356  0.403468  1
  O  O21  1  0.903394  0.096611  0.856442  1
