# generated using pymatgen
data_Nd8Si13Pb
_symmetry_space_group_name_H-M   'P 1'
_cell_length_a   8.23230759
_cell_length_b   8.03793373
_cell_length_c   8.56636100
_cell_angle_alpha   90.00000000
_cell_angle_beta   90.00000000
_cell_angle_gamma   120.88833687
_symmetry_Int_Tables_number   1
_chemical_formula_structural   Nd8Si13Pb
_chemical_formula_sum   'Nd8 Si13 Pb1'
_cell_volume   486.44687692
_cell_formula_units_Z   1
loop_
 _symmetry_equiv_pos_site_id
 _symmetry_equiv_pos_as_xyz
  1  'x, y, z'
loop_
 _atom_site_type_symbol
 _atom_site_label
 _atom_site_symmetry_multiplicity
 _atom_site_fract_x
 _atom_site_fract_y
 _atom_site_fract_z
 _atom_site_occupancy
  Nd  Nd0  1  0.266846  0.254646  0.989027  1
  Nd  Nd1  1  0.751067  0.757872  0.002939  1
  Nd  Nd2  1  0.751067  0.757872  0.497061  1
  Nd  Nd3  1  0.266846  0.254646  0.510973  1
  Nd  Nd4  1  0.252883  0.749680  0.495939  1
  Nd  Nd5  1  0.738289  0.257712  0.515291  1
  Nd  Nd6  1  0.738289  0.257712  0.984709  1
  Nd  Nd7  1  0.252883  0.749680  0.004061  1
  Si  Si8  1  0.940042  0.630448  0.750000  1
  Si  Si9  1  0.590039  0.427158  0.250000  1
  Si  Si10  1  0.415416  0.586548  0.750000  1
  Si  Si11  1  0.412976  0.584682  0.250000  1
  Si  Si12  1  0.596475  0.429407  0.750000  1
  Si  Si13  1  0.078328  0.932958  0.250000  1
  Si  Si14  1  0.931956  0.074941  0.750000  1
  Si  Si15  1  0.606975  0.934860  0.250000  1
  Si  Si16  1  0.391877  0.065520  0.750000  1
  Si  Si17  1  0.924566  0.584413  0.250000  1
  Si  Si18  1  0.074101  0.421674  0.750000  1
  Si  Si19  1  0.416945  0.080497  0.250000  1
  Si  Si20  1  0.591176  0.928873  0.750000  1
  Pb  Pb21  1  0.010960  0.278199  0.250000  1
