# generated using pymatgen
data_HoLu3(WN2)4
_symmetry_space_group_name_H-M   'P 1'
_cell_length_a   3.16282800
_cell_length_b   5.65567803
_cell_length_c   10.46767275
_cell_angle_alpha   90.09710379
_cell_angle_beta   90.00000000
_cell_angle_gamma   90.00000000
_symmetry_Int_Tables_number   1
_chemical_formula_structural   HoLu3(WN2)4
_chemical_formula_sum   'Ho1 Lu3 W4 N8'
_cell_volume   187.24480019
_cell_formula_units_Z   1
loop_
 _symmetry_equiv_pos_site_id
 _symmetry_equiv_pos_as_xyz
  1  'x, y, z'
loop_
 _atom_site_type_symbol
 _atom_site_label
 _atom_site_symmetry_multiplicity
 _atom_site_fract_x
 _atom_site_fract_y
 _atom_site_fract_z
 _atom_site_occupancy
  Ho  Ho0  1  0.750000  0.919633  0.854305  1
  Lu  Lu1  1  0.250000  0.579208  0.354499  1
  Lu  Lu2  1  0.250000  0.079371  0.146211  1
  Lu  Lu3  1  0.750000  0.420712  0.644929  1
  W  W4  1  0.250000  0.932622  0.594483  1
  W  W5  1  0.250000  0.431069  0.904598  1
  W  W6  1  0.750000  0.068101  0.404551  1
  W  W7  1  0.750000  0.567853  0.095896  1
  N  N8  1  0.250000  0.661603  0.746621  1
  N  N9  1  0.250000  0.167244  0.750215  1
  N  N10  1  0.750000  0.336046  0.252770  1
  N  N11  1  0.750000  0.836413  0.247915  1
  N  N12  1  0.250000  0.268846  0.494351  1
  N  N13  1  0.250000  0.766219  0.007536  1
  N  N14  1  0.750000  0.731673  0.504706  1
  N  N15  1  0.750000  0.233388  0.996414  1
