# generated using pymatgen
data_Sc2TiGa5
_symmetry_space_group_name_H-M   'P 1'
_cell_length_a   5.70725500
_cell_length_b   9.04985700
_cell_length_c   10.87559700
_cell_angle_alpha   90.00000000
_cell_angle_beta   90.00000000
_cell_angle_gamma   90.00000000
_symmetry_Int_Tables_number   1
_chemical_formula_structural   Sc2TiGa5
_chemical_formula_sum   'Sc8 Ti4 Ga20'
_cell_volume   561.72286249
_cell_formula_units_Z   4
loop_
 _symmetry_equiv_pos_site_id
 _symmetry_equiv_pos_as_xyz
  1  'x, y, z'
loop_
 _atom_site_type_symbol
 _atom_site_label
 _atom_site_symmetry_multiplicity
 _atom_site_fract_x
 _atom_site_fract_y
 _atom_site_fract_z
 _atom_site_occupancy
  Sc  Sc0  1  0.887846  0.505903  0.354655  1
  Sc  Sc1  1  0.612154  0.994097  0.854655  1
  Sc  Sc2  1  0.112154  0.005903  0.645345  1
  Sc  Sc3  1  0.387846  0.494097  0.145345  1
  Sc  Sc4  1  0.112154  0.494097  0.645345  1
  Sc  Sc5  1  0.387846  0.005903  0.145345  1
  Sc  Sc6  1  0.887846  0.994097  0.354655  1
  Sc  Sc7  1  0.612154  0.505903  0.854655  1
  Ti  Ti8  1  0.856066  0.750000  0.066950  1
  Ti  Ti9  1  0.643934  0.750000  0.566950  1
  Ti  Ti10  1  0.143934  0.250000  0.933050  1
  Ti  Ti11  1  0.356066  0.250000  0.433050  1
  Ga  Ga12  1  0.875318  0.047996  0.092965  1
  Ga  Ga13  1  0.624682  0.452004  0.592965  1
  Ga  Ga14  1  0.124682  0.547996  0.907035  1
  Ga  Ga15  1  0.375318  0.952004  0.407035  1
  Ga  Ga16  1  0.124682  0.952004  0.907035  1
  Ga  Ga17  1  0.375318  0.547996  0.407035  1
  Ga  Ga18  1  0.875318  0.452004  0.092965  1
  Ga  Ga19  1  0.624682  0.047996  0.592965  1
  Ga  Ga20  1  0.149785  0.750000  0.247604  1
  Ga  Ga21  1  0.350215  0.750000  0.747604  1
  Ga  Ga22  1  0.850215  0.250000  0.752396  1
  Ga  Ga23  1  0.649785  0.250000  0.252396  1
  Ga  Ga24  1  0.399694  0.750000  0.003047  1
  Ga  Ga25  1  0.100306  0.750000  0.503047  1
  Ga  Ga26  1  0.600306  0.250000  0.996953  1
  Ga  Ga27  1  0.899694  0.250000  0.496953  1
  Ga  Ga28  1  0.619891  0.750000  0.287078  1
  Ga  Ga29  1  0.880109  0.750000  0.787078  1
  Ga  Ga30  1  0.380109  0.250000  0.712922  1
  Ga  Ga31  1  0.119891  0.250000  0.212922  1
