# generated using pymatgen
data_Y20AlCd5Ir2
_symmetry_space_group_name_H-M   'P 1'
_cell_length_a   9.66630633
_cell_length_b   9.66630647
_cell_length_c   9.84385900
_cell_angle_alpha   90.00000000
_cell_angle_beta   90.00000000
_cell_angle_gamma   119.96995032
_symmetry_Int_Tables_number   1
_chemical_formula_structural   Y20AlCd5Ir2
_chemical_formula_sum   'Y20 Al1 Cd5 Ir2'
_cell_volume   796.79858746
_cell_formula_units_Z   1
loop_
 _symmetry_equiv_pos_site_id
 _symmetry_equiv_pos_as_xyz
  1  'x, y, z'
loop_
 _atom_site_type_symbol
 _atom_site_label
 _atom_site_symmetry_multiplicity
 _atom_site_fract_x
 _atom_site_fract_y
 _atom_site_fract_z
 _atom_site_occupancy
  Y  Y0  1  0.999613  0.000387  0.498373  1
  Y  Y1  1  0.999613  0.000387  0.001627  1
  Y  Y2  1  0.209278  0.790722  0.440882  1
  Y  Y3  1  0.207561  0.416837  0.439124  1
  Y  Y4  1  0.583163  0.792439  0.439124  1
  Y  Y5  1  0.791389  0.208611  0.556025  1
  Y  Y6  1  0.790311  0.581167  0.559897  1
  Y  Y7  1  0.418833  0.209689  0.559897  1
  Y  Y8  1  0.791389  0.208611  0.943975  1
  Y  Y9  1  0.790311  0.581167  0.940103  1
  Y  Y10  1  0.418833  0.209689  0.940103  1
  Y  Y11  1  0.209278  0.790722  0.059118  1
  Y  Y12  1  0.207561  0.416837  0.060876  1
  Y  Y13  1  0.583163  0.792439  0.060876  1
  Y  Y14  1  0.540458  0.459542  0.250000  1
  Y  Y15  1  0.542265  0.082888  0.250000  1
  Y  Y16  1  0.917112  0.457735  0.250000  1
  Y  Y17  1  0.458326  0.541674  0.750000  1
  Y  Y18  1  0.459403  0.917626  0.750000  1
  Y  Y19  1  0.082374  0.540597  0.750000  1
  Al  Al20  1  0.884853  0.115147  0.250000  1
  Cd  Cd21  1  0.885327  0.771720  0.250000  1
  Cd  Cd22  1  0.228280  0.114673  0.250000  1
  Cd  Cd23  1  0.114441  0.885559  0.750000  1
  Cd  Cd24  1  0.114821  0.228751  0.750000  1
  Cd  Cd25  1  0.771249  0.885179  0.750000  1
  Ir  Ir26  1  0.333485  0.666515  0.250000  1
  Ir  Ir27  1  0.667309  0.332691  0.750000  1
