# generated using pymatgen
data_ZnCu3Bi4(TeO6)4
_symmetry_space_group_name_H-M   'P 1'
_cell_length_a   5.24007108
_cell_length_b   9.07617101
_cell_length_c   9.97955712
_cell_angle_alpha   89.99890259
_cell_angle_beta   89.98115662
_cell_angle_gamma   90.00136796
_symmetry_Int_Tables_number   1
_chemical_formula_structural   ZnCu3Bi4(TeO6)4
_chemical_formula_sum   'Zn1 Cu3 Bi4 Te4 O24'
_cell_volume   474.62552733
_cell_formula_units_Z   1
loop_
 _symmetry_equiv_pos_site_id
 _symmetry_equiv_pos_as_xyz
  1  'x, y, z'
loop_
 _atom_site_type_symbol
 _atom_site_label
 _atom_site_symmetry_multiplicity
 _atom_site_fract_x
 _atom_site_fract_y
 _atom_site_fract_z
 _atom_site_occupancy
  Zn  Zn0  1  0.500025  0.833145  0.750000  1
  Cu  Cu1  1  0.499967  0.166516  0.250005  1
  Cu  Cu2  1  0.000023  0.334241  0.749996  1
  Cu  Cu3  1  0.999975  0.666578  0.250005  1
  Bi  Bi4  1  0.995917  0.998055  0.503830  1
  Bi  Bi5  1  0.505032  0.502023  0.504290  1
  Bi  Bi6  1  0.004096  0.998057  0.996168  1
  Bi  Bi7  1  0.494979  0.502020  0.995711  1
  Te  Te8  1  0.500016  0.168445  0.749999  1
  Te  Te9  1  0.000019  0.665154  0.750001  1
  Te  Te10  1  0.999978  0.332400  0.249998  1
  Te  Te11  1  0.499986  0.833965  0.249998  1
  O  O12  1  0.633342  0.012101  0.637411  1
  O  O13  1  0.137665  0.501130  0.642225  1
  O  O14  1  0.678185  0.318438  0.641962  1
  O  O15  1  0.166642  0.811127  0.637798  1
  O  O16  1  0.188606  0.183407  0.641725  1
  O  O17  1  0.694564  0.673990  0.638629  1
  O  O18  1  0.179389  0.185791  0.140751  1
  O  O19  1  0.678111  0.686863  0.141162  1
  O  O20  1  0.130210  0.495836  0.140751  1
  O  O21  1  0.631765  0.996398  0.141317  1
  O  O22  1  0.689920  0.316614  0.141735  1
  O  O23  1  0.190264  0.818021  0.140500  1
  O  O24  1  0.869749  0.495834  0.359245  1
  O  O25  1  0.368193  0.996393  0.358681  1
  O  O26  1  0.820566  0.185787  0.359250  1
  O  O27  1  0.321851  0.686860  0.358839  1
  O  O28  1  0.310027  0.316613  0.358271  1
  O  O29  1  0.809692  0.818020  0.359506  1
  O  O30  1  0.321855  0.318435  0.858036  1
  O  O31  1  0.833401  0.811121  0.862200  1
  O  O32  1  0.366692  0.012100  0.862596  1
  O  O33  1  0.862376  0.501127  0.857779  1
  O  O34  1  0.811441  0.183405  0.858268  1
  O  O35  1  0.305481  0.673991  0.861365  1
