# generated using pymatgen
data_Dy5Nb2P12Rh17
_symmetry_space_group_name_H-M   'P 1'
_cell_length_a   12.65265300
_cell_length_b   12.79726685
_cell_length_c   3.93163400
_cell_angle_alpha   90.00000000
_cell_angle_beta   90.00000000
_cell_angle_gamma   119.62688813
_symmetry_Int_Tables_number   1
_chemical_formula_structural   Dy5Nb2P12Rh17
_chemical_formula_sum   'Dy5 Nb2 P12 Rh17'
_cell_volume   553.37956387
_cell_formula_units_Z   1
loop_
 _symmetry_equiv_pos_site_id
 _symmetry_equiv_pos_as_xyz
  1  'x, y, z'
loop_
 _atom_site_type_symbol
 _atom_site_label
 _atom_site_symmetry_multiplicity
 _atom_site_fract_x
 _atom_site_fract_y
 _atom_site_fract_z
 _atom_site_occupancy
  Dy  Dy0  1  0.330098  0.661597  0.500000  1
  Dy  Dy1  1  0.668502  0.338403  0.500000  1
  Dy  Dy2  1  0.998674  0.811469  0.000000  1
  Dy  Dy3  1  0.187205  0.188531  0.000000  1
  Dy  Dy4  1  0.811132  0.000000  0.000000  1
  Nb  Nb5  1  0.997627  0.447279  0.500000  1
  Nb  Nb6  1  0.550348  0.552721  0.500000  1
  P  P7  1  0.002321  0.640528  0.500000  1
  P  P8  1  0.361793  0.359472  0.500000  1
  P  P9  1  0.638643  0.000000  0.500000  1
  P  P10  1  0.515404  0.682177  0.000000  1
  P  P11  1  0.313869  0.829787  0.000000  1
  P  P12  1  0.162355  0.480950  0.000000  1
  P  P13  1  0.484082  0.170213  0.000000  1
  P  P14  1  0.681406  0.519050  0.000000  1
  P  P15  1  0.833227  0.317823  0.000000  1
  P  P16  1  0.999672  0.174896  0.500000  1
  P  P17  1  0.824775  0.825104  0.500000  1
  P  P18  1  0.182434  0.000000  0.500000  1
  Rh  Rh19  1  0.508227  0.863653  0.000000  1
  Rh  Rh20  1  0.127207  0.644015  0.000000  1
  Rh  Rh21  1  0.353006  0.487497  0.000000  1
  Rh  Rh22  1  0.483193  0.355985  0.000000  1
  Rh  Rh23  1  0.865511  0.512503  0.000000  1
  Rh  Rh24  1  0.644574  0.136347  0.000000  1
  Rh  Rh25  1  0.457264  0.000000  0.500000  1
  Rh  Rh26  1  0.997986  0.277659  0.000000  1
  Rh  Rh27  1  0.720326  0.722341  0.000000  1
  Rh  Rh28  1  0.286744  0.000000  0.000000  1
  Rh  Rh29  1  0.626466  0.806916  0.500000  1
  Rh  Rh30  1  0.201760  0.823395  0.500000  1
  Rh  Rh31  1  0.176199  0.370239  0.500000  1
  Rh  Rh32  1  0.378365  0.176605  0.500000  1
  Rh  Rh33  1  0.805959  0.629761  0.500000  1
  Rh  Rh34  1  0.819550  0.193084  0.500000  1
  Rh  Rh35  1  0.004095  0.000000  0.500000  1
