# generated using pymatgen
data_Ho4Lu4Re(B8Os)3
_symmetry_space_group_name_H-M   'P 1'
_cell_length_a   3.62406200
_cell_length_b   9.07566195
_cell_length_c   11.46475301
_cell_angle_alpha   90.07398286
_cell_angle_beta   90.00000000
_cell_angle_gamma   90.00000000
_symmetry_Int_Tables_number   1
_chemical_formula_structural   Ho4Lu4Re(B8Os)3
_chemical_formula_sum   'Ho4 Lu4 Re1 B24 Os3'
_cell_volume   377.08414345
_cell_formula_units_Z   1
loop_
 _symmetry_equiv_pos_site_id
 _symmetry_equiv_pos_as_xyz
  1  'x, y, z'
loop_
 _atom_site_type_symbol
 _atom_site_label
 _atom_site_symmetry_multiplicity
 _atom_site_fract_x
 _atom_site_fract_y
 _atom_site_fract_z
 _atom_site_occupancy
  Ho  Ho0  1  0.000000  0.321675  0.414867  1
  Ho  Ho1  1  0.000000  0.680847  0.588029  1
  Ho  Ho2  1  0.000000  0.821678  0.083719  1
  Ho  Ho3  1  0.000000  0.177131  0.913120  1
  Lu  Lu4  1  0.000000  0.943579  0.372329  1
  Lu  Lu5  1  0.000000  0.055659  0.627512  1
  Lu  Lu6  1  0.000000  0.443166  0.127359  1
  Lu  Lu7  1  0.000000  0.556395  0.873050  1
  Re  Re8  1  0.000000  0.861956  0.820765  1
  B  B9  1  0.500000  0.554024  0.433267  1
  B  B10  1  0.500000  0.446207  0.567031  1
  B  B11  1  0.500000  0.053734  0.067352  1
  B  B12  1  0.500000  0.947028  0.933132  1
  B  B13  1  0.500000  0.749768  0.419429  1
  B  B14  1  0.500000  0.250380  0.580403  1
  B  B15  1  0.500000  0.249457  0.080752  1
  B  B16  1  0.500000  0.750074  0.919284  1
  B  B17  1  0.500000  0.791349  0.265822  1
  B  B18  1  0.500000  0.208358  0.733360  1
  B  B19  1  0.500000  0.291773  0.234185  1
  B  B20  1  0.500000  0.707672  0.765866  1
  B  B21  1  0.500000  0.630138  0.184656  1
  B  B22  1  0.500000  0.369392  0.814935  1
  B  B23  1  0.500000  0.130723  0.315505  1
  B  B24  1  0.500000  0.869637  0.684820  1
  B  B25  1  0.500000  0.982272  0.213343  1
  B  B26  1  0.500000  0.018741  0.786586  1
  B  B27  1  0.500000  0.482123  0.287146  1
  B  B28  1  0.500000  0.517837  0.713338  1
  B  B29  1  0.500000  0.602865  0.029070  1
  B  B30  1  0.500000  0.395459  0.971498  1
  B  B31  1  0.500000  0.104216  0.470940  1
  B  B32  1  0.500000  0.896392  0.528086  1
  Os  Os33  1  0.000000  0.637954  0.320675  1
  Os  Os34  1  0.000000  0.362111  0.678812  1
  Os  Os35  1  0.000000  0.138234  0.179952  1
