# generated using pymatgen
data_LiTiCo20ReB6
_symmetry_space_group_name_H-M   'P 1'
_cell_length_a   7.37599248
_cell_length_b   7.37599166
_cell_length_c   7.37599300
_cell_angle_alpha   59.99999846
_cell_angle_beta   60.00000214
_cell_angle_gamma   60.00000293
_symmetry_Int_Tables_number   1
_chemical_formula_structural   LiTiCo20ReB6
_chemical_formula_sum   'Li1 Ti1 Co20 Re1 B6'
_cell_volume   283.75687427
_cell_formula_units_Z   1
loop_
 _symmetry_equiv_pos_site_id
 _symmetry_equiv_pos_as_xyz
  1  'x, y, z'
loop_
 _atom_site_type_symbol
 _atom_site_label
 _atom_site_symmetry_multiplicity
 _atom_site_fract_x
 _atom_site_fract_y
 _atom_site_fract_z
 _atom_site_occupancy
  Li  Li0  1  0.000000  0.000000  0.000000  1
  Ti  Ti1  1  0.750000  0.750000  0.750000  1
  Co  Co2  1  0.617120  0.617120  0.148642  1
  Co  Co3  1  0.617120  0.148642  0.617120  1
  Co  Co4  1  0.148642  0.617120  0.617120  1
  Co  Co5  1  0.617120  0.617120  0.617120  1
  Co  Co6  1  0.381127  0.381127  0.856617  1
  Co  Co7  1  0.381127  0.856617  0.381127  1
  Co  Co8  1  0.856617  0.381127  0.381127  1
  Co  Co9  1  0.381127  0.381127  0.381127  1
  Co  Co10  1  0.000471  0.000471  0.340834  1
  Co  Co11  1  0.658223  0.000471  0.340834  1
  Co  Co12  1  0.000471  0.658223  0.340834  1
  Co  Co13  1  0.658223  0.340834  0.000471  1
  Co  Co14  1  0.000471  0.340834  0.000471  1
  Co  Co15  1  0.000471  0.340834  0.658223  1
  Co  Co16  1  0.340834  0.658223  0.000471  1
  Co  Co17  1  0.340834  0.000471  0.658223  1
  Co  Co18  1  0.340834  0.000471  0.000471  1
  Co  Co19  1  0.000471  0.000471  0.658223  1
  Co  Co20  1  0.000471  0.658223  0.000471  1
  Co  Co21  1  0.658223  0.000471  0.000471  1
  Re  Re22  1  0.250000  0.250000  0.250000  1
  B  B23  1  0.726934  0.726934  0.273066  1
  B  B24  1  0.273066  0.726934  0.273066  1
  B  B25  1  0.726934  0.273066  0.273066  1
  B  B26  1  0.273066  0.273066  0.726934  1
  B  B27  1  0.726934  0.273066  0.726934  1
  B  B28  1  0.273066  0.726934  0.726934  1
