# generated using pymatgen
data_EuTmNb2(Co4P3)2
_symmetry_space_group_name_H-M   'P 1'
_cell_length_a   12.12067351
_cell_length_b   12.12067368
_cell_length_c   3.65949900
_cell_angle_alpha   90.00000000
_cell_angle_beta   90.00000000
_cell_angle_gamma   119.84214225
_symmetry_Int_Tables_number   1
_chemical_formula_structural   EuTmNb2(Co4P3)2
_chemical_formula_sum   'Eu2 Tm2 Nb4 Co16 P12'
_cell_volume   466.33112634
_cell_formula_units_Z   2
loop_
 _symmetry_equiv_pos_site_id
 _symmetry_equiv_pos_as_xyz
  1  'x, y, z'
loop_
 _atom_site_type_symbol
 _atom_site_label
 _atom_site_symmetry_multiplicity
 _atom_site_fract_x
 _atom_site_fract_y
 _atom_site_fract_z
 _atom_site_occupancy
  Eu  Eu0  1  0.333127  0.666537  0.000000  1
  Eu  Eu1  1  0.666537  0.333127  0.000000  1
  Tm  Tm2  1  0.820368  0.999789  0.500000  1
  Tm  Tm3  1  0.999789  0.820368  0.500000  1
  Nb  Nb4  1  0.186100  0.186100  0.500000  1
  Nb  Nb5  1  0.443908  0.000863  0.000000  1
  Nb  Nb6  1  0.000863  0.443908  0.000000  1
  Nb  Nb7  1  0.553471  0.553471  0.000000  1
  Co  Co8  1  0.277585  0.004952  0.500000  1
  Co  Co9  1  0.004952  0.277585  0.500000  1
  Co  Co10  1  0.720676  0.720676  0.500000  1
  Co  Co11  1  0.629769  0.805141  0.000000  1
  Co  Co12  1  0.194294  0.826518  0.000000  1
  Co  Co13  1  0.174933  0.364893  0.000000  1
  Co  Co14  1  0.364893  0.174933  0.000000  1
  Co  Co15  1  0.805141  0.629769  0.000000  1
  Co  Co16  1  0.826518  0.194294  0.000000  1
  Co  Co17  1  0.523200  0.877373  0.500000  1
  Co  Co18  1  0.123497  0.647802  0.500000  1
  Co  Co19  1  0.349055  0.471230  0.500000  1
  Co  Co20  1  0.471230  0.349055  0.500000  1
  Co  Co21  1  0.877373  0.523200  0.500000  1
  Co  Co22  1  0.647802  0.123497  0.500000  1
  Co  Co23  1  0.002658  0.002658  0.000000  1
  P  P24  1  0.175417  0.003022  0.000000  1
  P  P25  1  0.003022  0.175417  0.000000  1
  P  P26  1  0.825353  0.825353  0.000000  1
  P  P27  1  0.522458  0.689861  0.500000  1
  P  P28  1  0.309240  0.834175  0.500000  1
  P  P29  1  0.167711  0.478220  0.500000  1
  P  P30  1  0.478220  0.167711  0.500000  1
  P  P31  1  0.689861  0.522458  0.500000  1
  P  P32  1  0.834175  0.309240  0.500000  1
  P  P33  1  0.646455  0.999839  0.000000  1
  P  P34  1  0.999839  0.646455  0.000000  1
  P  P35  1  0.350516  0.350516  0.000000  1
