# generated using pymatgen
data_Hf18Nb2Si15As
_symmetry_space_group_name_H-M   'P 1'
_cell_length_a   7.05158182
_cell_length_b   7.04353276
_cell_length_c   12.85647521
_cell_angle_alpha   89.98652413
_cell_angle_beta   89.82558081
_cell_angle_gamma   89.82779895
_symmetry_Int_Tables_number   1
_chemical_formula_structural   Hf18Nb2Si15As
_chemical_formula_sum   'Hf18 Nb2 Si15 As1'
_cell_volume   638.55016268
_cell_formula_units_Z   1
loop_
 _symmetry_equiv_pos_site_id
 _symmetry_equiv_pos_as_xyz
  1  'x, y, z'
loop_
 _atom_site_type_symbol
 _atom_site_label
 _atom_site_symmetry_multiplicity
 _atom_site_fract_x
 _atom_site_fract_y
 _atom_site_fract_z
 _atom_site_occupancy
  Hf  Hf0  1  0.824526  0.824929  0.500147  1
  Hf  Hf1  1  0.177049  0.175507  0.999766  1
  Hf  Hf2  1  0.497317  0.152425  0.532651  1
  Hf  Hf3  1  0.500248  0.844415  0.031150  1
  Hf  Hf4  1  0.651162  0.999483  0.284479  1
  Hf  Hf5  1  0.345248  0.995709  0.780658  1
  Hf  Hf6  1  0.847876  0.506462  0.966877  1
  Hf  Hf7  1  0.153839  0.496832  0.467533  1
  Hf  Hf8  1  0.001017  0.652551  0.717780  1
  Hf  Hf9  1  0.004358  0.351700  0.220426  1
  Hf  Hf10  1  0.498077  0.355163  0.125934  1
  Hf  Hf11  1  0.501652  0.644260  0.627078  1
  Hf  Hf12  1  0.851137  0.002947  0.875752  1
  Hf  Hf13  1  0.147425  0.998347  0.375962  1
  Hf  Hf14  1  0.645271  0.501301  0.372949  1
  Hf  Hf15  1  0.354375  0.500027  0.872561  1
  Hf  Hf16  1  0.004119  0.850628  0.125128  1
  Hf  Hf17  1  0.998062  0.146604  0.624126  1
  Nb  Nb18  1  0.675899  0.324534  0.750058  1
  Nb  Nb19  1  0.325070  0.674886  0.250120  1
  Si  Si20  1  0.203543  0.853244  0.572740  1
  Si  Si21  1  0.646087  0.703821  0.822391  1
  Si  Si22  1  0.355635  0.296126  0.323059  1
  Si  Si23  1  0.853496  0.203742  0.427388  1
  Si  Si24  1  0.144564  0.797203  0.927103  1
  Si  Si25  1  0.703083  0.646679  0.177201  1
  Si  Si26  1  0.295976  0.353566  0.676733  1
  Si  Si27  1  0.541868  0.197266  0.930753  1
  Si  Si28  1  0.449254  0.799648  0.436243  1
  Si  Si29  1  0.697149  0.953176  0.685916  1
  Si  Si30  1  0.303457  0.046656  0.186046  1
  Si  Si31  1  0.801181  0.449975  0.564314  1
  Si  Si32  1  0.199816  0.549996  0.064117  1
  Si  Si33  1  0.952822  0.698641  0.315031  1
  Si  Si34  1  0.046748  0.302527  0.813691  1
  As  As35  1  0.801596  0.149024  0.076141  1
