# generated using pymatgen
data_PrZnCd2As3
_symmetry_space_group_name_H-M   'P 1'
_cell_length_a   4.33075132
_cell_length_b   4.33277631
_cell_length_c   22.11328400
_cell_angle_alpha   90.00000000
_cell_angle_beta   90.00000000
_cell_angle_gamma   119.97896569
_symmetry_Int_Tables_number   1
_chemical_formula_structural   PrZnCd2As3
_chemical_formula_sum   'Pr2 Zn2 Cd4 As6'
_cell_volume   359.42261650
_cell_formula_units_Z   2
loop_
 _symmetry_equiv_pos_site_id
 _symmetry_equiv_pos_as_xyz
  1  'x, y, z'
loop_
 _atom_site_type_symbol
 _atom_site_label
 _atom_site_symmetry_multiplicity
 _atom_site_fract_x
 _atom_site_fract_y
 _atom_site_fract_z
 _atom_site_occupancy
  Pr  Pr0  1  0.998663  0.000815  0.500014  1
  Pr  Pr1  1  0.998663  0.000815  0.999986  1
  Zn  Zn2  1  0.630206  0.360628  0.750000  1
  Zn  Zn3  1  0.270490  0.631440  0.250000  1
  Cd  Cd4  1  0.670011  0.336687  0.128533  1
  Cd  Cd5  1  0.335426  0.666282  0.871457  1
  Cd  Cd6  1  0.335426  0.666282  0.628543  1
  Cd  Cd7  1  0.670011  0.336687  0.371467  1
  As  As8  1  0.666789  0.333870  0.578652  1
  As  As9  1  0.333795  0.668595  0.421368  1
  As  As10  1  0.333795  0.668595  0.078632  1
  As  As11  1  0.666789  0.333870  0.921348  1
  As  As12  1  0.294102  0.696390  0.750000  1
  As  As13  1  0.598730  0.295142  0.250000  1
