# generated using pymatgen
data_Na6CaI8
_symmetry_space_group_name_H-M   'P 1'
_cell_length_a   9.27133730
_cell_length_b   9.27133665
_cell_length_c   9.27133700
_cell_angle_alpha   60.00000232
_cell_angle_beta   60.00000463
_cell_angle_gamma   60.00000490
_symmetry_Int_Tables_number   1
_chemical_formula_structural   Na6CaI8
_chemical_formula_sum   'Na6 Ca1 I8'
_cell_volume   563.52364134
_cell_formula_units_Z   1
loop_
 _symmetry_equiv_pos_site_id
 _symmetry_equiv_pos_as_xyz
  1  'x, y, z'
loop_
 _atom_site_type_symbol
 _atom_site_label
 _atom_site_symmetry_multiplicity
 _atom_site_fract_x
 _atom_site_fract_y
 _atom_site_fract_z
 _atom_site_occupancy
  Na  Na0  1  0.500000  0.500000  0.000000  1
  Na  Na1  1  0.000000  0.500000  0.000000  1
  Na  Na2  1  0.500000  0.000000  0.000000  1
  Na  Na3  1  0.000000  0.500000  0.500000  1
  Na  Na4  1  0.500000  0.000000  0.500000  1
  Na  Na5  1  0.000000  0.000000  0.500000  1
  Ca  Ca6  1  0.000000  0.000000  0.000000  1
  I  I7  1  0.759507  0.240493  0.759507  1
  I  I8  1  0.250000  0.250000  0.250000  1
  I  I9  1  0.750000  0.750000  0.750000  1
  I  I10  1  0.240493  0.759507  0.240493  1
  I  I11  1  0.240493  0.759507  0.759507  1
  I  I12  1  0.759507  0.240493  0.240493  1
  I  I13  1  0.759507  0.759507  0.240493  1
  I  I14  1  0.240493  0.240493  0.759507  1
