# generated using pymatgen
data_Cs2MgZn(SiAs2)2
_symmetry_space_group_name_H-M   'P 1'
_cell_length_a   8.80845066
_cell_length_b   8.56221297
_cell_length_c   8.57722895
_cell_angle_alpha   71.87591255
_cell_angle_beta   76.71058553
_cell_angle_gamma   72.80587710
_symmetry_Int_Tables_number   1
_chemical_formula_structural   Cs2MgZn(SiAs2)2
_chemical_formula_sum   'Cs4 Mg2 Zn2 Si4 As8'
_cell_volume   580.50600421
_cell_formula_units_Z   2
loop_
 _symmetry_equiv_pos_site_id
 _symmetry_equiv_pos_as_xyz
  1  'x, y, z'
loop_
 _atom_site_type_symbol
 _atom_site_label
 _atom_site_symmetry_multiplicity
 _atom_site_fract_x
 _atom_site_fract_y
 _atom_site_fract_z
 _atom_site_occupancy
  Cs  Cs0  1  0.449838  0.765421  0.321587  1
  Cs  Cs1  1  0.550162  0.234579  0.678413  1
  Cs  Cs2  1  0.439248  0.796622  0.819615  1
  Cs  Cs3  1  0.560752  0.203378  0.180385  1
  Mg  Mg4  1  0.992874  0.889219  0.689448  1
  Mg  Mg5  1  0.007126  0.110781  0.310552  1
  Zn  Zn6  1  0.957346  0.796974  0.179948  1
  Zn  Zn7  1  0.042654  0.203026  0.820052  1
  Si  Si8  1  0.965738  0.585702  0.594879  1
  Si  Si9  1  0.034262  0.414298  0.405121  1
  Si  Si10  1  0.138672  0.447549  0.979789  1
  Si  Si11  1  0.861328  0.552451  0.020211  1
  As  As12  1  0.833155  0.868701  0.453452  1
  As  As13  1  0.166845  0.131299  0.546548  1
  As  As14  1  0.796362  0.411242  0.308576  1
  As  As15  1  0.203638  0.588758  0.691424  1
  As  As16  1  0.784024  0.855140  0.968691  1
  As  As17  1  0.215976  0.144860  0.031309  1
  As  As18  1  0.792117  0.446244  0.821102  1
  As  As19  1  0.207883  0.553756  0.178898  1
