# generated using pymatgen
data_Tm6TcIr
_symmetry_space_group_name_H-M   'P 1'
_cell_length_a   6.22103100
_cell_length_b   7.31966700
_cell_length_c   8.98852100
_cell_angle_alpha   90.00000000
_cell_angle_beta   90.00000000
_cell_angle_gamma   90.00000000
_symmetry_Int_Tables_number   1
_chemical_formula_structural   Tm6TcIr
_chemical_formula_sum   'Tm12 Tc2 Ir2'
_cell_volume   409.30017154
_cell_formula_units_Z   2
loop_
 _symmetry_equiv_pos_site_id
 _symmetry_equiv_pos_as_xyz
  1  'x, y, z'
loop_
 _atom_site_type_symbol
 _atom_site_label
 _atom_site_symmetry_multiplicity
 _atom_site_fract_x
 _atom_site_fract_y
 _atom_site_fract_z
 _atom_site_occupancy
  Tm  Tm0  1  0.332190  0.675886  0.065236  1
  Tm  Tm1  1  0.167810  0.175886  0.434764  1
  Tm  Tm2  1  0.665658  0.324144  0.560201  1
  Tm  Tm3  1  0.834342  0.824144  0.939799  1
  Tm  Tm4  1  0.665658  0.324144  0.939799  1
  Tm  Tm5  1  0.834342  0.824144  0.560201  1
  Tm  Tm6  1  0.332190  0.675886  0.434764  1
  Tm  Tm7  1  0.167810  0.175886  0.065236  1
  Tm  Tm8  1  0.874063  0.539716  0.250000  1
  Tm  Tm9  1  0.625937  0.039716  0.250000  1
  Tm  Tm10  1  0.132474  0.459455  0.750000  1
  Tm  Tm11  1  0.367526  0.959455  0.750000  1
  Tc  Tc12  1  0.035708  0.884731  0.250000  1
  Tc  Tc13  1  0.464292  0.384731  0.250000  1
  Ir  Ir14  1  0.956327  0.116038  0.750000  1
  Ir  Ir15  1  0.543673  0.616038  0.750000  1
