# generated using pymatgen
data_Nd3Al12Ir2OsPt
_symmetry_space_group_name_H-M   'P 1'
_cell_length_a   8.93147557
_cell_length_b   8.92595817
_cell_length_c   9.65908400
_cell_angle_alpha   90.00000021
_cell_angle_beta   89.99997130
_cell_angle_gamma   119.97957488
_symmetry_Int_Tables_number   1
_chemical_formula_structural   Nd3Al12Ir2OsPt
_chemical_formula_sum   'Nd6 Al24 Ir4 Os2 Pt2'
_cell_volume   667.01251853
_cell_formula_units_Z   2
loop_
 _symmetry_equiv_pos_site_id
 _symmetry_equiv_pos_as_xyz
  1  'x, y, z'
loop_
 _atom_site_type_symbol
 _atom_site_label
 _atom_site_symmetry_multiplicity
 _atom_site_fract_x
 _atom_site_fract_y
 _atom_site_fract_z
 _atom_site_occupancy
  Nd  Nd0  1  0.189732  0.379925  0.250660  1
  Nd  Nd1  1  0.810268  0.620075  0.749340  1
  Nd  Nd2  1  0.620567  0.810284  0.248657  1
  Nd  Nd3  1  0.379433  0.189716  0.751343  1
  Nd  Nd4  1  0.189732  0.809808  0.250660  1
  Nd  Nd5  1  0.810268  0.190192  0.749340  1
  Al  Al6  1  0.330125  0.665063  0.029364  1
  Al  Al7  1  0.669875  0.334937  0.970636  1
  Al  Al8  1  0.666085  0.333042  0.527458  1
  Al  Al9  1  0.333915  0.666958  0.472542  1
  Al  Al10  1  0.164313  0.328128  0.573464  1
  Al  Al11  1  0.835687  0.671872  0.426536  1
  Al  Al12  1  0.672125  0.836063  0.571424  1
  Al  Al13  1  0.839983  0.673210  0.076010  1
  Al  Al14  1  0.327875  0.163937  0.428576  1
  Al  Al15  1  0.160017  0.326790  0.923990  1
  Al  Al16  1  0.164313  0.836186  0.573464  1
  Al  Al17  1  0.325721  0.162860  0.076222  1
  Al  Al18  1  0.835687  0.163814  0.426536  1
  Al  Al19  1  0.674279  0.837140  0.923778  1
  Al  Al20  1  0.839983  0.166772  0.076010  1
  Al  Al21  1  0.160017  0.833228  0.923990  1
  Al  Al22  1  0.564074  0.127278  0.252472  1
  Al  Al23  1  0.435926  0.872722  0.747528  1
  Al  Al24  1  0.873721  0.436861  0.250081  1
  Al  Al25  1  0.126279  0.563139  0.749919  1
  Al  Al26  1  0.564074  0.436796  0.252472  1
  Al  Al27  1  0.435926  0.563204  0.747528  1
  Al  Al28  1  0.998833  0.999417  0.250349  1
  Al  Al29  1  0.001167  0.000583  0.749651  1
  Ir  Ir30  1  0.000000  0.500000  0.000000  1
  Ir  Ir31  1  0.500000  0.000000  0.500000  1
  Ir  Ir32  1  0.000000  0.500000  0.500000  1
  Ir  Ir33  1  0.500000  0.500000  0.500000  1
  Os  Os34  1  0.000000  0.000000  0.000000  1
  Os  Os35  1  0.000000  0.000000  0.500000  1
  Pt  Pt36  1  0.500000  0.000000  0.000000  1
  Pt  Pt37  1  0.500000  0.500000  0.000000  1
