# generated using pymatgen
data_Ac12CdNi6
_symmetry_space_group_name_H-M   'P 1'
_cell_length_a   9.23706157
_cell_length_b   9.23706224
_cell_length_c   9.23706200
_cell_angle_alpha   109.47122230
_cell_angle_beta   109.47122376
_cell_angle_gamma   109.47122534
_symmetry_Int_Tables_number   1
_chemical_formula_structural   Ac12CdNi6
_chemical_formula_sum   'Ac12 Cd1 Ni6'
_cell_volume   606.70786594
_cell_formula_units_Z   1
loop_
 _symmetry_equiv_pos_site_id
 _symmetry_equiv_pos_as_xyz
  1  'x, y, z'
loop_
 _atom_site_type_symbol
 _atom_site_label
 _atom_site_symmetry_multiplicity
 _atom_site_fract_x
 _atom_site_fract_y
 _atom_site_fract_z
 _atom_site_occupancy
  Ac  Ac0  1  0.815244  0.690333  0.505577  1
  Ac  Ac1  1  0.184756  0.309667  0.494423  1
  Ac  Ac2  1  0.184756  0.690333  0.875090  1
  Ac  Ac3  1  0.815244  0.309667  0.124910  1
  Ac  Ac4  1  0.690333  0.505577  0.815244  1
  Ac  Ac5  1  0.309667  0.494423  0.184756  1
  Ac  Ac6  1  0.690333  0.875090  0.184756  1
  Ac  Ac7  1  0.309667  0.124910  0.815244  1
  Ac  Ac8  1  0.505577  0.815244  0.690333  1
  Ac  Ac9  1  0.494423  0.184756  0.309667  1
  Ac  Ac10  1  0.124910  0.815244  0.309667  1
  Ac  Ac11  1  0.875090  0.184756  0.690333  1
  Cd  Cd12  1  0.000000  0.000000  0.000000  1
  Ni  Ni13  1  0.881856  0.381856  0.500000  1
  Ni  Ni14  1  0.118144  0.618144  0.500000  1
  Ni  Ni15  1  0.381856  0.500000  0.881856  1
  Ni  Ni16  1  0.618144  0.500000  0.118144  1
  Ni  Ni17  1  0.500000  0.881856  0.381856  1
  Ni  Ni18  1  0.500000  0.118144  0.618144  1
