# generated using pymatgen
data_Er19MgIr11Ru
_symmetry_space_group_name_H-M   'P 1'
_cell_length_a   10.74698503
_cell_length_b   10.75302203
_cell_length_c   6.29979300
_cell_angle_alpha   90.00000000
_cell_angle_beta   90.00000000
_cell_angle_gamma   89.99163748
_symmetry_Int_Tables_number   1
_chemical_formula_structural   Er19MgIr11Ru
_chemical_formula_sum   'Er19 Mg1 Ir11 Ru1'
_cell_volume   728.02024135
_cell_formula_units_Z   1
loop_
 _symmetry_equiv_pos_site_id
 _symmetry_equiv_pos_as_xyz
  1  'x, y, z'
loop_
 _atom_site_type_symbol
 _atom_site_label
 _atom_site_symmetry_multiplicity
 _atom_site_fract_x
 _atom_site_fract_y
 _atom_site_fract_z
 _atom_site_occupancy
  Er  Er0  1  0.285984  0.084493  0.377356  1
  Er  Er1  1  0.291914  0.912551  0.879817  1
  Er  Er2  1  0.708086  0.087449  0.879817  1
  Er  Er3  1  0.714016  0.915507  0.377356  1
  Er  Er4  1  0.588026  0.793165  0.879791  1
  Er  Er5  1  0.587053  0.206743  0.376171  1
  Er  Er6  1  0.412947  0.793257  0.376171  1
  Er  Er7  1  0.411974  0.206835  0.879791  1
  Er  Er8  1  0.208229  0.411904  0.622739  1
  Er  Er9  1  0.208458  0.588847  0.121282  1
  Er  Er10  1  0.791542  0.411153  0.121282  1
  Er  Er11  1  0.791771  0.588096  0.622739  1
  Er  Er12  1  0.911877  0.709695  0.120853  1
  Er  Er13  1  0.914998  0.284371  0.621392  1
  Er  Er14  1  0.085002  0.715629  0.621392  1
  Er  Er15  1  0.088123  0.290305  0.120853  1
  Er  Er16  1  0.000000  0.000000  0.999851  1
  Er  Er17  1  0.500000  0.500000  0.999652  1
  Er  Er18  1  0.500000  0.500000  0.499752  1
  Mg  Mg19  1  0.000000  0.000000  0.499735  1
  Ir  Ir20  1  0.846433  0.154384  0.248348  1
  Ir  Ir21  1  0.846211  0.846098  0.751488  1
  Ir  Ir22  1  0.153789  0.153902  0.751488  1
  Ir  Ir23  1  0.153567  0.845616  0.248348  1
  Ir  Ir24  1  0.654531  0.346471  0.748234  1
  Ir  Ir25  1  0.654233  0.654121  0.251778  1
  Ir  Ir26  1  0.345767  0.345879  0.251778  1
  Ir  Ir27  1  0.345469  0.653529  0.748234  1
  Ir  Ir28  1  0.500000  0.000000  0.621624  1
  Ir  Ir29  1  0.000000  0.500000  0.876285  1
  Ir  Ir30  1  0.000000  0.500000  0.379569  1
  Ru  Ru31  1  0.500000  0.000000  0.125038  1
