# generated using pymatgen
data_Mg3NpAs6Ru7
_symmetry_space_group_name_H-M   'P 1'
_cell_length_a   7.09764107
_cell_length_b   7.09764018
_cell_length_c   6.98875400
_cell_angle_alpha   109.16075127
_cell_angle_beta   109.16074877
_cell_angle_gamma   109.77990268
_symmetry_Int_Tables_number   1
_chemical_formula_structural   Mg3NpAs6Ru7
_chemical_formula_sum   'Mg3 Np1 As6 Ru7'
_cell_volume   272.05429091
_cell_formula_units_Z   1
loop_
 _symmetry_equiv_pos_site_id
 _symmetry_equiv_pos_as_xyz
  1  'x, y, z'
loop_
 _atom_site_type_symbol
 _atom_site_label
 _atom_site_symmetry_multiplicity
 _atom_site_fract_x
 _atom_site_fract_y
 _atom_site_fract_z
 _atom_site_occupancy
  Mg  Mg0  1  0.500000  0.000000  0.000000  1
  Mg  Mg1  1  0.000000  0.500000  0.000000  1
  Mg  Mg2  1  0.500000  0.500000  0.500000  1
  Np  Np3  1  0.000000  0.000000  0.500000  1
  As  As4  1  0.313515  0.000000  0.304515  1
  As  As5  1  0.000000  0.313515  0.304515  1
  As  As6  1  0.000000  0.686485  0.695485  1
  As  As7  1  0.313515  0.313515  0.009000  1
  As  As8  1  0.686485  0.686485  0.991000  1
  As  As9  1  0.686485  0.000000  0.695485  1
  Ru  Ru10  1  0.749283  0.498566  0.249283  1
  Ru  Ru11  1  0.498566  0.749283  0.249283  1
  Ru  Ru12  1  0.501434  0.250717  0.750717  1
  Ru  Ru13  1  0.749283  0.250717  0.500000  1
  Ru  Ru14  1  0.250717  0.749283  0.500000  1
  Ru  Ru15  1  0.250717  0.501434  0.750717  1
  Ru  Ru16  1  0.000000  0.000000  0.000000  1
