# generated using pymatgen
data_Hf18TiRe7OsRh
_symmetry_space_group_name_H-M   'P 1'
_cell_length_a   8.66362000
_cell_length_b   8.66362049
_cell_length_c   8.50464200
_cell_angle_alpha   90.00000000
_cell_angle_beta   90.00000000
_cell_angle_gamma   120.00000576
_symmetry_Int_Tables_number   1
_chemical_formula_structural   Hf18TiRe7OsRh
_chemical_formula_sum   'Hf18 Ti1 Re7 Os1 Rh1'
_cell_volume   552.82217901
_cell_formula_units_Z   1
loop_
 _symmetry_equiv_pos_site_id
 _symmetry_equiv_pos_as_xyz
  1  'x, y, z'
loop_
 _atom_site_type_symbol
 _atom_site_label
 _atom_site_symmetry_multiplicity
 _atom_site_fract_x
 _atom_site_fract_y
 _atom_site_fract_z
 _atom_site_occupancy
  Hf  Hf0  1  0.196519  0.803481  0.446344  1
  Hf  Hf1  1  0.196519  0.393039  0.446344  1
  Hf  Hf2  1  0.606961  0.803481  0.446344  1
  Hf  Hf3  1  0.803724  0.196276  0.554337  1
  Hf  Hf4  1  0.803724  0.607448  0.554337  1
  Hf  Hf5  1  0.392552  0.196276  0.554337  1
  Hf  Hf6  1  0.803940  0.196060  0.944191  1
  Hf  Hf7  1  0.803940  0.607880  0.944191  1
  Hf  Hf8  1  0.392120  0.196060  0.944191  1
  Hf  Hf9  1  0.196784  0.803216  0.055611  1
  Hf  Hf10  1  0.196784  0.393569  0.055611  1
  Hf  Hf11  1  0.606431  0.803216  0.055611  1
  Hf  Hf12  1  0.541613  0.458387  0.249320  1
  Hf  Hf13  1  0.541613  0.083226  0.249320  1
  Hf  Hf14  1  0.916774  0.458387  0.249320  1
  Hf  Hf15  1  0.457376  0.542624  0.751016  1
  Hf  Hf16  1  0.457376  0.914754  0.751016  1
  Hf  Hf17  1  0.085246  0.542624  0.751016  1
  Ti  Ti18  1  0.000000  0.000000  0.498300  1
  Re  Re19  1  0.888305  0.111695  0.250474  1
  Re  Re20  1  0.888305  0.776609  0.250474  1
  Re  Re21  1  0.223391  0.111695  0.250474  1
  Re  Re22  1  0.111236  0.888764  0.748612  1
  Re  Re23  1  0.111236  0.222474  0.748612  1
  Re  Re24  1  0.777526  0.888764  0.748612  1
  Re  Re25  1  0.000000  0.000000  0.000819  1
  Os  Os26  1  0.333333  0.666667  0.250540  1
  Rh  Rh27  1  0.666667  0.333333  0.750620  1
