# generated using pymatgen
data_Ce2AlSi4Ag
_symmetry_space_group_name_H-M   'P 1'
_cell_length_a   9.37500330
_cell_length_b   9.37500315
_cell_length_c   4.07458800
_cell_angle_alpha   90.00000000
_cell_angle_beta   90.00000000
_cell_angle_gamma   154.63740362
_symmetry_Int_Tables_number   1
_chemical_formula_structural   Ce2AlSi4Ag
_chemical_formula_sum   'Ce2 Al1 Si4 Ag1'
_cell_volume   153.39831524
_cell_formula_units_Z   1
loop_
 _symmetry_equiv_pos_site_id
 _symmetry_equiv_pos_as_xyz
  1  'x, y, z'
loop_
 _atom_site_type_symbol
 _atom_site_label
 _atom_site_symmetry_multiplicity
 _atom_site_fract_x
 _atom_site_fract_y
 _atom_site_fract_z
 _atom_site_occupancy
  Ce  Ce0  1  0.595038  0.404962  0.250000  1
  Ce  Ce1  1  0.404026  0.595974  0.750000  1
  Al  Al2  1  0.250335  0.749665  0.250000  1
  Si  Si3  1  0.968300  0.031700  0.250000  1
  Si  Si4  1  0.031943  0.968057  0.750000  1
  Si  Si5  1  0.839249  0.160751  0.250000  1
  Si  Si6  1  0.161281  0.838719  0.750000  1
  Ag  Ag7  1  0.749829  0.250171  0.750000  1
