# generated using pymatgen
data_Y16InHg3Pt4
_symmetry_space_group_name_H-M   'P 1'
_cell_length_a   9.69473518
_cell_length_b   9.71266664
_cell_length_c   9.67606028
_cell_angle_alpha   60.34518709
_cell_angle_beta   60.30761577
_cell_angle_gamma   60.38909560
_symmetry_Int_Tables_number   1
_chemical_formula_structural   Y16InHg3Pt4
_chemical_formula_sum   'Y16 In1 Hg3 Pt4'
_cell_volume   649.31638341
_cell_formula_units_Z   1
loop_
 _symmetry_equiv_pos_site_id
 _symmetry_equiv_pos_as_xyz
  1  'x, y, z'
loop_
 _atom_site_type_symbol
 _atom_site_label
 _atom_site_symmetry_multiplicity
 _atom_site_fract_x
 _atom_site_fract_y
 _atom_site_fract_z
 _atom_site_occupancy
  Y  Y0  1  0.351150  0.351006  0.351274  1
  Y  Y1  1  0.355371  0.355756  0.936239  1
  Y  Y2  1  0.356386  0.936350  0.356004  1
  Y  Y3  1  0.936297  0.356277  0.355520  1
  Y  Y4  1  0.810612  0.190693  0.190009  1
  Y  Y5  1  0.192537  0.809757  0.809366  1
  Y  Y6  1  0.190691  0.810453  0.190336  1
  Y  Y7  1  0.809467  0.192806  0.809246  1
  Y  Y8  1  0.190004  0.190339  0.810740  1
  Y  Y9  1  0.809708  0.809874  0.192250  1
  Y  Y10  1  0.938213  0.565981  0.565738  1
  Y  Y11  1  0.563431  0.937669  0.938347  1
  Y  Y12  1  0.565834  0.938282  0.565719  1
  Y  Y13  1  0.938120  0.563220  0.938486  1
  Y  Y14  1  0.565875  0.566007  0.938163  1
  Y  Y15  1  0.937871  0.937548  0.563627  1
  In  In16  1  0.581662  0.582102  0.581284  1
  Hg  Hg17  1  0.584569  0.584732  0.240588  1
  Hg  Hg18  1  0.585079  0.239381  0.584864  1
  Hg  Hg19  1  0.239974  0.584998  0.584624  1
  Pt  Pt20  1  0.144725  0.144277  0.145253  1
  Pt  Pt21  1  0.141111  0.140843  0.570097  1
  Pt  Pt22  1  0.140757  0.570985  0.141027  1
  Pt  Pt23  1  0.570559  0.140663  0.141196  1
