# generated using pymatgen
data_Dy8MgZn(Co2Bi)2
_symmetry_space_group_name_H-M   'P 1'
_cell_length_a   9.02817725
_cell_length_b   9.02817851
_cell_length_c   9.02817745
_cell_angle_alpha   133.01000484
_cell_angle_beta   133.01000120
_cell_angle_gamma   68.63844093
_symmetry_Int_Tables_number   1
_chemical_formula_structural   Dy8MgZn(Co2Bi)2
_chemical_formula_sum   'Dy8 Mg1 Zn1 Co4 Bi2'
_cell_volume   386.38260490
_cell_formula_units_Z   1
loop_
 _symmetry_equiv_pos_site_id
 _symmetry_equiv_pos_as_xyz
  1  'x, y, z'
loop_
 _atom_site_type_symbol
 _atom_site_label
 _atom_site_symmetry_multiplicity
 _atom_site_fract_x
 _atom_site_fract_y
 _atom_site_fract_z
 _atom_site_occupancy
  Dy  Dy0  1  0.794567  0.310201  0.865721  1
  Dy  Dy1  1  0.205433  0.689799  0.134280  1
  Dy  Dy2  1  0.444482  0.928848  0.134280  1
  Dy  Dy3  1  0.310201  0.444482  0.515634  1
  Dy  Dy4  1  0.071152  0.205433  0.515634  1
  Dy  Dy5  1  0.555518  0.071152  0.865720  1
  Dy  Dy6  1  0.689799  0.555518  0.484366  1
  Dy  Dy7  1  0.928848  0.794567  0.484366  1
  Mg  Mg8  1  0.000000  0.000000  0.000000  1
  Zn  Zn9  1  0.500000  0.500000  0.000000  1
  Co  Co10  1  0.115869  0.608628  0.724497  1
  Co  Co11  1  0.884131  0.391372  0.275503  1
  Co  Co12  1  0.608628  0.884131  0.492759  1
  Co  Co13  1  0.391372  0.115869  0.507241  1
  Bi  Bi14  1  0.239862  0.239862  0.000000  1
  Bi  Bi15  1  0.760138  0.760138  0.000000  1
