# generated using pymatgen
data_LaYb2DyCu2Sn5
_symmetry_space_group_name_H-M   'P 1'
_cell_length_a   4.46160700
_cell_length_b   8.81946800
_cell_length_c   14.24359200
_cell_angle_alpha   90.00000000
_cell_angle_beta   90.00000000
_cell_angle_gamma   90.00000000
_symmetry_Int_Tables_number   1
_chemical_formula_structural   LaYb2DyCu2Sn5
_chemical_formula_sum   'La2 Yb4 Dy2 Cu4 Sn10'
_cell_volume   560.47110396
_cell_formula_units_Z   2
loop_
 _symmetry_equiv_pos_site_id
 _symmetry_equiv_pos_as_xyz
  1  'x, y, z'
loop_
 _atom_site_type_symbol
 _atom_site_label
 _atom_site_symmetry_multiplicity
 _atom_site_fract_x
 _atom_site_fract_y
 _atom_site_fract_z
 _atom_site_occupancy
  La  La0  1  0.500000  0.142417  0.000000  1
  La  La1  1  0.000000  0.857583  0.500000  1
  Yb  Yb2  1  0.500000  0.791392  0.744415  1
  Yb  Yb3  1  0.000000  0.208608  0.755585  1
  Yb  Yb4  1  0.000000  0.208608  0.244415  1
  Yb  Yb5  1  0.500000  0.791392  0.255585  1
  Dy  Dy6  1  0.500000  0.693342  0.000000  1
  Dy  Dy7  1  0.000000  0.306658  0.500000  1
  Cu  Cu8  1  0.500000  0.377444  0.646332  1
  Cu  Cu9  1  0.000000  0.622556  0.853668  1
  Cu  Cu10  1  0.000000  0.622556  0.146332  1
  Cu  Cu11  1  0.500000  0.377444  0.353668  1
  Sn  Sn12  1  0.500000  0.086624  0.396464  1
  Sn  Sn13  1  0.000000  0.555193  0.664593  1
  Sn  Sn14  1  0.000000  0.417544  0.000000  1
  Sn  Sn15  1  0.500000  0.444807  0.164593  1
  Sn  Sn16  1  0.500000  0.582456  0.500000  1
  Sn  Sn17  1  0.500000  0.444807  0.835407  1
  Sn  Sn18  1  0.000000  0.913376  0.896464  1
  Sn  Sn19  1  0.000000  0.555193  0.335407  1
  Sn  Sn20  1  0.500000  0.086624  0.603536  1
  Sn  Sn21  1  0.000000  0.913376  0.103536  1
