# generated using pymatgen
data_Nd5YHo10Cd3HgIr4
_symmetry_space_group_name_H-M   'P 1'
_cell_length_a   9.70321646
_cell_length_b   9.70659836
_cell_length_c   9.70659800
_cell_angle_alpha   59.94986424
_cell_angle_beta   60.01151700
_cell_angle_gamma   60.01152429
_symmetry_Int_Tables_number   1
_chemical_formula_structural   Nd5YHo10Cd3HgIr4
_chemical_formula_sum   'Nd5 Y1 Ho10 Cd3 Hg1 Ir4'
_cell_volume   646.31695195
_cell_formula_units_Z   1
loop_
 _symmetry_equiv_pos_site_id
 _symmetry_equiv_pos_as_xyz
  1  'x, y, z'
loop_
 _atom_site_type_symbol
 _atom_site_label
 _atom_site_symmetry_multiplicity
 _atom_site_fract_x
 _atom_site_fract_y
 _atom_site_fract_z
 _atom_site_occupancy
  Nd  Nd0  1  0.558082  0.941820  0.941820  1
  Nd  Nd1  1  0.561127  0.938462  0.558305  1
  Nd  Nd2  1  0.940847  0.558490  0.939134  1
  Nd  Nd3  1  0.561127  0.558305  0.938462  1
  Nd  Nd4  1  0.940847  0.939134  0.558490  1
  Y  Y5  1  0.942298  0.556684  0.556684  1
  Ho  Ho6  1  0.347389  0.348178  0.348178  1
  Ho  Ho7  1  0.346927  0.350277  0.956206  1
  Ho  Ho8  1  0.346927  0.956206  0.350277  1
  Ho  Ho9  1  0.955042  0.348692  0.348692  1
  Ho  Ho10  1  0.812557  0.187332  0.187332  1
  Ho  Ho11  1  0.187214  0.812507  0.812507  1
  Ho  Ho12  1  0.188104  0.811397  0.187618  1
  Ho  Ho13  1  0.812301  0.187884  0.811096  1
  Ho  Ho14  1  0.188104  0.187618  0.811397  1
  Ho  Ho15  1  0.812301  0.811096  0.187884  1
  Cd  Cd16  1  0.579326  0.579774  0.260902  1
  Cd  Cd17  1  0.579326  0.260902  0.579774  1
  Cd  Cd18  1  0.260089  0.578806  0.578806  1
  Hg  Hg19  1  0.584974  0.581721  0.581721  1
  Ir  Ir20  1  0.140693  0.141859  0.141859  1
  Ir  Ir21  1  0.139379  0.144968  0.576093  1
  Ir  Ir22  1  0.139379  0.576093  0.144968  1
  Ir  Ir23  1  0.575641  0.141790  0.141790  1
