# generated using pymatgen
data_Yb4Sn6Pd7
_symmetry_space_group_name_H-M   'P 1'
_cell_length_a   7.73504898
_cell_length_b   7.73504903
_cell_length_c   7.73504900
_cell_angle_alpha   109.47122318
_cell_angle_beta   109.47122329
_cell_angle_gamma   109.47121786
_symmetry_Int_Tables_number   1
_chemical_formula_structural   Yb4Sn6Pd7
_chemical_formula_sum   'Yb4 Sn6 Pd7'
_cell_volume   356.26019776
_cell_formula_units_Z   1
loop_
 _symmetry_equiv_pos_site_id
 _symmetry_equiv_pos_as_xyz
  1  'x, y, z'
loop_
 _atom_site_type_symbol
 _atom_site_label
 _atom_site_symmetry_multiplicity
 _atom_site_fract_x
 _atom_site_fract_y
 _atom_site_fract_z
 _atom_site_occupancy
  Yb  Yb0  1  0.000000  0.000000  0.500000  1
  Yb  Yb1  1  0.000000  0.500000  0.000000  1
  Yb  Yb2  1  0.500000  0.000000  0.000000  1
  Yb  Yb3  1  0.500000  0.500000  0.500000  1
  Sn  Sn4  1  0.683003  0.683003  0.000000  1
  Sn  Sn5  1  0.316997  0.000000  0.316997  1
  Sn  Sn6  1  0.000000  0.316997  0.316997  1
  Sn  Sn7  1  0.316997  0.316997  0.000000  1
  Sn  Sn8  1  0.683003  0.000000  0.683003  1
  Sn  Sn9  1  0.000000  0.683003  0.683003  1
  Pd  Pd10  1  0.750000  0.250000  0.500000  1
  Pd  Pd11  1  0.750000  0.500000  0.250000  1
  Pd  Pd12  1  0.500000  0.250000  0.750000  1
  Pd  Pd13  1  0.250000  0.500000  0.750000  1
  Pd  Pd14  1  0.250000  0.750000  0.500000  1
  Pd  Pd15  1  0.500000  0.750000  0.250000  1
  Pd  Pd16  1  0.000000  0.000000  0.000000  1
