# generated using pymatgen
data_Sc10Sn6S
_symmetry_space_group_name_H-M   'P 1'
_cell_length_a   8.52661400
_cell_length_b   8.52661544
_cell_length_c   6.10758400
_cell_angle_alpha   90.00000000
_cell_angle_beta   90.00000000
_cell_angle_gamma   119.99999440
_symmetry_Int_Tables_number   1
_chemical_formula_structural   Sc10Sn6S
_chemical_formula_sum   'Sc10 Sn6 S1'
_cell_volume   384.55050349
_cell_formula_units_Z   1
loop_
 _symmetry_equiv_pos_site_id
 _symmetry_equiv_pos_as_xyz
  1  'x, y, z'
loop_
 _atom_site_type_symbol
 _atom_site_label
 _atom_site_symmetry_multiplicity
 _atom_site_fract_x
 _atom_site_fract_y
 _atom_site_fract_z
 _atom_site_occupancy
  Sc  Sc0  1  0.666667  0.333333  0.500000  1
  Sc  Sc1  1  0.333333  0.666667  0.500000  1
  Sc  Sc2  1  0.333333  0.666667  0.000000  1
  Sc  Sc3  1  0.666667  0.333333  0.000000  1
  Sc  Sc4  1  0.757272  0.757272  0.248173  1
  Sc  Sc5  1  0.242728  0.000000  0.248173  1
  Sc  Sc6  1  0.000000  0.242728  0.248173  1
  Sc  Sc7  1  0.242728  0.242728  0.751827  1
  Sc  Sc8  1  0.757272  0.000000  0.751827  1
  Sc  Sc9  1  0.000000  0.757272  0.751827  1
  Sn  Sn10  1  0.395135  0.395135  0.247690  1
  Sn  Sn11  1  0.604865  0.000000  0.247690  1
  Sn  Sn12  1  0.000000  0.604865  0.247690  1
  Sn  Sn13  1  0.604865  0.604865  0.752310  1
  Sn  Sn14  1  0.395135  0.000000  0.752310  1
  Sn  Sn15  1  0.000000  0.395135  0.752310  1
  S  S16  1  0.000000  0.000000  0.500000  1
