# generated using pymatgen
data_Dy16CdNi2Hg3Ru2
_symmetry_space_group_name_H-M   'P 1'
_cell_length_a   9.54895771
_cell_length_b   9.54859378
_cell_length_c   9.60437400
_cell_angle_alpha   59.80656855
_cell_angle_beta   59.80783911
_cell_angle_gamma   59.79165560
_symmetry_Int_Tables_number   1
_chemical_formula_structural   Dy16CdNi2Hg3Ru2
_chemical_formula_sum   'Dy16 Cd1 Ni2 Hg3 Ru2'
_cell_volume   616.44340591
_cell_formula_units_Z   1
loop_
 _symmetry_equiv_pos_site_id
 _symmetry_equiv_pos_as_xyz
  1  'x, y, z'
loop_
 _atom_site_type_symbol
 _atom_site_label
 _atom_site_symmetry_multiplicity
 _atom_site_fract_x
 _atom_site_fract_y
 _atom_site_fract_z
 _atom_site_occupancy
  Dy  Dy0  1  0.600828  0.600336  0.593913  1
  Dy  Dy1  1  0.600828  0.600336  0.204923  1
  Dy  Dy2  1  0.602930  0.202955  0.597058  1
  Dy  Dy3  1  0.199931  0.603589  0.598241  1
  Dy  Dy4  1  0.060445  0.437200  0.440873  1
  Dy  Dy5  1  0.435988  0.061276  0.062253  1
  Dy  Dy6  1  0.435988  0.061276  0.440481  1
  Dy  Dy7  1  0.060445  0.437200  0.061481  1
  Dy  Dy8  1  0.437606  0.438803  0.061796  1
  Dy  Dy9  1  0.058619  0.059129  0.441126  1
  Dy  Dy10  1  0.187466  0.808285  0.816070  1
  Dy  Dy11  1  0.807761  0.188574  0.187412  1
  Dy  Dy12  1  0.807761  0.188574  0.816253  1
  Dy  Dy13  1  0.187466  0.808285  0.188179  1
  Dy  Dy14  1  0.814586  0.815174  0.185120  1
  Dy  Dy15  1  0.189171  0.190308  0.810261  1
  Cd  Cd16  1  0.508595  0.829659  0.830872  1
  Ni  Ni17  1  0.392459  0.825839  0.390850  1
  Ni  Ni18  1  0.826014  0.392762  0.390611  1
  Hg  Hg19  1  0.832459  0.834088  0.837431  1
  Hg  Hg20  1  0.832459  0.834088  0.496023  1
  Hg  Hg21  1  0.833793  0.493833  0.836186  1
  Ru  Ru22  1  0.393199  0.394215  0.388862  1
  Ru  Ru23  1  0.393199  0.394215  0.823722  1
