# generated using pymatgen
data_TbHo5Co14(P3Ru)4
_symmetry_space_group_name_H-M   'P 1'
_cell_length_a   3.71913000
_cell_length_b   10.55876600
_cell_length_c   12.28615100
_cell_angle_alpha   90.00000000
_cell_angle_beta   90.00000000
_cell_angle_gamma   90.00000000
_symmetry_Int_Tables_number   1
_chemical_formula_structural   TbHo5Co14(P3Ru)4
_chemical_formula_sum   'Tb1 Ho5 Co14 P12 Ru4'
_cell_volume   482.47006550
_cell_formula_units_Z   1
loop_
 _symmetry_equiv_pos_site_id
 _symmetry_equiv_pos_as_xyz
  1  'x, y, z'
loop_
 _atom_site_type_symbol
 _atom_site_label
 _atom_site_symmetry_multiplicity
 _atom_site_fract_x
 _atom_site_fract_y
 _atom_site_fract_z
 _atom_site_occupancy
  Tb  Tb0  1  0.000000  0.500000  0.528766  1
  Ho  Ho1  1  0.500000  0.000000  0.478327  1
  Ho  Ho2  1  0.500000  0.818031  0.202784  1
  Ho  Ho3  1  0.500000  0.181969  0.202784  1
  Ho  Ho4  1  0.000000  0.682911  0.795880  1
  Ho  Ho5  1  0.000000  0.317089  0.795880  1
  Co  Co6  1  0.000000  0.500000  0.985566  1
  Co  Co7  1  0.500000  0.000000  0.013439  1
  Co  Co8  1  0.000000  0.199645  0.573817  1
  Co  Co9  1  0.000000  0.800355  0.573817  1
  Co  Co10  1  0.500000  0.879792  0.710876  1
  Co  Co11  1  0.500000  0.120208  0.710876  1
  Co  Co12  1  0.000000  0.621129  0.286556  1
  Co  Co13  1  0.000000  0.378871  0.286556  1
  Co  Co14  1  0.500000  0.332448  0.989991  1
  Co  Co15  1  0.500000  0.667552  0.989991  1
  Co  Co16  1  0.000000  0.167154  0.008702  1
  Co  Co17  1  0.000000  0.832846  0.008702  1
  Co  Co18  1  0.500000  0.500000  0.705413  1
  Co  Co19  1  0.000000  0.000000  0.294475  1
  P  P20  1  0.500000  0.309159  0.621571  1
  P  P21  1  0.500000  0.690841  0.621571  1
  P  P22  1  0.000000  0.182909  0.381715  1
  P  P23  1  0.000000  0.817091  0.381715  1
  P  P24  1  0.500000  0.500000  0.882014  1
  P  P25  1  0.000000  0.000000  0.117113  1
  P  P26  1  0.500000  0.846393  0.893801  1
  P  P27  1  0.500000  0.153607  0.893801  1
  P  P28  1  0.000000  0.653846  0.104812  1
  P  P29  1  0.000000  0.346154  0.104812  1
  P  P30  1  0.500000  0.500000  0.344979  1
  P  P31  1  0.000000  0.000000  0.651055  1
  Ru  Ru32  1  0.500000  0.295433  0.430252  1
  Ru  Ru33  1  0.500000  0.704567  0.430252  1
  Ru  Ru34  1  0.500000  0.500000  0.156253  1
  Ru  Ru35  1  0.000000  0.000000  0.841086  1
