# generated using pymatgen
data_Tm2ZnGa3Ag2
_symmetry_space_group_name_H-M   'P 1'
_cell_length_a   4.31795600
_cell_length_b   6.92594851
_cell_length_c   10.17812902
_cell_angle_alpha   89.92546593
_cell_angle_beta   90.00000000
_cell_angle_gamma   90.00000000
_symmetry_Int_Tables_number   1
_chemical_formula_structural   Tm2ZnGa3Ag2
_chemical_formula_sum   'Tm4 Zn2 Ga6 Ag4'
_cell_volume   304.38626799
_cell_formula_units_Z   2
loop_
 _symmetry_equiv_pos_site_id
 _symmetry_equiv_pos_as_xyz
  1  'x, y, z'
loop_
 _atom_site_type_symbol
 _atom_site_label
 _atom_site_symmetry_multiplicity
 _atom_site_fract_x
 _atom_site_fract_y
 _atom_site_fract_z
 _atom_site_occupancy
  Tm  Tm0  1  0.250000  0.784210  0.828839  1
  Tm  Tm1  1  0.750000  0.215790  0.171161  1
  Tm  Tm2  1  0.750000  0.720027  0.328149  1
  Tm  Tm3  1  0.250000  0.279973  0.671851  1
  Zn  Zn4  1  0.250000  0.923447  0.149918  1
  Zn  Zn5  1  0.750000  0.076553  0.850082  1
  Ga  Ga6  1  0.750000  0.575472  0.653757  1
  Ga  Ga7  1  0.250000  0.424528  0.346243  1
  Ga  Ga8  1  0.250000  0.704408  0.535909  1
  Ga  Ga9  1  0.750000  0.295592  0.464091  1
  Ga  Ga10  1  0.750000  0.799491  0.037670  1
  Ga  Ga11  1  0.250000  0.200509  0.962330  1
  Ag  Ag12  1  0.250000  0.541446  0.097499  1
  Ag  Ag13  1  0.750000  0.458554  0.902501  1
  Ag  Ag14  1  0.750000  0.958440  0.600644  1
  Ag  Ag15  1  0.250000  0.041560  0.399356  1
