# generated using pymatgen
data_Yb2DyAsO6
_symmetry_space_group_name_H-M   'P 1'
_cell_length_a   7.22276300
_cell_length_b   7.22276304
_cell_length_c   5.43856200
_cell_angle_alpha   90.00000000
_cell_angle_beta   90.00000000
_cell_angle_gamma   106.57509925
_symmetry_Int_Tables_number   1
_chemical_formula_structural   Yb2DyAsO6
_chemical_formula_sum   'Yb4 Dy2 As2 O12'
_cell_volume   271.93102320
_cell_formula_units_Z   2
loop_
 _symmetry_equiv_pos_site_id
 _symmetry_equiv_pos_as_xyz
  1  'x, y, z'
loop_
 _atom_site_type_symbol
 _atom_site_label
 _atom_site_symmetry_multiplicity
 _atom_site_fract_x
 _atom_site_fract_y
 _atom_site_fract_z
 _atom_site_occupancy
  Yb  Yb0  1  0.293627  0.097135  0.763369  1
  Yb  Yb1  1  0.902865  0.706373  0.763369  1
  Yb  Yb2  1  0.097135  0.293627  0.263369  1
  Yb  Yb3  1  0.706373  0.902865  0.263369  1
  Dy  Dy4  1  0.592804  0.407196  0.236759  1
  Dy  Dy5  1  0.407196  0.592804  0.736759  1
  As  As6  1  0.807382  0.192618  0.806909  1
  As  As7  1  0.192618  0.807382  0.306909  1
  O  O8  1  0.351469  0.334333  0.501464  1
  O  O9  1  0.588981  0.099501  0.954208  1
  O  O10  1  0.099501  0.588981  0.454208  1
  O  O11  1  0.665667  0.648531  0.501464  1
  O  O12  1  0.210108  0.789892  0.991994  1
  O  O13  1  0.648531  0.665667  0.001464  1
  O  O14  1  0.789892  0.210108  0.491994  1
  O  O15  1  0.334333  0.351469  0.001464  1
  O  O16  1  0.049241  0.950759  0.400250  1
  O  O17  1  0.411019  0.900499  0.454208  1
  O  O18  1  0.950759  0.049241  0.900250  1
  O  O19  1  0.900499  0.411019  0.954208  1
