# generated using pymatgen
data_Tb5Y9(Lu3Pb8)2
_symmetry_space_group_name_H-M   'P 1'
_cell_length_a   8.17185103
_cell_length_b   8.25645012
_cell_length_c   15.61537107
_cell_angle_alpha   89.99223295
_cell_angle_beta   89.98974516
_cell_angle_gamma   90.00036185
_symmetry_Int_Tables_number   1
_chemical_formula_structural   Tb5Y9(Lu3Pb8)2
_chemical_formula_sum   'Tb5 Y9 Lu6 Pb16'
_cell_volume   1053.57656194
_cell_formula_units_Z   1
loop_
 _symmetry_equiv_pos_site_id
 _symmetry_equiv_pos_as_xyz
  1  'x, y, z'
loop_
 _atom_site_type_symbol
 _atom_site_label
 _atom_site_symmetry_multiplicity
 _atom_site_fract_x
 _atom_site_fract_y
 _atom_site_fract_z
 _atom_site_occupancy
  Tb  Tb0  1  0.966126  0.823216  0.098276  1
  Tb  Tb1  1  0.468723  0.678627  0.096754  1
  Tb  Tb2  1  0.968738  0.821331  0.403230  1
  Tb  Tb3  1  0.532821  0.324994  0.599725  1
  Tb  Tb4  1  0.032818  0.175022  0.900255  1
  Y  Y5  1  0.626903  0.157196  0.380185  1
  Y  Y6  1  0.126927  0.342805  0.119812  1
  Y  Y7  1  0.624955  0.158827  0.121531  1
  Y  Y8  1  0.124960  0.341205  0.378481  1
  Y  Y9  1  0.375150  0.842732  0.621408  1
  Y  Y10  1  0.875150  0.657267  0.878584  1
  Y  Y11  1  0.533668  0.323482  0.901061  1
  Y  Y12  1  0.033680  0.176495  0.598945  1
  Y  Y13  1  0.466068  0.676752  0.401710  1
  Lu  Lu14  1  0.372440  0.844002  0.876227  1
  Lu  Lu15  1  0.872447  0.656019  0.623773  1
  Lu  Lu16  1  0.206279  0.505549  0.749984  1
  Lu  Lu17  1  0.706271  0.994439  0.750045  1
  Lu  Lu18  1  0.793754  0.495196  0.250770  1
  Lu  Lu19  1  0.293782  0.004814  0.249246  1
  Pb  Pb20  1  0.284370  0.033223  0.041604  1
  Pb  Pb21  1  0.784172  0.466997  0.458335  1
  Pb  Pb22  1  0.718900  0.961981  0.544821  1
  Pb  Pb23  1  0.218953  0.537979  0.955188  1
  Pb  Pb24  1  0.711714  0.964235  0.955757  1
  Pb  Pb25  1  0.211997  0.535942  0.544097  1
  Pb  Pb26  1  0.284091  0.034308  0.456153  1
  Pb  Pb27  1  0.783983  0.465453  0.043813  1
  Pb  Pb28  1  0.568323  0.626385  0.750700  1
  Pb  Pb29  1  0.068305  0.873641  0.749298  1
  Pb  Pb30  1  0.431088  0.375446  0.250672  1
  Pb  Pb31  1  0.931123  0.124695  0.249345  1
  Pb  Pb32  1  0.346417  0.156196  0.750476  1
  Pb  Pb33  1  0.846480  0.343777  0.749537  1
  Pb  Pb34  1  0.654033  0.844126  0.250349  1
  Pb  Pb35  1  0.154387  0.655645  0.249854  1
