# generated using pymatgen
data_HoLu6Cd(Co3Sn11)2
_symmetry_space_group_name_H-M   'P 1'
_cell_length_a   9.61280600
_cell_length_b   9.61280533
_cell_length_c   9.96009100
_cell_angle_alpha   90.00000000
_cell_angle_beta   90.00000000
_cell_angle_gamma   119.99999543
_symmetry_Int_Tables_number   1
_chemical_formula_structural   HoLu6Cd(Co3Sn11)2
_chemical_formula_sum   'Ho1 Lu6 Cd1 Co6 Sn22'
_cell_volume   797.06599839
_cell_formula_units_Z   1
loop_
 _symmetry_equiv_pos_site_id
 _symmetry_equiv_pos_as_xyz
  1  'x, y, z'
loop_
 _atom_site_type_symbol
 _atom_site_label
 _atom_site_symmetry_multiplicity
 _atom_site_fract_x
 _atom_site_fract_y
 _atom_site_fract_z
 _atom_site_occupancy
  Ho  Ho0  1  0.000000  0.000000  0.000000  1
  Lu  Lu1  1  0.520196  0.479804  0.693335  1
  Lu  Lu2  1  0.520196  0.040393  0.693335  1
  Lu  Lu3  1  0.959607  0.479804  0.693335  1
  Lu  Lu4  1  0.040393  0.520196  0.306665  1
  Lu  Lu5  1  0.479804  0.959607  0.306665  1
  Lu  Lu6  1  0.479804  0.520196  0.306665  1
  Cd  Cd7  1  0.000000  0.000000  0.500000  1
  Co  Co8  1  0.168480  0.831520  0.802399  1
  Co  Co9  1  0.168480  0.336960  0.802399  1
  Co  Co10  1  0.663040  0.831520  0.802399  1
  Co  Co11  1  0.336960  0.168480  0.197601  1
  Co  Co12  1  0.831520  0.663040  0.197601  1
  Co  Co13  1  0.831520  0.168480  0.197601  1
  Sn  Sn14  1  0.666667  0.333333  0.181383  1
  Sn  Sn15  1  0.666667  0.333333  0.876375  1
  Sn  Sn16  1  0.333333  0.666667  0.123625  1
  Sn  Sn17  1  0.346534  0.346534  0.000000  1
  Sn  Sn18  1  0.000000  0.653466  0.000000  1
  Sn  Sn19  1  0.653466  0.000000  0.000000  1
  Sn  Sn20  1  0.653466  0.653466  0.000000  1
  Sn  Sn21  1  0.333333  0.666667  0.818617  1
  Sn  Sn22  1  0.436989  0.218495  0.453096  1
  Sn  Sn23  1  0.218495  0.781505  0.546904  1
  Sn  Sn24  1  0.218495  0.436989  0.546904  1
  Sn  Sn25  1  0.563011  0.781505  0.546904  1
  Sn  Sn26  1  0.118010  0.881990  0.272479  1
  Sn  Sn27  1  0.781505  0.563011  0.453096  1
  Sn  Sn28  1  0.781505  0.218495  0.453096  1
  Sn  Sn29  1  0.346534  0.000000  0.000000  1
  Sn  Sn30  1  0.118010  0.236021  0.272479  1
  Sn  Sn31  1  0.763979  0.881990  0.272479  1
  Sn  Sn32  1  0.236021  0.118010  0.727521  1
  Sn  Sn33  1  0.881990  0.763979  0.727521  1
  Sn  Sn34  1  0.881990  0.118010  0.727521  1
  Sn  Sn35  1  0.000000  0.346534  0.000000  1
