# generated using pymatgen
data_Pr6In8HgS
_symmetry_space_group_name_H-M   'P 1'
_cell_length_a   8.54572331
_cell_length_b   8.54571183
_cell_length_c   8.54573600
_cell_angle_alpha   119.60408030
_cell_angle_beta   119.60411370
_cell_angle_gamma   90.68680428
_symmetry_Int_Tables_number   1
_chemical_formula_structural   Pr6In8HgS
_chemical_formula_sum   'Pr6 In8 Hg1 S1'
_cell_volume   443.90494623
_cell_formula_units_Z   1
loop_
 _symmetry_equiv_pos_site_id
 _symmetry_equiv_pos_as_xyz
  1  'x, y, z'
loop_
 _atom_site_type_symbol
 _atom_site_label
 _atom_site_symmetry_multiplicity
 _atom_site_fract_x
 _atom_site_fract_y
 _atom_site_fract_z
 _atom_site_occupancy
  Pr  Pr0  1  0.769110  0.769110  0.000000  1
  Pr  Pr1  1  0.230890  0.230890  0.000000  1
  Pr  Pr2  1  0.679575  0.145822  0.825397  1
  Pr  Pr3  1  0.320425  0.854178  0.174603  1
  Pr  Pr4  1  0.145822  0.320437  0.466260  1
  Pr  Pr5  1  0.854178  0.679563  0.533740  1
  In  In6  1  0.337785  0.815659  0.788226  1
  In  In7  1  0.662215  0.184341  0.211774  1
  In  In8  1  0.027433  0.549559  0.211775  1
  In  In9  1  0.815674  0.027438  0.477890  1
  In  In10  1  0.450451  0.662215  0.477890  1
  In  In11  1  0.972567  0.450441  0.788225  1
  In  In12  1  0.184326  0.972562  0.522110  1
  In  In13  1  0.549549  0.337785  0.522110  1
  Hg  Hg14  1  0.500000  0.500000  0.000000  1
  S  S15  1  0.000000  0.000000  0.000000  1
