# generated using pymatgen
data_Pr3Ho2P12Pd3Ru16
_symmetry_space_group_name_H-M   'P 1'
_cell_length_a   12.67610000
_cell_length_b   12.67610033
_cell_length_c   4.00789100
_cell_angle_alpha   90.00000000
_cell_angle_beta   90.00000000
_cell_angle_gamma   119.99999914
_symmetry_Int_Tables_number   1
_chemical_formula_structural   Pr3Ho2P12Pd3Ru16
_chemical_formula_sum   'Pr3 Ho2 P12 Pd3 Ru16'
_cell_volume   557.72210999
_cell_formula_units_Z   1
loop_
 _symmetry_equiv_pos_site_id
 _symmetry_equiv_pos_as_xyz
  1  'x, y, z'
loop_
 _atom_site_type_symbol
 _atom_site_label
 _atom_site_symmetry_multiplicity
 _atom_site_fract_x
 _atom_site_fract_y
 _atom_site_fract_z
 _atom_site_occupancy
  Pr  Pr0  1  0.000000  0.182254  0.500000  1
  Pr  Pr1  1  0.817746  0.817746  0.500000  1
  Pr  Pr2  1  0.182254  0.000000  0.500000  1
  Ho  Ho3  1  0.666667  0.333333  0.000000  1
  Ho  Ho4  1  0.333333  0.666667  0.000000  1
  P  P5  1  0.000000  0.809596  0.000000  1
  P  P6  1  0.190404  0.190404  0.000000  1
  P  P7  1  0.809596  0.000000  0.000000  1
  P  P8  1  0.699884  0.181477  0.500000  1
  P  P9  1  0.818523  0.518406  0.500000  1
  P  P10  1  0.481594  0.300116  0.500000  1
  P  P11  1  0.181477  0.699884  0.500000  1
  P  P12  1  0.518406  0.818523  0.500000  1
  P  P13  1  0.300116  0.481594  0.500000  1
  P  P14  1  0.000000  0.368864  0.000000  1
  P  P15  1  0.631136  0.631136  0.000000  1
  P  P16  1  0.368864  0.000000  0.000000  1
  Pd  Pd17  1  0.000000  0.553063  0.000000  1
  Pd  Pd18  1  0.446937  0.446937  0.000000  1
  Pd  Pd19  1  0.553063  0.000000  0.000000  1
  Ru  Ru20  1  0.000000  0.708502  0.500000  1
  Ru  Ru21  1  0.291498  0.291498  0.500000  1
  Ru  Ru22  1  0.708502  0.000000  0.500000  1
  Ru  Ru23  1  0.803906  0.186915  0.000000  1
  Ru  Ru24  1  0.813085  0.616993  0.000000  1
  Ru  Ru25  1  0.383007  0.196094  0.000000  1
  Ru  Ru26  1  0.186915  0.803906  0.000000  1
  Ru  Ru27  1  0.616993  0.813085  0.000000  1
  Ru  Ru28  1  0.196094  0.383007  0.000000  1
  Ru  Ru29  1  0.875737  0.370224  0.500000  1
  Ru  Ru30  1  0.629776  0.505513  0.500000  1
  Ru  Ru31  1  0.494487  0.124263  0.500000  1
  Ru  Ru32  1  0.370224  0.875737  0.500000  1
  Ru  Ru33  1  0.505513  0.629776  0.500000  1
  Ru  Ru34  1  0.124263  0.494487  0.500000  1
  Ru  Ru35  1  0.000000  0.000000  0.000000  1
