# generated using pymatgen
data_Li4CePr3Si8
_symmetry_space_group_name_H-M   'P 1'
_cell_length_a   3.88399000
_cell_length_b   7.74412304
_cell_length_c   10.55913529
_cell_angle_alpha   90.14336014
_cell_angle_beta   90.00000000
_cell_angle_gamma   90.00000000
_symmetry_Int_Tables_number   1
_chemical_formula_structural   Li4CePr3Si8
_chemical_formula_sum   'Li4 Ce1 Pr3 Si8'
_cell_volume   317.59769550
_cell_formula_units_Z   1
loop_
 _symmetry_equiv_pos_site_id
 _symmetry_equiv_pos_as_xyz
  1  'x, y, z'
loop_
 _atom_site_type_symbol
 _atom_site_label
 _atom_site_symmetry_multiplicity
 _atom_site_fract_x
 _atom_site_fract_y
 _atom_site_fract_z
 _atom_site_occupancy
  Li  Li0  1  0.250000  0.992196  0.390646  1
  Li  Li1  1  0.250000  0.494725  0.108747  1
  Li  Li2  1  0.750000  0.006004  0.609392  1
  Li  Li3  1  0.750000  0.505093  0.890648  1
  Ce  Ce4  1  0.750000  0.360732  0.364538  1
  Pr  Pr5  1  0.250000  0.139787  0.865119  1
  Pr  Pr6  1  0.250000  0.637549  0.633917  1
  Pr  Pr7  1  0.750000  0.863191  0.135329  1
  Si  Si8  1  0.250000  0.231341  0.567057  1
  Si  Si9  1  0.250000  0.727412  0.928885  1
  Si  Si10  1  0.750000  0.771605  0.427177  1
  Si  Si11  1  0.750000  0.273727  0.074480  1
  Si  Si12  1  0.250000  0.657824  0.322862  1
  Si  Si13  1  0.250000  0.167939  0.182494  1
  Si  Si14  1  0.750000  0.334685  0.676709  1
  Si  Si15  1  0.750000  0.836191  0.821998  1
