# generated using pymatgen
data_Cs8BeCr3Se10
_symmetry_space_group_name_H-M   'P 1'
_cell_length_a   8.31676070
_cell_length_b   9.18766032
_cell_length_c   11.32837821
_cell_angle_alpha   77.13148317
_cell_angle_beta   86.27537185
_cell_angle_gamma   79.77425453
_symmetry_Int_Tables_number   1
_chemical_formula_structural   Cs8BeCr3Se10
_chemical_formula_sum   'Cs8 Be1 Cr3 Se10'
_cell_volume   830.18220661
_cell_formula_units_Z   1
loop_
 _symmetry_equiv_pos_site_id
 _symmetry_equiv_pos_as_xyz
  1  'x, y, z'
loop_
 _atom_site_type_symbol
 _atom_site_label
 _atom_site_symmetry_multiplicity
 _atom_site_fract_x
 _atom_site_fract_y
 _atom_site_fract_z
 _atom_site_occupancy
  Cs  Cs0  1  0.427416  0.322270  0.092896  1
  Cs  Cs1  1  0.569714  0.686525  0.906040  1
  Cs  Cs2  1  0.189532  0.075654  0.865400  1
  Cs  Cs3  1  0.055405  0.618405  0.743464  1
  Cs  Cs4  1  0.803104  0.918515  0.136211  1
  Cs  Cs5  1  0.943125  0.382122  0.257816  1
  Cs  Cs6  1  0.571152  0.719787  0.505130  1
  Cs  Cs7  1  0.436034  0.275730  0.491087  1
  Be  Be8  1  0.907838  0.088112  0.596977  1
  Cr  Cr9  1  0.094002  0.913314  0.403908  1
  Cr  Cr10  1  0.273709  0.730435  0.219460  1
  Cr  Cr11  1  0.725244  0.270124  0.780242  1
  Se  Se12  1  0.880797  0.339871  0.602308  1
  Se  Se13  1  0.175743  0.975729  0.585405  1
  Se  Se14  1  0.456373  0.395751  0.765931  1
  Se  Se15  1  0.165398  0.683482  0.044753  1
  Se  Se16  1  0.835084  0.314518  0.949629  1
  Se  Se17  1  0.548472  0.599792  0.229701  1
  Se  Se18  1  0.116365  0.648009  0.399961  1
  Se  Se19  1  0.252273  0.997434  0.219571  1
  Se  Se20  1  0.760751  0.010889  0.772717  1
  Se  Se21  1  0.812468  0.033531  0.431394  1
