# generated using pymatgen
data_U8Nb11Si16Pt
_symmetry_space_group_name_H-M   'P 1'
_cell_length_a   7.05815023
_cell_length_b   7.05815023
_cell_length_c   12.92037421
_cell_angle_alpha   89.61688327
_cell_angle_beta   90.38311673
_cell_angle_gamma   90.06270370
_symmetry_Int_Tables_number   1
_chemical_formula_structural   U8Nb11Si16Pt
_chemical_formula_sum   'U8 Nb11 Si16 Pt1'
_cell_volume   643.63141028
_cell_formula_units_Z   1
loop_
 _symmetry_equiv_pos_site_id
 _symmetry_equiv_pos_as_xyz
  1  'x, y, z'
loop_
 _atom_site_type_symbol
 _atom_site_label
 _atom_site_symmetry_multiplicity
 _atom_site_fract_x
 _atom_site_fract_y
 _atom_site_fract_z
 _atom_site_occupancy
  U  U0  1  0.989760  0.333342  0.218033  1
  U  U1  1  0.008035  0.667668  0.720985  1
  U  U2  1  0.167893  0.494638  0.468042  1
  U  U3  1  0.502175  0.833833  0.029930  1
  U  U4  1  0.833833  0.502175  0.970070  1
  U  U5  1  0.494638  0.167893  0.531958  1
  U  U6  1  0.333342  0.989760  0.781967  1
  U  U7  1  0.667668  0.008035  0.279015  1
  Nb  Nb8  1  0.831251  0.831251  0.500000  1
  Nb  Nb9  1  0.330326  0.670188  0.249119  1
  Nb  Nb10  1  0.670188  0.330326  0.750881  1
  Nb  Nb11  1  0.153561  0.001000  0.373180  1
  Nb  Nb12  1  0.845419  0.999007  0.876119  1
  Nb  Nb13  1  0.501858  0.654135  0.624954  1
  Nb  Nb14  1  0.344854  0.500769  0.876749  1
  Nb  Nb15  1  0.500769  0.344854  0.123251  1
  Nb  Nb16  1  0.654135  0.501858  0.375046  1
  Nb  Nb17  1  0.001000  0.153561  0.626820  1
  Nb  Nb18  1  0.999007  0.845419  0.123881  1
  Si  Si19  1  0.293974  0.043224  0.183092  1
  Si  Si20  1  0.704100  0.959064  0.685906  1
  Si  Si21  1  0.459245  0.798505  0.434486  1
  Si  Si22  1  0.204629  0.544019  0.064623  1
  Si  Si23  1  0.544019  0.204629  0.935377  1
  Si  Si24  1  0.798505  0.459245  0.565514  1
  Si  Si25  1  0.043224  0.293974  0.816908  1
  Si  Si26  1  0.959064  0.704100  0.314094  1
  Si  Si27  1  0.368735  0.293724  0.315168  1
  Si  Si28  1  0.631251  0.705615  0.816613  1
  Si  Si29  1  0.207771  0.869097  0.566061  1
  Si  Si30  1  0.126912  0.786736  0.933997  1
  Si  Si31  1  0.786736  0.126912  0.066003  1
  Si  Si32  1  0.869097  0.207771  0.433939  1
  Si  Si33  1  0.293724  0.368735  0.684832  1
  Si  Si34  1  0.705615  0.631251  0.183387  1
  Pt  Pt35  1  0.173686  0.173686  0.000000  1
