# generated using pymatgen
data_Li3Ac2PrAgSn4
_symmetry_space_group_name_H-M   'P 1'
_cell_length_a   9.12342287
_cell_length_b   9.13728855
_cell_length_c   9.13728995
_cell_angle_alpha   148.89365230
_cell_angle_beta   132.71562672
_cell_angle_gamma   57.70006238
_symmetry_Int_Tables_number   1
_chemical_formula_structural   Li3Ac2PrAgSn4
_chemical_formula_sum   'Li3 Ac2 Pr1 Ag1 Sn4'
_cell_volume   286.95872242
_cell_formula_units_Z   1
loop_
 _symmetry_equiv_pos_site_id
 _symmetry_equiv_pos_as_xyz
  1  'x, y, z'
loop_
 _atom_site_type_symbol
 _atom_site_label
 _atom_site_symmetry_multiplicity
 _atom_site_fract_x
 _atom_site_fract_y
 _atom_site_fract_z
 _atom_site_occupancy
  Li  Li0  1  0.484477  0.670675  0.813803  1
  Li  Li1  1  0.855058  0.670733  0.184324  1
  Li  Li2  1  0.147663  0.331703  0.815961  1
  Ac  Ac3  1  0.867531  0.868098  0.999433  1
  Ac  Ac4  1  0.135593  0.132268  0.003325  1
  Pr  Pr5  1  0.497958  0.997787  0.500171  1
  Ag  Ag6  1  0.516066  0.329057  0.187007  1
  Sn  Sn7  1  0.280806  0.787857  0.492949  1
  Sn  Sn8  1  0.712049  0.209849  0.502201  1
  Sn  Sn9  1  0.800408  0.501344  0.299063  1
  Sn  Sn10  1  0.202390  0.500628  0.701762  1
