# generated using pymatgen
data_TbTm2Fe8Ru
_symmetry_space_group_name_H-M   'P 1'
_cell_length_a   5.07765262
_cell_length_b   5.07765369
_cell_length_c   8.73721550
_cell_angle_alpha   73.10755150
_cell_angle_beta   73.10754781
_cell_angle_gamma   60.00001213
_symmetry_Int_Tables_number   1
_chemical_formula_structural   TbTm2Fe8Ru
_chemical_formula_sum   'Tb1 Tm2 Fe8 Ru1'
_cell_volume   183.77844330
_cell_formula_units_Z   1
loop_
 _symmetry_equiv_pos_site_id
 _symmetry_equiv_pos_as_xyz
  1  'x, y, z'
loop_
 _atom_site_type_symbol
 _atom_site_label
 _atom_site_symmetry_multiplicity
 _atom_site_fract_x
 _atom_site_fract_y
 _atom_site_fract_z
 _atom_site_occupancy
  Tb  Tb0  1  0.000000  0.000000  0.000000  1
  Tm  Tm1  1  0.141725  0.141725  0.574823  1
  Tm  Tm2  1  0.858275  0.858275  0.425177  1
  Fe  Fe3  1  0.076760  0.582316  0.758608  1
  Fe  Fe4  1  0.582316  0.582316  0.758608  1
  Fe  Fe5  1  0.582316  0.076760  0.758608  1
  Fe  Fe6  1  0.923240  0.417684  0.241392  1
  Fe  Fe7  1  0.417684  0.417684  0.241392  1
  Fe  Fe8  1  0.417684  0.923240  0.241392  1
  Fe  Fe9  1  0.333207  0.333207  0.000381  1
  Fe  Fe10  1  0.666793  0.666793  0.999619  1
  Ru  Ru11  1  0.500000  0.500000  0.500000  1
