# generated using pymatgen
data_K4Ba2TiSb4
_symmetry_space_group_name_H-M   'P 1'
_cell_length_a   11.07466870
_cell_length_b   11.07466882
_cell_length_c   8.55487471
_cell_angle_alpha   89.08197837
_cell_angle_beta   89.08198013
_cell_angle_gamma   119.83664436
_symmetry_Int_Tables_number   1
_chemical_formula_structural   K4Ba2TiSb4
_chemical_formula_sum   'K8 Ba4 Ti2 Sb8'
_cell_volume   909.69608614
_cell_formula_units_Z   2
loop_
 _symmetry_equiv_pos_site_id
 _symmetry_equiv_pos_as_xyz
  1  'x, y, z'
loop_
 _atom_site_type_symbol
 _atom_site_label
 _atom_site_symmetry_multiplicity
 _atom_site_fract_x
 _atom_site_fract_y
 _atom_site_fract_z
 _atom_site_occupancy
  K  K0  1  0.475438  0.947070  0.384061  1
  K  K1  1  0.947070  0.475438  0.884061  1
  K  K2  1  0.865613  0.724612  0.183117  1
  K  K3  1  0.273034  0.129396  0.224934  1
  K  K4  1  0.854292  0.138390  0.201759  1
  K  K5  1  0.129396  0.273034  0.724934  1
  K  K6  1  0.724612  0.865613  0.683117  1
  K  K7  1  0.138390  0.854292  0.701759  1
  Ba  Ba8  1  0.055920  0.529789  0.387434  1
  Ba  Ba9  1  0.477516  0.530474  0.380564  1
  Ba  Ba10  1  0.529789  0.055920  0.887434  1
  Ba  Ba11  1  0.530474  0.477516  0.880564  1
  Ti  Ti12  1  0.663892  0.332268  0.492946  1
  Ti  Ti13  1  0.332268  0.663892  0.992946  1
  Sb  Sb14  1  0.655771  0.333815  0.174932  1
  Sb  Sb15  1  0.333815  0.655771  0.674932  1
  Sb  Sb16  1  0.204849  0.398677  0.111918  1
  Sb  Sb17  1  0.603709  0.799205  0.081221  1
  Sb  Sb18  1  0.204264  0.801816  0.094782  1
  Sb  Sb19  1  0.799205  0.603709  0.581221  1
  Sb  Sb20  1  0.398677  0.204849  0.611918  1
  Sb  Sb21  1  0.801816  0.204264  0.594782  1
