# generated using pymatgen
data_Hf6BeAlTe
_symmetry_space_group_name_H-M   'P 1'
_cell_length_a   3.65271800
_cell_length_b   7.56293576
_cell_length_c   7.56293700
_cell_angle_alpha   119.99999231
_cell_angle_beta   90.00000000
_cell_angle_gamma   90.00000000
_symmetry_Int_Tables_number   1
_chemical_formula_structural   Hf6BeAlTe
_chemical_formula_sum   'Hf6 Be1 Al1 Te1'
_cell_volume   180.93713283
_cell_formula_units_Z   1
loop_
 _symmetry_equiv_pos_site_id
 _symmetry_equiv_pos_as_xyz
  1  'x, y, z'
loop_
 _atom_site_type_symbol
 _atom_site_label
 _atom_site_symmetry_multiplicity
 _atom_site_fract_x
 _atom_site_fract_y
 _atom_site_fract_z
 _atom_site_occupancy
  Hf  Hf0  1  0.500000  0.758653  0.766671  1
  Hf  Hf1  1  0.500000  0.008019  0.241347  1
  Hf  Hf2  1  0.500000  0.233329  0.991981  1
  Hf  Hf3  1  0.000000  0.394785  0.401088  1
  Hf  Hf4  1  0.000000  0.006302  0.605215  1
  Hf  Hf5  1  0.000000  0.598912  0.993698  1
  Be  Be6  1  0.000000  0.000000  0.000000  1
  Al  Al7  1  0.500000  0.333333  0.666667  1
  Te  Te8  1  0.500000  0.666667  0.333333  1
