# generated using pymatgen
data_Tb2ErTiAl11Ru4
_symmetry_space_group_name_H-M   'P 1'
_cell_length_a   8.85663865
_cell_length_b   8.85663821
_cell_length_c   9.54200309
_cell_angle_alpha   89.98609409
_cell_angle_beta   90.01390368
_cell_angle_gamma   120.06845491
_symmetry_Int_Tables_number   1
_chemical_formula_structural   Tb2ErTiAl11Ru4
_chemical_formula_sum   'Tb4 Er2 Ti2 Al22 Ru8'
_cell_volume   647.75087610
_cell_formula_units_Z   2
loop_
 _symmetry_equiv_pos_site_id
 _symmetry_equiv_pos_as_xyz
  1  'x, y, z'
loop_
 _atom_site_type_symbol
 _atom_site_label
 _atom_site_symmetry_multiplicity
 _atom_site_fract_x
 _atom_site_fract_y
 _atom_site_fract_z
 _atom_site_occupancy
  Tb  Tb0  1  0.193761  0.387487  0.250887  1
  Tb  Tb1  1  0.806239  0.612513  0.749113  1
  Tb  Tb2  1  0.612513  0.806239  0.250887  1
  Tb  Tb3  1  0.387487  0.193761  0.749113  1
  Er  Er4  1  0.194292  0.805708  0.250993  1
  Er  Er5  1  0.805708  0.194292  0.749007  1
  Ti  Ti6  1  0.333225  0.666775  0.996612  1
  Ti  Ti7  1  0.666775  0.333225  0.003388  1
  Al  Al8  1  0.666760  0.333240  0.517271  1
  Al  Al9  1  0.333240  0.666760  0.482729  1
  Al  Al10  1  0.161133  0.323006  0.577628  1
  Al  Al11  1  0.838867  0.676994  0.422372  1
  Al  Al12  1  0.676994  0.838867  0.577628  1
  Al  Al13  1  0.841085  0.681640  0.077795  1
  Al  Al14  1  0.323006  0.161133  0.422372  1
  Al  Al15  1  0.158915  0.318360  0.922205  1
  Al  Al16  1  0.161507  0.838493  0.577217  1
  Al  Al17  1  0.318360  0.158915  0.077795  1
  Al  Al18  1  0.838493  0.161507  0.422783  1
  Al  Al19  1  0.681640  0.841085  0.922205  1
  Al  Al20  1  0.840764  0.159236  0.077299  1
  Al  Al21  1  0.159236  0.840764  0.922701  1
  Al  Al22  1  0.560453  0.121547  0.252230  1
  Al  Al23  1  0.439547  0.878453  0.747770  1
  Al  Al24  1  0.878453  0.439547  0.252230  1
  Al  Al25  1  0.121547  0.560453  0.747770  1
  Al  Al26  1  0.561093  0.438907  0.252239  1
  Al  Al27  1  0.438907  0.561093  0.747761  1
  Al  Al28  1  0.000379  0.999621  0.250547  1
  Al  Al29  1  0.999621  0.000379  0.749453  1
  Ru  Ru30  1  0.500000  0.000000  0.000000  1
  Ru  Ru31  1  0.000000  0.500000  0.000000  1
  Ru  Ru32  1  0.500000  0.000000  0.500000  1
  Ru  Ru33  1  0.500000  0.500000  0.000000  1
  Ru  Ru34  1  0.000000  0.500000  0.500000  1
  Ru  Ru35  1  0.500000  0.500000  0.500000  1
  Ru  Ru36  1  0.000000  0.000000  0.000000  1
  Ru  Ru37  1  0.000000  0.000000  0.500000  1
