# generated using pymatgen
data_Li4Yb2Mg(SiN3)2
_symmetry_space_group_name_H-M   'P 1'
_cell_length_a   5.70032823
_cell_length_b   5.70032755
_cell_length_c   5.60948301
_cell_angle_alpha   87.63379073
_cell_angle_beta   87.63379219
_cell_angle_gamma   117.89533453
_symmetry_Int_Tables_number   1
_chemical_formula_structural   Li4Yb2Mg(SiN3)2
_chemical_formula_sum   'Li4 Yb2 Mg1 Si2 N6'
_cell_volume   160.57677387
_cell_formula_units_Z   1
loop_
 _symmetry_equiv_pos_site_id
 _symmetry_equiv_pos_as_xyz
  1  'x, y, z'
loop_
 _atom_site_type_symbol
 _atom_site_label
 _atom_site_symmetry_multiplicity
 _atom_site_fract_x
 _atom_site_fract_y
 _atom_site_fract_z
 _atom_site_occupancy
  Li  Li0  1  0.989539  0.332069  0.374504  1
  Li  Li1  1  0.332069  0.989539  0.374504  1
  Li  Li2  1  0.010461  0.667931  0.625496  1
  Li  Li3  1  0.667931  0.010461  0.625496  1
  Yb  Yb4  1  0.322197  0.677803  0.000000  1
  Yb  Yb5  1  0.677803  0.322197  0.000000  1
  Mg  Mg6  1  0.000000  0.000000  0.000000  1
  Si  Si7  1  0.321058  0.321058  0.632841  1
  Si  Si8  1  0.678942  0.678942  0.367159  1
  N  N9  1  0.623012  0.623012  0.688898  1
  N  N10  1  0.376988  0.376988  0.311102  1
  N  N11  1  0.031866  0.322923  0.748952  1
  N  N12  1  0.322923  0.031866  0.748952  1
  N  N13  1  0.968134  0.677077  0.251048  1
  N  N14  1  0.677077  0.968134  0.251048  1
