# generated using pymatgen
data_Y8Ho12IrRh11
_symmetry_space_group_name_H-M   'P 1'
_cell_length_a   10.90266802
_cell_length_b   10.90280148
_cell_length_c   6.35874904
_cell_angle_alpha   89.99095147
_cell_angle_beta   90.00120662
_cell_angle_gamma   90.08623707
_symmetry_Int_Tables_number   1
_chemical_formula_structural   Y8Ho12IrRh11
_chemical_formula_sum   'Y8 Ho12 Ir1 Rh11'
_cell_volume   755.86124774
_cell_formula_units_Z   1
loop_
 _symmetry_equiv_pos_site_id
 _symmetry_equiv_pos_as_xyz
  1  'x, y, z'
loop_
 _atom_site_type_symbol
 _atom_site_label
 _atom_site_symmetry_multiplicity
 _atom_site_fract_x
 _atom_site_fract_y
 _atom_site_fract_z
 _atom_site_occupancy
  Y  Y0  1  0.289815  0.089208  0.378398  1
  Y  Y1  1  0.290248  0.908961  0.878484  1
  Y  Y2  1  0.709952  0.088987  0.878236  1
  Y  Y3  1  0.709759  0.910506  0.377925  1
  Y  Y4  1  0.587464  0.789231  0.877925  1
  Y  Y5  1  0.589428  0.210019  0.378720  1
  Y  Y6  1  0.410131  0.789310  0.379400  1
  Y  Y7  1  0.410416  0.209646  0.877841  1
  Ho  Ho8  1  0.209114  0.413899  0.620837  1
  Ho  Ho9  1  0.209022  0.588539  0.119080  1
  Ho  Ho10  1  0.791624  0.411828  0.120000  1
  Ho  Ho11  1  0.792030  0.588280  0.620758  1
  Ho  Ho12  1  0.912030  0.708465  0.120297  1
  Ho  Ho13  1  0.912325  0.291683  0.620484  1
  Ho  Ho14  1  0.089891  0.708033  0.620303  1
  Ho  Ho15  1  0.088168  0.291907  0.120672  1
  Ho  Ho16  1  0.999627  0.999818  0.501090  1
  Ho  Ho17  1  0.000134  0.000351  0.000747  1
  Ho  Ho18  1  0.499656  0.499795  0.000984  1
  Ho  Ho19  1  0.500149  0.500309  0.500823  1
  Ir  Ir20  1  0.345302  0.651622  0.750698  1
  Rh  Rh21  1  0.848638  0.155192  0.251025  1
  Rh  Rh22  1  0.848155  0.845027  0.751427  1
  Rh  Rh23  1  0.151165  0.155533  0.750663  1
  Rh  Rh24  1  0.150578  0.845583  0.251038  1
  Rh  Rh25  1  0.655196  0.348579  0.751023  1
  Rh  Rh26  1  0.656171  0.651437  0.251045  1
  Rh  Rh27  1  0.344701  0.347620  0.250958  1
  Rh  Rh28  1  0.500114  0.000477  0.125083  1
  Rh  Rh29  1  0.500252  0.000620  0.624295  1
  Rh  Rh30  1  0.999258  0.499700  0.875266  1
  Rh  Rh31  1  0.999488  0.499831  0.374474  1
