# generated using pymatgen
data_Zr6Ti4Al12Ru6Au
_symmetry_space_group_name_H-M   'P 1'
_cell_length_a   8.80803399
_cell_length_b   8.80803318
_cell_length_c   8.83013800
_cell_angle_alpha   59.91694013
_cell_angle_beta   59.91694318
_cell_angle_gamma   60.10454669
_symmetry_Int_Tables_number   1
_chemical_formula_structural   Zr6Ti4Al12Ru6Au
_chemical_formula_sum   'Zr6 Ti4 Al12 Ru6 Au1'
_cell_volume   484.17810927
_cell_formula_units_Z   1
loop_
 _symmetry_equiv_pos_site_id
 _symmetry_equiv_pos_as_xyz
  1  'x, y, z'
loop_
 _atom_site_type_symbol
 _atom_site_label
 _atom_site_symmetry_multiplicity
 _atom_site_fract_x
 _atom_site_fract_y
 _atom_site_fract_z
 _atom_site_occupancy
  Zr  Zr0  1  0.691762  0.691762  0.308238  1
  Zr  Zr1  1  0.302741  0.697150  0.294644  1
  Zr  Zr2  1  0.697150  0.302741  0.294644  1
  Zr  Zr3  1  0.307851  0.307851  0.692149  1
  Zr  Zr4  1  0.697150  0.302741  0.705466  1
  Zr  Zr5  1  0.302741  0.697150  0.705466  1
  Ti  Ti6  1  0.874804  0.874804  0.357719  1
  Ti  Ti7  1  0.880769  0.359714  0.879758  1
  Ti  Ti8  1  0.359714  0.880769  0.879758  1
  Ti  Ti9  1  0.874804  0.874804  0.892672  1
  Al  Al10  1  0.123238  0.123238  0.645073  1
  Al  Al11  1  0.119119  0.642178  0.119352  1
  Al  Al12  1  0.642178  0.119119  0.119352  1
  Al  Al13  1  0.123238  0.123238  0.108453  1
  Al  Al14  1  0.664162  0.664162  0.005526  1
  Al  Al15  1  0.659214  0.010116  0.665335  1
  Al  Al16  1  0.010116  0.659214  0.665335  1
  Al  Al17  1  0.664162  0.664162  0.666150  1
  Al  Al18  1  0.333788  0.333788  0.998447  1
  Al  Al19  1  0.341123  0.995699  0.331590  1
  Al  Al20  1  0.995699  0.341123  0.331590  1
  Al  Al21  1  0.333788  0.333788  0.333976  1
  Ru  Ru22  1  0.999664  0.999664  0.000336  1
  Ru  Ru23  1  0.502503  0.997471  0.501029  1
  Ru  Ru24  1  0.997471  0.502503  0.501029  1
  Ru  Ru25  1  0.501476  0.501476  0.998524  1
  Ru  Ru26  1  0.997471  0.502503  0.998997  1
  Ru  Ru27  1  0.502503  0.997471  0.998997  1
  Au  Au28  1  0.999599  0.999599  0.500401  1
