# generated using pymatgen
data_Tb7Ho(SiI6)2
_symmetry_space_group_name_H-M   'P 1'
_cell_length_a   4.21902200
_cell_length_b   14.05333234
_cell_length_c   14.82287447
_cell_angle_alpha   89.93383560
_cell_angle_beta   90.00000000
_cell_angle_gamma   90.00000000
_symmetry_Int_Tables_number   1
_chemical_formula_structural   Tb7Ho(SiI6)2
_chemical_formula_sum   'Tb7 Ho1 Si2 I12'
_cell_volume   878.86718277
_cell_formula_units_Z   1
loop_
 _symmetry_equiv_pos_site_id
 _symmetry_equiv_pos_as_xyz
  1  'x, y, z'
loop_
 _atom_site_type_symbol
 _atom_site_label
 _atom_site_symmetry_multiplicity
 _atom_site_fract_x
 _atom_site_fract_y
 _atom_site_fract_z
 _atom_site_occupancy
  Tb  Tb0  1  0.500000  0.114460  0.347390  1
  Tb  Tb1  1  0.500000  0.885550  0.652616  1
  Tb  Tb2  1  0.500000  0.614226  0.152467  1
  Tb  Tb3  1  0.500000  0.385627  0.847626  1
  Tb  Tb4  1  0.000000  0.111642  0.574873  1
  Tb  Tb5  1  0.000000  0.888351  0.425135  1
  Tb  Tb6  1  0.000000  0.611009  0.925548  1
  Ho  Ho7  1  0.000000  0.389131  0.074296  1
  Si  Si8  1  0.500000  0.000009  0.499983  1
  Si  Si9  1  0.500000  0.499008  0.000660  1
  I  I10  1  0.500000  0.246857  0.161018  1
  I  I11  1  0.500000  0.754534  0.838195  1
  I  I12  1  0.500000  0.745255  0.338068  1
  I  I13  1  0.500000  0.254682  0.661971  1
  I  I14  1  0.000000  0.258855  0.414415  1
  I  I15  1  0.000000  0.741150  0.585556  1
  I  I16  1  0.000000  0.758710  0.085443  1
  I  I17  1  0.000000  0.241653  0.915461  1
  I  I18  1  0.000000  0.999335  0.240306  1
  I  I19  1  0.000000  0.000750  0.759675  1
  I  I20  1  0.000000  0.498420  0.258838  1
  I  I21  1  0.000000  0.500788  0.740462  1
