# generated using pymatgen
data_Th2Co2As4RuRh
_symmetry_space_group_name_H-M   'P 1'
_cell_length_a   4.23039100
_cell_length_b   4.23039100
_cell_length_c   9.60592700
_cell_angle_alpha   90.00000000
_cell_angle_beta   90.00000000
_cell_angle_gamma   90.00000000
_symmetry_Int_Tables_number   1
_chemical_formula_structural   Th2Co2As4RuRh
_chemical_formula_sum   'Th2 Co2 As4 Ru1 Rh1'
_cell_volume   171.90966775
_cell_formula_units_Z   1
loop_
 _symmetry_equiv_pos_site_id
 _symmetry_equiv_pos_as_xyz
  1  'x, y, z'
loop_
 _atom_site_type_symbol
 _atom_site_label
 _atom_site_symmetry_multiplicity
 _atom_site_fract_x
 _atom_site_fract_y
 _atom_site_fract_z
 _atom_site_occupancy
  Th  Th0  1  0.000000  0.500000  0.255629  1
  Th  Th1  1  0.500000  0.000000  0.744371  1
  Co  Co2  1  0.000000  0.500000  0.609327  1
  Co  Co3  1  0.500000  0.000000  0.390673  1
  As  As4  1  0.000000  0.000000  0.500000  1
  As  As5  1  0.500000  0.500000  0.500000  1
  As  As6  1  0.000000  0.500000  0.852859  1
  As  As7  1  0.500000  0.000000  0.147141  1
  Ru  Ru8  1  0.000000  0.000000  0.000000  1
  Rh  Rh9  1  0.500000  0.500000  0.000000  1
