# generated using pymatgen
data_Eu2Y4MnCo17P12
_symmetry_space_group_name_H-M   'P 1'
_cell_length_a   3.70883400
_cell_length_b   10.57445500
_cell_length_c   12.22194800
_cell_angle_alpha   90.00000000
_cell_angle_beta   90.00000000
_cell_angle_gamma   90.00000000
_symmetry_Int_Tables_number   1
_chemical_formula_structural   Eu2Y4MnCo17P12
_chemical_formula_sum   'Eu2 Y4 Mn1 Co17 P12'
_cell_volume   479.33133485
_cell_formula_units_Z   1
loop_
 _symmetry_equiv_pos_site_id
 _symmetry_equiv_pos_as_xyz
  1  'x, y, z'
loop_
 _atom_site_type_symbol
 _atom_site_label
 _atom_site_symmetry_multiplicity
 _atom_site_fract_x
 _atom_site_fract_y
 _atom_site_fract_z
 _atom_site_occupancy
  Eu  Eu0  1  0.000000  0.500000  0.523820  1
  Eu  Eu1  1  0.500000  0.000000  0.476406  1
  Y  Y2  1  0.500000  0.817655  0.204604  1
  Y  Y3  1  0.500000  0.182345  0.204604  1
  Y  Y4  1  0.000000  0.682605  0.796225  1
  Y  Y5  1  0.000000  0.317395  0.796225  1
  Mn  Mn6  1  0.500000  0.500000  0.156959  1
  Co  Co7  1  0.000000  0.000000  0.843024  1
  Co  Co8  1  0.500000  0.500000  0.703378  1
  Co  Co9  1  0.000000  0.000000  0.296051  1
  Co  Co10  1  0.000000  0.500000  0.985358  1
  Co  Co11  1  0.500000  0.000000  0.013771  1
  Co  Co12  1  0.500000  0.333247  0.993851  1
  Co  Co13  1  0.500000  0.666753  0.993851  1
  Co  Co14  1  0.000000  0.166551  0.006136  1
  Co  Co15  1  0.000000  0.833449  0.006136  1
  Co  Co16  1  0.500000  0.295918  0.429191  1
  Co  Co17  1  0.500000  0.704082  0.429191  1
  Co  Co18  1  0.000000  0.204077  0.570282  1
  Co  Co19  1  0.000000  0.795923  0.570282  1
  Co  Co20  1  0.500000  0.880026  0.711624  1
  Co  Co21  1  0.500000  0.119974  0.711624  1
  Co  Co22  1  0.000000  0.620128  0.288245  1
  Co  Co23  1  0.000000  0.379872  0.288245  1
  P  P24  1  0.500000  0.500000  0.882509  1
  P  P25  1  0.000000  0.000000  0.117007  1
  P  P26  1  0.500000  0.500000  0.341853  1
  P  P27  1  0.000000  0.000000  0.659848  1
  P  P28  1  0.500000  0.307274  0.617168  1
  P  P29  1  0.500000  0.692726  0.617168  1
  P  P30  1  0.000000  0.192308  0.383177  1
  P  P31  1  0.000000  0.807692  0.383177  1
  P  P32  1  0.500000  0.847592  0.894166  1
  P  P33  1  0.500000  0.152408  0.894166  1
  P  P34  1  0.000000  0.652661  0.105339  1
  P  P35  1  0.000000  0.347339  0.105339  1
