# generated using pymatgen
data_Dy7Tm9(InRu)4
_symmetry_space_group_name_H-M   'P 1'
_cell_length_a   9.56876654
_cell_length_b   9.56876687
_cell_length_c   9.61875400
_cell_angle_alpha   59.82704086
_cell_angle_beta   59.82703973
_cell_angle_gamma   59.78717009
_symmetry_Int_Tables_number   1
_chemical_formula_structural   Dy7Tm9(InRu)4
_chemical_formula_sum   'Dy7 Tm9 In4 Ru4'
_cell_volume   620.11989725
_cell_formula_units_Z   1
loop_
 _symmetry_equiv_pos_site_id
 _symmetry_equiv_pos_as_xyz
  1  'x, y, z'
loop_
 _atom_site_type_symbol
 _atom_site_label
 _atom_site_symmetry_multiplicity
 _atom_site_fract_x
 _atom_site_fract_y
 _atom_site_fract_z
 _atom_site_occupancy
  Dy  Dy0  1  0.060093  0.060093  0.439907  1
  Dy  Dy1  1  0.192215  0.807159  0.807956  1
  Dy  Dy2  1  0.807159  0.192215  0.192669  1
  Dy  Dy3  1  0.807159  0.192215  0.807956  1
  Dy  Dy4  1  0.192215  0.807159  0.192669  1
  Dy  Dy5  1  0.807275  0.807275  0.192725  1
  Dy  Dy6  1  0.192932  0.192932  0.807068  1
  Tm  Tm7  1  0.597748  0.597748  0.598646  1
  Tm  Tm8  1  0.597748  0.597748  0.205860  1
  Tm  Tm9  1  0.597526  0.208055  0.597209  1
  Tm  Tm10  1  0.208055  0.597526  0.597209  1
  Tm  Tm11  1  0.059503  0.440202  0.440908  1
  Tm  Tm12  1  0.440202  0.059503  0.059388  1
  Tm  Tm13  1  0.440202  0.059503  0.440908  1
  Tm  Tm14  1  0.059503  0.440202  0.059388  1
  Tm  Tm15  1  0.439488  0.439488  0.060512  1
  In  In16  1  0.831928  0.831928  0.832822  1
  In  In17  1  0.831928  0.831928  0.503321  1
  In  In18  1  0.831559  0.503032  0.832705  1
  In  In19  1  0.503032  0.831559  0.832705  1
  Ru  Ru20  1  0.390102  0.390102  0.388849  1
  Ru  Ru21  1  0.390102  0.390102  0.830948  1
  Ru  Ru22  1  0.393224  0.829105  0.388836  1
  Ru  Ru23  1  0.829105  0.393224  0.388836  1
