# generated using pymatgen
data_Dy4CdPt4Pb
_symmetry_space_group_name_H-M   'P 1'
_cell_length_a   7.88427100
_cell_length_b   7.88427100
_cell_length_c   3.63737800
_cell_angle_alpha   90.00000000
_cell_angle_beta   90.00000000
_cell_angle_gamma   90.00000000
_symmetry_Int_Tables_number   1
_chemical_formula_structural   Dy4CdPt4Pb
_chemical_formula_sum   'Dy4 Cd1 Pt4 Pb1'
_cell_volume   226.10570624
_cell_formula_units_Z   1
loop_
 _symmetry_equiv_pos_site_id
 _symmetry_equiv_pos_as_xyz
  1  'x, y, z'
loop_
 _atom_site_type_symbol
 _atom_site_label
 _atom_site_symmetry_multiplicity
 _atom_site_fract_x
 _atom_site_fract_y
 _atom_site_fract_z
 _atom_site_occupancy
  Dy  Dy0  1  0.327816  0.836096  0.500000  1
  Dy  Dy1  1  0.836096  0.672184  0.500000  1
  Dy  Dy2  1  0.163904  0.327816  0.500000  1
  Dy  Dy3  1  0.672184  0.163904  0.500000  1
  Cd  Cd4  1  0.500000  0.500000  0.000000  1
  Pt  Pt5  1  0.380376  0.138010  0.000000  1
  Pt  Pt6  1  0.861990  0.380376  0.000000  1
  Pt  Pt7  1  0.138010  0.619624  0.000000  1
  Pt  Pt8  1  0.619624  0.861990  0.000000  1
  Pb  Pb9  1  0.000000  0.000000  0.000000  1
