# generated using pymatgen
data_Dy5HoGaNiOs
_symmetry_space_group_name_H-M   'P 1'
_cell_length_a   8.36845899
_cell_length_b   8.37131677
_cell_length_c   8.36845901
_cell_angle_alpha   113.00527789
_cell_angle_beta   110.12113081
_cell_angle_gamma   105.36422463
_symmetry_Int_Tables_number   1
_chemical_formula_structural   Dy5HoGaNiOs
_chemical_formula_sum   'Dy10 Ho2 Ga2 Ni2 Os2'
_cell_volume   449.34630711
_cell_formula_units_Z   2
loop_
 _symmetry_equiv_pos_site_id
 _symmetry_equiv_pos_as_xyz
  1  'x, y, z'
loop_
 _atom_site_type_symbol
 _atom_site_label
 _atom_site_symmetry_multiplicity
 _atom_site_fract_x
 _atom_site_fract_y
 _atom_site_fract_z
 _atom_site_occupancy
  Dy  Dy0  1  0.434993  0.241766  0.192344  1
  Dy  Dy1  1  0.565007  0.758234  0.807656  1
  Dy  Dy2  1  0.049422  0.241766  0.806773  1
  Dy  Dy3  1  0.950578  0.758234  0.193227  1
  Dy  Dy4  1  0.179792  0.277503  0.457598  1
  Dy  Dy5  1  0.820208  0.722497  0.542402  1
  Dy  Dy6  1  0.180097  0.722497  0.902290  1
  Dy  Dy7  1  0.819903  0.277503  0.097710  1
  Dy  Dy8  1  0.330568  0.643399  0.312831  1
  Dy  Dy9  1  0.669432  0.356601  0.687169  1
  Ho  Ho10  1  0.330813  0.017313  0.686501  1
  Ho  Ho11  1  0.669187  0.982687  0.313499  1
  Ga  Ga12  1  0.500000  0.500000  0.000000  1
  Ga  Ga13  1  0.000000  0.000000  0.000000  1
  Ni  Ni14  1  0.116337  0.616642  0.500305  1
  Ni  Ni15  1  0.883663  0.383358  0.499695  1
  Os  Os16  1  0.329587  0.000000  0.329587  1
  Os  Os17  1  0.670413  0.000000  0.670413  1
