# generated using pymatgen
data_Be3Co3Mo6C
_symmetry_space_group_name_H-M   'P 1'
_cell_length_a   7.57576871
_cell_length_b   7.57504456
_cell_length_c   7.57504345
_cell_angle_alpha   59.98569308
_cell_angle_beta   59.99683579
_cell_angle_gamma   59.99684156
_symmetry_Int_Tables_number   1
_chemical_formula_structural   Be3Co3Mo6C
_chemical_formula_sum   'Be6 Co6 Mo12 C2'
_cell_volume   307.33661267
_cell_formula_units_Z   2
loop_
 _symmetry_equiv_pos_site_id
 _symmetry_equiv_pos_as_xyz
  1  'x, y, z'
loop_
 _atom_site_type_symbol
 _atom_site_label
 _atom_site_symmetry_multiplicity
 _atom_site_fract_x
 _atom_site_fract_y
 _atom_site_fract_z
 _atom_site_occupancy
  Be  Be0  1  0.329508  0.329803  0.011178  1
  Be  Be1  1  0.328436  0.326960  0.326960  1
  Be  Be2  1  0.228248  0.924605  0.924605  1
  Be  Be3  1  0.922542  0.924605  0.924605  1
  Be  Be4  1  0.017642  0.326960  0.326960  1
  Be  Be5  1  0.329508  0.011178  0.329803  1
  Co  Co6  1  0.130502  0.619914  0.119080  1
  Co  Co7  1  0.130502  0.119080  0.619914  1
  Co  Co8  1  0.615301  0.124408  0.124408  1
  Co  Co9  1  0.135883  0.124408  0.124408  1
  Co  Co10  1  0.914332  0.923268  0.248071  1
  Co  Co11  1  0.914332  0.248071  0.923268  1
  Mo  Mo12  1  0.300453  0.699547  0.699547  1
  Mo  Mo13  1  0.701958  0.697708  0.298194  1
  Mo  Mo14  1  0.701958  0.298194  0.697708  1
  Mo  Mo15  1  0.302140  0.697708  0.298194  1
  Mo  Mo16  1  0.547923  0.950644  0.552632  1
  Mo  Mo17  1  0.548910  0.951090  0.951090  1
  Mo  Mo18  1  0.952063  0.547937  0.547937  1
  Mo  Mo19  1  0.948801  0.552632  0.950644  1
  Mo  Mo20  1  0.302140  0.298194  0.697708  1
  Mo  Mo21  1  0.547923  0.552632  0.950644  1
  Mo  Mo22  1  0.948801  0.950644  0.552632  1
  Mo  Mo23  1  0.699521  0.300479  0.300479  1
  C  C24  1  0.500668  0.499332  0.499332  1
  C  C25  1  0.750003  0.749997  0.749997  1
