# generated using pymatgen
data_CaPr4Si2Pb
_symmetry_space_group_name_H-M   'P 1'
_cell_length_a   7.97232600
_cell_length_b   9.26662186
_cell_length_c   7.97232600
_cell_angle_alpha   115.47794704
_cell_angle_beta   90.00000000
_cell_angle_gamma   115.47794704
_symmetry_Int_Tables_number   1
_chemical_formula_structural   CaPr4Si2Pb
_chemical_formula_sum   'Ca2 Pr8 Si4 Pb2'
_cell_volume   467.44842728
_cell_formula_units_Z   2
loop_
 _symmetry_equiv_pos_site_id
 _symmetry_equiv_pos_as_xyz
  1  'x, y, z'
loop_
 _atom_site_type_symbol
 _atom_site_label
 _atom_site_symmetry_multiplicity
 _atom_site_fract_x
 _atom_site_fract_y
 _atom_site_fract_z
 _atom_site_occupancy
  Ca  Ca0  1  0.000000  0.000000  0.000000  1
  Ca  Ca1  1  0.500000  0.000000  0.500000  1
  Pr  Pr2  1  0.535349  0.722427  0.687079  1
  Pr  Pr3  1  0.187079  0.722427  0.035349  1
  Pr  Pr4  1  0.687079  0.722427  0.187079  1
  Pr  Pr5  1  0.035349  0.722427  0.535349  1
  Pr  Pr6  1  0.464651  0.277573  0.312921  1
  Pr  Pr7  1  0.812921  0.277573  0.964651  1
  Pr  Pr8  1  0.312921  0.277573  0.812921  1
  Pr  Pr9  1  0.964651  0.277573  0.464651  1
  Si  Si10  1  0.884853  0.000000  0.615147  1
  Si  Si11  1  0.115147  0.000000  0.384853  1
  Si  Si12  1  0.615147  0.000000  0.115147  1
  Si  Si13  1  0.384853  0.000000  0.884853  1
  Pb  Pb14  1  0.750000  0.500000  0.750000  1
  Pb  Pb15  1  0.250000  0.500000  0.250000  1
