# generated using pymatgen
data_Er4Tm4Tc3B24Os
_symmetry_space_group_name_H-M   'P 1'
_cell_length_a   3.64099000
_cell_length_b   9.09754155
_cell_length_c   11.47281700
_cell_angle_alpha   89.95105254
_cell_angle_beta   90.00000000
_cell_angle_gamma   90.00000000
_symmetry_Int_Tables_number   1
_chemical_formula_structural   Er4Tm4Tc3B24Os
_chemical_formula_sum   'Er4 Tm4 Tc3 B24 Os1'
_cell_volume   380.02611513
_cell_formula_units_Z   1
loop_
 _symmetry_equiv_pos_site_id
 _symmetry_equiv_pos_as_xyz
  1  'x, y, z'
loop_
 _atom_site_type_symbol
 _atom_site_label
 _atom_site_symmetry_multiplicity
 _atom_site_fract_x
 _atom_site_fract_y
 _atom_site_fract_z
 _atom_site_occupancy
  Er  Er0  1  0.000000  0.323466  0.413799  1
  Er  Er1  1  0.000000  0.675706  0.584199  1
  Er  Er2  1  0.000000  0.822458  0.087397  1
  Er  Er3  1  0.000000  0.178344  0.914492  1
  Tm  Tm4  1  0.000000  0.942652  0.370284  1
  Tm  Tm5  1  0.000000  0.058036  0.629746  1
  Tm  Tm6  1  0.000000  0.443062  0.129959  1
  Tm  Tm7  1  0.000000  0.556849  0.869739  1
  Tc  Tc8  1  0.000000  0.638621  0.320334  1
  Tc  Tc9  1  0.000000  0.361407  0.680170  1
  Tc  Tc10  1  0.000000  0.138176  0.178569  1
  B  B11  1  0.500000  0.553032  0.433132  1
  B  B12  1  0.500000  0.446890  0.566633  1
  B  B13  1  0.500000  0.053013  0.066659  1
  B  B14  1  0.500000  0.946345  0.933182  1
  B  B15  1  0.500000  0.749338  0.419066  1
  B  B16  1  0.500000  0.250353  0.580968  1
  B  B17  1  0.500000  0.249917  0.080972  1
  B  B18  1  0.500000  0.750604  0.918775  1
  B  B19  1  0.500000  0.792264  0.265374  1
  B  B20  1  0.500000  0.207900  0.735201  1
  B  B21  1  0.500000  0.292211  0.234871  1
  B  B22  1  0.500000  0.708528  0.765103  1
  B  B23  1  0.500000  0.630690  0.185078  1
  B  B24  1  0.500000  0.369246  0.815432  1
  B  B25  1  0.500000  0.130234  0.314688  1
  B  B26  1  0.500000  0.869297  0.685186  1
  B  B27  1  0.500000  0.981161  0.212012  1
  B  B28  1  0.500000  0.017691  0.788007  1
  B  B29  1  0.500000  0.481442  0.287810  1
  B  B30  1  0.500000  0.518402  0.711994  1
  B  B31  1  0.500000  0.601266  0.027900  1
  B  B32  1  0.500000  0.399825  0.971948  1
  B  B33  1  0.500000  0.100886  0.472031  1
  B  B34  1  0.500000  0.899083  0.528423  1
  Os  Os35  1  0.000000  0.861605  0.820867  1
