# generated using pymatgen
data_Y11In9NiAu3
_symmetry_space_group_name_H-M   'P 1'
_cell_length_a   13.30288081
_cell_length_b   13.29337630
_cell_length_c   3.65432600
_cell_angle_alpha   90.00000000
_cell_angle_beta   90.00000000
_cell_angle_gamma   110.74758112
_symmetry_Int_Tables_number   1
_chemical_formula_structural   Y11In9NiAu3
_chemical_formula_sum   'Y11 In9 Ni1 Au3'
_cell_volume   604.32372104
_cell_formula_units_Z   1
loop_
 _symmetry_equiv_pos_site_id
 _symmetry_equiv_pos_as_xyz
  1  'x, y, z'
loop_
 _atom_site_type_symbol
 _atom_site_label
 _atom_site_symmetry_multiplicity
 _atom_site_fract_x
 _atom_site_fract_y
 _atom_site_fract_z
 _atom_site_occupancy
  Y  Y0  1  0.067439  0.416380  0.000000  1
  Y  Y1  1  0.933479  0.585648  0.000000  1
  Y  Y2  1  0.414964  0.064184  0.000000  1
  Y  Y3  1  0.581006  0.921665  0.000000  1
  Y  Y4  1  0.632927  0.368044  0.000000  1
  Y  Y5  1  0.379985  0.639534  0.000000  1
  Y  Y6  1  0.839834  0.158459  0.000000  1
  Y  Y7  1  0.160705  0.840843  0.000000  1
  Y  Y8  1  0.998201  0.999619  0.000000  1
  Y  Y9  1  0.304860  0.305235  0.000000  1
  Y  Y10  1  0.684240  0.698217  0.000000  1
  In  In11  1  0.845444  0.367012  0.500000  1
  In  In12  1  0.158492  0.633801  0.500000  1
  In  In13  1  0.369183  0.841833  0.500000  1
  In  In14  1  0.632027  0.150554  0.500000  1
  In  In15  1  0.067786  0.214431  0.500000  1
  In  In16  1  0.929338  0.784396  0.500000  1
  In  In17  1  0.214403  0.068114  0.500000  1
  In  In18  1  0.781215  0.927369  0.500000  1
  In  In19  1  0.501609  0.505476  0.500000  1
  Ni  Ni20  1  0.548595  0.753353  0.500000  1
  Au  Au21  1  0.252519  0.455384  0.500000  1
  Au  Au22  1  0.749417  0.551015  0.500000  1
  Au  Au23  1  0.452331  0.249434  0.500000  1
