# generated using pymatgen
data_Y2Ho(CdHg2)3
_symmetry_space_group_name_H-M   'P 1'
_cell_length_a   5.11296500
_cell_length_b   7.11899400
_cell_length_c   15.56865401
_cell_angle_alpha   90.00000000
_cell_angle_beta   90.00429727
_cell_angle_gamma   90.00000000
_symmetry_Int_Tables_number   1
_chemical_formula_structural   Y2Ho(CdHg2)3
_chemical_formula_sum   'Y4 Ho2 Cd6 Hg12'
_cell_volume   566.68603856
_cell_formula_units_Z   2
loop_
 _symmetry_equiv_pos_site_id
 _symmetry_equiv_pos_as_xyz
  1  'x, y, z'
loop_
 _atom_site_type_symbol
 _atom_site_label
 _atom_site_symmetry_multiplicity
 _atom_site_fract_x
 _atom_site_fract_y
 _atom_site_fract_z
 _atom_site_occupancy
  Y  Y0  1  0.999860  0.000000  0.333435  1
  Y  Y1  1  0.500021  0.500000  0.500258  1
  Y  Y2  1  0.000068  0.000000  0.666372  1
  Y  Y3  1  0.500145  0.500000  0.833305  1
  Ho  Ho4  1  0.999968  0.000000  0.000209  1
  Ho  Ho5  1  0.499939  0.500000  0.166398  1
  Cd  Cd6  1  0.000011  0.500000  0.999707  1
  Cd  Cd7  1  0.499901  0.000000  0.167052  1
  Cd  Cd8  1  0.999943  0.500000  0.333486  1
  Cd  Cd9  1  0.499992  0.000000  0.499715  1
  Cd  Cd10  1  0.000065  0.500000  0.666970  1
  Cd  Cd11  1  0.500087  0.000000  0.833084  1
  Hg  Hg12  1  0.499987  0.250931  0.000783  1
  Hg  Hg13  1  0.499987  0.749068  0.000783  1
  Hg  Hg14  1  0.999917  0.248997  0.165918  1
  Hg  Hg15  1  0.999917  0.751004  0.165918  1
  Hg  Hg16  1  0.499893  0.252122  0.332697  1
  Hg  Hg17  1  0.499893  0.747879  0.332697  1
  Hg  Hg18  1  0.000015  0.248378  0.500118  1
  Hg  Hg19  1  0.000015  0.751623  0.500118  1
  Hg  Hg20  1  0.500065  0.251692  0.666483  1
  Hg  Hg21  1  0.500065  0.748309  0.666483  1
  Hg  Hg22  1  0.000124  0.247872  0.834004  1
  Hg  Hg23  1  0.000124  0.752129  0.834004  1
