# generated using pymatgen
data_TbTmAl20IrOs3
_symmetry_space_group_name_H-M   'P 1'
_cell_length_a   6.85237301
_cell_length_b   6.85101047
_cell_length_c   9.14294610
_cell_angle_alpha   90.08641668
_cell_angle_beta   90.17307983
_cell_angle_gamma   96.51782354
_symmetry_Int_Tables_number   1
_chemical_formula_structural   TbTmAl20IrOs3
_chemical_formula_sum   'Tb1 Tm1 Al20 Ir1 Os3'
_cell_volume   426.44489342
_cell_formula_units_Z   1
loop_
 _symmetry_equiv_pos_site_id
 _symmetry_equiv_pos_as_xyz
  1  'x, y, z'
loop_
 _atom_site_type_symbol
 _atom_site_label
 _atom_site_symmetry_multiplicity
 _atom_site_fract_x
 _atom_site_fract_y
 _atom_site_fract_z
 _atom_site_occupancy
  Tb  Tb0  1  0.127963  0.869676  0.250337  1
  Tm  Tm1  1  0.871020  0.131900  0.749280  1
  Al  Al2  1  0.415800  0.145276  0.749089  1
  Al  Al3  1  0.143634  0.412847  0.250093  1
  Al  Al4  1  0.586613  0.855491  0.251041  1
  Al  Al5  1  0.855735  0.584910  0.749901  1
  Al  Al6  1  0.518883  0.779289  0.747964  1
  Al  Al7  1  0.780175  0.517715  0.250007  1
  Al  Al8  1  0.481884  0.221282  0.252180  1
  Al  Al9  1  0.219491  0.481665  0.750047  1
  Al  Al10  1  0.843373  0.155876  0.399682  1
  Al  Al11  1  0.156045  0.844785  0.601014  1
  Al  Al12  1  0.843990  0.157769  0.102180  1
  Al  Al13  1  0.154946  0.842858  0.897109  1
  Al  Al14  1  0.623753  0.378940  0.948072  1
  Al  Al15  1  0.376385  0.620626  0.050962  1
  Al  Al16  1  0.623577  0.376876  0.550265  1
  Al  Al17  1  0.376748  0.622805  0.450691  1
  Al  Al18  1  0.776623  0.775152  0.001072  1
  Al  Al19  1  0.776850  0.776774  0.501483  1
  Al  Al20  1  0.222878  0.224799  0.997106  1
  Al  Al21  1  0.223221  0.223472  0.500270  1
  Ir  Ir22  1  0.500224  0.999952  0.999584  1
  Os  Os23  1  0.999782  0.499594  0.999428  1
  Os  Os24  1  0.500443  0.000138  0.500579  1
  Os  Os25  1  0.999963  0.499535  0.500563  1
