# generated using pymatgen
data_Tl3Ag(Rh2O7)2
_symmetry_space_group_name_H-M   'P 1'
_cell_length_a   7.29498856
_cell_length_b   7.12141510
_cell_length_c   7.29498800
_cell_angle_alpha   59.19039673
_cell_angle_beta   59.99999348
_cell_angle_gamma   59.19039627
_symmetry_Int_Tables_number   1
_chemical_formula_structural   Tl3Ag(Rh2O7)2
_chemical_formula_sum   'Tl3 Ag1 Rh4 O14'
_cell_volume   264.65256968
_cell_formula_units_Z   1
loop_
 _symmetry_equiv_pos_site_id
 _symmetry_equiv_pos_as_xyz
  1  'x, y, z'
loop_
 _atom_site_type_symbol
 _atom_site_label
 _atom_site_symmetry_multiplicity
 _atom_site_fract_x
 _atom_site_fract_y
 _atom_site_fract_z
 _atom_site_occupancy
  Tl  Tl0  1  0.625000  0.625000  0.125000  1
  Tl  Tl1  1  0.625000  0.625000  0.625000  1
  Tl  Tl2  1  0.125000  0.625000  0.625000  1
  Ag  Ag3  1  0.625000  0.125000  0.625000  1
  Rh  Rh4  1  0.125000  0.125000  0.125000  1
  Rh  Rh5  1  0.625000  0.125000  0.125000  1
  Rh  Rh6  1  0.125000  0.625000  0.125000  1
  Rh  Rh7  1  0.125000  0.125000  0.625000  1
  O  O8  1  0.043654  0.458827  0.453864  1
  O  O9  1  0.796136  0.791173  0.206346  1
  O  O10  1  0.799402  0.204513  0.196683  1
  O  O11  1  0.450598  0.045487  0.450598  1
  O  O12  1  0.743910  0.768270  0.743910  1
  O  O13  1  0.053317  0.045487  0.450598  1
  O  O14  1  0.043654  0.458827  0.043654  1
  O  O15  1  0.799402  0.204513  0.799402  1
  O  O16  1  0.206346  0.791173  0.206346  1
  O  O17  1  0.196683  0.204513  0.799402  1
  O  O18  1  0.506090  0.481730  0.506090  1
  O  O19  1  0.450598  0.045487  0.053317  1
  O  O20  1  0.453864  0.458827  0.043654  1
  O  O21  1  0.206346  0.791173  0.796136  1
