# generated using pymatgen
data_CeNd2PBr3
_symmetry_space_group_name_H-M   'P 1'
_cell_length_a   10.37341991
_cell_length_b   10.37341968
_cell_length_c   10.37341900
_cell_angle_alpha   109.25465451
_cell_angle_beta   109.25465407
_cell_angle_gamma   109.90522755
_symmetry_Int_Tables_number   1
_chemical_formula_structural   CeNd2PBr3
_chemical_formula_sum   'Ce4 Nd8 P4 Br12'
_cell_volume   859.26124998
_cell_formula_units_Z   4
loop_
 _symmetry_equiv_pos_site_id
 _symmetry_equiv_pos_as_xyz
  1  'x, y, z'
loop_
 _atom_site_type_symbol
 _atom_site_label
 _atom_site_symmetry_multiplicity
 _atom_site_fract_x
 _atom_site_fract_y
 _atom_site_fract_z
 _atom_site_occupancy
  Ce  Ce0  1  0.488112  0.236464  0.472712  1
  Ce  Ce1  1  0.011197  0.491831  0.751348  1
  Ce  Ce2  1  0.259517  0.008169  0.019366  1
  Ce  Ce3  1  0.236248  0.263536  0.751648  1
  Nd  Nd4  1  0.468863  0.486308  0.233230  1
  Nd  Nd5  1  0.753855  0.235460  0.267100  1
  Nd  Nd6  1  0.746923  0.013692  0.482556  1
  Nd  Nd7  1  0.235347  0.469558  0.482908  1
  Nd  Nd8  1  0.264193  0.746143  0.232171  1
  Nd  Nd9  1  0.031640  0.264540  0.018395  1
  Nd  Nd10  1  0.013348  0.030442  0.265788  1
  Nd  Nd11  1  0.486029  0.753857  0.018051  1
  P  P12  1  0.251804  0.247236  0.248871  1
  P  P13  1  0.497013  0.001302  0.248041  1
  P  P14  1  0.001634  0.252764  0.504568  1
  P  P15  1  0.246738  0.498698  0.995711  1
  Br  Br16  1  0.256608  0.756090  0.747121  1
  Br  Br17  1  0.510745  0.510597  0.754620  1
  Br  Br18  1  0.991031  0.743910  0.000517  1
  Br  Br19  1  0.744861  0.244054  0.754284  1
  Br  Br20  1  0.990933  0.990024  0.747170  1
  Br  Br21  1  0.244023  0.989403  0.500149  1
  Br  Br22  1  0.757147  0.509976  0.500910  1
  Br  Br23  1  0.510230  0.255946  0.000807  1
  Br  Br24  1  0.754586  0.745896  0.250434  1
  Br  Br25  1  0.746460  0.996005  0.992381  1
  Br  Br26  1  0.996376  0.503995  0.250455  1
  Br  Br27  1  0.504539  0.754104  0.508690  1
