# generated using pymatgen
data_YPaNi10
_symmetry_space_group_name_H-M   'P 1'
_cell_length_a   3.97701000
_cell_length_b   4.84466300
_cell_length_c   8.33165600
_cell_angle_alpha   90.00000000
_cell_angle_beta   90.00000000
_cell_angle_gamma   90.00000000
_symmetry_Int_Tables_number   1
_chemical_formula_structural   YPaNi10
_chemical_formula_sum   'Y1 Pa1 Ni10'
_cell_volume   160.52829234
_cell_formula_units_Z   1
loop_
 _symmetry_equiv_pos_site_id
 _symmetry_equiv_pos_as_xyz
  1  'x, y, z'
loop_
 _atom_site_type_symbol
 _atom_site_label
 _atom_site_symmetry_multiplicity
 _atom_site_fract_x
 _atom_site_fract_y
 _atom_site_fract_z
 _atom_site_occupancy
  Y  Y0  1  0.000000  0.000000  0.500000  1
  Pa  Pa1  1  0.000000  0.500000  0.000000  1
  Ni  Ni2  1  0.000000  0.500000  0.324533  1
  Ni  Ni3  1  0.000000  0.000000  0.838211  1
  Ni  Ni4  1  0.000000  0.000000  0.161789  1
  Ni  Ni5  1  0.000000  0.500000  0.675467  1
  Ni  Ni6  1  0.500000  0.500000  0.500000  1
  Ni  Ni7  1  0.500000  0.000000  0.000000  1
  Ni  Ni8  1  0.500000  0.747853  0.247300  1
  Ni  Ni9  1  0.500000  0.252147  0.752700  1
  Ni  Ni10  1  0.500000  0.252147  0.247300  1
  Ni  Ni11  1  0.500000  0.747853  0.752700  1
