# generated using pymatgen
data_Dy3Ho5Ti12Si15Sn
_symmetry_space_group_name_H-M   'P 1'
_cell_length_a   7.10367468
_cell_length_b   7.06962916
_cell_length_c   13.00587308
_cell_angle_alpha   89.99454152
_cell_angle_beta   89.72342156
_cell_angle_gamma   89.93892691
_symmetry_Int_Tables_number   1
_chemical_formula_structural   Dy3Ho5Ti12Si15Sn
_chemical_formula_sum   'Dy3 Ho5 Ti12 Si15 Sn1'
_cell_volume   653.15145757
_cell_formula_units_Z   1
loop_
 _symmetry_equiv_pos_site_id
 _symmetry_equiv_pos_as_xyz
  1  'x, y, z'
loop_
 _atom_site_type_symbol
 _atom_site_label
 _atom_site_symmetry_multiplicity
 _atom_site_fract_x
 _atom_site_fract_y
 _atom_site_fract_z
 _atom_site_occupancy
  Dy  Dy0  1  0.343269  0.999767  0.461676  1
  Dy  Dy1  1  0.505055  0.835128  0.718185  1
  Dy  Dy2  1  0.502660  0.159835  0.216561  1
  Ho  Ho3  1  0.841054  0.497427  0.282415  1
  Ho  Ho4  1  0.158982  0.509913  0.786067  1
  Ho  Ho5  1  0.661069  0.996441  0.968640  1
  Ho  Ho6  1  0.993068  0.348517  0.527650  1
  Ho  Ho7  1  0.998680  0.658873  0.034173  1
  Ti  Ti8  1  0.326045  0.326762  0.001061  1
  Ti  Ti9  1  0.173764  0.825974  0.249655  1
  Ti  Ti10  1  0.816770  0.175229  0.751915  1
  Ti  Ti11  1  0.673055  0.672907  0.499484  1
  Ti  Ti12  1  0.152102  0.007473  0.883193  1
  Ti  Ti13  1  0.492285  0.650617  0.126679  1
  Ti  Ti14  1  0.515454  0.353790  0.626451  1
  Ti  Ti15  1  0.653946  0.493251  0.875550  1
  Ti  Ti16  1  0.347753  0.509029  0.372839  1
  Ti  Ti17  1  0.847258  0.992136  0.375761  1
  Ti  Ti18  1  0.009221  0.151550  0.123394  1
  Ti  Ti19  1  0.980065  0.835393  0.618993  1
  Si  Si20  1  0.370640  0.702709  0.935846  1
  Si  Si21  1  0.628873  0.297420  0.432910  1
  Si  Si22  1  0.703581  0.369614  0.066269  1
  Si  Si23  1  0.296718  0.630323  0.565688  1
  Si  Si24  1  0.797710  0.869431  0.184146  1
  Si  Si25  1  0.129498  0.202957  0.314994  1
  Si  Si26  1  0.870545  0.799710  0.816321  1
  Si  Si27  1  0.292103  0.951744  0.066678  1
  Si  Si28  1  0.549803  0.789019  0.313612  1
  Si  Si29  1  0.459024  0.210814  0.820078  1
  Si  Si30  1  0.793970  0.544724  0.686705  1
  Si  Si31  1  0.209073  0.452796  0.185105  1
  Si  Si32  1  0.707519  0.048754  0.564550  1
  Si  Si33  1  0.952435  0.291541  0.935210  1
  Si  Si34  1  0.047979  0.710623  0.432872  1
  Sn  Sn35  1  0.198971  0.127805  0.678673  1
