# generated using pymatgen
data_Dy3MgIn2PtAu2
_symmetry_space_group_name_H-M   'P 1'
_cell_length_a   7.66505654
_cell_length_b   7.66554490
_cell_length_c   4.03143700
_cell_angle_alpha   90.00000000
_cell_angle_beta   90.00000000
_cell_angle_gamma   120.26438869
_symmetry_Int_Tables_number   1
_chemical_formula_structural   Dy3MgIn2PtAu2
_chemical_formula_sum   'Dy3 Mg1 In2 Pt1 Au2'
_cell_volume   204.59061107
_cell_formula_units_Z   1
loop_
 _symmetry_equiv_pos_site_id
 _symmetry_equiv_pos_as_xyz
  1  'x, y, z'
loop_
 _atom_site_type_symbol
 _atom_site_label
 _atom_site_symmetry_multiplicity
 _atom_site_fract_x
 _atom_site_fract_y
 _atom_site_fract_z
 _atom_site_occupancy
  Dy  Dy0  1  0.585148  0.988082  0.500000  1
  Dy  Dy1  1  0.398393  0.411642  0.500000  1
  Dy  Dy2  1  0.016340  0.598370  0.500000  1
  Mg  Mg3  1  0.745515  0.746067  0.000000  1
  In  In4  1  0.998820  0.257260  0.000000  1
  In  In5  1  0.258820  0.000387  0.000000  1
  Pt  Pt6  1  0.341579  0.668589  0.000000  1
  Au  Au7  1  0.669036  0.343811  0.000000  1
  Au  Au8  1  0.986349  0.985792  0.500000  1
