# generated using pymatgen
data_ZnBi3(Ir2O7)2
_symmetry_space_group_name_H-M   'P 1'
_cell_length_a   7.37357948
_cell_length_b   7.21138205
_cell_length_c   7.37357900
_cell_angle_alpha   59.25314124
_cell_angle_beta   59.99999768
_cell_angle_gamma   59.25314204
_symmetry_Int_Tables_number   1
_chemical_formula_structural   ZnBi3(Ir2O7)2
_chemical_formula_sum   'Zn1 Bi3 Ir4 O14'
_cell_volume   274.07169325
_cell_formula_units_Z   1
loop_
 _symmetry_equiv_pos_site_id
 _symmetry_equiv_pos_as_xyz
  1  'x, y, z'
loop_
 _atom_site_type_symbol
 _atom_site_label
 _atom_site_symmetry_multiplicity
 _atom_site_fract_x
 _atom_site_fract_y
 _atom_site_fract_z
 _atom_site_occupancy
  Zn  Zn0  1  0.125000  0.625000  0.125000  1
  Bi  Bi1  1  0.625000  0.125000  0.125000  1
  Bi  Bi2  1  0.125000  0.125000  0.625000  1
  Bi  Bi3  1  0.125000  0.125000  0.125000  1
  Ir  Ir4  1  0.125000  0.625000  0.625000  1
  Ir  Ir5  1  0.625000  0.125000  0.625000  1
  Ir  Ir6  1  0.625000  0.625000  0.125000  1
  Ir  Ir7  1  0.625000  0.625000  0.625000  1
  O  O8  1  0.700292  0.704739  0.297484  1
  O  O9  1  0.292916  0.288506  0.709289  1
  O  O10  1  0.709289  0.288506  0.709289  1
  O  O11  1  0.297484  0.704739  0.297484  1
  O  O12  1  0.297484  0.704739  0.700292  1
  O  O13  1  0.709289  0.288506  0.292916  1
  O  O14  1  0.549708  0.545261  0.952516  1
  O  O15  1  0.957084  0.961494  0.540711  1
  O  O16  1  0.540711  0.961494  0.540711  1
  O  O17  1  0.952516  0.545261  0.952516  1
  O  O18  1  0.952516  0.545261  0.549708  1
  O  O19  1  0.540711  0.961494  0.957084  1
  O  O20  1  0.236346  0.290962  0.236346  1
  O  O21  1  0.013654  0.959038  0.013654  1
