# generated using pymatgen
data_ErLu4Bi2Te
_symmetry_space_group_name_H-M   'P 1'
_cell_length_a   8.06045200
_cell_length_b   9.31943000
_cell_length_c   11.72638000
_cell_angle_alpha   90.00000000
_cell_angle_beta   90.00000000
_cell_angle_gamma   90.00000000
_symmetry_Int_Tables_number   1
_chemical_formula_structural   ErLu4Bi2Te
_chemical_formula_sum   'Er4 Lu16 Bi8 Te4'
_cell_volume   880.87180716
_cell_formula_units_Z   4
loop_
 _symmetry_equiv_pos_site_id
 _symmetry_equiv_pos_as_xyz
  1  'x, y, z'
loop_
 _atom_site_type_symbol
 _atom_site_label
 _atom_site_symmetry_multiplicity
 _atom_site_fract_x
 _atom_site_fract_y
 _atom_site_fract_z
 _atom_site_occupancy
  Er  Er0  1  0.322546  0.250000  0.215639  1
  Er  Er1  1  0.822546  0.250000  0.284361  1
  Er  Er2  1  0.677454  0.750000  0.784361  1
  Er  Er3  1  0.177454  0.750000  0.715639  1
  Lu  Lu4  1  0.354870  0.750000  0.216793  1
  Lu  Lu5  1  0.854870  0.750000  0.283207  1
  Lu  Lu6  1  0.645130  0.250000  0.783207  1
  Lu  Lu7  1  0.145130  0.250000  0.716793  1
  Lu  Lu8  1  0.687056  0.566410  0.058325  1
  Lu  Lu9  1  0.187056  0.933590  0.441675  1
  Lu  Lu10  1  0.312944  0.066410  0.941675  1
  Lu  Lu11  1  0.812944  0.433590  0.558325  1
  Lu  Lu12  1  0.312944  0.433590  0.941675  1
  Lu  Lu13  1  0.812944  0.066410  0.558325  1
  Lu  Lu14  1  0.687056  0.933590  0.058325  1
  Lu  Lu15  1  0.187056  0.566410  0.441675  1
  Lu  Lu16  1  0.480946  0.250000  0.490144  1
  Lu  Lu17  1  0.980946  0.250000  0.009856  1
  Lu  Lu18  1  0.519054  0.750000  0.509856  1
  Lu  Lu19  1  0.019054  0.750000  0.990144  1
  Bi  Bi20  1  0.570526  0.995653  0.326150  1
  Bi  Bi21  1  0.070526  0.504347  0.173850  1
  Bi  Bi22  1  0.429474  0.495653  0.673850  1
  Bi  Bi23  1  0.929474  0.004347  0.826150  1
  Bi  Bi24  1  0.429474  0.004347  0.673850  1
  Bi  Bi25  1  0.929474  0.495653  0.826150  1
  Bi  Bi26  1  0.570526  0.504347  0.326150  1
  Bi  Bi27  1  0.070526  0.995653  0.173850  1
  Te  Te28  1  0.397646  0.750000  0.958526  1
  Te  Te29  1  0.897646  0.750000  0.541474  1
  Te  Te30  1  0.602354  0.250000  0.041474  1
  Te  Te31  1  0.102354  0.250000  0.458526  1
