# generated using pymatgen
data_Tb7Er3In4(HgPd)4
_symmetry_space_group_name_H-M   'P 1'
_cell_length_a   3.63445100
_cell_length_b   8.04412902
_cell_length_c   18.32204105
_cell_angle_alpha   89.99181085
_cell_angle_beta   89.99883194
_cell_angle_gamma   90.00026141
_symmetry_Int_Tables_number   1
_chemical_formula_structural   Tb7Er3In4(HgPd)4
_chemical_formula_sum   'Tb7 Er3 In4 Hg4 Pd4'
_cell_volume   535.66305392
_cell_formula_units_Z   1
loop_
 _symmetry_equiv_pos_site_id
 _symmetry_equiv_pos_as_xyz
  1  'x, y, z'
loop_
 _atom_site_type_symbol
 _atom_site_label
 _atom_site_symmetry_multiplicity
 _atom_site_fract_x
 _atom_site_fract_y
 _atom_site_fract_z
 _atom_site_occupancy
  Tb  Tb0  1  0.000003  0.500043  0.500004  1
  Tb  Tb1  1  0.999997  0.000204  0.999807  1
  Tb  Tb2  1  0.000001  0.742855  0.284796  1
  Tb  Tb3  1  0.999991  0.257551  0.715329  1
  Tb  Tb4  1  0.999992  0.757628  0.784116  1
  Tb  Tb5  1  0.000005  0.242118  0.215950  1
  Tb  Tb6  1  0.999992  0.609298  0.083121  1
  Er  Er7  1  0.000006  0.391349  0.915783  1
  Er  Er8  1  0.000017  0.891340  0.583837  1
  Er  Er9  1  0.999994  0.108722  0.416441  1
  In  In10  1  0.499943  0.582640  0.649230  1
  In  In11  1  0.500120  0.416916  0.350899  1
  In  In12  1  0.499934  0.919012  0.149742  1
  In  In13  1  0.500038  0.082875  0.850568  1
  Hg  Hg14  1  0.499996  0.711193  0.933299  1
  Hg  Hg15  1  0.499994  0.287125  0.066184  1
  Hg  Hg16  1  0.499996  0.789826  0.434635  1
  Hg  Hg17  1  0.499998  0.210263  0.565408  1
  Pd  Pd18  1  0.499995  0.528902  0.197993  1
  Pd  Pd19  1  0.499993  0.470136  0.802698  1
  Pd  Pd20  1  0.499995  0.970267  0.696813  1
  Pd  Pd21  1  0.500002  0.029736  0.303345  1
