# generated using pymatgen
data_Rb4Li2AlCoH12
_symmetry_space_group_name_H-M   'P 1'
_cell_length_a   9.74950721
_cell_length_b   9.74950737
_cell_length_c   9.74950630
_cell_angle_alpha   34.63880387
_cell_angle_beta   34.63880321
_cell_angle_gamma   34.63880428
_symmetry_Int_Tables_number   1
_chemical_formula_structural   Rb4Li2AlCoH12
_chemical_formula_sum   'Rb4 Li2 Al1 Co1 H12'
_cell_volume   267.16798653
_cell_formula_units_Z   1
loop_
 _symmetry_equiv_pos_site_id
 _symmetry_equiv_pos_as_xyz
  1  'x, y, z'
loop_
 _atom_site_type_symbol
 _atom_site_label
 _atom_site_symmetry_multiplicity
 _atom_site_fract_x
 _atom_site_fract_y
 _atom_site_fract_z
 _atom_site_occupancy
  Rb  Rb0  1  0.128927  0.128927  0.128927  1
  Rb  Rb1  1  0.871073  0.871073  0.871073  1
  Rb  Rb2  1  0.284520  0.284520  0.284520  1
  Rb  Rb3  1  0.715480  0.715480  0.715480  1
  Li  Li4  1  0.411054  0.411054  0.411054  1
  Li  Li5  1  0.588946  0.588946  0.588946  1
  Al  Al6  1  0.000000  0.000000  0.000000  1
  Co  Co7  1  0.500000  0.500000  0.500000  1
  H  H8  1  0.184859  0.184859  0.741416  1
  H  H9  1  0.741416  0.184859  0.184859  1
  H  H10  1  0.184859  0.741416  0.184859  1
  H  H11  1  0.815141  0.258584  0.815141  1
  H  H12  1  0.815141  0.815141  0.258584  1
  H  H13  1  0.258584  0.815141  0.815141  1
  H  H14  1  0.408014  0.408014  0.785025  1
  H  H15  1  0.785025  0.408014  0.408014  1
  H  H16  1  0.214975  0.591986  0.591986  1
  H  H17  1  0.591986  0.591986  0.214975  1
  H  H18  1  0.591986  0.214975  0.591986  1
  H  H19  1  0.408014  0.785025  0.408014  1
