# generated using pymatgen
data_HoEr2Si2GeRu2
_symmetry_space_group_name_H-M   'P 1'
_cell_length_a   5.71884430
_cell_length_b   5.71884319
_cell_length_c   13.82823800
_cell_angle_alpha   90.00000000
_cell_angle_beta   90.00000000
_cell_angle_gamma   137.30144644
_symmetry_Int_Tables_number   1
_chemical_formula_structural   HoEr2Si2GeRu2
_chemical_formula_sum   'Ho2 Er4 Si4 Ge2 Ru4'
_cell_volume   306.69266126
_cell_formula_units_Z   2
loop_
 _symmetry_equiv_pos_site_id
 _symmetry_equiv_pos_as_xyz
  1  'x, y, z'
loop_
 _atom_site_type_symbol
 _atom_site_label
 _atom_site_symmetry_multiplicity
 _atom_site_fract_x
 _atom_site_fract_y
 _atom_site_fract_z
 _atom_site_occupancy
  Ho  Ho0  1  0.644808  0.355192  0.250000  1
  Ho  Ho1  1  0.355192  0.644808  0.750000  1
  Er  Er2  1  0.924578  0.075422  0.387467  1
  Er  Er3  1  0.075422  0.924578  0.612533  1
  Er  Er4  1  0.924578  0.075422  0.112533  1
  Er  Er5  1  0.075422  0.924578  0.887467  1
  Si  Si6  1  0.616537  0.383463  0.461286  1
  Si  Si7  1  0.383463  0.616537  0.538714  1
  Si  Si8  1  0.616537  0.383463  0.038714  1
  Si  Si9  1  0.383463  0.616537  0.961286  1
  Ge  Ge10  1  0.338321  0.661679  0.250000  1
  Ge  Ge11  1  0.661679  0.338321  0.750000  1
  Ru  Ru12  1  0.788290  0.211710  0.920551  1
  Ru  Ru13  1  0.211710  0.788290  0.079449  1
  Ru  Ru14  1  0.788290  0.211710  0.579449  1
  Ru  Ru15  1  0.211710  0.788290  0.420551  1
