# generated using pymatgen
data_HoTh(Pd2Pt)2
_symmetry_space_group_name_H-M   'P 1'
_cell_length_a   5.87468200
_cell_length_b   5.89813316
_cell_length_c   9.64543200
_cell_angle_alpha   90.00000000
_cell_angle_beta   90.00000000
_cell_angle_gamma   119.86856087
_symmetry_Int_Tables_number   1
_chemical_formula_structural   HoTh(Pd2Pt)2
_chemical_formula_sum   'Ho2 Th2 Pd8 Pt4'
_cell_volume   289.81772191
_cell_formula_units_Z   2
loop_
 _symmetry_equiv_pos_site_id
 _symmetry_equiv_pos_as_xyz
  1  'x, y, z'
loop_
 _atom_site_type_symbol
 _atom_site_label
 _atom_site_symmetry_multiplicity
 _atom_site_fract_x
 _atom_site_fract_y
 _atom_site_fract_z
 _atom_site_occupancy
  Ho  Ho0  1  0.332758  0.665518  0.250000  1
  Ho  Ho1  1  0.667242  0.334482  0.750000  1
  Th  Th2  1  0.000000  0.000000  0.500000  1
  Th  Th3  1  0.000000  0.000000  0.000000  1
  Pd  Pd4  1  0.500000  0.000000  0.500000  1
  Pd  Pd5  1  0.500000  0.000000  0.000000  1
  Pd  Pd6  1  0.825778  0.651556  0.250000  1
  Pd  Pd7  1  0.347224  0.173540  0.250000  1
  Pd  Pd8  1  0.826316  0.173540  0.250000  1
  Pd  Pd9  1  0.174222  0.348444  0.750000  1
  Pd  Pd10  1  0.652776  0.826460  0.750000  1
  Pd  Pd11  1  0.173684  0.826460  0.750000  1
  Pt  Pt12  1  0.500000  0.500000  0.500000  1
  Pt  Pt13  1  0.000000  0.500000  0.500000  1
  Pt  Pt14  1  0.500000  0.500000  0.000000  1
  Pt  Pt15  1  0.000000  0.500000  0.000000  1
