# generated using pymatgen
data_BaNi9Ge2P3
_symmetry_space_group_name_H-M   'P 1'
_cell_length_a   6.69009900
_cell_length_b   6.69009952
_cell_length_c   10.83115000
_cell_angle_alpha   90.00000000
_cell_angle_beta   90.00000000
_cell_angle_gamma   120.00000237
_symmetry_Int_Tables_number   1
_chemical_formula_structural   BaNi9Ge2P3
_chemical_formula_sum   'Ba2 Ni18 Ge4 P6'
_cell_volume   419.82695061
_cell_formula_units_Z   2
loop_
 _symmetry_equiv_pos_site_id
 _symmetry_equiv_pos_as_xyz
  1  'x, y, z'
loop_
 _atom_site_type_symbol
 _atom_site_label
 _atom_site_symmetry_multiplicity
 _atom_site_fract_x
 _atom_site_fract_y
 _atom_site_fract_z
 _atom_site_occupancy
  Ba  Ba0  1  0.000000  0.000000  0.500000  1
  Ba  Ba1  1  0.000000  0.000000  0.000000  1
  Ni  Ni2  1  0.460720  0.921439  0.884588  1
  Ni  Ni3  1  0.921439  0.460720  0.115412  1
  Ni  Ni4  1  0.539280  0.078561  0.115412  1
  Ni  Ni5  1  0.078561  0.539280  0.615412  1
  Ni  Ni6  1  0.199900  0.399799  0.250000  1
  Ni  Ni7  1  0.800100  0.199900  0.750000  1
  Ni  Ni8  1  0.399799  0.199900  0.750000  1
  Ni  Ni9  1  0.600201  0.800100  0.250000  1
  Ni  Ni10  1  0.199900  0.800100  0.250000  1
  Ni  Ni11  1  0.800100  0.600201  0.750000  1
  Ni  Ni12  1  0.460720  0.921439  0.615412  1
  Ni  Ni13  1  0.539280  0.460720  0.384588  1
  Ni  Ni14  1  0.921439  0.460720  0.384588  1
  Ni  Ni15  1  0.078561  0.539280  0.884588  1
  Ni  Ni16  1  0.460720  0.539280  0.884588  1
  Ni  Ni17  1  0.539280  0.078561  0.384588  1
  Ni  Ni18  1  0.539280  0.460720  0.115412  1
  Ni  Ni19  1  0.460720  0.539280  0.615412  1
  Ge  Ge20  1  0.333333  0.666667  0.436374  1
  Ge  Ge21  1  0.666667  0.333333  0.936374  1
  Ge  Ge22  1  0.666667  0.333333  0.563626  1
  Ge  Ge23  1  0.333333  0.666667  0.063626  1
  P  P24  1  0.172747  0.345494  0.750000  1
  P  P25  1  0.827253  0.172747  0.250000  1
  P  P26  1  0.172747  0.827253  0.750000  1
  P  P27  1  0.827253  0.654506  0.250000  1
  P  P28  1  0.345494  0.172747  0.250000  1
  P  P29  1  0.654506  0.827253  0.750000  1
