# generated using pymatgen
data_Tb8Lu4InCo2Ni2Au
_symmetry_space_group_name_H-M   'P 1'
_cell_length_a   8.30913997
_cell_length_b   8.30913935
_cell_length_c   8.30914100
_cell_angle_alpha   111.30757820
_cell_angle_beta   110.26026012
_cell_angle_gamma   106.87834953
_symmetry_Int_Tables_number   1
_chemical_formula_structural   Tb8Lu4InCo2Ni2Au
_chemical_formula_sum   'Tb8 Lu4 In1 Co2 Ni2 Au1'
_cell_volume   440.90442137
_cell_formula_units_Z   1
loop_
 _symmetry_equiv_pos_site_id
 _symmetry_equiv_pos_as_xyz
  1  'x, y, z'
loop_
 _atom_site_type_symbol
 _atom_site_label
 _atom_site_symmetry_multiplicity
 _atom_site_fract_x
 _atom_site_fract_y
 _atom_site_fract_z
 _atom_site_occupancy
  Tb  Tb0  1  0.426390  0.225018  0.201372  1
  Tb  Tb1  1  0.573610  0.774982  0.798628  1
  Tb  Tb2  1  0.023645  0.225018  0.798628  1
  Tb  Tb3  1  0.976355  0.774982  0.201372  1
  Tb  Tb4  1  0.184254  0.289952  0.474207  1
  Tb  Tb5  1  0.815746  0.710048  0.525793  1
  Tb  Tb6  1  0.184254  0.710048  0.894303  1
  Tb  Tb7  1  0.815746  0.289952  0.105697  1
  Lu  Lu8  1  0.318215  0.626113  0.307898  1
  Lu  Lu9  1  0.681785  0.373887  0.692102  1
  Lu  Lu10  1  0.318215  0.010316  0.692102  1
  Lu  Lu11  1  0.681785  0.989684  0.307898  1
  In  In12  1  0.500000  0.500000  0.000000  1
  Co  Co13  1  0.115935  0.615935  0.500000  1
  Co  Co14  1  0.884065  0.384065  0.500000  1
  Ni  Ni15  1  0.370682  0.000000  0.370682  1
  Ni  Ni16  1  0.629318  0.000000  0.629318  1
  Au  Au17  1  0.000000  0.000000  0.000000  1
