# generated using pymatgen
data_YEr5MoO12
_symmetry_space_group_name_H-M   'P 1'
_cell_length_a   6.43618830
_cell_length_b   6.43338916
_cell_length_c   6.43733585
_cell_angle_alpha   98.65333934
_cell_angle_beta   98.56035689
_cell_angle_gamma   98.66669292
_symmetry_Int_Tables_number   1
_chemical_formula_structural   YEr5MoO12
_chemical_formula_sum   'Y1 Er5 Mo1 O12'
_cell_volume   256.46124829
_cell_formula_units_Z   1
loop_
 _symmetry_equiv_pos_site_id
 _symmetry_equiv_pos_as_xyz
  1  'x, y, z'
loop_
 _atom_site_type_symbol
 _atom_site_label
 _atom_site_symmetry_multiplicity
 _atom_site_fract_x
 _atom_site_fract_y
 _atom_site_fract_z
 _atom_site_occupancy
  Y  Y0  1  0.388179  0.684934  0.856548  1
  Er  Er1  1  0.612256  0.316843  0.144738  1
  Er  Er2  1  0.143796  0.611589  0.316781  1
  Er  Er3  1  0.683716  0.855994  0.388452  1
  Er  Er4  1  0.317165  0.144605  0.611270  1
  Er  Er5  1  0.855411  0.387514  0.682337  1
  Mo  Mo6  1  0.000367  0.000802  0.000542  1
  O  O7  1  0.702271  0.925403  0.036714  1
  O  O8  1  0.965665  0.299198  0.076630  1
  O  O9  1  0.432272  0.589651  0.179582  1
  O  O10  1  0.076757  0.965315  0.298521  1
  O  O11  1  0.822838  0.568637  0.409369  1
  O  O12  1  0.591155  0.177374  0.431368  1
  O  O13  1  0.408589  0.823739  0.565709  1
  O  O14  1  0.176033  0.429809  0.588315  1
  O  O15  1  0.923407  0.034529  0.701387  1
  O  O16  1  0.569210  0.406014  0.822829  1
  O  O17  1  0.032109  0.701064  0.923646  1
  O  O18  1  0.298803  0.076984  0.965263  1
