# generated using pymatgen
data_Tb3Dy3Co16(TcP6)2
_symmetry_space_group_name_H-M   'P 1'
_cell_length_a   3.71172100
_cell_length_b   10.53563583
_cell_length_c   12.23567482
_cell_angle_alpha   89.93502361
_cell_angle_beta   90.00000000
_cell_angle_gamma   90.00000000
_symmetry_Int_Tables_number   1
_chemical_formula_structural   Tb3Dy3Co16(TcP6)2
_chemical_formula_sum   'Tb3 Dy3 Co16 Tc2 P12'
_cell_volume   478.47992536
_cell_formula_units_Z   1
loop_
 _symmetry_equiv_pos_site_id
 _symmetry_equiv_pos_as_xyz
  1  'x, y, z'
loop_
 _atom_site_type_symbol
 _atom_site_label
 _atom_site_symmetry_multiplicity
 _atom_site_fract_x
 _atom_site_fract_y
 _atom_site_fract_z
 _atom_site_occupancy
  Tb  Tb0  1  0.000000  0.500085  0.523352  1
  Tb  Tb1  1  0.500000  0.999954  0.476304  1
  Tb  Tb2  1  0.000000  0.317835  0.793725  1
  Dy  Dy3  1  0.500000  0.816991  0.206088  1
  Dy  Dy4  1  0.500000  0.182209  0.206216  1
  Dy  Dy5  1  0.000000  0.683028  0.794122  1
  Co  Co6  1  0.500000  0.500277  0.703020  1
  Co  Co7  1  0.000000  0.999986  0.296883  1
  Co  Co8  1  0.000000  0.500218  0.987349  1
  Co  Co9  1  0.500000  0.999810  0.013045  1
  Co  Co10  1  0.500000  0.332364  0.990762  1
  Co  Co11  1  0.500000  0.667962  0.990168  1
  Co  Co12  1  0.000000  0.167517  0.009783  1
  Co  Co13  1  0.000000  0.832147  0.010136  1
  Co  Co14  1  0.500000  0.296577  0.430345  1
  Co  Co15  1  0.500000  0.703560  0.430653  1
  Co  Co16  1  0.000000  0.203523  0.568980  1
  Co  Co17  1  0.000000  0.796375  0.569288  1
  Co  Co18  1  0.500000  0.879329  0.708451  1
  Co  Co19  1  0.500000  0.120801  0.708497  1
  Co  Co20  1  0.000000  0.620557  0.291617  1
  Co  Co21  1  0.000000  0.378891  0.291105  1
  Tc  Tc22  1  0.500000  0.500128  0.156029  1
  Tc  Tc23  1  0.000000  0.999848  0.843992  1
  P  P24  1  0.500000  0.500431  0.881399  1
  P  P25  1  0.000000  0.999799  0.119020  1
  P  P26  1  0.500000  0.499765  0.347851  1
  P  P27  1  0.000000  0.000252  0.652110  1
  P  P28  1  0.500000  0.311219  0.615467  1
  P  P29  1  0.500000  0.688862  0.616204  1
  P  P30  1  0.000000  0.188718  0.383797  1
  P  P31  1  0.000000  0.811201  0.383795  1
  P  P32  1  0.500000  0.846268  0.893186  1
  P  P33  1  0.500000  0.153969  0.893523  1
  P  P34  1  0.000000  0.653847  0.107023  1
  P  P35  1  0.000000  0.345698  0.106714  1
