# generated using pymatgen
data_ZnGa(SiPt)4
_symmetry_space_group_name_H-M   'P 1'
_cell_length_a   3.93771600
_cell_length_b   3.93771679
_cell_length_c   12.39488900
_cell_angle_alpha   90.00000000
_cell_angle_beta   90.00000000
_cell_angle_gamma   119.99999337
_symmetry_Int_Tables_number   1
_chemical_formula_structural   ZnGa(SiPt)4
_chemical_formula_sum   'Zn1 Ga1 Si4 Pt4'
_cell_volume   166.44171045
_cell_formula_units_Z   1
loop_
 _symmetry_equiv_pos_site_id
 _symmetry_equiv_pos_as_xyz
  1  'x, y, z'
loop_
 _atom_site_type_symbol
 _atom_site_label
 _atom_site_symmetry_multiplicity
 _atom_site_fract_x
 _atom_site_fract_y
 _atom_site_fract_z
 _atom_site_occupancy
  Zn  Zn0  1  0.000000  0.000000  0.250000  1
  Ga  Ga1  1  0.000000  0.000000  0.750000  1
  Si  Si2  1  0.333333  0.666667  0.564151  1
  Si  Si3  1  0.666667  0.333333  0.065711  1
  Si  Si4  1  0.666667  0.333333  0.434289  1
  Si  Si5  1  0.333333  0.666667  0.935849  1
  Pt  Pt6  1  0.333333  0.666667  0.367299  1
  Pt  Pt7  1  0.666667  0.333333  0.865589  1
  Pt  Pt8  1  0.666667  0.333333  0.634411  1
  Pt  Pt9  1  0.333333  0.666667  0.132701  1
