# generated using pymatgen
data_Dy2Er(CdHg2)3
_symmetry_space_group_name_H-M   'P 1'
_cell_length_a   5.11986100
_cell_length_b   7.08793700
_cell_length_c   15.54195900
_cell_angle_alpha   90.00000000
_cell_angle_beta   89.99993285
_cell_angle_gamma   90.00000000
_symmetry_Int_Tables_number   1
_chemical_formula_structural   Dy2Er(CdHg2)3
_chemical_formula_sum   'Dy4 Er2 Cd6 Hg12'
_cell_volume   564.00607009
_cell_formula_units_Z   2
loop_
 _symmetry_equiv_pos_site_id
 _symmetry_equiv_pos_as_xyz
  1  'x, y, z'
loop_
 _atom_site_type_symbol
 _atom_site_label
 _atom_site_symmetry_multiplicity
 _atom_site_fract_x
 _atom_site_fract_y
 _atom_site_fract_z
 _atom_site_occupancy
  Dy  Dy0  1  0.999981  0.000000  0.000103  1
  Dy  Dy1  1  0.499899  0.500000  0.166665  1
  Dy  Dy2  1  0.999927  0.000000  0.333371  1
  Dy  Dy3  1  0.500017  0.500000  0.499777  1
  Er  Er4  1  0.000107  0.000000  0.666576  1
  Er  Er5  1  0.500069  0.500000  0.833551  1
  Cd  Cd6  1  0.000032  0.500000  0.999879  1
  Cd  Cd7  1  0.499884  0.000000  0.166963  1
  Cd  Cd8  1  0.999958  0.500000  0.333333  1
  Cd  Cd9  1  0.499962  0.000000  0.500074  1
  Cd  Cd10  1  0.000076  0.500000  0.666786  1
  Cd  Cd11  1  0.500080  0.000000  0.833000  1
  Hg  Hg12  1  0.500018  0.252151  0.999903  1
  Hg  Hg13  1  0.500018  0.747848  0.999903  1
  Hg  Hg14  1  0.999937  0.247750  0.166815  1
  Hg  Hg15  1  0.999937  0.752251  0.166815  1
  Hg  Hg16  1  0.499868  0.252170  0.333429  1
  Hg  Hg17  1  0.499868  0.747831  0.333429  1
  Hg  Hg18  1  0.999983  0.247824  0.500099  1
  Hg  Hg19  1  0.999983  0.752177  0.500099  1
  Hg  Hg20  1  0.500034  0.251957  0.666598  1
  Hg  Hg21  1  0.500034  0.748044  0.666598  1
  Hg  Hg22  1  0.000165  0.247930  0.833118  1
  Hg  Hg23  1  0.000165  0.752071  0.833118  1
