# generated using pymatgen
data_Zr7Co16Re(SiP5)2
_symmetry_space_group_name_H-M   'P 1'
_cell_length_a   12.04140362
_cell_length_b   12.05923203
_cell_length_c   3.67570500
_cell_angle_alpha   90.00000000
_cell_angle_beta   90.00000000
_cell_angle_gamma   119.87028741
_symmetry_Int_Tables_number   1
_chemical_formula_structural   Zr7Co16Re(SiP5)2
_chemical_formula_sum   'Zr7 Co16 Re1 Si2 P10'
_cell_volume   462.84355084
_cell_formula_units_Z   1
loop_
 _symmetry_equiv_pos_site_id
 _symmetry_equiv_pos_as_xyz
  1  'x, y, z'
loop_
 _atom_site_type_symbol
 _atom_site_label
 _atom_site_symmetry_multiplicity
 _atom_site_fract_x
 _atom_site_fract_y
 _atom_site_fract_z
 _atom_site_occupancy
  Zr  Zr0  1  0.555957  0.000357  0.000000  1
  Zr  Zr1  1  0.001493  0.555824  0.000000  1
  Zr  Zr2  1  0.668731  0.335926  0.000000  1
  Zr  Zr3  1  0.335036  0.666585  0.000000  1
  Zr  Zr4  1  0.820651  0.820229  0.500000  1
  Zr  Zr5  1  0.176335  0.998742  0.500000  1
  Zr  Zr6  1  0.997595  0.175239  0.500000  1
  Co  Co7  1  0.197822  0.371692  0.000000  1
  Co  Co8  1  0.180337  0.808915  0.000000  1
  Co  Co9  1  0.823314  0.627715  0.000000  1
  Co  Co10  1  0.808143  0.179526  0.000000  1
  Co  Co11  1  0.368194  0.196543  0.000000  1
  Co  Co12  1  0.132311  0.480019  0.500000  1
  Co  Co13  1  0.354145  0.873427  0.500000  1
  Co  Co14  1  0.514605  0.642000  0.500000  1
  Co  Co15  1  0.645811  0.521526  0.500000  1
  Co  Co16  1  0.875660  0.353732  0.500000  1
  Co  Co17  1  0.477930  0.127318  0.500000  1
  Co  Co18  1  0.999352  0.999610  0.000000  1
  Co  Co19  1  0.722914  0.001469  0.500000  1
  Co  Co20  1  0.002345  0.723215  0.500000  1
  Co  Co21  1  0.626109  0.821264  0.000000  1
  Co  Co22  1  0.274918  0.278158  0.500000  1
  Re  Re23  1  0.442669  0.443478  0.000000  1
  Si  Si24  1  0.641112  0.641071  0.000000  1
  Si  Si25  1  0.481132  0.317681  0.500000  1
  P  P26  1  0.348637  0.005228  0.000000  1
  P  P27  1  0.004238  0.347677  0.000000  1
  P  P28  1  0.691282  0.174602  0.500000  1
  P  P29  1  0.826301  0.518679  0.500000  1
  P  P30  1  0.517982  0.825552  0.500000  1
  P  P31  1  0.175076  0.691779  0.500000  1
  P  P32  1  0.822238  0.997492  0.000000  1
  P  P33  1  0.998762  0.823273  0.000000  1
  P  P34  1  0.316644  0.479545  0.500000  1
  P  P35  1  0.174219  0.174911  0.000000  1
