# generated using pymatgen
data_Tb2YZn11
_symmetry_space_group_name_H-M   'P 1'
_cell_length_a   8.16100769
_cell_length_b   8.16100888
_cell_length_c   8.16100774
_cell_angle_alpha   148.39383323
_cell_angle_beta   115.65675082
_cell_angle_gamma   73.46211271
_symmetry_Int_Tables_number   1
_chemical_formula_structural   Tb2YZn11
_chemical_formula_sum   'Tb2 Y1 Zn11'
_cell_volume   252.66907464
_cell_formula_units_Z   1
loop_
 _symmetry_equiv_pos_site_id
 _symmetry_equiv_pos_as_xyz
  1  'x, y, z'
loop_
 _atom_site_type_symbol
 _atom_site_label
 _atom_site_symmetry_multiplicity
 _atom_site_fract_x
 _atom_site_fract_y
 _atom_site_fract_z
 _atom_site_occupancy
  Tb  Tb0  1  0.293693  0.293693  0.000000  1
  Tb  Tb1  1  0.706307  0.706307  0.000000  1
  Y  Y2  1  0.000000  0.000000  0.000000  1
  Zn  Zn3  1  0.500000  0.000000  0.500000  1
  Zn  Zn4  1  0.681905  0.500000  0.181905  1
  Zn  Zn5  1  0.318095  0.500000  0.818095  1
  Zn  Zn6  1  0.699905  0.341407  0.358498  1
  Zn  Zn7  1  0.300095  0.658593  0.641502  1
  Zn  Zn8  1  0.982910  0.341407  0.641502  1
  Zn  Zn9  1  0.017090  0.658593  0.358498  1
  Zn  Zn10  1  0.420814  0.138960  0.281853  1
  Zn  Zn11  1  0.579186  0.861040  0.718147  1
  Zn  Zn12  1  0.857107  0.138960  0.718147  1
  Zn  Zn13  1  0.142893  0.861040  0.281853  1
