# generated using pymatgen
data_Ce2As2Ir3RhAu2
_symmetry_space_group_name_H-M   'P 1'
_cell_length_a   4.01901700
_cell_length_b   4.01901700
_cell_length_c   11.71908000
_cell_angle_alpha   90.00000000
_cell_angle_beta   90.00000000
_cell_angle_gamma   90.00000000
_symmetry_Int_Tables_number   1
_chemical_formula_structural   Ce2As2Ir3RhAu2
_chemical_formula_sum   'Ce2 As2 Ir3 Rh1 Au2'
_cell_volume   189.29241212
_cell_formula_units_Z   1
loop_
 _symmetry_equiv_pos_site_id
 _symmetry_equiv_pos_as_xyz
  1  'x, y, z'
loop_
 _atom_site_type_symbol
 _atom_site_label
 _atom_site_symmetry_multiplicity
 _atom_site_fract_x
 _atom_site_fract_y
 _atom_site_fract_z
 _atom_site_occupancy
  Ce  Ce0  1  0.000000  0.500000  0.259466  1
  Ce  Ce1  1  0.500000  0.000000  0.740534  1
  As  As2  1  0.000000  0.500000  0.878358  1
  As  As3  1  0.500000  0.000000  0.121642  1
  Ir  Ir4  1  0.000000  0.000000  0.000000  1
  Ir  Ir5  1  0.000000  0.500000  0.675360  1
  Ir  Ir6  1  0.500000  0.000000  0.324640  1
  Rh  Rh7  1  0.500000  0.500000  0.000000  1
  Au  Au8  1  0.000000  0.000000  0.500000  1
  Au  Au9  1  0.500000  0.500000  0.500000  1
