# generated using pymatgen
data_Zr10In3Ga2Sn2Pb
_symmetry_space_group_name_H-M   'P 1'
_cell_length_a   8.79778401
_cell_length_b   8.79682097
_cell_length_c   5.91279700
_cell_angle_alpha   90.00000000
_cell_angle_beta   90.00000000
_cell_angle_gamma   119.99708806
_symmetry_Int_Tables_number   1
_chemical_formula_structural   Zr10In3Ga2Sn2Pb
_chemical_formula_sum   'Zr10 In3 Ga2 Sn2 Pb1'
_cell_volume   396.31032994
_cell_formula_units_Z   1
loop_
 _symmetry_equiv_pos_site_id
 _symmetry_equiv_pos_as_xyz
  1  'x, y, z'
loop_
 _atom_site_type_symbol
 _atom_site_label
 _atom_site_symmetry_multiplicity
 _atom_site_fract_x
 _atom_site_fract_y
 _atom_site_fract_z
 _atom_site_occupancy
  Zr  Zr0  1  0.663982  0.332801  0.999535  1
  Zr  Zr1  1  0.336018  0.668820  0.999533  1
  Zr  Zr2  1  0.336018  0.668820  0.500467  1
  Zr  Zr3  1  0.663982  0.332801  0.500465  1
  Zr  Zr4  1  0.734740  0.734753  0.750000  1
  Zr  Zr5  1  0.265257  0.000009  0.750000  1
  Zr  Zr6  1  0.000004  0.264196  0.750000  1
  Zr  Zr7  1  0.265869  0.261938  0.250000  1
  Zr  Zr8  1  0.734130  0.996067  0.250000  1
  Zr  Zr9  1  0.999999  0.739341  0.250000  1
  In  In10  1  0.384632  0.385525  0.750000  1
  In  In11  1  0.615332  0.000829  0.750000  1
  In  In12  1  0.000043  0.614918  0.750000  1
  Ga  Ga13  1  0.999999  0.000382  0.995940  1
  Ga  Ga14  1  0.999999  0.000382  0.504060  1
  Sn  Sn15  1  0.612173  0.611530  0.250000  1
  Sn  Sn16  1  0.387782  0.999276  0.250000  1
  Pb  Pb17  1  0.000042  0.387612  0.250000  1
