# generated using pymatgen
data_Hf4Rh2O
_symmetry_space_group_name_H-M   'P 1'
_cell_length_a   8.72981873
_cell_length_b   8.72981855
_cell_length_c   8.72981900
_cell_angle_alpha   60.00000207
_cell_angle_beta   60.00000276
_cell_angle_gamma   59.99999896
_symmetry_Int_Tables_number   1
_chemical_formula_structural   Hf4Rh2O
_chemical_formula_sum   'Hf16 Rh8 O4'
_cell_volume   470.43616019
_cell_formula_units_Z   4
loop_
 _symmetry_equiv_pos_site_id
 _symmetry_equiv_pos_as_xyz
  1  'x, y, z'
loop_
 _atom_site_type_symbol
 _atom_site_label
 _atom_site_symmetry_multiplicity
 _atom_site_fract_x
 _atom_site_fract_y
 _atom_site_fract_z
 _atom_site_occupancy
  Hf  Hf0  1  0.125000  0.625000  0.625000  1
  Hf  Hf1  1  0.625000  0.125000  0.625000  1
  Hf  Hf2  1  0.625000  0.625000  0.125000  1
  Hf  Hf3  1  0.625000  0.625000  0.625000  1
  Hf  Hf4  1  0.815389  0.815389  0.184611  1
  Hf  Hf5  1  0.184611  0.184611  0.815389  1
  Hf  Hf6  1  0.815389  0.184611  0.815389  1
  Hf  Hf7  1  0.184611  0.815389  0.184611  1
  Hf  Hf8  1  0.184611  0.815389  0.815389  1
  Hf  Hf9  1  0.815389  0.184611  0.184611  1
  Hf  Hf10  1  0.434611  0.434611  0.065389  1
  Hf  Hf11  1  0.065389  0.065389  0.434611  1
  Hf  Hf12  1  0.434611  0.065389  0.434611  1
  Hf  Hf13  1  0.065389  0.434611  0.065389  1
  Hf  Hf14  1  0.065389  0.434611  0.434611  1
  Hf  Hf15  1  0.434611  0.065389  0.065389  1
  Rh  Rh16  1  0.782224  0.405925  0.405925  1
  Rh  Rh17  1  0.405925  0.782224  0.405925  1
  Rh  Rh18  1  0.405925  0.405925  0.782224  1
  Rh  Rh19  1  0.405925  0.405925  0.405925  1
  Rh  Rh20  1  0.467776  0.844075  0.844075  1
  Rh  Rh21  1  0.844075  0.467776  0.844075  1
  Rh  Rh22  1  0.844075  0.844075  0.467776  1
  Rh  Rh23  1  0.844075  0.844075  0.844075  1
  O  O24  1  0.625000  0.125000  0.125000  1
  O  O25  1  0.125000  0.625000  0.125000  1
  O  O26  1  0.125000  0.125000  0.625000  1
  O  O27  1  0.125000  0.125000  0.125000  1
