# generated using pymatgen
data_Tb8AsPd7Pt17
_symmetry_space_group_name_H-M   'P 1'
_cell_length_a   8.38904001
_cell_length_b   8.38904031
_cell_length_c   8.36042200
_cell_angle_alpha   90.00272511
_cell_angle_beta   90.00272511
_cell_angle_gamma   89.98471469
_symmetry_Int_Tables_number   1
_chemical_formula_structural   Tb8AsPd7Pt17
_chemical_formula_sum   'Tb8 As1 Pd7 Pt17'
_cell_volume   588.37299281
_cell_formula_units_Z   1
loop_
 _symmetry_equiv_pos_site_id
 _symmetry_equiv_pos_as_xyz
  1  'x, y, z'
loop_
 _atom_site_type_symbol
 _atom_site_label
 _atom_site_symmetry_multiplicity
 _atom_site_fract_x
 _atom_site_fract_y
 _atom_site_fract_z
 _atom_site_occupancy
  Tb  Tb0  1  0.254279  0.254279  0.746440  1
  Tb  Tb1  1  0.255095  0.745206  0.254360  1
  Tb  Tb2  1  0.745206  0.255095  0.254360  1
  Tb  Tb3  1  0.745346  0.745346  0.746394  1
  Tb  Tb4  1  0.744823  0.744823  0.254279  1
  Tb  Tb5  1  0.745679  0.254559  0.746308  1
  Tb  Tb6  1  0.254559  0.745679  0.746308  1
  Tb  Tb7  1  0.254766  0.254766  0.254209  1
  As  As8  1  0.000353  0.000353  0.994688  1
  Pd  Pd9  1  0.499971  0.746589  0.500403  1
  Pd  Pd10  1  0.746589  0.499971  0.500403  1
  Pd  Pd11  1  0.999831  0.287301  0.001099  1
  Pd  Pd12  1  0.287301  0.999831  0.001099  1
  Pd  Pd13  1  0.999820  0.999820  0.287066  1
  Pd  Pd14  1  0.999722  0.713418  0.001156  1
  Pd  Pd15  1  0.713418  0.999722  0.001156  1
  Pt  Pt16  1  0.499580  0.499580  0.748014  1
  Pt  Pt17  1  0.499945  0.253236  0.500398  1
  Pt  Pt18  1  0.253236  0.499945  0.500398  1
  Pt  Pt19  1  0.499612  0.499612  0.252104  1
  Pt  Pt20  1  0.999881  0.999881  0.705348  1
  Pt  Pt21  1  0.000437  0.500213  0.742584  1
  Pt  Pt22  1  0.500153  0.258311  0.000098  1
  Pt  Pt23  1  0.261149  0.999920  0.500040  1
  Pt  Pt24  1  0.999920  0.261149  0.500040  1
  Pt  Pt25  1  0.500213  0.000437  0.742584  1
  Pt  Pt26  1  0.258311  0.500153  0.000098  1
  Pt  Pt27  1  0.000376  0.500176  0.259228  1
  Pt  Pt28  1  0.500058  0.741454  0.000061  1
  Pt  Pt29  1  0.999929  0.738806  0.499993  1
  Pt  Pt30  1  0.500176  0.000376  0.259228  1
  Pt  Pt31  1  0.738806  0.999929  0.499993  1
  Pt  Pt32  1  0.741454  0.500058  0.000061  1
