# generated using pymatgen
data_Ho3LuAl18Ir5Pt
_symmetry_space_group_name_H-M   'P 1'
_cell_length_a   7.54890048
_cell_length_b   7.55130684
_cell_length_c   9.45250802
_cell_angle_alpha   89.96403307
_cell_angle_beta   89.96610298
_cell_angle_gamma   119.58877975
_symmetry_Int_Tables_number   1
_chemical_formula_structural   Ho3LuAl18Ir5Pt
_chemical_formula_sum   'Ho3 Lu1 Al18 Ir5 Pt1'
_cell_volume   468.56291146
_cell_formula_units_Z   1
loop_
 _symmetry_equiv_pos_site_id
 _symmetry_equiv_pos_as_xyz
  1  'x, y, z'
loop_
 _atom_site_type_symbol
 _atom_site_label
 _atom_site_symmetry_multiplicity
 _atom_site_fract_x
 _atom_site_fract_y
 _atom_site_fract_z
 _atom_site_occupancy
  Ho  Ho0  1  0.994352  0.671309  0.250595  1
  Ho  Ho1  1  0.005410  0.328561  0.749453  1
  Ho  Ho2  1  0.671353  0.994628  0.250598  1
  Lu  Lu3  1  0.327923  0.005536  0.749103  1
  Al  Al4  1  0.129660  0.128444  0.250126  1
  Al  Al5  1  0.871848  0.870727  0.749831  1
  Al  Al6  1  0.004464  0.335379  0.075802  1
  Al  Al7  1  0.002893  0.668843  0.923547  1
  Al  Al8  1  0.000422  0.665080  0.574881  1
  Al  Al9  1  0.335348  0.000142  0.426853  1
  Al  Al10  1  0.000888  0.334849  0.425268  1
  Al  Al11  1  0.664332  0.999350  0.575461  1
  Al  Al12  1  0.663841  0.996028  0.923542  1
  Al  Al13  1  0.331894  0.998052  0.074607  1
  Al  Al14  1  0.333019  0.332368  0.554116  1
  Al  Al15  1  0.667048  0.666859  0.448129  1
  Al  Al16  1  0.666086  0.669178  0.055713  1
  Al  Al17  1  0.330885  0.333360  0.942145  1
  Al  Al18  1  0.340792  0.549515  0.250322  1
  Al  Al19  1  0.658961  0.452196  0.747468  1
  Al  Al20  1  0.546801  0.339959  0.252674  1
  Al  Al21  1  0.450327  0.660192  0.749651  1
  Ir  Ir22  1  0.328009  0.671987  0.999608  1
  Ir  Ir23  1  0.328141  0.671623  0.500374  1
  Ir  Ir24  1  0.672045  0.327679  0.500490  1
  Ir  Ir25  1  0.000043  0.000372  0.999451  1
  Ir  Ir26  1  0.000681  0.999950  0.500586  1
  Pt  Pt27  1  0.672536  0.327831  0.999605  1
