# generated using pymatgen
data_Li8CeHo7Sn8
_symmetry_space_group_name_H-M   'P 1'
_cell_length_a   9.46937543
_cell_length_b   9.45523723
_cell_length_c   7.10420500
_cell_angle_alpha   90.20319992
_cell_angle_beta   90.01729878
_cell_angle_gamma   120.05228962
_symmetry_Int_Tables_number   1
_chemical_formula_structural   Li8CeHo7Sn8
_chemical_formula_sum   'Li8 Ce1 Ho7 Sn8'
_cell_volume   550.56275153
_cell_formula_units_Z   1
loop_
 _symmetry_equiv_pos_site_id
 _symmetry_equiv_pos_as_xyz
  1  'x, y, z'
loop_
 _atom_site_type_symbol
 _atom_site_label
 _atom_site_symmetry_multiplicity
 _atom_site_fract_x
 _atom_site_fract_y
 _atom_site_fract_z
 _atom_site_occupancy
  Li  Li0  1  0.333108  0.166643  0.722688  1
  Li  Li1  1  0.833536  0.166648  0.722962  1
  Li  Li2  1  0.166979  0.833387  0.212036  1
  Li  Li3  1  0.666423  0.833402  0.211899  1
  Li  Li4  1  0.833084  0.666166  0.715364  1
  Li  Li5  1  0.166470  0.332921  0.218456  1
  Li  Li6  1  0.666802  0.333608  0.309011  1
  Li  Li7  1  0.333438  0.666896  0.814266  1
  Ce  Ce8  1  0.508823  0.017702  0.004526  1
  Ho  Ho9  1  0.000363  0.000806  0.500938  1
  Ho  Ho10  1  0.000144  0.000233  0.000842  1
  Ho  Ho11  1  0.019977  0.509732  0.505021  1
  Ho  Ho12  1  0.489786  0.509754  0.505019  1
  Ho  Ho13  1  0.509629  0.490584  0.004709  1
  Ho  Ho14  1  0.980990  0.490637  0.004718  1
  Ho  Ho15  1  0.490643  0.981235  0.505408  1
  Sn  Sn16  1  0.333387  0.166536  0.267871  1
  Sn  Sn17  1  0.833147  0.166552  0.267765  1
  Sn  Sn18  1  0.165983  0.833255  0.772013  1
  Sn  Sn19  1  0.667252  0.833246  0.772032  1
  Sn  Sn20  1  0.833783  0.667561  0.268848  1
  Sn  Sn21  1  0.166892  0.333770  0.772001  1
  Sn  Sn22  1  0.666303  0.332597  0.741414  1
  Sn  Sn23  1  0.333057  0.666128  0.238211  1
