# generated using pymatgen
data_La7Pr5Ga8Ir7Rh
_symmetry_space_group_name_H-M   'P 1'
_cell_length_a   5.78485589
_cell_length_b   8.27326201
_cell_length_c   13.76324705
_cell_angle_alpha   89.95199788
_cell_angle_beta   89.97274922
_cell_angle_gamma   89.88718790
_symmetry_Int_Tables_number   1
_chemical_formula_structural   La7Pr5Ga8Ir7Rh
_chemical_formula_sum   'La7 Pr5 Ga8 Ir7 Rh1'
_cell_volume   658.70230815
_cell_formula_units_Z   1
loop_
 _symmetry_equiv_pos_site_id
 _symmetry_equiv_pos_as_xyz
  1  'x, y, z'
loop_
 _atom_site_type_symbol
 _atom_site_label
 _atom_site_symmetry_multiplicity
 _atom_site_fract_x
 _atom_site_fract_y
 _atom_site_fract_z
 _atom_site_occupancy
  La  La0  1  0.848963  0.600425  0.904935  1
  La  La1  1  0.849134  0.601954  0.596632  1
  La  La2  1  0.848648  0.898108  0.403350  1
  La  La3  1  0.150050  0.398651  0.403292  1
  La  La4  1  0.151211  0.100738  0.596594  1
  La  La5  1  0.151740  0.102424  0.903512  1
  La  La6  1  0.849268  0.901159  0.096212  1
  Pr  Pr7  1  0.631768  0.256456  0.250442  1
  Pr  Pr8  1  0.368785  0.743650  0.750250  1
  Pr  Pr9  1  0.366315  0.756228  0.250144  1
  Pr  Pr10  1  0.632729  0.244440  0.750142  1
  Pr  Pr11  1  0.150992  0.395555  0.098985  1
  Ga  Ga12  1  0.137051  0.106038  0.250182  1
  Ga  Ga13  1  0.863088  0.894472  0.750527  1
  Ga  Ga14  1  0.863179  0.605357  0.248510  1
  Ga  Ga15  1  0.137534  0.395655  0.749619  1
  Ga  Ga16  1  0.626574  0.249741  0.999262  1
  Ga  Ga17  1  0.372912  0.749423  0.000270  1
  Ga  Ga18  1  0.376186  0.750261  0.500204  1
  Ga  Ga19  1  0.623598  0.249865  0.500096  1
  Ir  Ir20  1  0.357044  0.031349  0.091717  1
  Ir  Ir21  1  0.642076  0.967942  0.908765  1
  Ir  Ir22  1  0.643744  0.969059  0.591761  1
  Ir  Ir23  1  0.643922  0.530444  0.407406  1
  Ir  Ir24  1  0.356681  0.030948  0.408228  1
  Ir  Ir25  1  0.356546  0.469785  0.591229  1
  Ir  Ir26  1  0.357363  0.469310  0.907449  1
  Rh  Rh27  1  0.642898  0.530564  0.090290  1
