# generated using pymatgen
data_Hf9Zr4UPt20
_symmetry_space_group_name_H-M   'P 1'
_cell_length_a   8.21602612
_cell_length_b   8.21602951
_cell_length_c   9.66736843
_cell_angle_alpha   90.12437261
_cell_angle_beta   90.12432294
_cell_angle_gamma   107.76692441
_symmetry_Int_Tables_number   1
_chemical_formula_structural   Hf9Zr4UPt20
_chemical_formula_sum   'Hf9 Zr4 U1 Pt20'
_cell_volume   621.44902950
_cell_formula_units_Z   1
loop_
 _symmetry_equiv_pos_site_id
 _symmetry_equiv_pos_as_xyz
  1  'x, y, z'
loop_
 _atom_site_type_symbol
 _atom_site_label
 _atom_site_symmetry_multiplicity
 _atom_site_fract_x
 _atom_site_fract_y
 _atom_site_fract_z
 _atom_site_occupancy
  Hf  Hf0  1  0.311089  0.688911  0.000000  1
  Hf  Hf1  1  0.810825  0.189175  0.500000  1
  Hf  Hf2  1  0.189206  0.810794  0.500000  1
  Hf  Hf3  1  0.999840  0.000160  0.000000  1
  Hf  Hf4  1  0.500319  0.499681  0.500000  1
  Hf  Hf5  1  0.004362  0.504524  0.252128  1
  Hf  Hf6  1  0.000968  0.500074  0.747063  1
  Hf  Hf7  1  0.495476  0.995638  0.747872  1
  Hf  Hf8  1  0.499926  0.999032  0.252937  1
  Zr  Zr9  1  0.311400  0.315412  0.187552  1
  Zr  Zr10  1  0.684588  0.688599  0.812448  1
  Zr  Zr11  1  0.184124  0.184063  0.684033  1
  Zr  Zr12  1  0.815937  0.815876  0.315967  1
  U  U13  1  0.689977  0.310023  0.000000  1
  Pt  Pt14  1  0.853145  0.144791  0.209206  1
  Pt  Pt15  1  0.146635  0.854479  0.791303  1
  Pt  Pt16  1  0.646744  0.352914  0.708661  1
  Pt  Pt17  1  0.647086  0.353256  0.291339  1
  Pt  Pt18  1  0.353271  0.645727  0.292003  1
  Pt  Pt19  1  0.354273  0.646729  0.707997  1
  Pt  Pt20  1  0.855209  0.146856  0.790794  1
  Pt  Pt21  1  0.145521  0.853365  0.208697  1
  Pt  Pt22  1  0.938066  0.644475  0.999490  1
  Pt  Pt23  1  0.062044  0.355322  0.001079  1
  Pt  Pt24  1  0.562721  0.854962  0.500107  1
  Pt  Pt25  1  0.145038  0.437278  0.499893  1
  Pt  Pt26  1  0.437761  0.144862  0.500104  1
  Pt  Pt27  1  0.855138  0.562239  0.499896  1
  Pt  Pt28  1  0.355525  0.061934  0.000511  1
  Pt  Pt29  1  0.644677  0.937956  0.998921  1
  Pt  Pt30  1  0.107185  0.106376  0.394517  1
  Pt  Pt31  1  0.893624  0.892815  0.605483  1
  Pt  Pt32  1  0.392071  0.393772  0.893265  1
  Pt  Pt33  1  0.606228  0.607929  0.106735  1
