# generated using pymatgen
data_Y6Th2MgInIr2
_symmetry_space_group_name_H-M   'P 1'
_cell_length_a   9.82285580
_cell_length_b   9.82285622
_cell_length_c   9.83751000
_cell_angle_alpha   59.95063924
_cell_angle_beta   59.95063781
_cell_angle_gamma   60.05942101
_symmetry_Int_Tables_number   1
_chemical_formula_structural   Y6Th2MgInIr2
_chemical_formula_sum   'Y12 Th4 Mg2 In2 Ir4'
_cell_volume   670.98942299
_cell_formula_units_Z   2
loop_
 _symmetry_equiv_pos_site_id
 _symmetry_equiv_pos_as_xyz
  1  'x, y, z'
loop_
 _atom_site_type_symbol
 _atom_site_label
 _atom_site_symmetry_multiplicity
 _atom_site_fract_x
 _atom_site_fract_y
 _atom_site_fract_z
 _atom_site_occupancy
  Y  Y0  1  0.060586  0.438436  0.440060  1
  Y  Y1  1  0.438436  0.060586  0.060918  1
  Y  Y2  1  0.438436  0.060586  0.440060  1
  Y  Y3  1  0.060586  0.438436  0.060918  1
  Y  Y4  1  0.437935  0.437935  0.062065  1
  Y  Y5  1  0.059349  0.059349  0.440651  1
  Y  Y6  1  0.186553  0.814225  0.813658  1
  Y  Y7  1  0.814225  0.186553  0.185563  1
  Y  Y8  1  0.814225  0.186553  0.813658  1
  Y  Y9  1  0.186553  0.814225  0.185563  1
  Y  Y10  1  0.813381  0.813381  0.186619  1
  Y  Y11  1  0.186363  0.186363  0.813637  1
  Th  Th12  1  0.597648  0.597648  0.596891  1
  Th  Th13  1  0.597648  0.597648  0.207813  1
  Th  Th14  1  0.598332  0.204668  0.598500  1
  Th  Th15  1  0.204668  0.598332  0.598500  1
  Mg  Mg16  1  0.829490  0.512432  0.829039  1
  Mg  Mg17  1  0.512432  0.829490  0.829039  1
  In  In18  1  0.833359  0.833359  0.835334  1
  In  In19  1  0.833359  0.833359  0.497949  1
  Ir  Ir20  1  0.392417  0.392417  0.394847  1
  Ir  Ir21  1  0.392417  0.392417  0.820318  1
  Ir  Ir22  1  0.392067  0.819535  0.394198  1
  Ir  Ir23  1  0.819535  0.392067  0.394198  1
