# generated using pymatgen
data_Ba2Sr6Yb(BN2)6
_symmetry_space_group_name_H-M   'P 1'
_cell_length_a   7.67761335
_cell_length_b   7.67761335
_cell_length_c   7.67761335
_cell_angle_alpha   92.32686154
_cell_angle_beta   92.32686154
_cell_angle_gamma   87.67313846
_symmetry_Int_Tables_number   1
_chemical_formula_structural   Ba2Sr6Yb(BN2)6
_chemical_formula_sum   'Ba2 Sr6 Yb1 B6 N12'
_cell_volume   451.47263476
_cell_formula_units_Z   1
loop_
 _symmetry_equiv_pos_site_id
 _symmetry_equiv_pos_as_xyz
  1  'x, y, z'
loop_
 _atom_site_type_symbol
 _atom_site_label
 _atom_site_symmetry_multiplicity
 _atom_site_fract_x
 _atom_site_fract_y
 _atom_site_fract_z
 _atom_site_occupancy
  Ba  Ba0  1  0.740468  0.740468  0.259532  1
  Ba  Ba1  1  0.259532  0.259532  0.740468  1
  Sr  Sr2  1  0.738708  0.262764  0.737236  1
  Sr  Sr3  1  0.261292  0.737236  0.262764  1
  Sr  Sr4  1  0.737236  0.261292  0.262764  1
  Sr  Sr5  1  0.262764  0.738708  0.737236  1
  Sr  Sr6  1  0.737236  0.737236  0.738708  1
  Sr  Sr7  1  0.262764  0.262764  0.261292  1
  Yb  Yb8  1  0.000000  0.000000  0.000000  1
  B  B9  1  0.000000  0.000000  0.500000  1
  B  B10  1  0.500000  0.500000  0.000000  1
  B  B11  1  0.500000  0.000000  0.500000  1
  B  B12  1  0.000000  0.500000  0.000000  1
  B  B13  1  0.500000  0.000000  0.000000  1
  B  B14  1  0.000000  0.500000  0.500000  1
  N  N15  1  0.486581  0.486581  0.172805  1
  N  N16  1  0.990508  0.990508  0.675465  1
  N  N17  1  0.486581  0.827195  0.513419  1
  N  N18  1  0.990508  0.324535  0.009492  1
  N  N19  1  0.324535  0.990508  0.009492  1
  N  N20  1  0.827195  0.486581  0.513419  1
  N  N21  1  0.513419  0.513419  0.827195  1
  N  N22  1  0.009492  0.009492  0.324535  1
  N  N23  1  0.513419  0.172805  0.486581  1
  N  N24  1  0.009492  0.675465  0.990508  1
  N  N25  1  0.675465  0.009492  0.990508  1
  N  N26  1  0.172805  0.513419  0.486581  1
