# generated using pymatgen
data_TbHo2Co4P6Ru5
_symmetry_space_group_name_H-M   'P 1'
_cell_length_a   3.85667600
_cell_length_b   10.67637400
_cell_length_c   12.55788700
_cell_angle_alpha   90.00000000
_cell_angle_beta   90.00000000
_cell_angle_gamma   90.00000000
_symmetry_Int_Tables_number   1
_chemical_formula_structural   TbHo2Co4P6Ru5
_chemical_formula_sum   'Tb2 Ho4 Co8 P12 Ru10'
_cell_volume   517.07495764
_cell_formula_units_Z   2
loop_
 _symmetry_equiv_pos_site_id
 _symmetry_equiv_pos_as_xyz
  1  'x, y, z'
loop_
 _atom_site_type_symbol
 _atom_site_label
 _atom_site_symmetry_multiplicity
 _atom_site_fract_x
 _atom_site_fract_y
 _atom_site_fract_z
 _atom_site_occupancy
  Tb  Tb0  1  0.000000  0.500000  0.526992  1
  Tb  Tb1  1  0.500000  0.000000  0.473008  1
  Ho  Ho2  1  0.500000  0.821441  0.200559  1
  Ho  Ho3  1  0.500000  0.178559  0.200559  1
  Ho  Ho4  1  0.000000  0.678559  0.799441  1
  Ho  Ho5  1  0.000000  0.321441  0.799441  1
  Co  Co6  1  0.000000  0.500000  0.983843  1
  Co  Co7  1  0.500000  0.000000  0.016157  1
  Co  Co8  1  0.500000  0.332341  0.988871  1
  Co  Co9  1  0.500000  0.667659  0.988871  1
  Co  Co10  1  0.000000  0.167659  0.011129  1
  Co  Co11  1  0.000000  0.832341  0.011129  1
  Co  Co12  1  0.500000  0.500000  0.703130  1
  Co  Co13  1  0.000000  0.000000  0.296870  1
  P  P14  1  0.500000  0.314242  0.618320  1
  P  P15  1  0.500000  0.685758  0.618320  1
  P  P16  1  0.000000  0.185758  0.381680  1
  P  P17  1  0.000000  0.814242  0.381680  1
  P  P18  1  0.500000  0.500000  0.881283  1
  P  P19  1  0.000000  0.000000  0.118717  1
  P  P20  1  0.500000  0.845973  0.900978  1
  P  P21  1  0.500000  0.154027  0.900978  1
  P  P22  1  0.000000  0.654027  0.099022  1
  P  P23  1  0.000000  0.345973  0.099022  1
  P  P24  1  0.500000  0.500000  0.336182  1
  P  P25  1  0.000000  0.000000  0.663818  1
  Ru  Ru26  1  0.500000  0.297733  0.427322  1
  Ru  Ru27  1  0.500000  0.702267  0.427322  1
  Ru  Ru28  1  0.000000  0.202267  0.572678  1
  Ru  Ru29  1  0.000000  0.797733  0.572678  1
  Ru  Ru30  1  0.500000  0.874746  0.719398  1
  Ru  Ru31  1  0.500000  0.125254  0.719398  1
  Ru  Ru32  1  0.000000  0.625254  0.280602  1
  Ru  Ru33  1  0.000000  0.374746  0.280602  1
  Ru  Ru34  1  0.500000  0.500000  0.146276  1
  Ru  Ru35  1  0.000000  0.000000  0.853724  1
