# generated using pymatgen
data_Nd6CoI10
_symmetry_space_group_name_H-M   'P 1'
_cell_length_a   7.95434168
_cell_length_b   9.97494593
_cell_length_c   9.87175039
_cell_angle_alpha   107.18017625
_cell_angle_beta   96.74956342
_cell_angle_gamma   104.99560995
_symmetry_Int_Tables_number   1
_chemical_formula_structural   Nd6CoI10
_chemical_formula_sum   'Nd6 Co1 I10'
_cell_volume   706.68812074
_cell_formula_units_Z   1
loop_
 _symmetry_equiv_pos_site_id
 _symmetry_equiv_pos_as_xyz
  1  'x, y, z'
loop_
 _atom_site_type_symbol
 _atom_site_label
 _atom_site_symmetry_multiplicity
 _atom_site_fract_x
 _atom_site_fract_y
 _atom_site_fract_z
 _atom_site_occupancy
  Nd  Nd0  1  0.348908  0.124779  0.167631  1
  Nd  Nd1  1  0.651092  0.875221  0.832369  1
  Nd  Nd2  1  0.968324  0.287499  0.086536  1
  Nd  Nd3  1  0.031676  0.712501  0.913464  1
  Nd  Nd4  1  0.887731  0.959439  0.232246  1
  Nd  Nd5  1  0.112269  0.040561  0.767754  1
  Co  Co6  1  0.000000  0.000000  0.000000  1
  I  I7  1  0.353423  0.452669  0.272710  1
  I  I8  1  0.646577  0.547331  0.727290  1
  I  I9  1  0.780370  0.257082  0.348509  1
  I  I10  1  0.219630  0.742918  0.651491  1
  I  I11  1  0.545465  0.184468  0.906497  1
  I  I12  1  0.454535  0.815532  0.093503  1
  I  I13  1  0.742032  0.912430  0.538355  1
  I  I14  1  0.257968  0.087570  0.461645  1
  I  I15  1  0.913823  0.630665  0.183088  1
  I  I16  1  0.086177  0.369335  0.816912  1
