# generated using pymatgen
data_Sr3PrMn2Al2O10
_symmetry_space_group_name_H-M   'P 1'
_cell_length_a   5.51419670
_cell_length_b   5.81776047
_cell_length_c   8.80039545
_cell_angle_alpha   109.58328019
_cell_angle_beta   108.54755991
_cell_angle_gamma   89.90648721
_symmetry_Int_Tables_number   1
_chemical_formula_structural   Sr3PrMn2Al2O10
_chemical_formula_sum   'Sr3 Pr1 Mn2 Al2 O10'
_cell_volume   250.42510791
_cell_formula_units_Z   1
loop_
 _symmetry_equiv_pos_site_id
 _symmetry_equiv_pos_as_xyz
  1  'x, y, z'
loop_
 _atom_site_type_symbol
 _atom_site_label
 _atom_site_symmetry_multiplicity
 _atom_site_fract_x
 _atom_site_fract_y
 _atom_site_fract_z
 _atom_site_occupancy
  Sr  Sr0  1  0.388826  0.908424  0.773883  1
  Sr  Sr1  1  0.891166  0.360245  0.769289  1
  Sr  Sr2  1  0.619267  0.091685  0.223720  1
  Pr  Pr3  1  0.118779  0.635391  0.213079  1
  Mn  Mn4  1  0.501528  0.498766  0.996041  1
  Mn  Mn5  1  0.997838  0.999573  0.991529  1
  Al  Al6  1  0.281820  0.321106  0.497839  1
  Al  Al7  1  0.780083  0.674014  0.501011  1
  O  O8  1  0.595056  0.415658  0.498589  1
  O  O9  1  0.091143  0.577082  0.483752  1
  O  O10  1  0.610893  0.728337  0.312883  1
  O  O11  1  0.327094  0.286028  0.695507  1
  O  O12  1  0.133489  0.072071  0.305619  1
  O  O13  1  0.845831  0.904799  0.704173  1
  O  O14  1  0.252054  0.737460  0.986699  1
  O  O15  1  0.266516  0.279468  0.026641  1
  O  O16  1  0.766247  0.280530  0.027882  1
  O  O17  1  0.752573  0.729364  0.991865  1
