# generated using pymatgen
data_Tb2SmMn2Co9B4
_symmetry_space_group_name_H-M   'P 1'
_cell_length_a   5.10292900
_cell_length_b   5.10350367
_cell_length_c   9.70795200
_cell_angle_alpha   89.99995149
_cell_angle_beta   90.00007457
_cell_angle_gamma   119.99626869
_symmetry_Int_Tables_number   1
_chemical_formula_structural   Tb2SmMn2Co9B4
_chemical_formula_sum   'Tb2 Sm1 Mn2 Co9 B4'
_cell_volume   218.95886715
_cell_formula_units_Z   1
loop_
 _symmetry_equiv_pos_site_id
 _symmetry_equiv_pos_as_xyz
  1  'x, y, z'
loop_
 _atom_site_type_symbol
 _atom_site_label
 _atom_site_symmetry_multiplicity
 _atom_site_fract_x
 _atom_site_fract_y
 _atom_site_fract_z
 _atom_site_occupancy
  Tb  Tb0  1  0.999993  0.000000  0.341692  1
  Tb  Tb1  1  0.999999  0.000000  0.658387  1
  Sm  Sm2  1  0.999985  0.000000  0.999981  1
  Mn  Mn3  1  0.333312  0.666633  0.999981  1
  Mn  Mn4  1  0.666679  0.333367  0.999981  1
  Co  Co5  1  0.499996  0.000000  0.500014  1
  Co  Co6  1  0.499995  0.500000  0.500029  1
  Co  Co7  1  0.999996  0.500000  0.500029  1
  Co  Co8  1  0.499992  0.000000  0.206716  1
  Co  Co9  1  0.499991  0.500000  0.206778  1
  Co  Co10  1  0.999991  0.500000  0.206778  1
  Co  Co11  1  0.499998  0.000000  0.793174  1
  Co  Co12  1  0.499998  0.500001  0.793248  1
  Co  Co13  1  0.999996  0.499999  0.793248  1
  B  B14  1  0.333286  0.666582  0.350594  1
  B  B15  1  0.666702  0.333418  0.350594  1
  B  B16  1  0.666624  0.333256  0.649392  1
  B  B17  1  0.333367  0.666744  0.649392  1
