# generated using pymatgen
data_CsK11Mn4O16
_symmetry_space_group_name_H-M   'P 1'
_cell_length_a   8.40023043
_cell_length_b   8.39982504
_cell_length_c   10.50032451
_cell_angle_alpha   113.56198098
_cell_angle_beta   113.56127237
_cell_angle_gamma   89.98960137
_symmetry_Int_Tables_number   1
_chemical_formula_structural   CsK11Mn4O16
_chemical_formula_sum   'Cs1 K11 Mn4 O16'
_cell_volume   611.18447742
_cell_formula_units_Z   1
loop_
 _symmetry_equiv_pos_site_id
 _symmetry_equiv_pos_as_xyz
  1  'x, y, z'
loop_
 _atom_site_type_symbol
 _atom_site_label
 _atom_site_symmetry_multiplicity
 _atom_site_fract_x
 _atom_site_fract_y
 _atom_site_fract_z
 _atom_site_occupancy
  Cs  Cs0  1  0.999880  0.999886  0.999961  1
  K  K1  1  0.277966  0.278026  0.556013  1
  K  K2  1  0.500059  0.000011  0.000026  1
  K  K3  1  0.250330  0.750525  0.499800  1
  K  K4  1  0.908438  0.908714  0.269692  1
  K  K5  1  0.091847  0.639338  0.730416  1
  K  K6  1  0.722114  0.722013  0.444043  1
  K  K7  1  0.000038  0.500074  0.000028  1
  K  K8  1  0.638978  0.091678  0.730432  1
  K  K9  1  0.360998  0.360700  0.269709  1
  K  K10  1  0.750426  0.250502  0.500175  1
  K  K11  1  0.499747  0.499600  0.000067  1
  Mn  Mn12  1  0.849447  0.379842  0.229486  1
  Mn  Mn13  1  0.150441  0.150555  0.770577  1
  Mn  Mn14  1  0.620056  0.619975  0.770348  1
  Mn  Mn15  1  0.379943  0.849410  0.229535  1
  O  O16  1  0.292149  0.021520  0.315121  1
  O  O17  1  0.732931  0.733111  0.968595  1
  O  O18  1  0.682641  0.364080  0.283261  1
  O  O19  1  0.364305  0.682522  0.283257  1
  O  O20  1  0.021363  0.291729  0.314910  1
  O  O21  1  0.600462  0.920251  0.284143  1
  O  O22  1  0.316989  0.080519  0.716529  1
  O  O23  1  0.267097  0.764927  0.031337  1
  O  O24  1  0.707485  0.707457  0.685107  1
  O  O25  1  0.235301  0.235398  0.968756  1
  O  O26  1  0.635797  0.399394  0.715994  1
  O  O27  1  0.977877  0.977754  0.684964  1
  O  O28  1  0.920215  0.600425  0.284161  1
  O  O29  1  0.764750  0.267007  0.031280  1
  O  O30  1  0.080468  0.317026  0.716408  1
  O  O31  1  0.399462  0.636031  0.715870  1
