# generated using pymatgen
data_DyEr3LuInAu4
_symmetry_space_group_name_H-M   'P 1'
_cell_length_a   8.03339721
_cell_length_b   8.03574821
_cell_length_c   3.71796600
_cell_angle_alpha   90.00000000
_cell_angle_beta   90.00000000
_cell_angle_gamma   89.97352202
_symmetry_Int_Tables_number   1
_chemical_formula_structural   DyEr3LuInAu4
_chemical_formula_sum   'Dy1 Er3 Lu1 In1 Au4'
_cell_volume   240.01088005
_cell_formula_units_Z   1
loop_
 _symmetry_equiv_pos_site_id
 _symmetry_equiv_pos_as_xyz
  1  'x, y, z'
loop_
 _atom_site_type_symbol
 _atom_site_label
 _atom_site_symmetry_multiplicity
 _atom_site_fract_x
 _atom_site_fract_y
 _atom_site_fract_z
 _atom_site_occupancy
  Dy  Dy0  1  0.682908  0.145565  0.500000  1
  Er  Er1  1  0.317075  0.854418  0.500000  1
  Er  Er2  1  0.145596  0.317661  0.500000  1
  Er  Er3  1  0.854823  0.682295  0.500000  1
  Lu  Lu4  1  0.499839  0.500305  0.000000  1
  In  In5  1  0.000698  0.999631  0.000000  1
  Au  Au6  1  0.146081  0.619190  0.000000  1
  Au  Au7  1  0.854674  0.382170  0.000000  1
  Au  Au8  1  0.618648  0.852856  0.000000  1
  Au  Au9  1  0.379658  0.145909  0.000000  1
