# generated using pymatgen
data_Ca6SbWO12
_symmetry_space_group_name_H-M   'P 1'
_cell_length_a   6.64317210
_cell_length_b   6.64317156
_cell_length_c   6.64317307
_cell_angle_alpha   91.72837990
_cell_angle_beta   91.72838001
_cell_angle_gamma   91.72838034
_symmetry_Int_Tables_number   1
_chemical_formula_structural   Ca6SbWO12
_chemical_formula_sum   'Ca6 Sb1 W1 O12'
_cell_volume   292.76635057
_cell_formula_units_Z   1
loop_
 _symmetry_equiv_pos_site_id
 _symmetry_equiv_pos_as_xyz
  1  'x, y, z'
loop_
 _atom_site_type_symbol
 _atom_site_label
 _atom_site_symmetry_multiplicity
 _atom_site_fract_x
 _atom_site_fract_y
 _atom_site_fract_z
 _atom_site_occupancy
  Ca  Ca0  1  0.934672  0.439075  0.745201  1
  Ca  Ca1  1  0.745201  0.934672  0.439075  1
  Ca  Ca2  1  0.560925  0.254799  0.065328  1
  Ca  Ca3  1  0.439075  0.745201  0.934672  1
  Ca  Ca4  1  0.254799  0.065328  0.560925  1
  Ca  Ca5  1  0.065328  0.560925  0.254799  1
  Sb  Sb6  1  0.000000  0.000000  0.000000  1
  W  W7  1  0.500000  0.500000  0.500000  1
  O  O8  1  0.932914  0.288276  0.067423  1
  O  O9  1  0.932577  0.067086  0.711724  1
  O  O10  1  0.781539  0.577794  0.453793  1
  O  O11  1  0.711724  0.932577  0.067086  1
  O  O12  1  0.577794  0.453793  0.781539  1
  O  O13  1  0.546207  0.218461  0.422206  1
  O  O14  1  0.453793  0.781539  0.577794  1
  O  O15  1  0.422206  0.546207  0.218461  1
  O  O16  1  0.288276  0.067423  0.932914  1
  O  O17  1  0.218461  0.422206  0.546207  1
  O  O18  1  0.067423  0.932914  0.288276  1
  O  O19  1  0.067086  0.711724  0.932577  1
