# generated using pymatgen
data_Ce3Ho2(In2Rh)2
_symmetry_space_group_name_H-M   'P 1'
_cell_length_a   8.05478400
_cell_length_b   18.69267800
_cell_length_c   3.65032000
_cell_angle_alpha   90.00000000
_cell_angle_beta   90.00000000
_cell_angle_gamma   90.00000000
_symmetry_Int_Tables_number   1
_chemical_formula_structural   Ce3Ho2(In2Rh)2
_chemical_formula_sum   'Ce6 Ho4 In8 Rh4'
_cell_volume   549.61219636
_cell_formula_units_Z   2
loop_
 _symmetry_equiv_pos_site_id
 _symmetry_equiv_pos_as_xyz
  1  'x, y, z'
loop_
 _atom_site_type_symbol
 _atom_site_label
 _atom_site_symmetry_multiplicity
 _atom_site_fract_x
 _atom_site_fract_y
 _atom_site_fract_z
 _atom_site_occupancy
  Ce  Ce0  1  0.000000  0.000000  0.000000  1
  Ce  Ce1  1  0.500001  0.500000  0.000000  1
  Ce  Ce2  1  0.135135  0.415107  0.000000  1
  Ce  Ce3  1  0.864865  0.584894  0.000000  1
  Ce  Ce4  1  0.635136  0.084893  0.000000  1
  Ce  Ce5  1  0.364864  0.915107  0.000000  1
  Ho  Ho6  1  0.259501  0.222850  0.000000  1
  Ho  Ho7  1  0.740499  0.777149  0.000000  1
  Ho  Ho8  1  0.759502  0.277149  0.000000  1
  Ho  Ho9  1  0.240498  0.722851  0.000000  1
  In  In10  1  0.294695  0.074438  0.500002  1
  In  In11  1  0.705306  0.925561  0.500002  1
  In  In12  1  0.794695  0.425561  0.500002  1
  In  In13  1  0.205306  0.574439  0.500002  1
  In  In14  1  0.444206  0.345655  0.500002  1
  In  In15  1  0.555792  0.654345  0.500002  1
  In  In16  1  0.944207  0.154345  0.500002  1
  In  In17  1  0.055793  0.845655  0.500002  1
  Rh  Rh18  1  0.038172  0.311490  0.500002  1
  Rh  Rh19  1  0.961828  0.688510  0.500002  1
  Rh  Rh20  1  0.538171  0.188510  0.500002  1
  Rh  Rh21  1  0.461828  0.811490  0.500002  1
