# generated using pymatgen
data_Ta5Ge(B2Os5)2
_symmetry_space_group_name_H-M   'P 1'
_cell_length_a   9.47611300
_cell_length_b   9.47611300
_cell_length_c   3.01307300
_cell_angle_alpha   90.00000000
_cell_angle_beta   90.00000000
_cell_angle_gamma   90.00000000
_symmetry_Int_Tables_number   1
_chemical_formula_structural   Ta5Ge(B2Os5)2
_chemical_formula_sum   'Ta5 Ge1 B4 Os10'
_cell_volume   270.56406526
_cell_formula_units_Z   1
loop_
 _symmetry_equiv_pos_site_id
 _symmetry_equiv_pos_as_xyz
  1  'x, y, z'
loop_
 _atom_site_type_symbol
 _atom_site_label
 _atom_site_symmetry_multiplicity
 _atom_site_fract_x
 _atom_site_fract_y
 _atom_site_fract_z
 _atom_site_occupancy
  Ta  Ta0  1  0.822595  0.676348  0.000000  1
  Ta  Ta1  1  0.177405  0.323652  0.000000  1
  Ta  Ta2  1  0.323652  0.822595  0.000000  1
  Ta  Ta3  1  0.676348  0.177405  0.000000  1
  Ta  Ta4  1  0.000000  0.000000  0.000000  1
  Ge  Ge5  1  0.500000  0.500000  0.000000  1
  B  B6  1  0.617178  0.871788  0.000000  1
  B  B7  1  0.382822  0.128212  0.000000  1
  B  B8  1  0.128212  0.617178  0.000000  1
  B  B9  1  0.871788  0.382822  0.000000  1
  Os  Os10  1  0.569155  0.712692  0.500000  1
  Os  Os11  1  0.430845  0.287308  0.500000  1
  Os  Os12  1  0.072638  0.780131  0.500000  1
  Os  Os13  1  0.927362  0.219869  0.500000  1
  Os  Os14  1  0.287308  0.569155  0.500000  1
  Os  Os15  1  0.712692  0.430845  0.500000  1
  Os  Os16  1  0.219869  0.072638  0.500000  1
  Os  Os17  1  0.780131  0.927362  0.500000  1
  Os  Os18  1  0.500000  0.000000  0.500000  1
  Os  Os19  1  0.000000  0.500000  0.500000  1
