# generated using pymatgen
data_Hf8ScRe3PW
_symmetry_space_group_name_H-M   'P 1'
_cell_length_a   8.64631017
_cell_length_b   8.63092359
_cell_length_c   8.55043800
_cell_angle_alpha   90.00000000
_cell_angle_beta   90.00000000
_cell_angle_gamma   119.94115199
_symmetry_Int_Tables_number   1
_chemical_formula_structural   Hf8ScRe3PW
_chemical_formula_sum   'Hf16 Sc2 Re6 P2 W2'
_cell_volume   552.92255262
_cell_formula_units_Z   2
loop_
 _symmetry_equiv_pos_site_id
 _symmetry_equiv_pos_as_xyz
  1  'x, y, z'
loop_
 _atom_site_type_symbol
 _atom_site_label
 _atom_site_symmetry_multiplicity
 _atom_site_fract_x
 _atom_site_fract_y
 _atom_site_fract_z
 _atom_site_occupancy
  Hf  Hf0  1  0.197027  0.804692  0.451210  1
  Hf  Hf1  1  0.197027  0.392333  0.451210  1
  Hf  Hf2  1  0.607904  0.803950  0.450178  1
  Hf  Hf3  1  0.803502  0.196858  0.548906  1
  Hf  Hf4  1  0.803502  0.606647  0.548906  1
  Hf  Hf5  1  0.390694  0.195348  0.550205  1
  Hf  Hf6  1  0.803502  0.196858  0.951094  1
  Hf  Hf7  1  0.803502  0.606647  0.951094  1
  Hf  Hf8  1  0.390694  0.195348  0.949795  1
  Hf  Hf9  1  0.197027  0.804692  0.048790  1
  Hf  Hf10  1  0.197027  0.392333  0.048790  1
  Hf  Hf11  1  0.607904  0.803950  0.049822  1
  Hf  Hf12  1  0.926365  0.463183  0.250000  1
  Hf  Hf13  1  0.459974  0.540984  0.750000  1
  Hf  Hf14  1  0.459974  0.918991  0.750000  1
  Hf  Hf15  1  0.079913  0.539956  0.750000  1
  Sc  Sc16  1  0.541864  0.458653  0.250000  1
  Sc  Sc17  1  0.541864  0.083212  0.250000  1
  Re  Re18  1  0.889774  0.111162  0.250000  1
  Re  Re19  1  0.889774  0.778610  0.250000  1
  Re  Re20  1  0.221077  0.110538  0.250000  1
  Re  Re21  1  0.108644  0.889162  0.750000  1
  Re  Re22  1  0.108644  0.219483  0.750000  1
  Re  Re23  1  0.778317  0.889159  0.750000  1
  P  P24  1  0.330569  0.665284  0.250000  1
  P  P25  1  0.664774  0.332387  0.750000  1
  W  W26  1  0.999582  0.999791  0.498585  1
  W  W27  1  0.999582  0.999791  0.001415  1
