# generated using pymatgen
data_TbGdTmTaO7
_symmetry_space_group_name_H-M   'P 1'
_cell_length_a   6.48279237
_cell_length_b   6.48279076
_cell_length_c   7.49532142
_cell_angle_alpha   90.07183308
_cell_angle_beta   90.07182912
_cell_angle_gamma   108.76516908
_symmetry_Int_Tables_number   1
_chemical_formula_structural   TbGdTmTaO7
_chemical_formula_sum   'Tb2 Gd2 Tm2 Ta2 O14'
_cell_volume   298.25810889
_cell_formula_units_Z   2
loop_
 _symmetry_equiv_pos_site_id
 _symmetry_equiv_pos_as_xyz
  1  'x, y, z'
loop_
 _atom_site_type_symbol
 _atom_site_label
 _atom_site_symmetry_multiplicity
 _atom_site_fract_x
 _atom_site_fract_y
 _atom_site_fract_z
 _atom_site_occupancy
  Tb  Tb0  1  0.466059  0.999901  0.255470  1
  Tb  Tb1  1  0.000099  0.533941  0.244530  1
  Gd  Gd2  1  0.472709  0.474530  0.997809  1
  Gd  Gd3  1  0.525470  0.527291  0.502191  1
  Tm  Tm4  1  0.535006  0.000989  0.756011  1
  Tm  Tm5  1  0.999011  0.464994  0.743989  1
  Ta  Ta6  1  0.002980  0.002205  0.502484  1
  Ta  Ta7  1  0.997795  0.997020  0.997516  1
  O  O8  1  0.929587  0.070413  0.750000  1
  O  O9  1  0.643643  0.356357  0.750000  1
  O  O10  1  0.311437  0.052411  0.545037  1
  O  O11  1  0.947589  0.688563  0.954963  1
  O  O12  1  0.630720  0.369280  0.250000  1
  O  O13  1  0.923789  0.674474  0.531314  1
  O  O14  1  0.325526  0.076211  0.968686  1
  O  O15  1  0.079232  0.327070  0.023369  1
  O  O16  1  0.672930  0.920768  0.476631  1
  O  O17  1  0.366294  0.633706  0.750000  1
  O  O18  1  0.685622  0.940942  0.035830  1
  O  O19  1  0.059058  0.314378  0.464170  1
  O  O20  1  0.361318  0.638682  0.250000  1
  O  O21  1  0.064128  0.935872  0.250000  1
