# generated using pymatgen
data_SmEr3Tm(In2Pt)2
_symmetry_space_group_name_H-M   'P 1'
_cell_length_a   3.60071400
_cell_length_b   8.16212600
_cell_length_c   18.26527300
_cell_angle_alpha   89.99731979
_cell_angle_beta   90.00000000
_cell_angle_gamma   90.00000000
_symmetry_Int_Tables_number   1
_chemical_formula_structural   SmEr3Tm(In2Pt)2
_chemical_formula_sum   'Sm2 Er6 Tm2 In8 Pt4'
_cell_volume   536.80690004
_cell_formula_units_Z   2
loop_
 _symmetry_equiv_pos_site_id
 _symmetry_equiv_pos_as_xyz
  1  'x, y, z'
loop_
 _atom_site_type_symbol
 _atom_site_label
 _atom_site_symmetry_multiplicity
 _atom_site_fract_x
 _atom_site_fract_y
 _atom_site_fract_z
 _atom_site_occupancy
  Sm  Sm0  1  0.000000  0.000000  0.000000  1
  Sm  Sm1  1  0.000000  0.500000  0.500000  1
  Er  Er2  1  0.000000  0.382257  0.913940  1
  Er  Er3  1  0.000000  0.617743  0.086060  1
  Er  Er4  1  0.000000  0.242720  0.220231  1
  Er  Er5  1  0.000000  0.757280  0.779769  1
  Er  Er6  1  0.000000  0.257221  0.720152  1
  Er  Er7  1  0.000000  0.742779  0.279848  1
  Tm  Tm8  1  0.000000  0.117580  0.413665  1
  Tm  Tm9  1  0.000000  0.882420  0.586335  1
  In  In10  1  0.500000  0.422021  0.349616  1
  In  In11  1  0.500000  0.577979  0.650384  1
  In  In12  1  0.500000  0.077471  0.849491  1
  In  In13  1  0.500000  0.922529  0.150509  1
  In  In14  1  0.500000  0.296222  0.067208  1
  In  In15  1  0.500000  0.703778  0.932792  1
  In  In16  1  0.500000  0.203114  0.566987  1
  In  In17  1  0.500000  0.796886  0.433013  1
  Pt  Pt18  1  0.500000  0.024683  0.303602  1
  Pt  Pt19  1  0.500000  0.975317  0.696398  1
  Pt  Pt20  1  0.500000  0.475496  0.803308  1
  Pt  Pt21  1  0.500000  0.524504  0.196692  1
