# generated using pymatgen
data_PrNb10O18
_symmetry_space_group_name_H-M   'P 1'
_cell_length_a   7.88511057
_cell_length_b   9.36558900
_cell_length_c   10.34726700
_cell_angle_alpha   90.00000000
_cell_angle_beta   110.36712390
_cell_angle_gamma   90.00000000
_symmetry_Int_Tables_number   1
_chemical_formula_structural   PrNb10O18
_chemical_formula_sum   'Pr2 Nb20 O36'
_cell_volume   716.36012639
_cell_formula_units_Z   2
loop_
 _symmetry_equiv_pos_site_id
 _symmetry_equiv_pos_as_xyz
  1  'x, y, z'
loop_
 _atom_site_type_symbol
 _atom_site_label
 _atom_site_symmetry_multiplicity
 _atom_site_fract_x
 _atom_site_fract_y
 _atom_site_fract_z
 _atom_site_occupancy
  Pr  Pr0  1  0.000000  0.000000  0.000000  1
  Pr  Pr1  1  0.000000  0.500001  0.500000  1
  Nb  Nb2  1  0.803891  0.625118  0.021569  1
  Nb  Nb3  1  0.589390  0.119772  0.058055  1
  Nb  Nb4  1  0.183042  0.629728  0.124007  1
  Nb  Nb5  1  0.000931  0.382225  0.165037  1
  Nb  Nb6  1  0.596186  0.618674  0.229562  1
  Nb  Nb7  1  0.403814  0.118674  0.270439  1
  Nb  Nb8  1  0.999071  0.882225  0.334964  1
  Nb  Nb9  1  0.816959  0.129728  0.375993  1
  Nb  Nb10  1  0.410610  0.619773  0.441945  1
  Nb  Nb11  1  0.196110  0.125118  0.478430  1
  Nb  Nb12  1  0.803890  0.874883  0.521569  1
  Nb  Nb13  1  0.589390  0.380227  0.558055  1
  Nb  Nb14  1  0.183042  0.870272  0.624006  1
  Nb  Nb15  1  0.000930  0.117775  0.665037  1
  Nb  Nb16  1  0.596186  0.881326  0.729562  1
  Nb  Nb17  1  0.403815  0.381326  0.770439  1
  Nb  Nb18  1  0.999069  0.617774  0.834962  1
  Nb  Nb19  1  0.816958  0.370272  0.875993  1
  Nb  Nb20  1  0.410611  0.880227  0.941946  1
  Nb  Nb21  1  0.196110  0.374883  0.978430  1
  O  O22  1  0.811835  0.235939  0.036923  1
  O  O23  1  0.587020  0.745860  0.069926  1
  O  O24  1  0.374500  0.002442  0.098501  1
  O  O25  1  0.397518  0.500061  0.105603  1
  O  O26  1  0.189458  0.236126  0.135908  1
  O  O27  1  0.993764  0.775738  0.143371  1
  O  O28  1  0.803590  0.010746  0.196103  1
  O  O29  1  0.809194  0.510290  0.202999  1
  O  O30  1  0.586843  0.241966  0.228156  1
  O  O31  1  0.413159  0.741967  0.271845  1
  O  O32  1  0.190806  0.010290  0.297000  1
  O  O33  1  0.196410  0.510746  0.303897  1
  O  O34  1  0.006235  0.275738  0.356629  1
  O  O35  1  0.810542  0.736127  0.364092  1
  O  O36  1  0.602483  0.000060  0.394397  1
  O  O37  1  0.625498  0.502441  0.401498  1
  O  O38  1  0.412979  0.245860  0.430074  1
  O  O39  1  0.188166  0.735940  0.463076  1
  O  O40  1  0.811834  0.264062  0.536924  1
  O  O41  1  0.587019  0.754140  0.569925  1
  O  O42  1  0.374501  0.497559  0.598502  1
  O  O43  1  0.397517  0.999940  0.605603  1
  O  O44  1  0.189458  0.263872  0.635906  1
  O  O45  1  0.993764  0.724262  0.643370  1
  O  O46  1  0.803589  0.489254  0.696104  1
  O  O47  1  0.809195  0.989710  0.703000  1
  O  O48  1  0.586843  0.258033  0.728156  1
  O  O49  1  0.413158  0.758034  0.771845  1
  O  O50  1  0.190805  0.489710  0.797000  1
  O  O51  1  0.196409  0.989254  0.803897  1
  O  O52  1  0.006236  0.224262  0.856629  1
  O  O53  1  0.810542  0.763873  0.864093  1
  O  O54  1  0.602483  0.499939  0.894398  1
  O  O55  1  0.625499  0.997559  0.901498  1
  O  O56  1  0.412981  0.254140  0.930074  1
  O  O57  1  0.188166  0.764061  0.963076  1
