# generated using pymatgen
data_CaDy6Y(B6Ru)4
_symmetry_space_group_name_H-M   'P 1'
_cell_length_a   3.66704100
_cell_length_b   9.15895938
_cell_length_c   11.54682201
_cell_angle_alpha   89.88808566
_cell_angle_beta   90.00000000
_cell_angle_gamma   90.00000000
_symmetry_Int_Tables_number   1
_chemical_formula_structural   CaDy6Y(B6Ru)4
_chemical_formula_sum   'Ca1 Dy6 Y1 B24 Ru4'
_cell_volume   387.81405254
_cell_formula_units_Z   1
loop_
 _symmetry_equiv_pos_site_id
 _symmetry_equiv_pos_as_xyz
  1  'x, y, z'
loop_
 _atom_site_type_symbol
 _atom_site_label
 _atom_site_symmetry_multiplicity
 _atom_site_fract_x
 _atom_site_fract_y
 _atom_site_fract_z
 _atom_site_occupancy
  Ca  Ca0  1  0.000000  0.323145  0.413846  1
  Dy  Dy1  1  0.000000  0.823095  0.086372  1
  Dy  Dy2  1  0.000000  0.177307  0.914545  1
  Dy  Dy3  1  0.000000  0.944050  0.371057  1
  Dy  Dy4  1  0.000000  0.057915  0.628272  1
  Dy  Dy5  1  0.000000  0.443035  0.129646  1
  Dy  Dy6  1  0.000000  0.556134  0.872206  1
  Y  Y7  1  0.000000  0.675472  0.584990  1
  B  B8  1  0.500000  0.554493  0.432481  1
  B  B9  1  0.500000  0.446044  0.567804  1
  B  B10  1  0.500000  0.053309  0.066562  1
  B  B11  1  0.500000  0.945743  0.932390  1
  B  B12  1  0.500000  0.748290  0.419111  1
  B  B13  1  0.500000  0.252440  0.581370  1
  B  B14  1  0.500000  0.247189  0.080271  1
  B  B15  1  0.500000  0.752123  0.919647  1
  B  B16  1  0.500000  0.791444  0.266088  1
  B  B17  1  0.500000  0.209826  0.734198  1
  B  B18  1  0.500000  0.289641  0.232916  1
  B  B19  1  0.500000  0.709393  0.766614  1
  B  B20  1  0.500000  0.632600  0.185935  1
  B  B21  1  0.500000  0.368040  0.815116  1
  B  B22  1  0.500000  0.131179  0.313454  1
  B  B23  1  0.500000  0.868280  0.685422  1
  B  B24  1  0.500000  0.983627  0.211585  1
  B  B25  1  0.500000  0.016082  0.787449  1
  B  B26  1  0.500000  0.484773  0.287561  1
  B  B27  1  0.500000  0.515942  0.712913  1
  B  B28  1  0.500000  0.609071  0.030378  1
  B  B29  1  0.500000  0.391116  0.970353  1
  B  B30  1  0.500000  0.104826  0.470930  1
  B  B31  1  0.500000  0.893856  0.529336  1
  Ru  Ru32  1  0.000000  0.640065  0.320343  1
  Ru  Ru33  1  0.000000  0.361950  0.680682  1
  Ru  Ru34  1  0.000000  0.136384  0.176919  1
  Ru  Ru35  1  0.000000  0.862122  0.821236  1
