# generated using pymatgen
data_Ce3SmU4(ReB6)4
_symmetry_space_group_name_H-M   'P 1'
_cell_length_a   3.68488500
_cell_length_b   9.34566510
_cell_length_c   11.46188014
_cell_angle_alpha   89.99934833
_cell_angle_beta   90.00000000
_cell_angle_gamma   90.00000000
_symmetry_Int_Tables_number   1
_chemical_formula_structural   Ce3SmU4(ReB6)4
_chemical_formula_sum   'Ce3 Sm1 U4 Re4 B24'
_cell_volume   394.72080279
_cell_formula_units_Z   1
loop_
 _symmetry_equiv_pos_site_id
 _symmetry_equiv_pos_as_xyz
  1  'x, y, z'
loop_
 _atom_site_type_symbol
 _atom_site_label
 _atom_site_symmetry_multiplicity
 _atom_site_fract_x
 _atom_site_fract_y
 _atom_site_fract_z
 _atom_site_occupancy
  Ce  Ce0  1  0.000000  0.335761  0.407899  1
  Ce  Ce1  1  0.000000  0.664166  0.591999  1
  Ce  Ce2  1  0.000000  0.836167  0.092127  1
  Sm  Sm3  1  0.000000  0.163808  0.907992  1
  U  U4  1  0.000000  0.957833  0.396519  1
  U  U5  1  0.000000  0.042544  0.603483  1
  U  U6  1  0.000000  0.457186  0.103227  1
  U  U7  1  0.000000  0.541902  0.896453  1
  Re  Re8  1  0.000000  0.646943  0.318224  1
  Re  Re9  1  0.000000  0.353587  0.680639  1
  Re  Re10  1  0.000000  0.146464  0.182711  1
  Re  Re11  1  0.000000  0.852398  0.818346  1
  B  B12  1  0.500000  0.553401  0.429711  1
  B  B13  1  0.500000  0.446750  0.569861  1
  B  B14  1  0.500000  0.053489  0.070891  1
  B  B15  1  0.500000  0.945534  0.929835  1
  B  B16  1  0.500000  0.744521  0.422058  1
  B  B17  1  0.500000  0.255542  0.577904  1
  B  B18  1  0.500000  0.244808  0.078310  1
  B  B19  1  0.500000  0.755764  0.922342  1
  B  B20  1  0.500000  0.802928  0.274333  1
  B  B21  1  0.500000  0.197521  0.724987  1
  B  B22  1  0.500000  0.302966  0.225765  1
  B  B23  1  0.500000  0.696906  0.774485  1
  B  B24  1  0.500000  0.644606  0.188136  1
  B  B25  1  0.500000  0.355974  0.811631  1
  B  B26  1  0.500000  0.144591  0.311957  1
  B  B27  1  0.500000  0.855552  0.688254  1
  B  B28  1  0.500000  0.989927  0.219644  1
  B  B29  1  0.500000  0.009064  0.779807  1
  B  B30  1  0.500000  0.490080  0.279951  1
  B  B31  1  0.500000  0.509985  0.719818  1
  B  B32  1  0.500000  0.639187  0.038320  1
  B  B33  1  0.500000  0.362402  0.962207  1
  B  B34  1  0.500000  0.138863  0.462017  1
  B  B35  1  0.500000  0.860882  0.538156  1
