# generated using pymatgen
data_Lu4VB16W3
_symmetry_space_group_name_H-M   'P 1'
_cell_length_a   3.54183200
_cell_length_b   5.98413816
_cell_length_c   11.56498225
_cell_angle_alpha   89.97681779
_cell_angle_beta   90.00000000
_cell_angle_gamma   90.00000000
_symmetry_Int_Tables_number   1
_chemical_formula_structural   Lu4VB16W3
_chemical_formula_sum   'Lu4 V1 B16 W3'
_cell_volume   245.11760500
_cell_formula_units_Z   1
loop_
 _symmetry_equiv_pos_site_id
 _symmetry_equiv_pos_as_xyz
  1  'x, y, z'
loop_
 _atom_site_type_symbol
 _atom_site_label
 _atom_site_symmetry_multiplicity
 _atom_site_fract_x
 _atom_site_fract_y
 _atom_site_fract_z
 _atom_site_occupancy
  Lu  Lu0  1  0.000000  0.626358  0.351804  1
  Lu  Lu1  1  0.000000  0.376281  0.648293  1
  Lu  Lu2  1  0.000000  0.127480  0.150263  1
  Lu  Lu3  1  0.000000  0.872651  0.847459  1
  V  V4  1  0.000000  0.869998  0.583923  1
  B  B5  1  0.500000  0.789373  0.187537  1
  B  B6  1  0.500000  0.209313  0.811705  1
  B  B7  1  0.500000  0.290083  0.313486  1
  B  B8  1  0.500000  0.713302  0.685436  1
  B  B9  1  0.500000  0.868526  0.031866  1
  B  B10  1  0.500000  0.131607  0.967307  1
  B  B11  1  0.500000  0.368528  0.469926  1
  B  B12  1  0.500000  0.635028  0.533711  1
  B  B13  1  0.500000  0.882072  0.453664  1
  B  B14  1  0.500000  0.113396  0.550359  1
  B  B15  1  0.500000  0.384426  0.047786  1
  B  B16  1  0.500000  0.615949  0.951251  1
  B  B17  1  0.500000  0.975537  0.306349  1
  B  B18  1  0.500000  0.019492  0.693301  1
  B  B19  1  0.500000  0.477049  0.194662  1
  B  B20  1  0.500000  0.523755  0.804266  1
  W  W21  1  0.000000  0.632159  0.085201  1
  W  W22  1  0.000000  0.368045  0.914282  1
  W  W23  1  0.000000  0.129589  0.416161  1
