# generated using pymatgen
data_LaNd2Cr(Co4P3)2
_symmetry_space_group_name_H-M   'P 1'
_cell_length_a   3.77084400
_cell_length_b   10.71777900
_cell_length_c   12.40524200
_cell_angle_alpha   90.00000000
_cell_angle_beta   90.00000000
_cell_angle_gamma   90.00000000
_symmetry_Int_Tables_number   1
_chemical_formula_structural   LaNd2Cr(Co4P3)2
_chemical_formula_sum   'La2 Nd4 Cr2 Co16 P12'
_cell_volume   501.35875649
_cell_formula_units_Z   2
loop_
 _symmetry_equiv_pos_site_id
 _symmetry_equiv_pos_as_xyz
  1  'x, y, z'
loop_
 _atom_site_type_symbol
 _atom_site_label
 _atom_site_symmetry_multiplicity
 _atom_site_fract_x
 _atom_site_fract_y
 _atom_site_fract_z
 _atom_site_occupancy
  La  La0  1  0.000000  0.500000  0.524078  1
  La  La1  1  0.500000  0.000000  0.475922  1
  Nd  Nd2  1  0.500000  0.817787  0.204188  1
  Nd  Nd3  1  0.500000  0.182213  0.204188  1
  Nd  Nd4  1  0.000000  0.682213  0.795812  1
  Nd  Nd5  1  0.000000  0.317787  0.795812  1
  Cr  Cr6  1  0.500000  0.500000  0.153027  1
  Cr  Cr7  1  0.000000  0.000000  0.846973  1
  Co  Co8  1  0.500000  0.500000  0.704301  1
  Co  Co9  1  0.000000  0.000000  0.295699  1
  Co  Co10  1  0.000000  0.500000  0.988188  1
  Co  Co11  1  0.500000  0.000000  0.011812  1
  Co  Co12  1  0.500000  0.332927  0.994595  1
  Co  Co13  1  0.500000  0.667073  0.994595  1
  Co  Co14  1  0.000000  0.167073  0.005405  1
  Co  Co15  1  0.000000  0.832927  0.005405  1
  Co  Co16  1  0.500000  0.296791  0.429808  1
  Co  Co17  1  0.500000  0.703209  0.429808  1
  Co  Co18  1  0.000000  0.203209  0.570192  1
  Co  Co19  1  0.000000  0.796791  0.570192  1
  Co  Co20  1  0.500000  0.882071  0.711890  1
  Co  Co21  1  0.500000  0.117929  0.711890  1
  Co  Co22  1  0.000000  0.617929  0.288110  1
  Co  Co23  1  0.000000  0.382071  0.288110  1
  P  P24  1  0.500000  0.500000  0.886791  1
  P  P25  1  0.000000  0.000000  0.113209  1
  P  P26  1  0.500000  0.500000  0.339098  1
  P  P27  1  0.000000  0.000000  0.660902  1
  P  P28  1  0.500000  0.304278  0.615112  1
  P  P29  1  0.500000  0.695722  0.615112  1
  P  P30  1  0.000000  0.195722  0.384888  1
  P  P31  1  0.000000  0.804278  0.384888  1
  P  P32  1  0.500000  0.848466  0.895297  1
  P  P33  1  0.500000  0.151534  0.895297  1
  P  P34  1  0.000000  0.651534  0.104703  1
  P  P35  1  0.000000  0.348466  0.104703  1
