# generated using pymatgen
data_Tb5(Th3Ir2)3
_symmetry_space_group_name_H-M   'P 1'
_cell_length_a   9.94471100
_cell_length_b   10.04238377
_cell_length_c   6.33998847
_cell_angle_alpha   90.26836731
_cell_angle_beta   89.84528555
_cell_angle_gamma   120.48045343
_symmetry_Int_Tables_number   1
_chemical_formula_structural   Tb5(Th3Ir2)3
_chemical_formula_sum   'Tb5 Th9 Ir6'
_cell_volume   545.65769221
_cell_formula_units_Z   1
loop_
 _symmetry_equiv_pos_site_id
 _symmetry_equiv_pos_as_xyz
  1  'x, y, z'
loop_
 _atom_site_type_symbol
 _atom_site_label
 _atom_site_symmetry_multiplicity
 _atom_site_fract_x
 _atom_site_fract_y
 _atom_site_fract_z
 _atom_site_occupancy
  Tb  Tb0  1  0.458768  0.536481  0.299963  1
  Tb  Tb1  1  0.074532  0.536392  0.300600  1
  Tb  Tb2  1  0.924200  0.462097  0.798938  1
  Tb  Tb3  1  0.254442  0.128093  0.500485  1
  Tb  Tb4  1  0.539719  0.077853  0.795659  1
  Th  Th5  1  0.745424  0.874992  0.002934  1
  Th  Th6  1  0.665751  0.331923  0.281434  1
  Th  Th7  1  0.130317  0.873438  0.998923  1
  Th  Th8  1  0.457269  0.918378  0.299356  1
  Th  Th9  1  0.538686  0.459552  0.799427  1
  Th  Th10  1  0.876980  0.131494  0.503314  1
  Th  Th11  1  0.126680  0.253678  0.999237  1
  Th  Th12  1  0.873373  0.743718  0.500735  1
  Th  Th13  1  0.333961  0.666655  0.783741  1
  Ir  Ir14  1  0.811213  0.625341  0.052590  1
  Ir  Ir15  1  0.814016  0.188279  0.056622  1
  Ir  Ir16  1  0.626929  0.816139  0.550233  1
  Ir  Ir17  1  0.375721  0.189902  0.045473  1
  Ir  Ir18  1  0.184321  0.376245  0.558556  1
  Ir  Ir19  1  0.187696  0.809349  0.555781  1
