# generated using pymatgen
data_Tb2SmBe2Co9B4
_symmetry_space_group_name_H-M   'P 1'
_cell_length_a   5.06733800
_cell_length_b   5.06932874
_cell_length_c   9.36911100
_cell_angle_alpha   89.99995692
_cell_angle_beta   90.00009749
_cell_angle_gamma   119.98701032
_symmetry_Int_Tables_number   1
_chemical_formula_structural   Tb2SmBe2Co9B4
_chemical_formula_sum   'Tb2 Sm1 Be2 Co9 B4'
_cell_volume   208.45685267
_cell_formula_units_Z   1
loop_
 _symmetry_equiv_pos_site_id
 _symmetry_equiv_pos_as_xyz
  1  'x, y, z'
loop_
 _atom_site_type_symbol
 _atom_site_label
 _atom_site_symmetry_multiplicity
 _atom_site_fract_x
 _atom_site_fract_y
 _atom_site_fract_z
 _atom_site_occupancy
  Tb  Tb0  1  0.999993  0.000000  0.338309  1
  Tb  Tb1  1  0.999998  0.000000  0.661709  1
  Sm  Sm2  1  0.999992  0.000000  0.999971  1
  Be  Be3  1  0.333114  0.666243  0.999998  1
  Be  Be4  1  0.666871  0.333757  0.999998  1
  Co  Co5  1  0.499996  0.000000  0.500005  1
  Co  Co6  1  0.499996  0.500000  0.499993  1
  Co  Co7  1  0.999996  0.500000  0.499993  1
  Co  Co8  1  0.499992  0.000000  0.191272  1
  Co  Co9  1  0.499992  0.500000  0.191253  1
  Co  Co10  1  0.999992  0.500000  0.191253  1
  Co  Co11  1  0.499997  0.000000  0.808706  1
  Co  Co12  1  0.499997  0.500000  0.808750  1
  Co  Co13  1  0.999996  0.500000  0.808750  1
  B  B14  1  0.333259  0.666533  0.342363  1
  B  B15  1  0.666727  0.333467  0.342363  1
  B  B16  1  0.666754  0.333515  0.657658  1
  B  B17  1  0.333238  0.666485  0.657658  1
