# generated using pymatgen
data_Dy2Tm3Co19(Si3P)3
_symmetry_space_group_name_H-M   'P 1'
_cell_length_a   12.08476000
_cell_length_b   12.08475986
_cell_length_c   3.68523500
_cell_angle_alpha   90.00000000
_cell_angle_beta   90.00000000
_cell_angle_gamma   120.00000038
_symmetry_Int_Tables_number   1
_chemical_formula_structural   Dy2Tm3Co19(Si3P)3
_chemical_formula_sum   'Dy2 Tm3 Co19 Si9 P3'
_cell_volume   466.09223957
_cell_formula_units_Z   1
loop_
 _symmetry_equiv_pos_site_id
 _symmetry_equiv_pos_as_xyz
  1  'x, y, z'
loop_
 _atom_site_type_symbol
 _atom_site_label
 _atom_site_symmetry_multiplicity
 _atom_site_fract_x
 _atom_site_fract_y
 _atom_site_fract_z
 _atom_site_occupancy
  Dy  Dy0  1  0.666667  0.333333  0.000000  1
  Dy  Dy1  1  0.333333  0.666667  0.000000  1
  Tm  Tm2  1  0.184090  0.184090  0.500000  1
  Tm  Tm3  1  0.815910  0.000000  0.500000  1
  Tm  Tm4  1  0.000000  0.815910  0.500000  1
  Co  Co5  1  0.824503  0.196481  0.000000  1
  Co  Co6  1  0.803519  0.628021  0.000000  1
  Co  Co7  1  0.371979  0.175497  0.000000  1
  Co  Co8  1  0.196481  0.824503  0.000000  1
  Co  Co9  1  0.628021  0.803519  0.000000  1
  Co  Co10  1  0.175497  0.371979  0.000000  1
  Co  Co11  1  0.557608  0.557608  0.000000  1
  Co  Co12  1  0.442392  0.000000  0.000000  1
  Co  Co13  1  0.000000  0.442392  0.000000  1
  Co  Co14  1  0.645287  0.123315  0.500000  1
  Co  Co15  1  0.876685  0.521974  0.500000  1
  Co  Co16  1  0.478026  0.354713  0.500000  1
  Co  Co17  1  0.123315  0.645287  0.500000  1
  Co  Co18  1  0.521974  0.876685  0.500000  1
  Co  Co19  1  0.354713  0.478026  0.500000  1
  Co  Co20  1  0.723217  0.723217  0.500000  1
  Co  Co21  1  0.276783  0.000000  0.500000  1
  Co  Co22  1  0.000000  0.276783  0.500000  1
  Co  Co23  1  0.000000  0.000000  0.000000  1
  Si  Si24  1  0.368952  0.368952  0.000000  1
  Si  Si25  1  0.631048  0.000000  0.000000  1
  Si  Si26  1  0.000000  0.631048  0.000000  1
  Si  Si27  1  0.840742  0.318560  0.500000  1
  Si  Si28  1  0.681440  0.522182  0.500000  1
  Si  Si29  1  0.477818  0.159258  0.500000  1
  Si  Si30  1  0.318560  0.840742  0.500000  1
  Si  Si31  1  0.522182  0.681440  0.500000  1
  Si  Si32  1  0.159258  0.477818  0.500000  1
  P  P33  1  0.819825  0.819825  0.000000  1
  P  P34  1  0.180175  0.000000  0.000000  1
  P  P35  1  0.000000  0.180175  0.000000  1
