# generated using pymatgen
data_RbThTe3Au
_symmetry_space_group_name_H-M   'P 1'
_cell_length_a   8.62136045
_cell_length_b   8.62136065
_cell_length_c   11.61821900
_cell_angle_alpha   90.00000000
_cell_angle_beta   90.00000000
_cell_angle_gamma   149.57333056
_symmetry_Int_Tables_number   1
_chemical_formula_structural   RbThTe3Au
_chemical_formula_sum   'Rb2 Th2 Te6 Au2'
_cell_volume   437.33581406
_cell_formula_units_Z   2
loop_
 _symmetry_equiv_pos_site_id
 _symmetry_equiv_pos_as_xyz
  1  'x, y, z'
loop_
 _atom_site_type_symbol
 _atom_site_label
 _atom_site_symmetry_multiplicity
 _atom_site_fract_x
 _atom_site_fract_y
 _atom_site_fract_z
 _atom_site_occupancy
  Rb  Rb0  1  0.243649  0.756351  0.250000  1
  Rb  Rb1  1  0.756351  0.243649  0.750000  1
  Th  Th2  1  0.000000  0.000000  0.000000  1
  Th  Th3  1  0.000000  0.000000  0.500000  1
  Te  Te4  1  0.628055  0.371945  0.051223  1
  Te  Te5  1  0.928520  0.071481  0.250000  1
  Te  Te6  1  0.628055  0.371945  0.448777  1
  Te  Te7  1  0.371945  0.628055  0.551222  1
  Te  Te8  1  0.071481  0.928520  0.750000  1
  Te  Te9  1  0.371945  0.628055  0.948778  1
  Au  Au10  1  0.533806  0.466194  0.250000  1
  Au  Au11  1  0.466194  0.533806  0.750000  1
