# generated using pymatgen
data_Ti7Nb5Al8Co2(CuC2)2
_symmetry_space_group_name_H-M   'P 1'
_cell_length_a   8.16017730
_cell_length_b   8.16438268
_cell_length_c   8.13680500
_cell_angle_alpha   60.04902450
_cell_angle_beta   60.06046956
_cell_angle_gamma   59.96705826
_symmetry_Int_Tables_number   1
_chemical_formula_structural   Ti7Nb5Al8Co2(CuC2)2
_chemical_formula_sum   'Ti7 Nb5 Al8 Co2 Cu2 C4'
_cell_volume   383.54146049
_cell_formula_units_Z   1
loop_
 _symmetry_equiv_pos_site_id
 _symmetry_equiv_pos_as_xyz
  1  'x, y, z'
loop_
 _atom_site_type_symbol
 _atom_site_label
 _atom_site_symmetry_multiplicity
 _atom_site_fract_x
 _atom_site_fract_y
 _atom_site_fract_z
 _atom_site_occupancy
  Ti  Ti0  1  0.690745  0.312351  0.685159  1
  Ti  Ti1  1  0.938034  0.560994  0.558967  1
  Ti  Ti2  1  0.562525  0.936229  0.937114  1
  Ti  Ti3  1  0.936993  0.565450  0.940536  1
  Ti  Ti4  1  0.558859  0.566167  0.937564  1
  Ti  Ti5  1  0.937615  0.939513  0.564143  1
  Ti  Ti6  1  0.691154  0.684242  0.311690  1
  Nb  Nb7  1  0.309980  0.689147  0.691377  1
  Nb  Nb8  1  0.684362  0.314609  0.312408  1
  Nb  Nb9  1  0.312066  0.312741  0.683854  1
  Nb  Nb10  1  0.559779  0.937608  0.563885  1
  Nb  Nb11  1  0.313779  0.682673  0.311947  1
  Al  Al12  1  0.325935  0.334346  0.333564  1
  Al  Al13  1  0.248049  0.913816  0.916813  1
  Al  Al14  1  0.919041  0.250956  0.909994  1
  Al  Al15  1  0.921148  0.909788  0.249488  1
  Al  Al16  1  0.331077  0.000640  0.337820  1
  Al  Al17  1  0.330988  0.337379  0.001689  1
  Al  Al18  1  0.001229  0.336430  0.336511  1
  Al  Al19  1  0.922353  0.915057  0.914431  1
  Co  Co20  1  0.125477  0.624778  0.123908  1
  Co  Co21  1  0.125999  0.124410  0.625250  1
  Cu  Cu22  1  0.124650  0.126071  0.125228  1
  Cu  Cu23  1  0.625806  0.124765  0.125430  1
  C  C24  1  0.629811  0.618188  0.624378  1
  C  C25  1  0.113229  0.629109  0.629311  1
  C  C26  1  0.630106  0.122307  0.630153  1
  C  C27  1  0.629207  0.630237  0.117388  1
