# generated using pymatgen
data_Ho2ErSi6(Pd9Pt)2
_symmetry_space_group_name_H-M   'P 1'
_cell_length_a   8.73192509
_cell_length_b   8.73192555
_cell_length_c   8.73192627
_cell_angle_alpha   59.69878083
_cell_angle_beta   59.69877790
_cell_angle_gamma   59.69877868
_symmetry_Int_Tables_number   1
_chemical_formula_structural   Ho2ErSi6(Pd9Pt)2
_chemical_formula_sum   'Ho2 Er1 Si6 Pd18 Pt2'
_cell_volume   467.55566451
_cell_formula_units_Z   1
loop_
 _symmetry_equiv_pos_site_id
 _symmetry_equiv_pos_as_xyz
  1  'x, y, z'
loop_
 _atom_site_type_symbol
 _atom_site_label
 _atom_site_symmetry_multiplicity
 _atom_site_fract_x
 _atom_site_fract_y
 _atom_site_fract_z
 _atom_site_occupancy
  Ho  Ho0  1  0.250683  0.250683  0.250683  1
  Ho  Ho1  1  0.749317  0.749317  0.749317  1
  Er  Er2  1  0.000000  0.000000  0.000000  1
  Si  Si3  1  0.730682  0.267969  0.267969  1
  Si  Si4  1  0.269318  0.732031  0.732031  1
  Si  Si5  1  0.267969  0.730682  0.267969  1
  Si  Si6  1  0.732031  0.269318  0.732031  1
  Si  Si7  1  0.267969  0.267969  0.730682  1
  Si  Si8  1  0.732031  0.732031  0.269318  1
  Pd  Pd9  1  0.381754  0.381754  0.851231  1
  Pd  Pd10  1  0.381754  0.851231  0.381754  1
  Pd  Pd11  1  0.618246  0.618246  0.148769  1
  Pd  Pd12  1  0.618246  0.148769  0.618246  1
  Pd  Pd13  1  0.851231  0.381754  0.381754  1
  Pd  Pd14  1  0.148769  0.618246  0.618246  1
  Pd  Pd15  1  0.344852  0.000168  0.000168  1
  Pd  Pd16  1  0.655148  0.999832  0.999832  1
  Pd  Pd17  1  0.000000  0.344793  0.655207  1
  Pd  Pd18  1  0.000000  0.655207  0.344793  1
  Pd  Pd19  1  0.000168  0.344852  0.000168  1
  Pd  Pd20  1  0.655207  0.000000  0.344793  1
  Pd  Pd21  1  0.999832  0.655148  0.999832  1
  Pd  Pd22  1  0.344793  0.000000  0.655207  1
  Pd  Pd23  1  0.000168  0.000168  0.344852  1
  Pd  Pd24  1  0.999832  0.999832  0.655148  1
  Pd  Pd25  1  0.655207  0.344793  0.000000  1
  Pd  Pd26  1  0.344793  0.655207  0.000000  1
  Pt  Pt27  1  0.384101  0.384101  0.384101  1
  Pt  Pt28  1  0.615899  0.615899  0.615899  1
