# generated using pymatgen
data_Y8Zr9Si16W3
_symmetry_space_group_name_H-M   'P 1'
_cell_length_a   6.99995148
_cell_length_b   7.20987949
_cell_length_c   13.79971700
_cell_angle_alpha   90.00000000
_cell_angle_beta   90.00000000
_cell_angle_gamma   89.95774152
_symmetry_Int_Tables_number   1
_chemical_formula_structural   Y8Zr9Si16W3
_chemical_formula_sum   'Y8 Zr9 Si16 W3'
_cell_volume   696.45505870
_cell_formula_units_Z   1
loop_
 _symmetry_equiv_pos_site_id
 _symmetry_equiv_pos_as_xyz
  1  'x, y, z'
loop_
 _atom_site_type_symbol
 _atom_site_label
 _atom_site_symmetry_multiplicity
 _atom_site_fract_x
 _atom_site_fract_y
 _atom_site_fract_z
 _atom_site_occupancy
  Y  Y0  1  0.515725  0.676245  0.600202  1
  Y  Y1  1  0.015016  0.822297  0.900382  1
  Y  Y2  1  0.482669  0.325768  0.096137  1
  Y  Y3  1  0.984990  0.177467  0.403308  1
  Y  Y4  1  0.482669  0.325768  0.403863  1
  Y  Y5  1  0.984990  0.177467  0.096692  1
  Y  Y6  1  0.515725  0.676245  0.899798  1
  Y  Y7  1  0.015016  0.822297  0.599618  1
  Zr  Zr8  1  0.676800  0.174311  0.627122  1
  Zr  Zr9  1  0.177982  0.325398  0.873695  1
  Zr  Zr10  1  0.322068  0.823328  0.124085  1
  Zr  Zr11  1  0.825541  0.672887  0.375495  1
  Zr  Zr12  1  0.322068  0.823328  0.375915  1
  Zr  Zr13  1  0.825541  0.672887  0.124505  1
  Zr  Zr14  1  0.676800  0.174311  0.872878  1
  Zr  Zr15  1  0.177982  0.325398  0.626305  1
  Zr  Zr16  1  0.650338  0.997040  0.250000  1
  Si  Si17  1  0.654167  0.967508  0.460599  1
  Si  Si18  1  0.152367  0.531732  0.043164  1
  Si  Si19  1  0.347415  0.029645  0.954075  1
  Si  Si20  1  0.845559  0.467741  0.544593  1
  Si  Si21  1  0.347415  0.029645  0.545925  1
  Si  Si22  1  0.845559  0.467741  0.955407  1
  Si  Si23  1  0.654167  0.967508  0.039401  1
  Si  Si24  1  0.152367  0.531732  0.456836  1
  Si  Si25  1  0.479136  0.386704  0.750000  1
  Si  Si26  1  0.979401  0.115059  0.750000  1
  Si  Si27  1  0.519202  0.612620  0.250000  1
  Si  Si28  1  0.028138  0.879761  0.250000  1
  Si  Si29  1  0.717393  0.867682  0.750000  1
  Si  Si30  1  0.216573  0.632664  0.750000  1
  Si  Si31  1  0.273599  0.135692  0.250000  1
  Si  Si32  1  0.785257  0.373192  0.250000  1
  W  W33  1  0.851590  0.491145  0.750000  1
  W  W34  1  0.350398  0.010309  0.750000  1
  W  W35  1  0.148379  0.509472  0.250000  1
