# generated using pymatgen
data_NbVNi20B6W
_symmetry_space_group_name_H-M   'P 1'
_cell_length_a   7.44899702
_cell_length_b   7.44538655
_cell_length_c   7.45248795
_cell_angle_alpha   59.98011428
_cell_angle_beta   59.93501592
_cell_angle_gamma   59.96169025
_symmetry_Int_Tables_number   1
_chemical_formula_structural   NbVNi20B6W
_chemical_formula_sum   'Nb1 V1 Ni20 B6 W1'
_cell_volume   291.98907972
_cell_formula_units_Z   1
loop_
 _symmetry_equiv_pos_site_id
 _symmetry_equiv_pos_as_xyz
  1  'x, y, z'
loop_
 _atom_site_type_symbol
 _atom_site_label
 _atom_site_symmetry_multiplicity
 _atom_site_fract_x
 _atom_site_fract_y
 _atom_site_fract_z
 _atom_site_occupancy
  Nb  Nb0  1  0.749955  0.749957  0.750001  1
  V  V1  1  0.000007  0.999999  0.999997  1
  Ni  Ni2  1  0.339614  0.000878  0.000956  1
  Ni  Ni3  1  0.658576  0.000878  0.000918  1
  Ni  Ni4  1  0.000861  0.339597  0.658607  1
  Ni  Ni5  1  0.000904  0.658580  0.339583  1
  Ni  Ni6  1  0.000889  0.339491  0.000995  1
  Ni  Ni7  1  0.658589  0.000942  0.339488  1
  Ni  Ni8  1  0.000835  0.658714  0.000862  1
  Ni  Ni9  1  0.339592  0.000818  0.658703  1
  Ni  Ni10  1  0.000955  0.000955  0.339668  1
  Ni  Ni11  1  0.000839  0.000822  0.658557  1
  Ni  Ni12  1  0.658657  0.339441  0.000949  1
  Ni  Ni13  1  0.339531  0.658739  0.000847  1
  Ni  Ni14  1  0.382633  0.382483  0.382629  1
  Ni  Ni15  1  0.614544  0.614698  0.614452  1
  Ni  Ni16  1  0.382507  0.382576  0.852285  1
  Ni  Ni17  1  0.382654  0.852153  0.382635  1
  Ni  Ni18  1  0.614688  0.614639  0.156231  1
  Ni  Ni19  1  0.614583  0.156347  0.614517  1
  Ni  Ni20  1  0.852121  0.382637  0.382561  1
  Ni  Ni21  1  0.156430  0.614589  0.614571  1
  B  B22  1  0.732974  0.266947  0.266962  1
  B  B23  1  0.266966  0.733051  0.733086  1
  B  B24  1  0.267021  0.732901  0.267021  1
  B  B25  1  0.732974  0.267061  0.733001  1
  B  B26  1  0.266948  0.266980  0.732996  1
  B  B27  1  0.733072  0.733053  0.266990  1
  W  W28  1  0.250082  0.250074  0.249931  1
