# generated using pymatgen
data_Y3Tm17(In3Fe)2
_symmetry_space_group_name_H-M   'P 1'
_cell_length_a   9.69587800
_cell_length_b   9.69587779
_cell_length_c   9.70183000
_cell_angle_alpha   90.00000000
_cell_angle_beta   90.00000000
_cell_angle_gamma   119.99999388
_symmetry_Int_Tables_number   1
_chemical_formula_structural   Y3Tm17(In3Fe)2
_chemical_formula_sum   'Y3 Tm17 In6 Fe2'
_cell_volume   789.87541086
_cell_formula_units_Z   1
loop_
 _symmetry_equiv_pos_site_id
 _symmetry_equiv_pos_as_xyz
  1  'x, y, z'
loop_
 _atom_site_type_symbol
 _atom_site_label
 _atom_site_symmetry_multiplicity
 _atom_site_fract_x
 _atom_site_fract_y
 _atom_site_fract_z
 _atom_site_occupancy
  Y  Y0  1  0.461245  0.538755  0.750000  1
  Y  Y1  1  0.461245  0.922490  0.750000  1
  Y  Y2  1  0.077510  0.538755  0.750000  1
  Tm  Tm3  1  0.000000  0.000000  0.499202  1
  Tm  Tm4  1  0.000000  0.000000  0.000798  1
  Tm  Tm5  1  0.539478  0.460522  0.250000  1
  Tm  Tm6  1  0.539478  0.078955  0.250000  1
  Tm  Tm7  1  0.921045  0.460522  0.250000  1
  Tm  Tm8  1  0.212129  0.787871  0.432884  1
  Tm  Tm9  1  0.212129  0.424258  0.432884  1
  Tm  Tm10  1  0.575742  0.787871  0.432884  1
  Tm  Tm11  1  0.787285  0.212715  0.565081  1
  Tm  Tm12  1  0.787285  0.574566  0.565081  1
  Tm  Tm13  1  0.425434  0.212715  0.565081  1
  Tm  Tm14  1  0.787285  0.212715  0.934919  1
  Tm  Tm15  1  0.787285  0.574566  0.934919  1
  Tm  Tm16  1  0.425434  0.212715  0.934919  1
  Tm  Tm17  1  0.212129  0.787871  0.067116  1
  Tm  Tm18  1  0.212129  0.424258  0.067116  1
  Tm  Tm19  1  0.575742  0.787871  0.067116  1
  In  In20  1  0.883227  0.116773  0.250000  1
  In  In21  1  0.883227  0.766454  0.250000  1
  In  In22  1  0.233546  0.116773  0.250000  1
  In  In23  1  0.115725  0.884275  0.750000  1
  In  In24  1  0.115725  0.231449  0.750000  1
  In  In25  1  0.768551  0.884275  0.750000  1
  Fe  Fe26  1  0.333333  0.666667  0.250000  1
  Fe  Fe27  1  0.666667  0.333333  0.750000  1
