# generated using pymatgen
data_La7NdYPt6
_symmetry_space_group_name_H-M   'P 1'
_cell_length_a   7.80312583
_cell_length_b   7.80312599
_cell_length_c   7.80312604
_cell_angle_alpha   71.84220556
_cell_angle_beta   71.84220444
_cell_angle_gamma   71.84220889
_symmetry_Int_Tables_number   1
_chemical_formula_structural   La7NdYPt6
_chemical_formula_sum   'La7 Nd1 Y1 Pt6'
_cell_volume   416.69663720
_cell_formula_units_Z   1
loop_
 _symmetry_equiv_pos_site_id
 _symmetry_equiv_pos_as_xyz
  1  'x, y, z'
loop_
 _atom_site_type_symbol
 _atom_site_label
 _atom_site_symmetry_multiplicity
 _atom_site_fract_x
 _atom_site_fract_y
 _atom_site_fract_z
 _atom_site_occupancy
  La  La0  1  0.199485  0.199485  0.199485  1
  La  La1  1  0.327930  0.611127  0.835912  1
  La  La2  1  0.835912  0.327930  0.611127  1
  La  La3  1  0.611127  0.835912  0.327930  1
  La  La4  1  0.672245  0.390037  0.163298  1
  La  La5  1  0.163298  0.672245  0.390037  1
  La  La6  1  0.390037  0.163298  0.672245  1
  Nd  Nd7  1  0.800726  0.800726  0.800726  1
  Y  Y8  1  0.999728  0.999728  0.999728  1
  Pt  Pt9  1  0.162346  0.959515  0.594869  1
  Pt  Pt10  1  0.594869  0.162346  0.959515  1
  Pt  Pt11  1  0.959515  0.594869  0.162346  1
  Pt  Pt12  1  0.837468  0.039643  0.405671  1
  Pt  Pt13  1  0.405671  0.837468  0.039643  1
  Pt  Pt14  1  0.039643  0.405671  0.837468  1
