# generated using pymatgen
data_NaPr2(HoSn2)2
_symmetry_space_group_name_H-M   'P 1'
_cell_length_a   8.00532100
_cell_length_b   8.38570500
_cell_length_c   15.66847400
_cell_angle_alpha   90.00000000
_cell_angle_beta   90.00000000
_cell_angle_gamma   90.00000000
_symmetry_Int_Tables_number   1
_chemical_formula_structural   NaPr2(HoSn2)2
_chemical_formula_sum   'Na4 Pr8 Ho8 Sn16'
_cell_volume   1051.82873869
_cell_formula_units_Z   4
loop_
 _symmetry_equiv_pos_site_id
 _symmetry_equiv_pos_as_xyz
  1  'x, y, z'
loop_
 _atom_site_type_symbol
 _atom_site_label
 _atom_site_symmetry_multiplicity
 _atom_site_fract_x
 _atom_site_fract_y
 _atom_site_fract_z
 _atom_site_occupancy
  Na  Na0  1  0.166403  0.496913  0.750000  1
  Na  Na1  1  0.666403  0.003087  0.750000  1
  Na  Na2  1  0.833597  0.503087  0.250000  1
  Na  Na3  1  0.333597  0.996913  0.250000  1
  Pr  Pr4  1  0.493584  0.317638  0.902879  1
  Pr  Pr5  1  0.993584  0.182362  0.597121  1
  Pr  Pr6  1  0.506416  0.682362  0.402879  1
  Pr  Pr7  1  0.006416  0.817638  0.097121  1
  Pr  Pr8  1  0.506416  0.682362  0.097121  1
  Pr  Pr9  1  0.006416  0.817638  0.402879  1
  Pr  Pr10  1  0.493584  0.317638  0.597121  1
  Pr  Pr11  1  0.993584  0.182362  0.902879  1
  Ho  Ho12  1  0.337930  0.827515  0.874582  1
  Ho  Ho13  1  0.837930  0.672485  0.625418  1
  Ho  Ho14  1  0.662070  0.172485  0.374582  1
  Ho  Ho15  1  0.162070  0.327515  0.125418  1
  Ho  Ho16  1  0.662070  0.172485  0.125418  1
  Ho  Ho17  1  0.162070  0.327515  0.374582  1
  Ho  Ho18  1  0.337930  0.827515  0.625418  1
  Ho  Ho19  1  0.837930  0.672485  0.874582  1
  Sn  Sn20  1  0.326219  0.040116  0.037485  1
  Sn  Sn21  1  0.826219  0.459884  0.462515  1
  Sn  Sn22  1  0.673781  0.959884  0.537485  1
  Sn  Sn23  1  0.173781  0.540116  0.962515  1
  Sn  Sn24  1  0.673781  0.959884  0.962515  1
  Sn  Sn25  1  0.173781  0.540116  0.537485  1
  Sn  Sn26  1  0.326219  0.040116  0.462515  1
  Sn  Sn27  1  0.826219  0.459884  0.037485  1
  Sn  Sn28  1  0.534604  0.611537  0.750000  1
  Sn  Sn29  1  0.034604  0.888463  0.750000  1
  Sn  Sn30  1  0.465396  0.388463  0.250000  1
  Sn  Sn31  1  0.965396  0.111537  0.250000  1
  Sn  Sn32  1  0.293435  0.132002  0.750000  1
  Sn  Sn33  1  0.793435  0.367998  0.750000  1
  Sn  Sn34  1  0.706565  0.867998  0.250000  1
  Sn  Sn35  1  0.206565  0.632002  0.250000  1
