# generated using pymatgen
data_NaHf7Zr(In2Co)7
_symmetry_space_group_name_H-M   'P 1'
_cell_length_a   9.42573010
_cell_length_b   9.42569910
_cell_length_c   9.42905929
_cell_angle_alpha   60.01162923
_cell_angle_beta   60.01127566
_cell_angle_gamma   59.99998820
_symmetry_Int_Tables_number   1
_chemical_formula_structural   NaHf7Zr(In2Co)7
_chemical_formula_sum   'Na1 Hf7 Zr1 In14 Co7'
_cell_volume   592.45730340
_cell_formula_units_Z   1
loop_
 _symmetry_equiv_pos_site_id
 _symmetry_equiv_pos_as_xyz
  1  'x, y, z'
loop_
 _atom_site_type_symbol
 _atom_site_label
 _atom_site_symmetry_multiplicity
 _atom_site_fract_x
 _atom_site_fract_y
 _atom_site_fract_z
 _atom_site_occupancy
  Na  Na0  1  0.499975  0.499979  0.500071  1
  Hf  Hf1  1  0.119865  0.640220  0.120057  1
  Hf  Hf2  1  0.359982  0.879489  0.881038  1
  Hf  Hf3  1  0.879493  0.879493  0.881031  1
  Hf  Hf4  1  0.640208  0.119865  0.120058  1
  Hf  Hf5  1  0.880091  0.880079  0.359746  1
  Hf  Hf6  1  0.119870  0.119860  0.120062  1
  Hf  Hf7  1  0.879489  0.359994  0.881026  1
  Zr  Zr8  1  0.121870  0.121871  0.634390  1
  In  In9  1  0.500088  0.842740  0.157078  1
  In  In10  1  0.500294  0.842491  0.500139  1
  In  In11  1  0.500289  0.157076  0.500144  1
  In  In12  1  0.499922  0.499923  0.843121  1
  In  In13  1  0.157075  0.500300  0.500136  1
  In  In14  1  0.842491  0.157075  0.500147  1
  In  In15  1  0.157077  0.842490  0.500137  1
  In  In16  1  0.499925  0.157035  0.843122  1
  In  In17  1  0.157034  0.499927  0.843119  1
  In  In18  1  0.500082  0.500103  0.157075  1
  In  In19  1  0.842491  0.500295  0.500141  1
  In  In20  1  0.842740  0.500100  0.157075  1
  In  In21  1  0.251102  0.251101  0.246696  1
  In  In22  1  0.750251  0.750249  0.749250  1
  Co  Co23  1  0.784715  0.784715  0.215313  1
  Co  Co24  1  0.999596  0.999588  0.001219  1
  Co  Co25  1  0.215260  0.784710  0.215318  1
  Co  Co26  1  0.215058  0.783890  0.785993  1
  Co  Co27  1  0.215046  0.215046  0.786004  1
  Co  Co28  1  0.783893  0.215054  0.785997  1
  Co  Co29  1  0.784730  0.215241  0.215298  1
