# generated using pymatgen
data_Sr3(Li2Pb)4
_symmetry_space_group_name_H-M   'P 1'
_cell_length_a   10.07633510
_cell_length_b   10.07022753
_cell_length_c   8.43335500
_cell_angle_alpha   90.00000000
_cell_angle_beta   90.00000000
_cell_angle_gamma   119.93997726
_symmetry_Int_Tables_number   1
_chemical_formula_structural   Sr3(Li2Pb)4
_chemical_formula_sum   'Sr6 Li16 Pb8'
_cell_volume   741.54114913
_cell_formula_units_Z   2
loop_
 _symmetry_equiv_pos_site_id
 _symmetry_equiv_pos_as_xyz
  1  'x, y, z'
loop_
 _atom_site_type_symbol
 _atom_site_label
 _atom_site_symmetry_multiplicity
 _atom_site_fract_x
 _atom_site_fract_y
 _atom_site_fract_z
 _atom_site_occupancy
  Sr  Sr0  1  0.479392  0.958780  0.512471  1
  Sr  Sr1  1  0.041200  0.520605  0.512444  1
  Sr  Sr2  1  0.479407  0.520608  0.512742  1
  Sr  Sr3  1  0.520608  0.041220  0.012471  1
  Sr  Sr4  1  0.958800  0.479395  0.012444  1
  Sr  Sr5  1  0.520593  0.479392  0.012742  1
  Li  Li6  1  0.834072  0.668085  0.652795  1
  Li  Li7  1  0.331965  0.165943  0.652855  1
  Li  Li8  1  0.834024  0.165956  0.652644  1
  Li  Li9  1  0.165928  0.331915  0.152795  1
  Li  Li10  1  0.668035  0.834057  0.152855  1
  Li  Li11  1  0.165976  0.834044  0.152644  1
  Li  Li12  1  0.888488  0.777261  0.963555  1
  Li  Li13  1  0.222757  0.111485  0.963609  1
  Li  Li14  1  0.888629  0.111320  0.963476  1
  Li  Li15  1  0.111512  0.222739  0.463555  1
  Li  Li16  1  0.777243  0.888515  0.463609  1
  Li  Li17  1  0.111371  0.888680  0.463476  1
  Li  Li18  1  0.666686  0.333323  0.373097  1
  Li  Li19  1  0.333314  0.666677  0.873097  1
  Li  Li20  1  0.999992  0.999999  0.225140  1
  Li  Li21  1  0.000008  0.000001  0.725140  1
  Pb  Pb22  1  0.835194  0.670315  0.289357  1
  Pb  Pb23  1  0.329815  0.164803  0.289180  1
  Pb  Pb24  1  0.835082  0.164842  0.289323  1
  Pb  Pb25  1  0.164806  0.329685  0.789357  1
  Pb  Pb26  1  0.670185  0.835197  0.789180  1
  Pb  Pb27  1  0.164918  0.835158  0.789323  1
  Pb  Pb28  1  0.666734  0.333333  0.730028  1
  Pb  Pb29  1  0.333266  0.666667  0.230028  1
