# generated using pymatgen
data_Ba3LiIrO6
_symmetry_space_group_name_H-M   'P 1'
_cell_length_a   7.08534735
_cell_length_b   7.08534748
_cell_length_c   7.08534729
_cell_angle_alpha   92.99646970
_cell_angle_beta   92.99646994
_cell_angle_gamma   92.99647003
_symmetry_Int_Tables_number   1
_chemical_formula_structural   Ba3LiIrO6
_chemical_formula_sum   'Ba6 Li2 Ir2 O12'
_cell_volume   354.18764374
_cell_formula_units_Z   2
loop_
 _symmetry_equiv_pos_site_id
 _symmetry_equiv_pos_as_xyz
  1  'x, y, z'
loop_
 _atom_site_type_symbol
 _atom_site_label
 _atom_site_symmetry_multiplicity
 _atom_site_fract_x
 _atom_site_fract_y
 _atom_site_fract_z
 _atom_site_occupancy
  Ba  Ba0  1  0.750000  0.394227  0.105773  1
  Ba  Ba1  1  0.105773  0.750000  0.394227  1
  Ba  Ba2  1  0.394227  0.105773  0.750000  1
  Ba  Ba3  1  0.250000  0.605773  0.894227  1
  Ba  Ba4  1  0.894227  0.250000  0.605773  1
  Ba  Ba5  1  0.605773  0.894227  0.250000  1
  Li  Li6  1  0.250000  0.250000  0.250000  1
  Li  Li7  1  0.750000  0.750000  0.750000  1
  Ir  Ir8  1  0.000000  0.000000  0.000000  1
  Ir  Ir9  1  0.500000  0.500000  0.500000  1
  O  O10  1  0.457742  0.768899  0.588508  1
  O  O11  1  0.588508  0.457742  0.768899  1
  O  O12  1  0.768899  0.588508  0.457742  1
  O  O13  1  0.042258  0.911492  0.731101  1
  O  O14  1  0.731101  0.042258  0.911492  1
  O  O15  1  0.911492  0.731101  0.042258  1
  O  O16  1  0.542258  0.231101  0.411492  1
  O  O17  1  0.411492  0.542258  0.231101  1
  O  O18  1  0.231101  0.411492  0.542258  1
  O  O19  1  0.957742  0.088508  0.268899  1
  O  O20  1  0.088508  0.268899  0.957742  1
  O  O21  1  0.268899  0.957742  0.088508  1
