# generated using pymatgen
data_TbY5Sc2O12
_symmetry_space_group_name_H-M   'P 1'
_cell_length_a   6.62838774
_cell_length_b   6.62711052
_cell_length_c   6.62541202
_cell_angle_alpha   91.99225610
_cell_angle_beta   91.99341374
_cell_angle_gamma   92.00084899
_symmetry_Int_Tables_number   1
_chemical_formula_structural   TbY5Sc2O12
_chemical_formula_sum   'Tb1 Y5 Sc2 O12'
_cell_volume   290.49274021
_cell_formula_units_Z   1
loop_
 _symmetry_equiv_pos_site_id
 _symmetry_equiv_pos_as_xyz
  1  'x, y, z'
loop_
 _atom_site_type_symbol
 _atom_site_label
 _atom_site_symmetry_multiplicity
 _atom_site_fract_x
 _atom_site_fract_y
 _atom_site_fract_z
 _atom_site_occupancy
  Tb  Tb0  1  0.747128  0.931880  0.439303  1
  Y  Y1  1  0.931850  0.439278  0.747152  1
  Y  Y2  1  0.439241  0.747144  0.931806  1
  Y  Y3  1  0.252893  0.068236  0.560733  1
  Y  Y4  1  0.068240  0.560685  0.252867  1
  Y  Y5  1  0.560670  0.252891  0.068166  1
  Sc  Sc6  1  0.499924  0.499871  0.499941  1
  Sc  Sc7  1  0.000100  0.999990  0.999929  1
  O  O8  1  0.592850  0.463023  0.805896  1
  O  O9  1  0.462735  0.805716  0.593033  1
  O  O10  1  0.805887  0.592405  0.463072  1
  O  O11  1  0.407189  0.537024  0.194122  1
  O  O12  1  0.536571  0.194453  0.407102  1
  O  O13  1  0.194085  0.407160  0.536993  1
  O  O14  1  0.069663  0.914282  0.305649  1
  O  O15  1  0.914331  0.305752  0.069368  1
  O  O16  1  0.694278  0.930764  0.085385  1
  O  O17  1  0.085617  0.694229  0.930660  1
  O  O18  1  0.930959  0.085881  0.694475  1
  O  O19  1  0.305788  0.069337  0.914349  1
