# generated using pymatgen
data_Dy3Y(ErBi)6
_symmetry_space_group_name_H-M   'P 1'
_cell_length_a   8.23652900
_cell_length_b   9.48064300
_cell_length_c   12.04492700
_cell_angle_alpha   90.00000000
_cell_angle_beta   90.00000000
_cell_angle_gamma   90.00000000
_symmetry_Int_Tables_number   1
_chemical_formula_structural   Dy3Y(ErBi)6
_chemical_formula_sum   'Dy6 Y2 Er12 Bi12'
_cell_volume   940.55933330
_cell_formula_units_Z   2
loop_
 _symmetry_equiv_pos_site_id
 _symmetry_equiv_pos_as_xyz
  1  'x, y, z'
loop_
 _atom_site_type_symbol
 _atom_site_label
 _atom_site_symmetry_multiplicity
 _atom_site_fract_x
 _atom_site_fract_y
 _atom_site_fract_z
 _atom_site_occupancy
  Dy  Dy0  1  0.186474  0.750000  0.718877  1
  Dy  Dy1  1  0.686474  0.750000  0.781123  1
  Dy  Dy2  1  0.813518  0.250000  0.281149  1
  Dy  Dy3  1  0.313518  0.250000  0.218851  1
  Dy  Dy4  1  0.353861  0.750000  0.215826  1
  Dy  Dy5  1  0.853861  0.750000  0.284174  1
  Y  Y6  1  0.646274  0.250000  0.784448  1
  Y  Y7  1  0.146274  0.250000  0.715552  1
  Er  Er8  1  0.025675  0.750000  0.988960  1
  Er  Er9  1  0.525675  0.750000  0.511040  1
  Er  Er10  1  0.974154  0.250000  0.011263  1
  Er  Er11  1  0.474154  0.250000  0.488737  1
  Er  Er12  1  0.306317  0.436138  0.940391  1
  Er  Er13  1  0.806317  0.063862  0.559609  1
  Er  Er14  1  0.693670  0.935713  0.059874  1
  Er  Er15  1  0.193670  0.564287  0.440126  1
  Er  Er16  1  0.693670  0.564287  0.059874  1
  Er  Er17  1  0.193670  0.935713  0.440126  1
  Er  Er18  1  0.306317  0.063862  0.940391  1
  Er  Er19  1  0.806317  0.436138  0.559609  1
  Bi  Bi20  1  0.433674  0.003618  0.673198  1
  Bi  Bi21  1  0.933674  0.496382  0.826802  1
  Bi  Bi22  1  0.566401  0.503851  0.326745  1
  Bi  Bi23  1  0.066401  0.996149  0.173255  1
  Bi  Bi24  1  0.566401  0.996149  0.326745  1
  Bi  Bi25  1  0.066401  0.503851  0.173255  1
  Bi  Bi26  1  0.433674  0.496382  0.673198  1
  Bi  Bi27  1  0.933674  0.003618  0.826802  1
  Bi  Bi28  1  0.408524  0.750000  0.957975  1
  Bi  Bi29  1  0.908524  0.750000  0.542025  1
  Bi  Bi30  1  0.591397  0.250000  0.042026  1
  Bi  Bi31  1  0.091397  0.250000  0.457974  1
